REMARK SMILES CC1(C)S[C@H](c2ccc(-c3ccccc3)o2)[NH2+][C@H]1C(=O)OCCOCCOC(=O)c1ccc(-c2c3nc(c(-c4c(F)cc(S(=O)(=O)[O-])cc4F)c4ccc([nH]4)c(-c4c(F)cc(S(=O)(=O)[O-])cc4F)c4nc(c(-c5c(F)cc(S(=O)(=O)[O-])cc5F)c5ccc2[nH]5)C=C4)C=C3)cc1
REMARK SMILES IDX 25 1 24 2 23 3 22 4 21 5 19 6 20 7 18 8 1 9 2 10 3 11 4 12
REMARK SMILES IDX 5 13 17 14 6 17 7 18 16 19 8 20 9 21 10 22 11 23 15 24 12 25
REMARK SMILES IDX 14 26 13 27 26 28 27 29 28 30 29 31 30 32 31 33 95 34 32 35
REMARK SMILES IDX 94 36 33 37 34 38 35 39 88 40 36 41 93 42 87 43 89 44 37 45
REMARK SMILES IDX 92 46 86 47 85 48 38 50 72 51 51 52 71 53 52 54 55 55 70 56
REMARK SMILES IDX 90 57 53 58 54 59 69 61 91 62 56 63 39 64 40 65 49 66 41 67
REMARK SMILES IDX 42 68 48 69 50 70 43 71 44 72 45 73 46 74 47 75 73 76 74 77
REMARK SMILES IDX 83 78 75 79 76 80 82 81 84 82 77 83 78 84 79 85 80 86 81 87
REMARK SMILES IDX 57 88 58 89 67 90 59 91 60 92 66 93 68 94 61 95 62 96 63 97
REMARK SMILES IDX 64 98 65 99
REMARK H PARENT 17 15 17 16 89 49 55 60
REMARK Flexibility Score: inf
ROOT
ATOM      1  C   UNL     1       2.874   3.268  -0.850  1.00  0.00     0.202 C 
ENDROOT
BRANCH   1   2
ATOM      2  O   UNL     1       2.575   4.603  -0.456  1.00  0.00    -0.374 OA
BRANCH   2   3
ATOM      3  C   UNL     1       1.911   4.760   0.801  1.00  0.00     0.202 C 
BRANCH   3   4
ATOM      4  C   UNL     1       0.390   4.557   0.804  1.00  0.00     0.261 C 
BRANCH   4   5
ATOM      5  O   UNL     1       0.020   3.164   0.712  1.00  0.00    -0.459 OA
BRANCH   5   6
ATOM      6  C   UNL     1      -0.335   2.722  -0.526  1.00  0.00     0.366 C 
ATOM      7  O   UNL     1      -0.368   3.427  -1.528  1.00  0.00    -0.245 OA
BRANCH   6   8
ATOM      8  C   UNL     1      -0.683   1.227  -0.549  1.00  0.00     0.310 C 
ATOM      9  C   UNL     1       1.041   0.536   1.319  1.00  0.00     0.030 C 
ATOM     10  C   UNL     1       0.370   0.217  -0.023  1.00  0.00     0.079 C 
ATOM     11  C   UNL     1       1.406  -0.151  -1.091  1.00  0.00     0.030 C 
ATOM     12  S   UNL     1      -0.646  -1.289   0.286  1.00  0.00    -0.078 SA
ATOM     13  C   UNL     1      -2.236  -0.437   0.046  1.00  0.00     0.311 C 
ATOM     14  N   UNL     1      -1.967   0.998   0.164  1.00  0.00    -0.316 N 
ATOM     15  H   UNL     1      -1.881   1.264   1.144  1.00  0.00     0.348 HD
ATOM     16  H   UNL     1      -2.722   1.556  -0.234  1.00  0.00     0.348 HD
BRANCH  13  17
ATOM     17  C   UNL     1      -2.859  -0.867  -1.253  1.00  0.00     0.172 A 
ATOM     18  C   UNL     1      -3.333  -2.098  -1.673  1.00  0.00     0.054 A 
ATOM     19  O   UNL     1      -3.040   0.054  -2.257  1.00  0.00    -0.454 OA
ATOM     20  C   UNL     1      -3.847  -1.916  -2.975  1.00  0.00     0.051 A 
ATOM     21  C   UNL     1      -3.655  -0.589  -3.291  1.00  0.00     0.134 A 
BRANCH  21  22
ATOM     22  C   UNL     1      -4.018   0.205  -4.452  1.00  0.00     0.017 A 
ATOM     23  C   UNL     1      -3.052   0.862  -5.222  1.00  0.00     0.012 A 
ATOM     24  C   UNL     1      -5.359   0.253  -4.859  1.00  0.00     0.012 A 
ATOM     25  C   UNL     1      -3.420   1.528  -6.396  1.00  0.00     0.001 A 
ATOM     26  C   UNL     1      -5.728   0.929  -6.023  1.00  0.00     0.001 A 
ATOM     27  C   UNL     1      -4.756   1.558  -6.798  1.00  0.00     0.000 A 
ENDBRANCH  21  22
ENDBRANCH  13  17
ENDBRANCH   6   8
ENDBRANCH   5   6
ENDBRANCH   4   5
ENDBRANCH   3   4
ENDBRANCH   2   3
ENDBRANCH   1   2
BRANCH   1  28
ATOM     28  C   UNL     1       4.180   2.669  -0.315  1.00  0.00     0.261 C 
BRANCH  28  29
ATOM     29  O   UNL     1       4.156   2.542   1.116  1.00  0.00    -0.460 OA
BRANCH  29  30
ATOM     30  C   UNL     1       4.830   3.518   1.769  1.00  0.00     0.338 C 
ATOM     31  O   UNL     1       5.526   4.389   1.265  1.00  0.00    -0.246 OA
BRANCH  30  32
ATOM     32  C   UNL     1       4.467   3.521   3.199  1.00  0.00     0.060 A 
ATOM     33  C   UNL     1       4.210   4.767   3.783  1.00  0.00     0.016 A 
ATOM     34  C   UNL     1       4.427   2.355   3.969  1.00  0.00     0.016 A 
ATOM     35  C   UNL     1       3.994   4.863   5.154  1.00  0.00     0.010 A 
ATOM     36  C   UNL     1       4.207   2.454   5.348  1.00  0.00     0.010 A 
ATOM     37  C   UNL     1       4.040   3.714   5.952  1.00  0.00    -0.014 A 
BRANCH  37  38
ATOM     38  C   UNL     1       4.086   3.868   7.427  1.00  0.00     0.031 A 
ATOM     39  C   UNL     1       5.411   3.728   8.132  1.00  0.00     0.074 A 
ATOM     40  C   UNL     1       2.981   4.196   8.119  1.00  0.00     0.049 A 
ATOM     41  N   UNL     1       5.691   3.847   9.403  1.00  0.00    -0.248 NA
ATOM     42  C   UNL     1       6.575   3.411   7.288  1.00  0.00     0.031 C 
ATOM     43  C   UNL     1       1.652   4.394   7.541  1.00  0.00     0.029 A 
ATOM     44  N   UNL     1       2.802   4.427   9.460  1.00  0.00    -0.354 N 
ATOM     45  C   UNL     1       7.058   3.615   9.514  1.00  0.00     0.074 A 
ATOM     46  C   UNL     1       7.544   3.310   8.187  1.00  0.00     0.031 C 
ATOM     47  C   UNL     1       0.793   4.716   8.523  1.00  0.00     0.029 A 
ATOM     48  C   UNL     1       1.503   4.719   9.801  1.00  0.00     0.049 A 
ATOM     49  H   UNL     1       3.535   4.387  10.116  1.00  0.00     0.167 HD
ATOM     50  C   UNL     1       7.839   3.667  10.619  1.00  0.00     0.037 A 
ATOM     51  C   UNL     1       0.949   4.947  11.008  1.00  0.00     0.037 A 
ATOM     52  C   UNL     1       7.347   3.978  11.937  1.00  0.00     0.049 A 
ATOM     53  C   UNL     1       1.828   4.943  12.232  1.00  0.00     0.074 A 
ATOM     54  C   UNL     1       8.058   4.075  13.120  1.00  0.00     0.029 A 
ATOM     55  N   UNL     1       6.019   4.235  12.247  1.00  0.00    -0.354 N 
ATOM     56  N   UNL     1       3.123   4.748  12.318  1.00  0.00    -0.248 NA
ATOM     57  C   UNL     1       1.173   5.198  13.522  1.00  0.00     0.031 C 
ATOM     58  C   UNL     1       7.153   4.333  14.154  1.00  0.00     0.029 A 
ATOM     59  C   UNL     1       5.886   4.462  13.607  1.00  0.00     0.049 A 
ATOM     60  H   UNL     1       5.280   4.252  11.597  1.00  0.00     0.167 HD
ATOM     61  C   UNL     1       3.441   4.886  13.666  1.00  0.00     0.074 A 
ATOM     62  C   UNL     1       2.205   5.195  14.354  1.00  0.00     0.031 C 
ATOM     63  C   UNL     1       4.647   4.771  14.278  1.00  0.00     0.037 A 
BRANCH  50  64
ATOM     64  C   UNL     1       9.303   3.356  10.457  1.00  0.00     0.058 A 
ATOM     65  C   UNL     1      10.178   4.226   9.786  1.00  0.00     0.135 A 
ATOM     66  C   UNL     1       9.845   2.184  11.010  1.00  0.00     0.135 A 
ATOM     67  F   UNL     1       9.713   5.351   9.221  1.00  0.00    -0.206 F 
ATOM     68  C   UNL     1      11.532   3.932   9.648  1.00  0.00     0.059 A 
ATOM     69  C   UNL     1      11.201   1.885  10.910  1.00  0.00     0.059 A 
ATOM     70  F   UNL     1       9.054   1.315  11.659  1.00  0.00    -0.206 F 
ATOM     71  C   UNL     1      12.034   2.760  10.215  1.00  0.00     0.060 A 
BRANCH  71  72
ATOM     72  S   UNL     1      13.793   2.398  10.033  1.00  0.00     0.124 S 
ATOM     73  O   UNL     1      13.877   2.064   8.614  1.00  0.00    -0.237 OA
ATOM     74  O   UNL     1      14.413   3.659  10.424  1.00  0.00    -0.237 OA
ATOM     75  O   UNL     1      14.009   1.284  10.951  1.00  0.00    -0.744 OA
ENDBRANCH  71  72
ENDBRANCH  50  64
BRANCH  51  76
ATOM     76  C   UNL     1      -0.515   5.193  11.119  1.00  0.00     0.058 A 
ATOM     77  C   UNL     1      -1.018   6.446  11.498  1.00  0.00     0.135 A 
ATOM     78  C   UNL     1      -1.442   4.174  10.846  1.00  0.00     0.135 A 
ATOM     79  F   UNL     1      -0.173   7.450  11.781  1.00  0.00    -0.206 F 
ATOM     80  C   UNL     1      -2.385   6.678  11.617  1.00  0.00     0.059 A 
ATOM     81  C   UNL     1      -2.813   4.389  10.930  1.00  0.00     0.059 A 
ATOM     82  F   UNL     1      -1.014   2.959  10.469  1.00  0.00    -0.206 F 
ATOM     83  C   UNL     1      -3.275   5.643  11.326  1.00  0.00     0.060 A 
BRANCH  83  84
ATOM     84  S   UNL     1      -5.048   5.969  11.434  1.00  0.00     0.124 S 
ATOM     85  O   UNL     1      -5.243   6.062  12.876  1.00  0.00    -0.237 OA
ATOM     86  O   UNL     1      -5.174   7.217  10.689  1.00  0.00    -0.237 OA
ATOM     87  O   UNL     1      -5.643   4.801  10.790  1.00  0.00    -0.744 OA
ENDBRANCH  83  84
ENDBRANCH  51  76
BRANCH  63  88
ATOM     88  C   UNL     1       4.697   5.019  15.763  1.00  0.00     0.058 A 
ATOM     89  C   UNL     1       4.141   4.119  16.685  1.00  0.00     0.135 A 
ATOM     90  C   UNL     1       5.350   6.154  16.271  1.00  0.00     0.135 A 
ATOM     91  F   UNL     1       3.502   3.018  16.255  1.00  0.00    -0.206 F 
ATOM     92  C   UNL     1       4.199   4.353  18.056  1.00  0.00     0.059 A 
ATOM     93  C   UNL     1       5.449   6.392  17.638  1.00  0.00     0.059 A 
ATOM     94  F   UNL     1       5.913   7.042  15.435  1.00  0.00    -0.206 F 
ATOM     95  C   UNL     1       4.855   5.493  18.523  1.00  0.00     0.060 A 
BRANCH  95  96
ATOM     96  S   UNL     1       4.938   5.776  20.304  1.00  0.00     0.124 S 
ATOM     97  O   UNL     1       3.564   6.163  20.604  1.00  0.00    -0.237 OA
ATOM     98  O   UNL     1       5.353   4.470  20.808  1.00  0.00    -0.237 OA
ATOM     99  O   UNL     1       5.932   6.837  20.434  1.00  0.00    -0.744 OA
ENDBRANCH  95  96
ENDBRANCH  63  88
ENDBRANCH  37  38
ENDBRANCH  30  32
ENDBRANCH  29  30
ENDBRANCH  28  29
ENDBRANCH   1  28
TORSDOF 19
