REMARK SMILES CC(C)OC[C@H](O)CC1(C(=O)OCCOCCOC(=O)c2ccc(-c3c4nc(c(-c5c(F)cc(S(=O)(=O)[O-])cc5F)c5ccc([nH]5)c(-c5c(F)cc(S(=O)(=O)[O-])cc5F)c5nc(c(-c6c(F)cc(S(=O)(=O)[O-])cc6F)c6ccc3[nH]6)C=C5)C=C4)cc2)CCCCC1
REMARK SMILES IDX 14 1 13 2 12 3 10 4 11 5 9 6 87 7 91 8 88 9 90 10 89 11 8 12
REMARK SMILES IDX 6 13 5 14 4 15 2 16 1 17 3 18 7 19 15 21 16 22 17 23 18 24
REMARK SMILES IDX 19 25 20 26 21 27 22 28 86 29 23 30 85 31 24 32 25 33 26 34
REMARK SMILES IDX 79 35 27 36 84 37 78 38 80 39 28 40 83 41 77 42 76 43 29 45
REMARK SMILES IDX 63 46 42 47 62 48 43 49 46 50 61 51 81 52 44 53 45 54 60 56
REMARK SMILES IDX 82 57 47 58 30 59 31 60 40 61 32 62 33 63 39 64 41 65 34 66
REMARK SMILES IDX 35 67 36 68 37 69 38 70 64 71 65 72 74 73 66 74 67 75 73 76
REMARK SMILES IDX 75 77 68 78 69 79 70 80 71 81 72 82 48 83 49 84 58 85 50 86
REMARK SMILES IDX 51 87 57 88 59 89 52 90 53 91 54 92 55 93 56 94
REMARK H PARENT 7 20 80 44 46 55
REMARK Flexibility Score: inf
ROOT
ATOM      1  C   UNL     1      -4.446   3.592  -6.284  1.00  0.00     0.202 C 
ENDROOT
BRANCH   1   2
ATOM      2  C   UNL     1      -4.569   2.333  -5.425  1.00  0.00     0.261 C 
BRANCH   2   3
ATOM      3  O   UNL     1      -4.312   2.621  -4.040  1.00  0.00    -0.463 OA
BRANCH   3   4
ATOM      4  C   UNL     1      -3.366   1.851  -3.449  1.00  0.00     0.312 C 
ATOM      5  O   UNL     1      -2.810   0.909  -4.005  1.00  0.00    -0.252 OA
BRANCH   4   6
ATOM      6  C   UNL     1      -3.049   2.267  -1.996  1.00  0.00     0.071 C 
ATOM      7  C   UNL     1      -3.674   1.186  -1.090  1.00  0.00     0.019 C 
ATOM      8  C   UNL     1      -3.573   3.664  -1.556  1.00  0.00     0.019 C 
ATOM      9  C   UNL     1      -5.201   1.292  -1.023  1.00  0.00     0.001 C 
ATOM     10  C   UNL     1      -5.085   3.784  -1.374  1.00  0.00     0.001 C 
ATOM     11  C   UNL     1      -5.642   2.660  -0.515  1.00  0.00     0.000 C 
BRANCH   6  12
ATOM     12  C   UNL     1      -1.478   2.311  -1.950  1.00  0.00     0.053 C 
BRANCH  12  13
ATOM     13  C   UNL     1      -0.810   2.202  -0.576  1.00  0.00     0.141 C 
BRANCH  13  14
ATOM     14  C   UNL     1       0.649   2.695  -0.646  1.00  0.00     0.192 C 
BRANCH  14  15
ATOM     15  O   UNL     1       1.060   3.327   0.571  1.00  0.00    -0.376 OA
BRANCH  15  16
ATOM     16  C   UNL     1       0.859   4.743   0.690  1.00  0.00     0.112 C 
ATOM     17  C   UNL     1       1.502   5.553  -0.435  1.00  0.00     0.038 C 
ATOM     18  C   UNL     1      -0.605   5.122   0.875  1.00  0.00     0.038 C 
ENDBRANCH  15  16
ENDBRANCH  14  15
ENDBRANCH  13  14
BRANCH  13  19
ATOM     19  O   UNL     1      -0.814   0.828  -0.171  1.00  0.00    -0.391 OA
ATOM     20  H   UNL     1      -0.321   0.299  -0.818  1.00  0.00     0.211 HD
ENDBRANCH  13  19
ENDBRANCH  12  13
ENDBRANCH   6  12
ENDBRANCH   4   6
ENDBRANCH   3   4
ENDBRANCH   2   3
ENDBRANCH   1   2
BRANCH   1  21
ATOM     21  O   UNL     1      -3.165   4.222  -6.315  1.00  0.00    -0.374 OA
BRANCH  21  22
ATOM     22  C   UNL     1      -2.759   4.944  -5.154  1.00  0.00     0.202 C 
BRANCH  22  23
ATOM     23  C   UNL     1      -3.454   6.286  -4.884  1.00  0.00     0.261 C 
BRANCH  23  24
ATOM     24  O   UNL     1      -4.857   6.148  -4.590  1.00  0.00    -0.460 OA
BRANCH  24  25
ATOM     25  C   UNL     1      -5.684   6.675  -5.524  1.00  0.00     0.338 C 
ATOM     26  O   UNL     1      -5.357   7.295  -6.530  1.00  0.00    -0.246 OA
BRANCH  25  27
ATOM     27  C   UNL     1      -7.076   6.251  -5.288  1.00  0.00     0.060 A 
ATOM     28  C   UNL     1      -7.738   5.595  -6.334  1.00  0.00     0.016 A 
ATOM     29  C   UNL     1      -7.756   6.575  -4.112  1.00  0.00     0.016 A 
ATOM     30  C   UNL     1      -9.096   5.304  -6.229  1.00  0.00     0.010 A 
ATOM     31  C   UNL     1      -9.124   6.291  -4.014  1.00  0.00     0.010 A 
ATOM     32  C   UNL     1      -9.807   5.689  -5.086  1.00  0.00    -0.014 A 
BRANCH  32  33
ATOM     33  C   UNL     1     -11.289   5.599  -5.090  1.00  0.00     0.031 A 
ATOM     34  C   UNL     1     -12.095   6.834  -5.390  1.00  0.00     0.074 A 
ATOM     35  C   UNL     1     -11.908   4.424  -4.875  1.00  0.00     0.049 A 
ATOM     36  N   UNL     1     -13.393   6.988  -5.433  1.00  0.00    -0.248 NA
ATOM     37  C   UNL     1     -11.334   8.060  -5.683  1.00  0.00     0.031 C 
ATOM     38  C   UNL     1     -11.237   3.151  -4.615  1.00  0.00     0.029 A 
ATOM     39  N   UNL     1     -13.245   4.113  -4.841  1.00  0.00    -0.354 N 
ATOM     40  C   UNL     1     -13.607   8.323  -5.755  1.00  0.00     0.074 A 
ATOM     41  C   UNL     1     -12.304   8.944  -5.865  1.00  0.00     0.031 C 
ATOM     42  C   UNL     1     -12.168   2.197  -4.434  1.00  0.00     0.029 A 
ATOM     43  C   UNL     1     -13.497   2.796  -4.540  1.00  0.00     0.049 A 
ATOM     44  H   UNL     1     -13.956   4.772  -5.015  1.00  0.00     0.167 HD
ATOM     45  C   UNL     1     -14.780   8.971  -5.950  1.00  0.00     0.037 A 
ATOM     46  C   UNL     1     -14.667   2.153  -4.351  1.00  0.00     0.037 A 
ATOM     47  C   UNL     1     -16.074   8.350  -5.840  1.00  0.00     0.049 A 
ATOM     48  C   UNL     1     -15.961   2.908  -4.511  1.00  0.00     0.074 A 
ATOM     49  C   UNL     1     -17.322   8.919  -6.030  1.00  0.00     0.029 A 
ATOM     50  N   UNL     1     -16.289   7.021  -5.506  1.00  0.00    -0.354 N 
ATOM     51  N   UNL     1     -16.147   4.167  -4.831  1.00  0.00    -0.248 NA
ATOM     52  C   UNL     1     -17.204   2.155  -4.291  1.00  0.00     0.031 C 
ATOM     53  C   UNL     1     -18.291   7.945  -5.767  1.00  0.00     0.029 A 
ATOM     54  C   UNL     1     -17.648   6.756  -5.463  1.00  0.00     0.049 A 
ATOM     55  H   UNL     1     -15.580   6.362  -5.327  1.00  0.00     0.167 HD
ATOM     56  C   UNL     1     -17.526   4.350  -4.873  1.00  0.00     0.074 A 
ATOM     57  C   UNL     1     -18.126   3.071  -4.557  1.00  0.00     0.031 C 
ATOM     58  C   UNL     1     -18.231   5.475  -5.151  1.00  0.00     0.037 A 
BRANCH  45  59
ATOM     59  C   UNL     1     -14.718  10.436  -6.282  1.00  0.00     0.058 A 
ATOM     60  C   UNL     1     -14.285  10.892  -7.537  1.00  0.00     0.135 A 
ATOM     61  C   UNL     1     -15.123  11.397  -5.341  1.00  0.00     0.135 A 
ATOM     62  F   UNL     1     -13.869  10.017  -8.467  1.00  0.00    -0.206 F 
ATOM     63  C   UNL     1     -14.231  12.249  -7.839  1.00  0.00     0.059 A 
ATOM     64  C   UNL     1     -15.101  12.758  -5.630  1.00  0.00     0.059 A 
ATOM     65  F   UNL     1     -15.543  11.016  -4.124  1.00  0.00    -0.206 F 
ATOM     66  C   UNL     1     -14.639  13.175  -6.878  1.00  0.00     0.060 A 
BRANCH  66  67
ATOM     67  S   UNL     1     -14.562  14.932  -7.283  1.00  0.00     0.124 S 
ATOM     68  O   UNL     1     -13.125  15.181  -7.225  1.00  0.00    -0.237 OA
ATOM     69  O   UNL     1     -15.159  14.973  -8.614  1.00  0.00    -0.237 OA
ATOM     70  O   UNL     1     -15.350  15.560  -6.227  1.00  0.00    -0.744 OA
ENDBRANCH  66  67
ENDBRANCH  45  59
BRANCH  46  71
ATOM     71  C   UNL     1     -14.668   0.716  -3.971  1.00  0.00     0.058 A 
ATOM     72  C   UNL     1     -15.107  -0.273  -4.863  1.00  0.00     0.135 A 
ATOM     73  C   UNL     1     -14.225   0.303  -2.704  1.00  0.00     0.135 A 
ATOM     74  F   UNL     1     -15.550   0.072  -6.081  1.00  0.00    -0.206 F 
ATOM     75  C   UNL     1     -15.118  -1.619  -4.511  1.00  0.00     0.059 A 
ATOM     76  C   UNL     1     -14.204  -1.038  -2.337  1.00  0.00     0.059 A 
ATOM     77  F   UNL     1     -13.787   1.210  -1.817  1.00  0.00    -0.206 F 
ATOM     78  C   UNL     1     -14.662  -1.992  -3.245  1.00  0.00     0.060 A 
BRANCH  78  79
ATOM     79  S   UNL     1     -14.631  -3.746  -2.814  1.00  0.00     0.124 S 
ATOM     80  O   UNL     1     -16.046  -4.018  -2.593  1.00  0.00    -0.237 OA
ATOM     81  O   UNL     1     -14.043  -4.345  -4.009  1.00  0.00    -0.237 OA
ATOM     82  O   UNL     1     -13.786  -3.783  -1.624  1.00  0.00    -0.744 OA
ENDBRANCH  78  79
ENDBRANCH  46  71
BRANCH  58  83
ATOM     83  C   UNL     1     -19.732   5.371  -5.159  1.00  0.00     0.058 A 
ATOM     84  C   UNL     1     -20.470   5.258  -3.970  1.00  0.00     0.135 A 
ATOM     85  C   UNL     1     -20.443   5.441  -6.368  1.00  0.00     0.135 A 
ATOM     86  F   UNL     1     -19.839   5.182  -2.788  1.00  0.00    -0.206 F 
ATOM     87  C   UNL     1     -21.860   5.197  -3.981  1.00  0.00     0.059 A 
ATOM     88  C   UNL     1     -21.834   5.407  -6.401  1.00  0.00     0.059 A 
ATOM     89  F   UNL     1     -19.786   5.561  -7.532  1.00  0.00    -0.206 F 
ATOM     90  C   UNL     1     -22.533   5.274  -5.202  1.00  0.00     0.060 A 
BRANCH  90  91
ATOM     91  S   UNL     1     -24.338   5.228  -5.201  1.00  0.00     0.124 S 
ATOM     92  O   UNL     1     -24.596   3.816  -4.941  1.00  0.00    -0.237 OA
ATOM     93  O   UNL     1     -24.675   6.144  -4.116  1.00  0.00    -0.237 OA
ATOM     94  O   UNL     1     -24.691   5.695  -6.539  1.00  0.00    -0.744 OA
ENDBRANCH  90  91
ENDBRANCH  58  83
ENDBRANCH  32  33
ENDBRANCH  25  27
ENDBRANCH  24  25
ENDBRANCH  23  24
ENDBRANCH  22  23
ENDBRANCH  21  22
ENDBRANCH   1  21
TORSDOF 23
