REMARK SMILES Cc1cc(C(=O)OCCOCCOC(=O)c2ccc(-c3c4nc(c(-c5c(F)cc(S(=O)(=O)[O-])cc5F)c5ccc([nH]5)c(-c5c(F)cc(S(=O)(=O)[O-])cc5F)c5nc(c(-c6c(F)cc(S(=O)(=O)[O-])cc6F)c6ccc3[nH]6)C=C5)C=C4)cc2)ccc1NS(=O)(=O)c1ccc2c(c1)CCC2
REMARK SMILES IDX 10 1 9 2 8 3 7 4 5 5 6 6 4 7 1 8 2 9 3 10 84 11 83 12 82 13
REMARK SMILES IDX 85 14 86 16 87 17 88 18 89 19 90 20 94 21 91 22 93 23 92 24
REMARK SMILES IDX 95 25 97 26 96 27 11 28 12 29 13 30 14 31 15 32 16 33 17 34
REMARK SMILES IDX 81 35 18 36 80 37 19 38 20 39 21 40 74 41 22 42 79 43 73 44
REMARK SMILES IDX 75 45 23 46 78 47 72 48 71 49 24 51 58 52 37 53 57 54 38 55
REMARK SMILES IDX 41 56 56 57 76 58 39 59 40 60 55 62 77 63 42 64 25 65 26 66
REMARK SMILES IDX 35 67 27 68 28 69 34 70 36 71 29 72 30 73 31 74 32 75 33 76
REMARK SMILES IDX 59 77 60 78 69 79 61 80 62 81 68 82 70 83 63 84 64 85 65 86
REMARK SMILES IDX 66 87 67 88 43 89 44 90 53 91 45 92 46 93 52 94 54 95 47 96
REMARK SMILES IDX 48 97 49 98 50 99 51 100
REMARK H PARENT 85 15 75 50 41 61
REMARK Flexibility Score: inf
ROOT
ATOM      1  O   UNL     1      -1.764  -3.179  -2.269  1.00  0.00    -0.374 OA
ENDROOT
BRANCH   1   2
ATOM      2  C   UNL     1      -2.886  -2.329  -2.456  1.00  0.00     0.202 C 
BRANCH   2   3
ATOM      3  C   UNL     1      -3.400  -2.021  -1.081  1.00  0.00     0.261 C 
BRANCH   3   4
ATOM      4  O   UNL     1      -2.468  -1.263  -0.264  1.00  0.00    -0.460 OA
BRANCH   4   5
ATOM      5  C   UNL     1      -1.385  -1.854   0.333  1.00  0.00     0.338 C 
ATOM      6  O   UNL     1      -1.039  -2.998   0.353  1.00  0.00    -0.246 OA
BRANCH   5   7
ATOM      7  C   UNL     1      -0.536  -0.743   0.811  1.00  0.00     0.060 A 
ATOM      8  C   UNL     1       2.874   0.414  -0.265  1.00  0.00     0.046 C 
ATOM      9  C   UNL     1       1.469   0.457   0.261  1.00  0.00    -0.026 A 
ATOM     10  C   UNL     1       0.789  -0.755   0.389  1.00  0.00     0.021 A 
ATOM     11  C   UNL     1       0.769   1.645   0.541  1.00  0.00     0.052 A 
ATOM     12  C   UNL     1      -0.381   1.590   1.330  1.00  0.00     0.028 A 
ATOM     13  C   UNL     1      -1.075   0.388   1.418  1.00  0.00     0.018 A 
BRANCH  11  14
ATOM     14  N   UNL     1       1.002   2.750  -0.334  1.00  0.00    -0.279 N 
ATOM     15  H   UNL     1       1.703   2.622  -1.013  1.00  0.00     0.180 HD
BRANCH  14  16
ATOM     16  S   UNL     1       0.235   4.229  -0.348  1.00  0.00     0.261 S 
ATOM     17  O   UNL     1       0.391   4.816   0.968  1.00  0.00    -0.201 OA
ATOM     18  O   UNL     1       0.747   4.909  -1.522  1.00  0.00    -0.201 OA
BRANCH  16  19
ATOM     19  C   UNL     1      -1.524   4.032  -0.618  1.00  0.00     0.088 A 
ATOM     20  C   UNL     1      -2.148   2.787  -0.811  1.00  0.00     0.022 A 
ATOM     21  C   UNL     1      -2.297   5.181  -0.387  1.00  0.00     0.026 A 
ATOM     22  C   UNL     1      -3.515   2.638  -0.527  1.00  0.00     0.005 A 
ATOM     23  C   UNL     1      -3.652   5.027  -0.169  1.00  0.00    -0.043 A 
ATOM     24  C   UNL     1      -4.235   3.757  -0.142  1.00  0.00    -0.045 A 
ATOM     25  C   UNL     1      -4.674   6.078   0.127  1.00  0.00     0.036 C 
ATOM     26  C   UNL     1      -5.641   3.835   0.377  1.00  0.00     0.036 C 
ATOM     27  C   UNL     1      -5.665   5.261   0.961  1.00  0.00     0.010 C 
ENDBRANCH  16  19
ENDBRANCH  14  16
ENDBRANCH  11  14
ENDBRANCH   5   7
ENDBRANCH   4   5
ENDBRANCH   3   4
ENDBRANCH   2   3
ENDBRANCH   1   2
BRANCH   1  28
ATOM     28  C   UNL     1      -1.013  -3.467  -3.425  1.00  0.00     0.202 C 
BRANCH  28  29
ATOM     29  C   UNL     1      -1.816  -4.198  -4.505  1.00  0.00     0.261 C 
BRANCH  29  30
ATOM     30  O   UNL     1      -2.070  -5.569  -4.129  1.00  0.00    -0.460 OA
BRANCH  30  31
ATOM     31  C   UNL     1      -3.345  -5.849  -3.726  1.00  0.00     0.338 C 
ATOM     32  O   UNL     1      -4.265  -6.063  -4.495  1.00  0.00    -0.246 OA
BRANCH  31  33
ATOM     33  C   UNL     1      -3.418  -5.923  -2.240  1.00  0.00     0.060 A 
ATOM     34  C   UNL     1      -4.632  -5.764  -1.549  1.00  0.00     0.016 A 
ATOM     35  C   UNL     1      -2.228  -5.998  -1.527  1.00  0.00     0.016 A 
ATOM     36  C   UNL     1      -4.635  -5.530  -0.161  1.00  0.00     0.010 A 
ATOM     37  C   UNL     1      -2.230  -5.687  -0.186  1.00  0.00     0.010 A 
ATOM     38  C   UNL     1      -3.421  -5.420   0.511  1.00  0.00    -0.014 A 
BRANCH  38  39
ATOM     39  C   UNL     1      -3.200  -4.985   1.898  1.00  0.00     0.031 A 
ATOM     40  C   UNL     1      -2.458  -5.909   2.797  1.00  0.00     0.074 A 
ATOM     41  C   UNL     1      -3.332  -3.679   2.249  1.00  0.00     0.049 A 
ATOM     42  N   UNL     1      -2.143  -5.625   4.009  1.00  0.00    -0.248 NA
ATOM     43  C   UNL     1      -2.018  -7.255   2.420  1.00  0.00     0.031 C 
ATOM     44  C   UNL     1      -2.608  -2.943   3.291  1.00  0.00     0.029 A 
ATOM     45  N   UNL     1      -4.163  -2.689   1.714  1.00  0.00    -0.354 N 
ATOM     46  C   UNL     1      -1.221  -6.543   4.447  1.00  0.00     0.074 A 
ATOM     47  C   UNL     1      -1.263  -7.598   3.470  1.00  0.00     0.031 C 
ATOM     48  C   UNL     1      -3.206  -1.759   3.513  1.00  0.00     0.029 A 
ATOM     49  C   UNL     1      -4.415  -1.736   2.708  1.00  0.00     0.049 A 
ATOM     50  H   UNL     1      -4.512  -2.667   0.794  1.00  0.00     0.167 HD
ATOM     51  C   UNL     1      -0.471  -6.213   5.536  1.00  0.00     0.037 A 
ATOM     52  C   UNL     1      -5.687  -1.506   3.125  1.00  0.00     0.037 A 
ATOM     53  C   UNL     1      -1.036  -5.017   6.181  1.00  0.00     0.049 A 
ATOM     54  C   UNL     1      -5.773  -1.946   4.555  1.00  0.00     0.074 A 
ATOM     55  C   UNL     1      -0.643  -3.693   6.270  1.00  0.00     0.029 A 
ATOM     56  N   UNL     1      -2.369  -5.056   6.596  1.00  0.00    -0.354 N 
ATOM     57  N   UNL     1      -4.965  -2.845   5.052  1.00  0.00    -0.248 NA
ATOM     58  C   UNL     1      -6.615  -1.321   5.566  1.00  0.00     0.031 C 
ATOM     59  C   UNL     1      -1.797  -2.926   6.619  1.00  0.00     0.029 A 
ATOM     60  C   UNL     1      -2.877  -3.784   6.782  1.00  0.00     0.049 A 
ATOM     61  H   UNL     1      -2.882  -5.884   6.738  1.00  0.00     0.167 HD
ATOM     62  C   UNL     1      -5.074  -2.848   6.404  1.00  0.00     0.074 A 
ATOM     63  C   UNL     1      -6.159  -1.920   6.682  1.00  0.00     0.031 C 
ATOM     64  C   UNL     1      -4.262  -3.588   7.209  1.00  0.00     0.037 A 
BRANCH  51  65
ATOM     65  C   UNL     1       0.834  -6.864   5.963  1.00  0.00     0.058 A 
ATOM     66  C   UNL     1       1.472  -6.455   7.156  1.00  0.00     0.135 A 
ATOM     67  C   UNL     1       1.564  -7.815   5.214  1.00  0.00     0.135 A 
ATOM     68  F   UNL     1       0.918  -5.532   7.956  1.00  0.00    -0.206 F 
ATOM     69  C   UNL     1       2.714  -6.951   7.573  1.00  0.00     0.059 A 
ATOM     70  C   UNL     1       2.785  -8.358   5.632  1.00  0.00     0.059 A 
ATOM     71  F   UNL     1       1.168  -8.231   4.007  1.00  0.00    -0.206 F 
ATOM     72  C   UNL     1       3.363  -7.910   6.808  1.00  0.00     0.060 A 
BRANCH  72  73
ATOM     73  S   UNL     1       4.961  -8.544   7.350  1.00  0.00     0.124 S 
ATOM     74  O   UNL     1       5.812  -7.365   7.227  1.00  0.00    -0.237 OA
ATOM     75  O   UNL     1       4.676  -8.985   8.711  1.00  0.00    -0.237 OA
ATOM     76  O   UNL     1       5.245  -9.616   6.399  1.00  0.00    -0.744 OA
ENDBRANCH  72  73
ENDBRANCH  51  65
BRANCH  52  77
ATOM     77  C   UNL     1      -6.674  -1.603   2.002  1.00  0.00     0.058 A 
ATOM     78  C   UNL     1      -6.669  -0.533   1.078  1.00  0.00     0.135 A 
ATOM     79  C   UNL     1      -7.149  -2.838   1.530  1.00  0.00     0.135 A 
ATOM     80  F   UNL     1      -6.213   0.672   1.458  1.00  0.00    -0.206 F 
ATOM     81  C   UNL     1      -6.960  -0.711  -0.276  1.00  0.00     0.059 A 
ATOM     82  C   UNL     1      -7.432  -3.041   0.169  1.00  0.00     0.059 A 
ATOM     83  F   UNL     1      -7.176  -3.904   2.342  1.00  0.00    -0.206 F 
ATOM     84  C   UNL     1      -7.275  -1.987  -0.734  1.00  0.00     0.060 A 
BRANCH  84  85
ATOM     85  S   UNL     1      -7.210  -2.296  -2.524  1.00  0.00     0.124 S 
ATOM     86  O   UNL     1      -8.499  -1.785  -2.969  1.00  0.00    -0.237 OA
ATOM     87  O   UNL     1      -6.043  -1.514  -2.933  1.00  0.00    -0.237 OA
ATOM     88  O   UNL     1      -7.031  -3.740  -2.604  1.00  0.00    -0.744 OA
ENDBRANCH  84  85
ENDBRANCH  52  77
BRANCH  64  89
ATOM     89  C   UNL     1      -4.746  -4.131   8.520  1.00  0.00     0.058 A 
ATOM     90  C   UNL     1      -6.113  -4.323   8.799  1.00  0.00     0.135 A 
ATOM     91  C   UNL     1      -3.842  -4.648   9.472  1.00  0.00     0.135 A 
ATOM     92  F   UNL     1      -7.068  -4.017   7.908  1.00  0.00    -0.206 F 
ATOM     93  C   UNL     1      -6.556  -4.873   9.991  1.00  0.00     0.059 A 
ATOM     94  C   UNL     1      -4.265  -5.269  10.640  1.00  0.00     0.059 A 
ATOM     95  F   UNL     1      -2.515  -4.585   9.292  1.00  0.00    -0.206 F 
ATOM     96  C   UNL     1      -5.624  -5.332  10.912  1.00  0.00     0.060 A 
BRANCH  96  97
ATOM     97  S   UNL     1      -6.208  -6.021  12.462  1.00  0.00     0.124 S 
ATOM     98  O   UNL     1      -6.407  -4.809  13.251  1.00  0.00    -0.237 OA
ATOM     99  O   UNL     1      -7.425  -6.721  12.063  1.00  0.00    -0.237 OA
ATOM    100  O   UNL     1      -5.107  -6.880  12.884  1.00  0.00    -0.744 OA
ENDBRANCH  96  97
ENDBRANCH  64  89
ENDBRANCH  38  39
ENDBRANCH  31  33
ENDBRANCH  30  31
ENDBRANCH  29  30
ENDBRANCH  28  29
ENDBRANCH   1  28
TORSDOF 20
