REMARK SMILES CN(C)S(=O)(=O)c1cccc(-c2cc(Cl)cc(C(=O)OCCOCCOC(=O)c3ccc(-c4c5nc(c(-c6c(F)cc(S(=O)(=O)[O-])cc6F)c6ccc([nH]6)c(-c6c(F)cc(S(=O)(=O)[O-])cc6F)c6nc(c(-c7c(F)cc(S(=O)(=O)[O-])cc7F)c7ccc4[nH]7)C=C6)C=C5)cc3)c2)c1
REMARK SMILES IDX 23 1 22 2 21 3 20 4 18 5 19 6 17 7 12 8 13 9 95 10 14 11
REMARK SMILES IDX 15 12 16 13 11 14 7 15 8 16 96 17 9 18 10 19 4 20 5 21 6 22
REMARK SMILES IDX 2 23 1 24 3 25 24 26 25 27 26 28 27 29 28 30 29 31 30 32
REMARK SMILES IDX 94 33 31 34 93 35 32 36 33 37 34 38 87 39 35 40 92 41 86 42
REMARK SMILES IDX 88 43 36 44 91 45 85 46 84 47 37 49 71 50 50 51 70 52 51 53
REMARK SMILES IDX 54 54 69 55 89 56 52 57 53 58 68 60 90 61 55 62 38 63 39 64
REMARK SMILES IDX 48 65 40 66 41 67 47 68 49 69 42 70 43 71 44 72 45 73 46 74
REMARK SMILES IDX 72 75 73 76 82 77 74 78 75 79 81 80 83 81 76 82 77 83 78 84
REMARK SMILES IDX 79 85 80 86 56 87 57 88 66 89 58 90 59 91 65 92 67 93 60 94
REMARK SMILES IDX 61 95 62 96 63 97 64 98
REMARK H PARENT 88 48 54 59
REMARK Flexibility Score: inf
ROOT
ATOM      1  O   UNL     1       2.668 -10.059   2.807  1.00  0.00    -0.374 OA
ENDROOT
BRANCH   1   2
ATOM      2  C   UNL     1       2.793  -8.805   3.479  1.00  0.00     0.202 C 
BRANCH   2   3
ATOM      3  C   UNL     1       3.750  -7.770   2.876  1.00  0.00     0.261 C 
BRANCH   3   4
ATOM      4  O   UNL     1       3.347  -7.381   1.553  1.00  0.00    -0.460 OA
BRANCH   4   5
ATOM      5  C   UNL     1       4.149  -7.822   0.553  1.00  0.00     0.338 C 
ATOM      6  O   UNL     1       5.220  -8.393   0.664  1.00  0.00    -0.246 OA
BRANCH   5   7
ATOM      7  C   UNL     1       3.437  -7.704  -0.742  1.00  0.00     0.062 A 
ATOM      8  C   UNL     1       1.877  -6.589  -2.255  1.00  0.00    -0.016 A 
ATOM      9  C   UNL     1       2.102  -7.623  -3.183  1.00  0.00     0.029 A 
ATOM     10  C   UNL     1       2.547  -6.657  -1.018  1.00  0.00     0.024 A 
ATOM     11  C   UNL     1       2.968  -8.678  -2.890  1.00  0.00     0.042 A 
ATOM     12  Cl  UNL     1       3.196  -9.940  -4.037  1.00  0.00    -0.084 Cl
ATOM     13  C   UNL     1       3.645  -8.719  -1.680  1.00  0.00     0.036 A 
BRANCH   8  14
ATOM     14  C   UNL     1       0.994  -5.452  -2.586  1.00  0.00    -0.017 A 
ATOM     15  C   UNL     1       0.550  -3.056  -2.620  1.00  0.00     0.083 A 
ATOM     16  C   UNL     1      -0.651  -3.260  -3.301  1.00  0.00     0.022 A 
ATOM     17  C   UNL     1       1.373  -4.135  -2.279  1.00  0.00     0.030 A 
ATOM     18  C   UNL     1      -1.050  -4.559  -3.601  1.00  0.00     0.002 A 
ATOM     19  C   UNL     1      -0.238  -5.641  -3.242  1.00  0.00     0.009 A 
BRANCH  15  20
ATOM     20  S   UNL     1       1.083  -1.404  -2.237  1.00  0.00     0.242 S 
ATOM     21  O   UNL     1       0.336  -0.487  -3.068  1.00  0.00    -0.207 OA
ATOM     22  O   UNL     1       2.533  -1.409  -2.254  1.00  0.00    -0.207 OA
BRANCH  20  23
ATOM     23  N   UNL     1       0.562  -1.206  -0.620  1.00  0.00    -0.204 NA
ATOM     24  C   UNL     1       1.156  -0.014   0.034  1.00  0.00     0.124 C 
ATOM     25  C   UNL     1      -0.904  -1.253  -0.416  1.00  0.00     0.124 C 
ENDBRANCH  20  23
ENDBRANCH  15  20
ENDBRANCH   8  14
ENDBRANCH   5   7
ENDBRANCH   4   5
ENDBRANCH   3   4
ENDBRANCH   2   3
ENDBRANCH   1   2
BRANCH   1  26
ATOM     26  C   UNL     1       1.879 -10.102   1.619  1.00  0.00     0.202 C 
BRANCH  26  27
ATOM     27  C   UNL     1       0.352 -10.075   1.758  1.00  0.00     0.261 C 
BRANCH  27  28
ATOM     28  O   UNL     1      -0.137  -8.908   2.437  1.00  0.00    -0.460 OA
BRANCH  28  29
ATOM     29  C   UNL     1      -0.553  -9.147   3.706  1.00  0.00     0.338 C 
ATOM     30  O   UNL     1      -0.605 -10.227   4.270  1.00  0.00    -0.246 OA
BRANCH  29  31
ATOM     31  C   UNL     1      -0.783  -7.878   4.420  1.00  0.00     0.060 A 
ATOM     32  C   UNL     1      -0.117  -7.706   5.638  1.00  0.00     0.016 A 
ATOM     33  C   UNL     1      -1.693  -6.921   3.965  1.00  0.00     0.016 A 
ATOM     34  C   UNL     1      -0.407  -6.606   6.439  1.00  0.00     0.010 A 
ATOM     35  C   UNL     1      -1.981  -5.813   4.773  1.00  0.00     0.010 A 
ATOM     36  C   UNL     1      -1.370  -5.672   6.032  1.00  0.00    -0.014 A 
BRANCH  36  37
ATOM     37  C   UNL     1      -1.791  -4.619   6.991  1.00  0.00     0.031 A 
ATOM     38  C   UNL     1      -3.109  -4.744   7.708  1.00  0.00     0.074 A 
ATOM     39  C   UNL     1      -0.958  -3.603   7.281  1.00  0.00     0.049 A 
ATOM     40  N   UNL     1      -3.620  -3.981   8.640  1.00  0.00    -0.248 NA
ATOM     41  C   UNL     1      -3.967  -5.876   7.324  1.00  0.00     0.031 C 
ATOM     42  C   UNL     1       0.352  -3.387   6.665  1.00  0.00     0.029 A 
ATOM     43  N   UNL     1      -1.082  -2.571   8.176  1.00  0.00    -0.354 N 
ATOM     44  C   UNL     1      -4.855  -4.538   8.956  1.00  0.00     0.074 A 
ATOM     45  C   UNL     1      -5.035  -5.679   8.084  1.00  0.00     0.031 C 
ATOM     46  C   UNL     1       0.918  -2.299   7.213  1.00  0.00     0.029 A 
ATOM     47  C   UNL     1       0.001  -1.725   8.195  1.00  0.00     0.049 A 
ATOM     48  H   UNL     1      -1.872  -2.448   8.751  1.00  0.00     0.167 HD
ATOM     49  C   UNL     1      -5.748  -4.144   9.896  1.00  0.00     0.037 A 
ATOM     50  C   UNL     1       0.227  -0.611   8.919  1.00  0.00     0.037 A 
ATOM     51  C   UNL     1      -5.561  -3.004  10.761  1.00  0.00     0.049 A 
ATOM     52  C   UNL     1      -0.799  -0.172   9.930  1.00  0.00     0.074 A 
ATOM     53  C   UNL     1      -6.397  -2.535  11.759  1.00  0.00     0.029 A 
ATOM     54  N   UNL     1      -4.467  -2.151  10.727  1.00  0.00    -0.354 N 
ATOM     55  N   UNL     1      -1.947  -0.728  10.239  1.00  0.00    -0.248 NA
ATOM     56  C   UNL     1      -0.489   1.038  10.703  1.00  0.00     0.031 C 
ATOM     57  C   UNL     1      -5.840  -1.365  12.286  1.00  0.00     0.029 A 
ATOM     58  C   UNL     1      -4.621  -1.142  11.666  1.00  0.00     0.049 A 
ATOM     59  H   UNL     1      -3.695  -2.247  10.124  1.00  0.00     0.167 HD
ATOM     60  C   UNL     1      -2.483   0.049  11.262  1.00  0.00     0.074 A 
ATOM     61  C   UNL     1      -1.522   1.098  11.532  1.00  0.00     0.031 C 
ATOM     62  C   UNL     1      -3.662  -0.094  11.920  1.00  0.00     0.037 A 
BRANCH  49  63
ATOM     63  C   UNL     1      -7.026  -4.933  10.024  1.00  0.00     0.058 A 
ATOM     64  C   UNL     1      -7.044  -6.242  10.533  1.00  0.00     0.135 A 
ATOM     65  C   UNL     1      -8.257  -4.354   9.673  1.00  0.00     0.135 A 
ATOM     66  F   UNL     1      -5.897  -6.854  10.870  1.00  0.00    -0.206 F 
ATOM     67  C   UNL     1      -8.232  -6.958  10.662  1.00  0.00     0.059 A 
ATOM     68  C   UNL     1      -9.459  -5.039   9.823  1.00  0.00     0.059 A 
ATOM     69  F   UNL     1      -8.301  -3.107   9.180  1.00  0.00    -0.206 F 
ATOM     70  C   UNL     1      -9.435  -6.346  10.307  1.00  0.00     0.060 A 
BRANCH  70  71
ATOM     71  S   UNL     1     -10.967  -7.284  10.489  1.00  0.00     0.124 S 
ATOM     72  O   UNL     1     -10.833  -8.271   9.422  1.00  0.00    -0.237 OA
ATOM     73  O   UNL     1     -10.855  -7.801  11.849  1.00  0.00    -0.237 OA
ATOM     74  O   UNL     1     -12.007  -6.281  10.286  1.00  0.00    -0.744 OA
ENDBRANCH  70  71
ENDBRANCH  49  63
BRANCH  50  75
ATOM     75  C   UNL     1       1.481   0.164   8.715  1.00  0.00     0.058 A 
ATOM     76  C   UNL     1       2.465   0.237   9.712  1.00  0.00     0.135 A 
ATOM     77  C   UNL     1       1.718   0.846   7.511  1.00  0.00     0.135 A 
ATOM     78  F   UNL     1       2.282  -0.390  10.883  1.00  0.00    -0.206 F 
ATOM     79  C   UNL     1       3.631   0.974   9.531  1.00  0.00     0.059 A 
ATOM     80  C   UNL     1       2.890   1.562   7.295  1.00  0.00     0.059 A 
ATOM     81  F   UNL     1       0.815   0.797   6.519  1.00  0.00    -0.206 F 
ATOM     82  C   UNL     1       3.836   1.629   8.316  1.00  0.00     0.060 A 
BRANCH  82  83
ATOM     83  S   UNL     1       5.376   2.540   8.070  1.00  0.00     0.124 S 
ATOM     84  O   UNL     1       5.178   3.691   8.943  1.00  0.00    -0.237 OA
ATOM     85  O   UNL     1       6.375   1.570   8.506  1.00  0.00    -0.237 OA
ATOM     86  O   UNL     1       5.371   2.825   6.638  1.00  0.00    -0.744 OA
ENDBRANCH  82  83
ENDBRANCH  50  75
BRANCH  62  87
ATOM     87  C   UNL     1      -3.957   0.892  13.021  1.00  0.00     0.058 A 
ATOM     88  C   UNL     1      -4.206   2.249  12.759  1.00  0.00     0.135 A 
ATOM     89  C   UNL     1      -3.983   0.472  14.362  1.00  0.00     0.135 A 
ATOM     90  F   UNL     1      -4.195   2.707  11.497  1.00  0.00    -0.206 F 
ATOM     91  C   UNL     1      -4.408   3.164  13.788  1.00  0.00     0.059 A 
ATOM     92  C   UNL     1      -4.221   1.363  15.404  1.00  0.00     0.059 A 
ATOM     93  F   UNL     1      -3.771  -0.817  14.673  1.00  0.00    -0.206 F 
ATOM     94  C   UNL     1      -4.404   2.712  15.109  1.00  0.00     0.060 A 
BRANCH  94  95
ATOM     95  S   UNL     1      -4.638   3.913  16.436  1.00  0.00     0.124 S 
ATOM     96  O   UNL     1      -3.351   4.602  16.437  1.00  0.00    -0.237 OA
ATOM     97  O   UNL     1      -5.775   4.693  15.957  1.00  0.00    -0.237 OA
ATOM     98  O   UNL     1      -4.904   3.080  17.605  1.00  0.00    -0.744 OA
ENDBRANCH  94  95
ENDBRANCH  62  87
ENDBRANCH  36  37
ENDBRANCH  29  31
ENDBRANCH  28  29
ENDBRANCH  27  28
ENDBRANCH  26  27
ENDBRANCH   1  26
TORSDOF 20
