REMARK SMILES Cc1c(CC(=O)OCCOCCOC(=O)c2ccc(-c3c4nc(c(-c5c(F)cc(S(=O)(=O)[O-])cc5F)c5ccc([nH]5)c(-c5c(F)cc(S(=O)(=O)[O-])cc5F)c5nc(c(-c6c(F)cc(S(=O)(=O)[O-])cc6F)c6ccc3[nH]6)C=C5)C=C4)cc2)cc(-c2ccc(S(C)(=O)=O)cc2)n1-c1ccccc1
REMARK SMILES IDX 10 1 9 2 8 3 7 4 5 5 6 6 4 7 3 8 1 9 2 10 94 11 82 12 83 13
REMARK SMILES IDX 95 14 96 15 100 16 97 17 99 18 98 19 84 20 85 21 93 22 86 23
REMARK SMILES IDX 92 24 87 25 88 26 89 27 90 28 91 29 11 30 12 31 13 32 14 33
REMARK SMILES IDX 15 34 16 35 17 36 81 37 18 38 80 39 19 40 20 41 21 42 74 43
REMARK SMILES IDX 22 44 79 45 73 46 75 47 23 48 78 49 72 50 71 51 24 53 58 54
REMARK SMILES IDX 37 55 57 56 38 57 41 58 56 59 76 60 39 61 40 62 55 64 77 65
REMARK SMILES IDX 42 66 25 67 26 68 35 69 27 70 28 71 34 72 36 73 29 74 30 75
REMARK SMILES IDX 31 76 32 77 33 78 59 79 60 80 69 81 61 82 62 83 68 84 70 85
REMARK SMILES IDX 63 86 64 87 65 88 66 89 67 90 43 91 44 92 53 93 45 94 46 95
REMARK SMILES IDX 52 96 54 97 47 98 48 99 49 100 50 101 51 102
REMARK H PARENT 75 52 41 63
REMARK Flexibility Score: inf
ROOT
ATOM      1  O   UNL     1       3.638  -2.449  -1.382  1.00  0.00    -0.374 OA
ENDROOT
BRANCH   1   2
ATOM      2  C   UNL     1       3.932  -2.545  -2.764  1.00  0.00     0.202 C 
BRANCH   2   3
ATOM      3  C   UNL     1       2.704  -2.659  -3.681  1.00  0.00     0.261 C 
BRANCH   3   4
ATOM      4  O   UNL     1       1.711  -1.635  -3.442  1.00  0.00    -0.463 OA
BRANCH   4   5
ATOM      5  C   UNL     1       0.484  -2.072  -3.048  1.00  0.00     0.310 C 
ATOM      6  O   UNL     1       0.140  -3.253  -3.069  1.00  0.00    -0.252 OA
BRANCH   5   7
ATOM      7  C   UNL     1      -0.500  -0.993  -2.628  1.00  0.00     0.160 C 
BRANCH   7   8
ATOM      8  C   UNL     1      -0.016   0.385  -2.232  1.00  0.00    -0.015 A 
ATOM      9  C   UNL     1       0.169   0.258   0.373  1.00  0.00     0.065 C 
ATOM     10  C   UNL     1       0.284   0.908  -0.967  1.00  0.00     0.024 A 
ATOM     11  N   UNL     1       0.608   2.266  -1.102  1.00  0.00    -0.314 N 
ATOM     12  C   UNL     1      -0.003   1.495  -3.117  1.00  0.00     0.033 A 
ATOM     13  C   UNL     1       0.275   2.643  -2.398  1.00  0.00     0.053 A 
BRANCH  11  14
ATOM     14  C   UNL     1       1.127   3.143  -0.089  1.00  0.00     0.046 A 
ATOM     15  C   UNL     1       0.464   4.308   0.284  1.00  0.00     0.026 A 
ATOM     16  C   UNL     1       2.418   2.947   0.400  1.00  0.00     0.026 A 
ATOM     17  C   UNL     1       1.087   5.219   1.156  1.00  0.00     0.002 A 
ATOM     18  C   UNL     1       3.041   3.833   1.276  1.00  0.00     0.002 A 
ATOM     19  C   UNL     1       2.370   4.980   1.655  1.00  0.00     0.000 A 
ENDBRANCH  11  14
BRANCH  13  20
ATOM     20  C   UNL     1       0.298   4.013  -2.896  1.00  0.00    -0.001 A 
ATOM     21  C   UNL     1       1.502   4.715  -2.974  1.00  0.00     0.011 A 
ATOM     22  C   UNL     1      -0.895   4.637  -3.275  1.00  0.00     0.011 A 
ATOM     23  C   UNL     1       1.526   6.040  -3.400  1.00  0.00     0.021 A 
ATOM     24  C   UNL     1      -0.884   5.966  -3.696  1.00  0.00     0.021 A 
ATOM     25  C   UNL     1       0.326   6.662  -3.746  1.00  0.00     0.067 A 
BRANCH  25  26
ATOM     26  S   UNL     1       0.365   8.349  -4.296  1.00  0.00     0.175 S 
ATOM     27  C   UNL     1       0.986   9.253  -2.901  1.00  0.00     0.163 C 
ATOM     28  O   UNL     1       1.316   8.421  -5.371  1.00  0.00    -0.224 OA
ATOM     29  O   UNL     1      -1.025   8.765  -4.495  1.00  0.00    -0.224 OA
ENDBRANCH  25  26
ENDBRANCH  13  20
ENDBRANCH   7   8
ENDBRANCH   5   7
ENDBRANCH   4   5
ENDBRANCH   3   4
ENDBRANCH   2   3
ENDBRANCH   1   2
BRANCH   1  30
ATOM     30  C   UNL     1       3.107  -1.190  -0.974  1.00  0.00     0.202 C 
BRANCH  30  31
ATOM     31  C   UNL     1       4.010   0.083  -1.089  1.00  0.00     0.261 C 
BRANCH  31  32
ATOM     32  O   UNL     1       3.941   1.113  -2.195  1.00  0.00    -0.460 OA
BRANCH  32  33
ATOM     33  C   UNL     1       5.066   1.963  -2.317  1.00  0.00     0.338 C 
ATOM     34  O   UNL     1       6.117   1.659  -1.759  1.00  0.00    -0.246 OA
BRANCH  33  35
ATOM     35  C   UNL     1       5.041   3.347  -3.117  1.00  0.00     0.060 A 
ATOM     36  C   UNL     1       5.358   3.456  -4.476  1.00  0.00     0.016 A 
ATOM     37  C   UNL     1       5.118   4.619  -2.480  1.00  0.00     0.016 A 
ATOM     38  C   UNL     1       5.633   4.756  -5.151  1.00  0.00     0.010 A 
ATOM     39  C   UNL     1       5.427   5.934  -3.162  1.00  0.00     0.010 A 
ATOM     40  C   UNL     1       5.678   6.077  -4.548  1.00  0.00    -0.014 A 
BRANCH  40  41
ATOM     41  C   UNL     1       6.593   7.301  -5.327  1.00  0.00     0.031 A 
ATOM     42  C   UNL     1       7.852   6.536  -5.558  1.00  0.00     0.074 A 
ATOM     43  C   UNL     1       6.685   8.673  -5.729  1.00  0.00     0.049 A 
ATOM     44  N   UNL     1       8.450   5.966  -4.546  1.00  0.00    -0.248 NA
ATOM     45  C   UNL     1       8.252   6.028  -6.869  1.00  0.00     0.031 C 
ATOM     46  C   UNL     1       5.733   9.779  -5.465  1.00  0.00     0.029 A 
ATOM     47  N   UNL     1       7.674   9.459  -6.489  1.00  0.00    -0.354 N 
ATOM     48  C   UNL     1       9.522   5.293  -5.069  1.00  0.00     0.074 A 
ATOM     49  C   UNL     1       9.194   5.158  -6.485  1.00  0.00     0.031 C 
ATOM     50  C   UNL     1       6.051  10.943  -6.122  1.00  0.00     0.029 A 
ATOM     51  C   UNL     1       7.301  10.838  -6.884  1.00  0.00     0.049 A 
ATOM     52  H   UNL     1       8.551   9.080  -6.727  1.00  0.00     0.167 HD
ATOM     53  C   UNL     1      10.725   5.632  -4.520  1.00  0.00     0.037 A 
ATOM     54  C   UNL     1       7.948  11.837  -7.665  1.00  0.00     0.037 A 
ATOM     55  C   UNL     1      11.432   6.589  -5.329  1.00  0.00     0.049 A 
ATOM     56  C   UNL     1       9.380  11.542  -7.557  1.00  0.00     0.074 A 
ATOM     57  C   UNL     1      11.666   6.665  -6.686  1.00  0.00     0.029 A 
ATOM     58  N   UNL     1      11.587   7.864  -4.821  1.00  0.00    -0.354 N 
ATOM     59  N   UNL     1      10.065  11.837  -6.497  1.00  0.00    -0.248 NA
ATOM     60  C   UNL     1      10.145  10.987  -8.668  1.00  0.00     0.031 C 
ATOM     61  C   UNL     1      11.412   8.011  -7.006  1.00  0.00     0.029 A 
ATOM     62  C   UNL     1      11.500   8.776  -5.850  1.00  0.00     0.049 A 
ATOM     63  H   UNL     1      11.737   8.087  -3.874  1.00  0.00     0.167 HD
ATOM     64  C   UNL     1      11.135  11.007  -6.595  1.00  0.00     0.074 A 
ATOM     65  C   UNL     1      11.282  10.737  -8.015  1.00  0.00     0.031 C 
ATOM     66  C   UNL     1      11.325  10.174  -5.542  1.00  0.00     0.037 A 
BRANCH  53  67
ATOM     67  C   UNL     1      10.748   5.630  -3.019  1.00  0.00     0.058 A 
ATOM     68  C   UNL     1      11.433   4.606  -2.360  1.00  0.00     0.135 A 
ATOM     69  C   UNL     1      10.051   6.565  -2.224  1.00  0.00     0.135 A 
ATOM     70  F   UNL     1      12.134   3.702  -3.064  1.00  0.00    -0.206 F 
ATOM     71  C   UNL     1      11.410   4.494  -0.972  1.00  0.00     0.059 A 
ATOM     72  C   UNL     1       9.977   6.448  -0.841  1.00  0.00     0.059 A 
ATOM     73  F   UNL     1       9.446   7.625  -2.786  1.00  0.00    -0.206 F 
ATOM     74  C   UNL     1      10.666   5.410  -0.223  1.00  0.00     0.060 A 
BRANCH  74  75
ATOM     75  S   UNL     1      10.621   5.216   1.570  1.00  0.00     0.124 S 
ATOM     76  O   UNL     1      10.261   3.808   1.720  1.00  0.00    -0.237 OA
ATOM     77  O   UNL     1      11.991   5.554   1.938  1.00  0.00    -0.237 OA
ATOM     78  O   UNL     1       9.592   6.160   1.995  1.00  0.00    -0.744 OA
ENDBRANCH  74  75
ENDBRANCH  53  67
BRANCH  54  79
ATOM     79  C   UNL     1       7.833  13.240  -8.470  1.00  0.00     0.058 A 
ATOM     80  C   UNL     1       8.999  14.062  -8.754  1.00  0.00     0.135 A 
ATOM     81  C   UNL     1       6.753  13.586  -9.299  1.00  0.00     0.135 A 
ATOM     82  F   UNL     1      10.121  13.955  -8.027  1.00  0.00    -0.206 F 
ATOM     83  C   UNL     1       9.124  14.979  -9.830  1.00  0.00     0.059 A 
ATOM     84  C   UNL     1       6.848  14.534 -10.376  1.00  0.00     0.059 A 
ATOM     85  F   UNL     1       5.578  12.961  -9.147  1.00  0.00    -0.206 F 
ATOM     86  C   UNL     1       8.052  15.178 -10.676  1.00  0.00     0.060 A 
BRANCH  86  87
ATOM     87  S   UNL     1       8.305  16.126 -12.225  1.00  0.00     0.124 S 
ATOM     88  O   UNL     1       8.521  17.488 -11.748  1.00  0.00    -0.237 OA
ATOM     89  O   UNL     1       9.475  15.473 -12.808  1.00  0.00    -0.237 OA
ATOM     90  O   UNL     1       7.060  15.913 -12.959  1.00  0.00    -0.744 OA
ENDBRANCH  86  87
ENDBRANCH  54  79
BRANCH  66  91
ATOM     91  C   UNL     1      11.216  10.786  -4.153  1.00  0.00     0.058 A 
ATOM     92  C   UNL     1      10.169  11.600  -3.656  1.00  0.00     0.135 A 
ATOM     93  C   UNL     1      12.318  10.620  -3.297  1.00  0.00     0.135 A 
ATOM     94  F   UNL     1       9.005  11.743  -4.308  1.00  0.00    -0.206 F 
ATOM     95  C   UNL     1      10.273  12.294  -2.446  1.00  0.00     0.059 A 
ATOM     96  C   UNL     1      12.415  11.253  -2.059  1.00  0.00     0.059 A 
ATOM     97  F   UNL     1      13.339   9.832  -3.671  1.00  0.00    -0.206 F 
ATOM     98  C   UNL     1      11.409  12.127  -1.661  1.00  0.00     0.060 A 
BRANCH  98  99
ATOM     99  S   UNL     1      11.559  13.063  -0.124  1.00  0.00     0.124 S 
ATOM    100  O   UNL     1      11.757  14.424  -0.617  1.00  0.00    -0.237 OA
ATOM    101  O   UNL     1      10.280  12.811   0.530  1.00  0.00    -0.237 OA
ATOM    102  O   UNL     1      12.725  12.467   0.523  1.00  0.00    -0.744 OA
ENDBRANCH  98  99
ENDBRANCH  66  91
ENDBRANCH  40  41
ENDBRANCH  33  35
ENDBRANCH  32  33
ENDBRANCH  31  32
ENDBRANCH  30  31
ENDBRANCH   1  30
TORSDOF 21
