REMARK SMILES Cc1nn(C)c(=O)c(C(=O)N2CCCC[C@H]2C(=O)OCCOCCOC(=O)c2ccc(-c3c4nc(c(-c5c(F)cc(S(=O)(=O)[O-])cc5F)c5ccc([nH]5)c(-c5c(F)cc(S(=O)(=O)[O-])cc5F)c5nc(c(-c6c(F)cc(S(=O)(=O)[O-])cc6F)c6ccc3[nH]6)C=C5)C=C4)cc2)c1C
REMARK SMILES IDX 23 1 22 2 21 3 20 4 19 5 17 6 18 7 16 8 11 9 12 10 13 11
REMARK SMILES IDX 15 12 14 13 9 14 10 15 8 16 1 17 2 18 3 19 94 20 4 21 95 22
REMARK SMILES IDX 5 23 6 24 7 25 24 26 25 27 26 28 27 29 28 30 29 31 93 32
REMARK SMILES IDX 30 33 92 34 31 35 32 36 33 37 86 38 34 39 91 40 85 41 87 42
REMARK SMILES IDX 35 43 90 44 84 45 83 46 36 48 70 49 49 50 69 51 50 52 53 53
REMARK SMILES IDX 68 54 88 55 51 56 52 57 67 59 89 60 54 61 37 62 38 63 47 64
REMARK SMILES IDX 39 65 40 66 46 67 48 68 41 69 42 70 43 71 44 72 45 73 71 74
REMARK SMILES IDX 72 75 81 76 73 77 74 78 80 79 82 80 75 81 76 82 77 83 78 84
REMARK SMILES IDX 79 85 55 86 56 87 65 88 57 89 58 90 64 91 66 92 59 93 60 94
REMARK SMILES IDX 61 95 62 96 63 97
REMARK H PARENT 87 47 53 58
REMARK Flexibility Score: inf
ROOT
ATOM      1  C   UNL     1       0.057  -0.398   4.563  1.00  0.00     0.202 C 
ENDROOT
BRANCH   1   2
ATOM      2  O   UNL     1       0.275   0.692   3.661  1.00  0.00    -0.374 OA
BRANCH   2   3
ATOM      3  C   UNL     1      -0.457   1.900   3.789  1.00  0.00     0.202 C 
BRANCH   3   4
ATOM      4  C   UNL     1      -1.832   1.880   3.130  1.00  0.00     0.261 C 
BRANCH   4   5
ATOM      5  O   UNL     1      -2.418   0.578   3.233  1.00  0.00    -0.462 OA
BRANCH   5   6
ATOM      6  C   UNL     1      -3.579   0.410   2.554  1.00  0.00     0.328 C 
ATOM      7  O   UNL     1      -4.188   1.314   1.995  1.00  0.00    -0.250 OA
BRANCH   6   8
ATOM      8  C   UNL     1      -4.072  -1.051   2.598  1.00  0.00     0.195 C 
ATOM      9  N   UNL     1      -3.046  -2.041   3.018  1.00  0.00    -0.325 N 
ATOM     10  C   UNL     1      -3.261  -2.745   4.290  1.00  0.00     0.121 C 
ATOM     11  C   UNL     1      -4.149  -2.090   5.364  1.00  0.00     0.022 C 
ATOM     12  C   UNL     1      -5.356  -1.103   3.421  1.00  0.00     0.037 C 
ATOM     13  C   UNL     1      -5.034  -0.949   4.893  1.00  0.00     0.005 C 
BRANCH   9  14
ATOM     14  C   UNL     1      -2.596  -2.876   1.978  1.00  0.00     0.260 C 
ATOM     15  O   UNL     1      -3.361  -3.667   1.427  1.00  0.00    -0.269 OA
BRANCH  14  16
ATOM     16  C   UNL     1      -1.173  -2.763   1.522  1.00  0.00     0.111 A 
ATOM     17  C   UNL     1       1.394  -0.494  -0.051  1.00  0.00     0.069 C 
ATOM     18  C   UNL     1       0.681  -1.775   0.329  1.00  0.00     0.062 A 
ATOM     19  N   UNL     1       1.330  -2.880   0.170  1.00  0.00    -0.175 NA
ATOM     20  C   UNL     1      -0.721  -1.700   0.829  1.00  0.00    -0.010 A 
ATOM     21  N   UNL     1       0.744  -4.020   0.645  1.00  0.00    -0.232 N 
ATOM     22  C   UNL     1      -1.497  -0.523   0.346  1.00  0.00     0.047 C 
ATOM     23  C   UNL     1       1.415  -5.253   0.277  1.00  0.00     0.178 C 
ATOM     24  C   UNL     1      -0.348  -4.015   1.512  1.00  0.00     0.279 A 
ATOM     25  O   UNL     1      -0.681  -4.988   2.187  1.00  0.00    -0.267 OA
ENDBRANCH  14  16
ENDBRANCH   9  14
ENDBRANCH   6   8
ENDBRANCH   5   6
ENDBRANCH   4   5
ENDBRANCH   3   4
ENDBRANCH   2   3
ENDBRANCH   1   2
BRANCH   1  26
ATOM     26  C   UNL     1      -0.972  -0.368   5.709  1.00  0.00     0.261 C 
BRANCH  26  27
ATOM     27  O   UNL     1      -1.023   0.810   6.502  1.00  0.00    -0.460 OA
BRANCH  27  28
ATOM     28  C   UNL     1       0.115   1.154   7.146  1.00  0.00     0.338 C 
ATOM     29  O   UNL     1       1.127   0.506   7.261  1.00  0.00    -0.246 OA
BRANCH  28  30
ATOM     30  C   UNL     1      -0.055   2.586   7.457  1.00  0.00     0.060 A 
ATOM     31  C   UNL     1       0.918   3.471   6.986  1.00  0.00     0.016 A 
ATOM     32  C   UNL     1      -1.212   3.048   8.097  1.00  0.00     0.016 A 
ATOM     33  C   UNL     1       0.754   4.835   7.196  1.00  0.00     0.010 A 
ATOM     34  C   UNL     1      -1.373   4.412   8.311  1.00  0.00     0.010 A 
ATOM     35  C   UNL     1      -0.370   5.301   7.895  1.00  0.00    -0.014 A 
BRANCH  35  36
ATOM     36  C   UNL     1      -0.363   6.684   8.404  1.00  0.00     0.031 A 
ATOM     37  C   UNL     1       0.192   6.903   9.782  1.00  0.00     0.074 A 
ATOM     38  C   UNL     1      -0.788   7.703   7.639  1.00  0.00     0.049 A 
ATOM     39  N   UNL     1       0.370   8.017  10.436  1.00  0.00    -0.248 NA
ATOM     40  C   UNL     1       0.607   5.696  10.522  1.00  0.00     0.031 C 
ATOM     41  C   UNL     1      -1.325   7.577   6.284  1.00  0.00     0.029 A 
ATOM     42  N   UNL     1      -0.825   9.048   7.893  1.00  0.00    -0.354 N 
ATOM     43  C   UNL     1       0.933   7.649  11.651  1.00  0.00     0.074 A 
ATOM     44  C   UNL     1       1.024   6.208  11.669  1.00  0.00     0.031 C 
ATOM     45  C   UNL     1      -1.630   8.802   5.821  1.00  0.00     0.029 A 
ATOM     46  C   UNL     1      -1.323   9.792   6.850  1.00  0.00     0.049 A 
ATOM     47  H   UNL     1      -0.523   9.445   8.742  1.00  0.00     0.167 HD
ATOM     48  C   UNL     1       1.357   8.449  12.655  1.00  0.00     0.037 A 
ATOM     49  C   UNL     1      -1.501  11.124   6.751  1.00  0.00     0.037 A 
ATOM     50  C   UNL     1       1.240   9.879  12.622  1.00  0.00     0.049 A 
ATOM     51  C   UNL     1      -1.079  11.992   7.907  1.00  0.00     0.074 A 
ATOM     52  C   UNL     1       1.619  10.799  13.581  1.00  0.00     0.029 A 
ATOM     53  N   UNL     1       0.690  10.596  11.568  1.00  0.00    -0.354 N 
ATOM     54  N   UNL     1      -0.526  11.636   9.044  1.00  0.00    -0.248 NA
ATOM     55  C   UNL     1      -1.301  13.437   7.772  1.00  0.00     0.031 C 
ATOM     56  C   UNL     1       1.263  12.071  13.121  1.00  0.00     0.029 A 
ATOM     57  C   UNL     1       0.701  11.947  11.859  1.00  0.00     0.049 A 
ATOM     58  H   UNL     1       0.343  10.200  10.736  1.00  0.00     0.167 HD
ATOM     59  C   UNL     1      -0.321  12.812   9.755  1.00  0.00     0.074 A 
ATOM     60  C   UNL     1      -0.797  13.893   8.913  1.00  0.00     0.031 C 
ATOM     61  C   UNL     1       0.209  12.989  10.991  1.00  0.00     0.037 A 
BRANCH  48  62
ATOM     62  C   UNL     1       1.965   7.785  13.856  1.00  0.00     0.058 A 
ATOM     63  C   UNL     1       3.239   7.196  13.801  1.00  0.00     0.135 A 
ATOM     64  C   UNL     1       1.268   7.728  15.072  1.00  0.00     0.135 A 
ATOM     65  F   UNL     1       3.934   7.195  12.652  1.00  0.00    -0.206 F 
ATOM     66  C   UNL     1       3.793   6.556  14.905  1.00  0.00     0.059 A 
ATOM     67  C   UNL     1       1.812   7.113  16.197  1.00  0.00     0.059 A 
ATOM     68  F   UNL     1       0.040   8.260  15.174  1.00  0.00    -0.206 F 
ATOM     69  C   UNL     1       3.071   6.520  16.099  1.00  0.00     0.060 A 
BRANCH  69  70
ATOM     70  S   UNL     1       3.805   5.687  17.523  1.00  0.00     0.124 S 
ATOM     71  O   UNL     1       3.710   4.287  17.123  1.00  0.00    -0.237 OA
ATOM     72  O   UNL     1       5.152   6.249  17.551  1.00  0.00    -0.237 OA
ATOM     73  O   UNL     1       2.941   6.082  18.631  1.00  0.00    -0.744 OA
ENDBRANCH  69  70
ENDBRANCH  48  62
BRANCH  49  74
ATOM     74  C   UNL     1      -2.081  11.704   5.511  1.00  0.00     0.058 A 
ATOM     75  C   UNL     1      -1.292  12.439   4.615  1.00  0.00     0.135 A 
ATOM     76  C   UNL     1      -3.429  11.498   5.175  1.00  0.00     0.135 A 
ATOM     77  F   UNL     1      -0.000  12.670   4.894  1.00  0.00    -0.206 F 
ATOM     78  C   UNL     1      -1.814  12.946   3.428  1.00  0.00     0.059 A 
ATOM     79  C   UNL     1      -3.970  11.979   3.985  1.00  0.00     0.059 A 
ATOM     80  F   UNL     1      -4.226  10.794   5.993  1.00  0.00    -0.206 F 
ATOM     81  C   UNL     1      -3.153  12.703   3.118  1.00  0.00     0.060 A 
BRANCH  81  82
ATOM     82  S   UNL     1      -3.797  13.296   1.537  1.00  0.00     0.124 S 
ATOM     83  O   UNL     1      -3.852  14.736   1.762  1.00  0.00    -0.237 OA
ATOM     84  O   UNL     1      -2.778  12.834   0.600  1.00  0.00    -0.237 OA
ATOM     85  O   UNL     1      -5.089  12.624   1.427  1.00  0.00    -0.744 OA
ENDBRANCH  81  82
ENDBRANCH  49  74
BRANCH  61  86
ATOM     86  C   UNL     1       0.301  14.396  11.505  1.00  0.00     0.058 A 
ATOM     87  C   UNL     1      -0.832  15.069  11.985  1.00  0.00     0.135 A 
ATOM     88  C   UNL     1       1.545  15.038  11.604  1.00  0.00     0.135 A 
ATOM     89  F   UNL     1      -2.043  14.495  11.908  1.00  0.00    -0.206 F 
ATOM     90  C   UNL     1      -0.736  16.340  12.538  1.00  0.00     0.059 A 
ATOM     91  C   UNL     1       1.667  16.300  12.175  1.00  0.00     0.059 A 
ATOM     92  F   UNL     1       2.659  14.426  11.170  1.00  0.00    -0.206 F 
ATOM     93  C   UNL     1       0.519  16.945  12.634  1.00  0.00     0.060 A 
BRANCH  93  94
ATOM     94  S   UNL     1       0.635  18.573  13.403  1.00  0.00     0.124 S 
ATOM     95  O   UNL     1       0.067  19.428  12.365  1.00  0.00    -0.237 OA
ATOM     96  O   UNL     1      -0.178  18.409  14.604  1.00  0.00    -0.237 OA
ATOM     97  O   UNL     1       2.066  18.737  13.639  1.00  0.00    -0.744 OA
ENDBRANCH  93  94
ENDBRANCH  61  86
ENDBRANCH  35  36
ENDBRANCH  28  30
ENDBRANCH  27  28
ENDBRANCH  26  27
ENDBRANCH   1  26
TORSDOF 19
