REMARK SMILES O=C(CSc1csc(C(=O)OCCOCCOC(=O)c2ccc(-c3c4nc(c(-c5c(F)cc(S(=O)(=O)[O-])cc5F)c5ccc([nH]5)c(-c5c(F)cc(S(=O)(=O)[O-])cc5F)c5nc(c(-c6c(F)cc(S(=O)(=O)[O-])cc6F)c6ccc3[nH]6)C=C5)C=C4)cc2)c1)NC(=O)c1ccc[nH]1
REMARK SMILES IDX 13 1 12 2 11 3 9 4 10 5 8 6 5 7 6 8 86 9 7 10 4 11 3 12 2 13
REMARK SMILES IDX 1 14 87 15 88 16 89 18 90 19 91 20 94 21 92 22 93 23 14 25
REMARK SMILES IDX 15 26 16 27 17 28 18 29 19 30 20 31 21 32 85 33 22 34 84 35
REMARK SMILES IDX 23 36 24 37 25 38 78 39 26 40 83 41 77 42 79 43 27 44 82 45
REMARK SMILES IDX 76 46 75 47 28 49 62 50 41 51 61 52 42 53 45 54 60 55 80 56
REMARK SMILES IDX 43 57 44 58 59 60 81 61 46 62 29 63 30 64 39 65 31 66 32 67
REMARK SMILES IDX 38 68 40 69 33 70 34 71 35 72 36 73 37 74 63 75 64 76 73 77
REMARK SMILES IDX 65 78 66 79 72 80 74 81 67 82 68 83 69 84 70 85 71 86 47 87
REMARK SMILES IDX 48 88 57 89 49 90 50 91 56 92 58 93 51 94 52 95 53 96 54 97
REMARK SMILES IDX 55 98
REMARK H PARENT 87 17 94 24 79 48 45 59
REMARK Flexibility Score: inf
ROOT
ATOM      1  C   UNL     1       2.285  -8.948  -2.560  1.00  0.00     0.202 C 
ENDROOT
BRANCH   1   2
ATOM      2  C   UNL     1       3.485  -8.263  -3.221  1.00  0.00     0.261 C 
BRANCH   2   3
ATOM      3  O   UNL     1       3.658  -6.924  -2.721  1.00  0.00    -0.459 OA
BRANCH   3   4
ATOM      4  C   UNL     1       3.271  -5.932  -3.575  1.00  0.00     0.348 C 
ATOM      5  O   UNL     1       2.946  -6.109  -4.743  1.00  0.00    -0.245 OA
BRANCH   4   6
ATOM      6  C   UNL     1       3.214  -4.663  -2.873  1.00  0.00     0.113 A 
ATOM      7  C   UNL     1       3.579  -2.840  -1.454  1.00  0.00     0.019 A 
ATOM      8  C   UNL     1       2.611  -2.344  -2.294  1.00  0.00     0.080 A 
ATOM      9  C   UNL     1       3.897  -4.202  -1.758  1.00  0.00     0.042 A 
ATOM     10  S   UNL     1       2.117  -3.482  -3.462  1.00  0.00    -0.136 S 
BRANCH   7  11
ATOM     11  S   UNL     1       4.466  -1.901  -0.257  1.00  0.00    -0.115 SA
BRANCH  11  12
ATOM     12  C   UNL     1       3.187  -1.255   0.853  1.00  0.00     0.175 C 
BRANCH  12  13
ATOM     13  C   UNL     1       2.187  -0.357   0.152  1.00  0.00     0.237 C 
ATOM     14  O   UNL     1       0.985  -0.588   0.235  1.00  0.00    -0.274 OA
ATOM     15  N   UNL     1       2.756   0.734  -0.496  1.00  0.00    -0.290 N 
ATOM     16  C   UNL     1       2.217   1.523  -1.497  1.00  0.00     0.274 C 
ATOM     17  H   UNL     1       3.664   0.977  -0.203  1.00  0.00     0.173 HD
ATOM     18  O   UNL     1       2.980   1.938  -2.371  1.00  0.00    -0.267 OA
BRANCH  16  19
ATOM     19  C   UNL     1       0.795   1.763  -1.558  1.00  0.00     0.104 A 
ATOM     20  C   UNL     1      -0.156   1.922  -0.564  1.00  0.00     0.033 A 
ATOM     21  N   UNL     1       0.133   1.930  -2.758  1.00  0.00    -0.357 N 
ATOM     22  C   UNL     1      -1.417   2.104  -1.182  1.00  0.00     0.020 A 
ATOM     23  C   UNL     1      -1.209   2.091  -2.541  1.00  0.00     0.083 A 
ATOM     24  H   UNL     1       0.565   1.933  -3.643  1.00  0.00     0.166 HD
ENDBRANCH  16  19
ENDBRANCH  12  13
ENDBRANCH  11  12
ENDBRANCH   7  11
ENDBRANCH   4   6
ENDBRANCH   3   4
ENDBRANCH   2   3
ENDBRANCH   1   2
BRANCH   1  25
ATOM     25  O   UNL     1       1.016  -8.380  -2.891  1.00  0.00    -0.374 OA
BRANCH  25  26
ATOM     26  C   UNL     1       0.581  -7.290  -2.074  1.00  0.00     0.202 C 
BRANCH  26  27
ATOM     27  C   UNL     1      -0.115  -7.692  -0.769  1.00  0.00     0.261 C 
BRANCH  27  28
ATOM     28  O   UNL     1       0.815  -8.297   0.148  1.00  0.00    -0.460 OA
BRANCH  28  29
ATOM     29  C   UNL     1       0.635  -9.626   0.344  1.00  0.00     0.338 C 
ATOM     30  O   UNL     1      -0.283 -10.312  -0.074  1.00  0.00    -0.246 OA
BRANCH  29  31
ATOM     31  C   UNL     1       1.821 -10.205   1.009  1.00  0.00     0.060 A 
ATOM     32  C   UNL     1       2.332 -11.394   0.476  1.00  0.00     0.016 A 
ATOM     33  C   UNL     1       2.398  -9.636   2.149  1.00  0.00     0.016 A 
ATOM     34  C   UNL     1       3.386 -12.047   1.111  1.00  0.00     0.010 A 
ATOM     35  C   UNL     1       3.455 -10.296   2.787  1.00  0.00     0.010 A 
ATOM     36  C   UNL     1       3.932 -11.523   2.291  1.00  0.00    -0.014 A 
BRANCH  36  37
ATOM     37  C   UNL     1       4.919 -12.332   3.047  1.00  0.00     0.031 A 
ATOM     38  C   UNL     1       4.461 -13.140   4.231  1.00  0.00     0.074 A 
ATOM     39  C   UNL     1       6.201 -12.393   2.644  1.00  0.00     0.049 A 
ATOM     40  N   UNL     1       5.142 -13.966   4.983  1.00  0.00    -0.248 NA
ATOM     41  C   UNL     1       3.048 -12.999   4.617  1.00  0.00     0.031 C 
ATOM     42  C   UNL     1       6.763 -11.667   1.507  1.00  0.00     0.029 A 
ATOM     43  N   UNL     1       7.261 -13.106   3.146  1.00  0.00    -0.354 N 
ATOM     44  C   UNL     1       4.243 -14.447   5.928  1.00  0.00     0.074 A 
ATOM     45  C   UNL     1       2.977 -13.792   5.677  1.00  0.00     0.031 C 
ATOM     46  C   UNL     1       8.068 -11.972   1.396  1.00  0.00     0.029 A 
ATOM     47  C   UNL     1       8.435 -12.903   2.462  1.00  0.00     0.049 A 
ATOM     48  H   UNL     1       7.187 -13.707   3.922  1.00  0.00     0.167 HD
ATOM     49  C   UNL     1       4.450 -15.361   6.906  1.00  0.00     0.037 A 
ATOM     50  C   UNL     1       9.667 -13.407   2.674  1.00  0.00     0.037 A 
ATOM     51  C   UNL     1       5.710 -16.012   7.155  1.00  0.00     0.049 A 
ATOM     52  C   UNL     1       9.881 -14.394   3.789  1.00  0.00     0.074 A 
ATOM     53  C   UNL     1       6.010 -16.978   8.101  1.00  0.00     0.029 A 
ATOM     54  N   UNL     1       6.884 -15.758   6.461  1.00  0.00    -0.354 N 
ATOM     55  N   UNL     1       9.011 -14.874   4.645  1.00  0.00    -0.248 NA
ATOM     56  C   UNL     1      11.244 -14.916   3.961  1.00  0.00     0.031 C 
ATOM     57  C   UNL     1       7.375 -17.274   8.008  1.00  0.00     0.029 A 
ATOM     58  C   UNL     1       7.917 -16.526   6.975  1.00  0.00     0.049 A 
ATOM     59  H   UNL     1       6.971 -15.123   5.713  1.00  0.00     0.167 HD
ATOM     60  C   UNL     1       9.716 -15.765   5.447  1.00  0.00     0.074 A 
ATOM     61  C   UNL     1      11.081 -15.771   4.961  1.00  0.00     0.031 C 
ATOM     62  C   UNL     1       9.275 -16.512   6.491  1.00  0.00     0.037 A 
BRANCH  49  63
ATOM     63  C   UNL     1       3.285 -15.697   7.795  1.00  0.00     0.058 A 
ATOM     64  C   UNL     1       2.203 -16.466   7.336  1.00  0.00     0.135 A 
ATOM     65  C   UNL     1       3.258 -15.261   9.130  1.00  0.00     0.135 A 
ATOM     66  F   UNL     1       2.171 -16.894   6.064  1.00  0.00    -0.206 F 
ATOM     67  C   UNL     1       1.123 -16.766   8.159  1.00  0.00     0.059 A 
ATOM     68  C   UNL     1       2.199 -15.570   9.978  1.00  0.00     0.059 A 
ATOM     69  F   UNL     1       4.266 -14.522   9.619  1.00  0.00    -0.206 F 
ATOM     70  C   UNL     1       1.128 -16.309   9.478  1.00  0.00     0.060 A 
BRANCH  70  71
ATOM     71  S   UNL     1      -0.284 -16.698  10.534  1.00  0.00     0.124 S 
ATOM     72  O   UNL     1      -1.295 -15.780  10.017  1.00  0.00    -0.237 OA
ATOM     73  O   UNL     1      -0.509 -18.112  10.251  1.00  0.00    -0.237 OA
ATOM     74  O   UNL     1       0.204 -16.402  11.877  1.00  0.00    -0.744 OA
ENDBRANCH  70  71
ENDBRANCH  49  63
BRANCH  50  75
ATOM     75  C   UNL     1      10.794 -12.986   1.802  1.00  0.00     0.058 A 
ATOM     76  C   UNL     1      11.354 -13.863   0.862  1.00  0.00     0.135 A 
ATOM     77  C   UNL     1      11.321 -11.688   1.882  1.00  0.00     0.135 A 
ATOM     78  F   UNL     1      10.890 -15.118   0.757  1.00  0.00    -0.206 F 
ATOM     79  C   UNL     1      12.402 -13.472   0.035  1.00  0.00     0.059 A 
ATOM     80  C   UNL     1      12.354 -11.266   1.051  1.00  0.00     0.059 A 
ATOM     81  F   UNL     1      10.812 -10.808   2.758  1.00  0.00    -0.206 F 
ATOM     82  C   UNL     1      12.892 -12.168   0.135  1.00  0.00     0.060 A 
BRANCH  82  83
ATOM     83  S   UNL     1      14.205 -11.645  -0.990  1.00  0.00     0.124 S 
ATOM     84  O   UNL     1      15.369 -12.303  -0.409  1.00  0.00    -0.237 OA
ATOM     85  O   UNL     1      13.743 -12.175  -2.269  1.00  0.00    -0.237 OA
ATOM     86  O   UNL     1      14.180 -10.190  -0.878  1.00  0.00    -0.744 OA
ENDBRANCH  82  83
ENDBRANCH  50  75
BRANCH  62  87
ATOM     87  C   UNL     1      10.278 -17.403   7.170  1.00  0.00     0.058 A 
ATOM     88  C   UNL     1      11.284 -16.880   7.997  1.00  0.00     0.135 A 
ATOM     89  C   UNL     1      10.221 -18.797   7.010  1.00  0.00     0.135 A 
ATOM     90  F   UNL     1      11.386 -15.553   8.181  1.00  0.00    -0.206 F 
ATOM     91  C   UNL     1      12.221 -17.704   8.614  1.00  0.00     0.059 A 
ATOM     92  C   UNL     1      11.131 -19.642   7.637  1.00  0.00     0.059 A 
ATOM     93  F   UNL     1       9.271 -19.351   6.240  1.00  0.00    -0.206 F 
ATOM     94  C   UNL     1      12.139 -19.084   8.423  1.00  0.00     0.060 A 
BRANCH  94  95
ATOM     95  S   UNL     1      13.357 -20.146   9.229  1.00  0.00     0.124 S 
ATOM     96  O   UNL     1      14.525 -19.952   8.376  1.00  0.00    -0.237 OA
ATOM     97  O   UNL     1      13.446 -19.566  10.566  1.00  0.00    -0.237 OA
ATOM     98  O   UNL     1      12.745 -21.470   9.167  1.00  0.00    -0.744 OA
ENDBRANCH  94  95
ENDBRANCH  62  87
ENDBRANCH  36  37
ENDBRANCH  29  31
ENDBRANCH  28  29
ENDBRANCH  27  28
ENDBRANCH  26  27
ENDBRANCH  25  26
ENDBRANCH   1  25
TORSDOF 21
