REMARK SMILES COc1ccccc1[C@@H]1C[N@@H+](Cc2cc3c(cc2C)OCO3)C[C@H]1C(=O)OCCOCCOC(=O)c1ccc(-c2c3nc(c(-c4c(F)cc(S(=O)(=O)[O-])cc4F)c4ccc([nH]4)c(-c4c(F)cc(S(=O)(=O)[O-])cc4F)c4nc(c(-c5c(F)cc(S(=O)(=O)[O-])cc5F)c5ccc2[nH]5)C=C4)C=C3)cc1
REMARK SMILES IDX 31 1 30 2 29 3 28 4 27 5 25 6 26 7 24 8 9 9 10 10 11 11
REMARK SMILES IDX 23 12 8 14 3 15 4 16 5 17 7 18 6 19 2 20 1 21 12 22 13 23
REMARK SMILES IDX 14 24 18 25 15 26 17 27 19 28 16 29 22 30 20 31 21 32 32 33
REMARK SMILES IDX 33 34 34 35 35 36 36 37 37 38 101 39 38 40 100 41 39 42
REMARK SMILES IDX 40 43 41 44 94 45 42 46 99 47 93 48 95 49 43 50 98 51 92 52
REMARK SMILES IDX 91 53 44 55 78 56 57 57 77 58 58 59 61 60 76 61 96 62 59 63
REMARK SMILES IDX 60 64 75 66 97 67 62 68 45 69 46 70 55 71 47 72 48 73 54 74
REMARK SMILES IDX 56 75 49 76 50 77 51 78 52 79 53 80 79 81 80 82 89 83 81 84
REMARK SMILES IDX 82 85 88 86 90 87 83 88 84 89 85 90 86 91 87 92 63 93 64 94
REMARK SMILES IDX 73 95 65 96 66 97 72 98 74 99 67 100 68 101 69 102 70 103
REMARK SMILES IDX 71 104
REMARK H PARENT 11 13 95 54 61 65
REMARK Flexibility Score: inf
ROOT
ATOM      1  C   UNL     1       2.010   4.923   2.202  1.00  0.00     0.202 C 
ENDROOT
BRANCH   1   2
ATOM      2  O   UNL     1       2.614   4.961   3.489  1.00  0.00    -0.374 OA
BRANCH   2   3
ATOM      3  C   UNL     1       3.748   4.116   3.696  1.00  0.00     0.202 C 
BRANCH   3   4
ATOM      4  C   UNL     1       3.491   2.611   3.586  1.00  0.00     0.261 C 
BRANCH   4   5
ATOM      5  O   UNL     1       3.247   2.176   2.230  1.00  0.00    -0.463 OA
BRANCH   5   6
ATOM      6  C   UNL     1       2.758   0.908   2.177  1.00  0.00     0.315 C 
ATOM      7  O   UNL     1       2.604   0.202   3.172  1.00  0.00    -0.252 OA
BRANCH   6   8
ATOM      8  C   UNL     1       2.273   0.451   0.813  1.00  0.00     0.167 C 
ATOM      9  C   UNL     1       2.707   1.195  -0.450  1.00  0.00     0.098 C 
ATOM     10  C   UNL     1       3.174   0.102  -1.433  1.00  0.00     0.272 C 
ATOM     11  N   UNL     1       3.474  -1.093  -0.656  1.00  0.00    -0.330 N 
ATOM     12  C   UNL     1       2.742  -0.998   0.606  1.00  0.00     0.278 C 
ATOM     13  H   UNL     1       3.141  -1.904  -1.178  1.00  0.00     0.348 HD
BRANCH   9  14
ATOM     14  C   UNL     1       1.735   2.135  -1.169  1.00  0.00     0.004 A 
ATOM     15  C   UNL     1       0.336   2.029  -1.303  1.00  0.00     0.122 A 
ATOM     16  C   UNL     1      -0.377   3.018  -2.012  1.00  0.00     0.047 A 
ATOM     17  C   UNL     1       0.265   4.110  -2.597  1.00  0.00     0.004 A 
ATOM     18  C   UNL     1       2.360   3.238  -1.811  1.00  0.00     0.008 A 
ATOM     19  C   UNL     1       1.640   4.221  -2.494  1.00  0.00     0.001 A 
BRANCH  15  20
ATOM     20  O   UNL     1      -0.495   1.162  -0.645  1.00  0.00    -0.496 OA
ATOM     21  C   UNL     1      -0.371  -0.233  -0.890  1.00  0.00     0.278 C 
ENDBRANCH  15  20
ENDBRANCH   9  14
BRANCH  11  22
ATOM     22  C   UNL     1       4.890  -1.490  -0.557  1.00  0.00     0.299 C 
BRANCH  22  23
ATOM     23  C   UNL     1       5.801  -0.557   0.215  1.00  0.00     0.013 A 
ATOM     24  C   UNL     1       6.209   0.609  -0.454  1.00  0.00     0.060 A 
ATOM     25  C   UNL     1       6.168  -0.750   1.585  1.00  0.00    -0.038 A 
ATOM     26  C   UNL     1       6.719   1.617   0.307  1.00  0.00     0.166 A 
ATOM     27  C   UNL     1       6.835   0.266   2.285  1.00  0.00     0.054 A 
ATOM     28  C   UNL     1       5.754  -1.921   2.429  1.00  0.00     0.045 C 
ATOM     29  C   UNL     1       7.001   1.455   1.641  1.00  0.00     0.166 A 
ATOM     30  O   UNL     1       6.778   2.919  -0.077  1.00  0.00    -0.454 OA
ATOM     31  O   UNL     1       7.237   2.635   2.263  1.00  0.00    -0.454 OA
ATOM     32  C   UNL     1       6.721   3.491   1.237  1.00  0.00     0.468 C 
ENDBRANCH  22  23
ENDBRANCH  11  22
ENDBRANCH   6   8
ENDBRANCH   5   6
ENDBRANCH   4   5
ENDBRANCH   3   4
ENDBRANCH   2   3
ENDBRANCH   1   2
BRANCH   1  33
ATOM     33  C   UNL     1       2.724   5.665   1.063  1.00  0.00     0.261 C 
BRANCH  33  34
ATOM     34  O   UNL     1       4.140   5.796   1.201  1.00  0.00    -0.460 OA
BRANCH  34  35
ATOM     35  C   UNL     1       4.571   6.989   1.698  1.00  0.00     0.338 C 
ATOM     36  O   UNL     1       3.909   7.940   2.037  1.00  0.00    -0.246 OA
BRANCH  35  37
ATOM     37  C   UNL     1       6.039   6.885   1.819  1.00  0.00     0.060 A 
ATOM     38  C   UNL     1       6.615   6.819   3.092  1.00  0.00     0.016 A 
ATOM     39  C   UNL     1       6.826   6.749   0.672  1.00  0.00     0.016 A 
ATOM     40  C   UNL     1       7.989   6.579   3.227  1.00  0.00     0.010 A 
ATOM     41  C   UNL     1       8.195   6.486   0.811  1.00  0.00     0.010 A 
ATOM     42  C   UNL     1       8.792   6.398   2.091  1.00  0.00    -0.014 A 
BRANCH  42  43
ATOM     43  C   UNL     1      10.276   6.305   2.199  1.00  0.00     0.031 A 
ATOM     44  C   UNL     1      11.066   7.475   1.674  1.00  0.00     0.074 A 
ATOM     45  C   UNL     1      10.928   5.241   2.716  1.00  0.00     0.049 A 
ATOM     46  N   UNL     1      12.359   7.637   1.589  1.00  0.00    -0.248 NA
ATOM     47  C   UNL     1      10.281   8.604   1.145  1.00  0.00     0.031 C 
ATOM     48  C   UNL     1      10.312   4.025   3.247  1.00  0.00     0.029 A 
ATOM     49  N   UNL     1      12.279   5.009   2.864  1.00  0.00    -0.354 N 
ATOM     50  C   UNL     1      12.533   8.884   1.003  1.00  0.00     0.074 A 
ATOM     51  C   UNL     1      11.225   9.384   0.652  1.00  0.00     0.031 C 
ATOM     52  C   UNL     1      11.277   3.172   3.643  1.00  0.00     0.029 A 
ATOM     53  C   UNL     1      12.586   3.777   3.400  1.00  0.00     0.049 A 
ATOM     54  H   UNL     1      12.965   5.667   2.609  1.00  0.00     0.167 HD
ATOM     55  C   UNL     1      13.670   9.592   0.826  1.00  0.00     0.037 A 
ATOM     56  C   UNL     1      13.782   3.208   3.665  1.00  0.00     0.037 A 
ATOM     57  C   UNL     1      14.973   9.127   1.191  1.00  0.00     0.049 A 
ATOM     58  C   UNL     1      15.050   3.994   3.414  1.00  0.00     0.074 A 
ATOM     59  C   UNL     1      16.185   9.780   1.067  1.00  0.00     0.029 A 
ATOM     60  N   UNL     1      15.233   7.890   1.759  1.00  0.00    -0.354 N 
ATOM     61  N   UNL     1      15.189   5.204   2.926  1.00  0.00    -0.248 NA
ATOM     62  C   UNL     1      16.323   3.347   3.772  1.00  0.00     0.031 C 
ATOM     63  C   UNL     1      17.186   8.924   1.538  1.00  0.00     0.029 A 
ATOM     64  C   UNL     1      16.590   7.756   1.987  1.00  0.00     0.049 A 
ATOM     65  H   UNL     1      14.553   7.210   1.969  1.00  0.00     0.167 HD
ATOM     66  C   UNL     1      16.555   5.477   2.962  1.00  0.00     0.074 A 
ATOM     67  C   UNL     1      17.201   4.308   3.517  1.00  0.00     0.031 C 
ATOM     68  C   UNL     1      17.213   6.598   2.576  1.00  0.00     0.037 A 
BRANCH  55  69
ATOM     69  C   UNL     1      13.512  10.961   0.235  1.00  0.00     0.058 A 
ATOM     70  C   UNL     1      12.920  12.002   0.971  1.00  0.00     0.135 A 
ATOM     71  C   UNL     1      13.891  11.219  -1.089  1.00  0.00     0.135 A 
ATOM     72  F   UNL     1      12.507  11.790   2.232  1.00  0.00    -0.206 F 
ATOM     73  C   UNL     1      12.665  13.240   0.397  1.00  0.00     0.059 A 
ATOM     74  C   UNL     1      13.672  12.461  -1.674  1.00  0.00     0.059 A 
ATOM     75  F   UNL     1      14.448  10.252  -1.835  1.00  0.00    -0.206 F 
ATOM     76  C   UNL     1      13.038  13.457  -0.930  1.00  0.00     0.060 A 
BRANCH  76  77
ATOM     77  S   UNL     1      12.672  15.058  -1.673  1.00  0.00     0.124 S 
ATOM     78  O   UNL     1      11.237  14.945  -1.913  1.00  0.00    -0.237 OA
ATOM     79  O   UNL     1      13.067  15.990  -0.621  1.00  0.00    -0.237 OA
ATOM     80  O   UNL     1      13.509  15.075  -2.868  1.00  0.00    -0.744 OA
ENDBRANCH  76  77
ENDBRANCH  55  69
BRANCH  56  81
ATOM     81  C   UNL     1      13.870   1.828   4.228  1.00  0.00     0.058 A 
ATOM     82  C   UNL     1      14.283   1.607   5.551  1.00  0.00     0.135 A 
ATOM     83  C   UNL     1      13.611   0.700   3.434  1.00  0.00     0.135 A 
ATOM     84  F   UNL     1      14.563   2.650   6.348  1.00  0.00    -0.206 F 
ATOM     85  C   UNL     1      14.464   0.323   6.060  1.00  0.00     0.059 A 
ATOM     86  C   UNL     1      13.764  -0.596   3.926  1.00  0.00     0.059 A 
ATOM     87  F   UNL     1      13.213   0.851   2.162  1.00  0.00    -0.206 F 
ATOM     88  C   UNL     1      14.206  -0.774   5.237  1.00  0.00     0.060 A 
BRANCH  88  89
ATOM     89  S   UNL     1      14.431  -2.437   5.910  1.00  0.00     0.124 S 
ATOM     90  O   UNL     1      15.885  -2.547   5.944  1.00  0.00    -0.237 OA
ATOM     91  O   UNL     1      13.768  -2.337   7.206  1.00  0.00    -0.237 OA
ATOM     92  O   UNL     1      13.756  -3.288   4.934  1.00  0.00    -0.744 OA
ENDBRANCH  88  89
ENDBRANCH  56  81
BRANCH  68  93
ATOM     93  C   UNL     1      18.699   6.656   2.788  1.00  0.00     0.058 A 
ATOM     94  C   UNL     1      19.591   5.956   1.963  1.00  0.00     0.135 A 
ATOM     95  C   UNL     1      19.238   7.507   3.768  1.00  0.00     0.135 A 
ATOM     96  F   UNL     1      19.126   5.130   1.013  1.00  0.00    -0.206 F 
ATOM     97  C   UNL     1      20.968   6.091   2.107  1.00  0.00     0.059 A 
ATOM     98  C   UNL     1      20.611   7.675   3.913  1.00  0.00     0.059 A 
ATOM     99  F   UNL     1      18.427   8.210   4.574  1.00  0.00    -0.206 F 
ATOM    100  C   UNL     1      21.469   6.958   3.081  1.00  0.00     0.060 A 
BRANCH 100 101
ATOM    101  S   UNL     1      23.257   7.176   3.213  1.00  0.00     0.124 S 
ATOM    102  O   UNL     1      23.654   5.944   3.886  1.00  0.00    -0.237 OA
ATOM    103  O   UNL     1      23.663   7.295   1.816  1.00  0.00    -0.237 OA
ATOM    104  O   UNL     1      23.392   8.396   4.004  1.00  0.00    -0.744 OA
ENDBRANCH 100 101
ENDBRANCH  68  93
ENDBRANCH  42  43
ENDBRANCH  35  37
ENDBRANCH  34  35
ENDBRANCH  33  34
ENDBRANCH   1  33
TORSDOF 21
