REMARK SMILES O=C(OCCOCCOC(=O)c1cnc(Nc2ccccc2)nc1)c1ccc(-c2c3nc(c(-c4c(F)cc(S(=O)(=O)[O-])cc4F)c4ccc([nH]4)c(-c4c(F)cc(S(=O)(=O)[O-])cc4F)c4nc(c(-c5c(F)cc(S(=O)(=O)[O-])cc5F)c5ccc2[nH]5)C=C4)C=C3)cc1
REMARK SMILES IDX 5 1 4 2 3 3 2 4 1 5 25 6 26 7 90 8 27 9 89 10 28 11 29 12
REMARK SMILES IDX 30 13 83 14 31 15 88 16 82 17 84 18 32 19 87 20 81 21 80 22
REMARK SMILES IDX 33 24 67 25 46 26 66 27 47 28 50 29 65 30 85 31 48 32 49 33
REMARK SMILES IDX 64 35 86 36 51 37 34 38 35 39 44 40 36 41 37 42 43 43 45 44
REMARK SMILES IDX 38 45 39 46 40 47 41 48 42 49 68 50 69 51 78 52 70 53 71 54
REMARK SMILES IDX 77 55 79 56 72 57 73 58 74 59 75 60 76 61 52 62 53 63 62 64
REMARK SMILES IDX 54 65 55 66 61 67 63 68 56 69 57 70 58 71 59 72 60 73 6 74
REMARK SMILES IDX 7 75 8 76 9 77 10 78 11 79 12 80 13 81 24 82 14 83 23 84
REMARK SMILES IDX 15 85 16 86 17 88 18 89 22 90 19 91 21 92 20 93
REMARK H PARENT 84 23 50 34 16 87
REMARK Flexibility Score: inf
ROOT
ATOM      1  C   UNL     1       4.273  -1.645  -0.454  1.00  0.00     0.202 C 
ENDROOT
BRANCH   1   2
ATOM      2  C   UNL     1       3.957  -1.054   0.922  1.00  0.00     0.261 C 
BRANCH   2   3
ATOM      3  O   UNL     1       2.579  -0.647   0.974  1.00  0.00    -0.460 OA
BRANCH   3   4
ATOM      4  C   UNL     1       2.073   0.607   1.040  1.00  0.00     0.338 C 
ATOM      5  O   UNL     1       0.863   0.743   1.212  1.00  0.00    -0.246 OA
BRANCH   4   6
ATOM      6  C   UNL     1       2.905   1.839   0.896  1.00  0.00     0.060 A 
ATOM      7  C   UNL     1       4.089   1.917   0.160  1.00  0.00     0.016 A 
ATOM      8  C   UNL     1       2.399   3.023   1.458  1.00  0.00     0.016 A 
ATOM      9  C   UNL     1       4.796   3.106   0.047  1.00  0.00     0.010 A 
ATOM     10  C   UNL     1       3.076   4.237   1.305  1.00  0.00     0.010 A 
ATOM     11  C   UNL     1       4.290   4.274   0.611  1.00  0.00    -0.014 A 
BRANCH  11  12
ATOM     12  C   UNL     1       5.095   5.504   0.504  1.00  0.00     0.031 A 
ATOM     13  C   UNL     1       5.849   5.977   1.708  1.00  0.00     0.074 A 
ATOM     14  C   UNL     1       5.228   6.102  -0.694  1.00  0.00     0.049 A 
ATOM     15  N   UNL     1       6.605   7.031   1.847  1.00  0.00    -0.248 NA
ATOM     16  C   UNL     1       5.749   5.141   2.917  1.00  0.00     0.031 C 
ATOM     17  C   UNL     1       4.603   5.640  -1.938  1.00  0.00     0.029 A 
ATOM     18  N   UNL     1       5.950   7.200  -1.074  1.00  0.00    -0.354 N 
ATOM     19  C   UNL     1       7.053   7.000   3.161  1.00  0.00     0.074 A 
ATOM     20  C   UNL     1       6.482   5.826   3.782  1.00  0.00     0.031 C 
ATOM     21  C   UNL     1       4.993   6.434  -2.947  1.00  0.00     0.029 A 
ATOM     22  C   UNL     1       5.840   7.495  -2.413  1.00  0.00     0.049 A 
ATOM     23  H   UNL     1       6.496   7.729  -0.448  1.00  0.00     0.167 HD
ATOM     24  C   UNL     1       7.864   7.883   3.787  1.00  0.00     0.037 A 
ATOM     25  C   UNL     1       6.348   8.525  -3.115  1.00  0.00     0.037 A 
ATOM     26  C   UNL     1       8.409   9.047   3.141  1.00  0.00     0.049 A 
ATOM     27  C   UNL     1       7.183   9.536  -2.377  1.00  0.00     0.074 A 
ATOM     28  C   UNL     1       9.187  10.053   3.680  1.00  0.00     0.029 A 
ATOM     29  N   UNL     1       8.225   9.354   1.798  1.00  0.00    -0.354 N 
ATOM     30  N   UNL     1       7.550   9.535  -1.115  1.00  0.00    -0.248 NA
ATOM     31  C   UNL     1       7.658  10.694  -3.143  1.00  0.00     0.031 C 
ATOM     32  C   UNL     1       9.443  10.989   2.671  1.00  0.00     0.029 A 
ATOM     33  C   UNL     1       8.861  10.544   1.492  1.00  0.00     0.049 A 
ATOM     34  H   UNL     1       7.717   8.806   1.158  1.00  0.00     0.167 HD
ATOM     35  C   UNL     1       8.302  10.688  -0.936  1.00  0.00     0.074 A 
ATOM     36  C   UNL     1       8.357  11.350  -2.225  1.00  0.00     0.031 C 
ATOM     37  C   UNL     1       8.889  11.165   0.190  1.00  0.00     0.037 A 
BRANCH  24  38
ATOM     38  C   UNL     1       8.134   7.646   5.246  1.00  0.00     0.058 A 
ATOM     39  C   UNL     1       8.975   6.613   5.689  1.00  0.00     0.135 A 
ATOM     40  C   UNL     1       7.500   8.437   6.218  1.00  0.00     0.135 A 
ATOM     41  F   UNL     1       9.583   5.809   4.803  1.00  0.00    -0.206 F 
ATOM     42  C   UNL     1       9.149   6.348   7.045  1.00  0.00     0.059 A 
ATOM     43  C   UNL     1       7.676   8.203   7.579  1.00  0.00     0.059 A 
ATOM     44  F   UNL     1       6.676   9.430   5.849  1.00  0.00    -0.206 F 
ATOM     45  C   UNL     1       8.485   7.143   7.982  1.00  0.00     0.060 A 
BRANCH  45  46
ATOM     46  S   UNL     1       8.680   6.760   9.736  1.00  0.00     0.124 S 
ATOM     47  O   UNL     1       7.854   5.563   9.865  1.00  0.00    -0.237 OA
ATOM     48  O   UNL     1      10.119   6.552   9.854  1.00  0.00    -0.237 OA
ATOM     49  O   UNL     1       8.165   7.952  10.403  1.00  0.00    -0.744 OA
ENDBRANCH  45  46
ENDBRANCH  24  38
BRANCH  25  50
ATOM     50  C   UNL     1       6.043   8.669  -4.564  1.00  0.00     0.058 A 
ATOM     51  C   UNL     1       7.040   8.535  -5.540  1.00  0.00     0.135 A 
ATOM     52  C   UNL     1       4.734   8.929  -5.006  1.00  0.00     0.135 A 
ATOM     53  F   UNL     1       8.309   8.295  -5.174  1.00  0.00    -0.206 F 
ATOM     54  C   UNL     1       6.756   8.660  -6.899  1.00  0.00     0.059 A 
ATOM     55  C   UNL     1       4.420   9.033  -6.357  1.00  0.00     0.059 A 
ATOM     56  F   UNL     1       3.737   9.058  -4.116  1.00  0.00    -0.206 F 
ATOM     57  C   UNL     1       5.441   8.907  -7.297  1.00  0.00     0.060 A 
BRANCH  57  58
ATOM     58  S   UNL     1       5.069   9.023  -9.062  1.00  0.00     0.124 S 
ATOM     59  O   UNL     1       5.602  10.341  -9.388  1.00  0.00    -0.237 OA
ATOM     60  O   UNL     1       5.802   7.885  -9.607  1.00  0.00    -0.237 OA
ATOM     61  O   UNL     1       3.615   8.901  -9.106  1.00  0.00    -0.744 OA
ENDBRANCH  57  58
ENDBRANCH  25  50
BRANCH  37  62
ATOM     62  C   UNL     1       9.647  12.453   0.065  1.00  0.00     0.058 A 
ATOM     63  C   UNL     1       8.983  13.686  -0.024  1.00  0.00     0.135 A 
ATOM     64  C   UNL     1      11.050  12.457   0.099  1.00  0.00     0.135 A 
ATOM     65  F   UNL     1       7.642  13.730  -0.068  1.00  0.00    -0.206 F 
ATOM     66  C   UNL     1       9.687  14.882  -0.091  1.00  0.00     0.059 A 
ATOM     67  C   UNL     1      11.773  13.642   0.057  1.00  0.00     0.059 A 
ATOM     68  F   UNL     1      11.727  11.301   0.193  1.00  0.00    -0.206 F 
ATOM     69  C   UNL     1      11.082  14.850  -0.047  1.00  0.00     0.060 A 
BRANCH  69  70
ATOM     70  S   UNL     1      11.986  16.411  -0.085  1.00  0.00     0.124 S 
ATOM     71  O   UNL     1      11.896  16.767  -1.496  1.00  0.00    -0.237 OA
ATOM     72  O   UNL     1      11.212  17.244   0.831  1.00  0.00    -0.237 OA
ATOM     73  O   UNL     1      13.317  16.043   0.388  1.00  0.00    -0.744 OA
ENDBRANCH  69  70
ENDBRANCH  37  62
ENDBRANCH  11  12
ENDBRANCH   4   6
ENDBRANCH   3   4
ENDBRANCH   2   3
ENDBRANCH   1   2
BRANCH   1  74
ATOM     74  O   UNL     1       4.125  -0.734  -1.543  1.00  0.00    -0.374 OA
BRANCH  74  75
ATOM     75  C   UNL     1       2.795  -0.573  -2.057  1.00  0.00     0.202 C 
BRANCH  75  76
ATOM     76  C   UNL     1       2.865  -0.396  -3.579  1.00  0.00     0.261 C 
BRANCH  76  77
ATOM     77  O   UNL     1       3.370  -1.617  -4.141  1.00  0.00    -0.460 OA
BRANCH  77  78
ATOM     78  C   UNL     1       4.721  -1.735  -4.092  1.00  0.00     0.341 C 
ATOM     79  O   UNL     1       5.549  -0.846  -4.173  1.00  0.00    -0.246 OA
BRANCH  78  80
ATOM     80  C   UNL     1       5.033  -3.107  -3.699  1.00  0.00     0.096 A 
ATOM     81  C   UNL     1       4.172  -4.152  -3.902  1.00  0.00     0.132 A 
ATOM     82  C   UNL     1       6.176  -3.408  -2.992  1.00  0.00     0.132 A 
ATOM     83  N   UNL     1       4.434  -5.400  -3.486  1.00  0.00    -0.220 NA
ATOM     84  N   UNL     1       6.474  -4.651  -2.539  1.00  0.00    -0.220 NA
ATOM     85  C   UNL     1       5.598  -5.620  -2.845  1.00  0.00     0.227 A 
BRANCH  85  86
ATOM     86  N   UNL     1       5.955  -6.942  -2.591  1.00  0.00    -0.324 N 
ATOM     87  H   UNL     1       6.469  -7.148  -1.776  1.00  0.00     0.170 HD
BRANCH  86  88
ATOM     88  C   UNL     1       5.608  -7.991  -3.457  1.00  0.00     0.041 A 
ATOM     89  C   UNL     1       5.079  -9.182  -2.964  1.00  0.00     0.026 A 
ATOM     90  C   UNL     1       5.787  -7.849  -4.843  1.00  0.00     0.026 A 
ATOM     91  C   UNL     1       4.635 -10.168  -3.850  1.00  0.00     0.002 A 
ATOM     92  C   UNL     1       5.353  -8.832  -5.727  1.00  0.00     0.002 A 
ATOM     93  C   UNL     1       4.759  -9.986  -5.229  1.00  0.00     0.000 A 
ENDBRANCH  86  88
ENDBRANCH  85  86
ENDBRANCH  78  80
ENDBRANCH  77  78
ENDBRANCH  76  77
ENDBRANCH  75  76
ENDBRANCH  74  75
ENDBRANCH   1  74
TORSDOF 19
