REMARK SMILES CCCC[C@@H](C(=O)OCCOCCOC(=O)c1ccc(-c2c3nc(c(-c4c(F)cc(S(=O)(=O)[O-])cc4F)c4ccc([nH]4)c(-c4c(F)cc(S(=O)(=O)[O-])cc4F)c4nc(c(-c5c(F)cc(S(=O)(=O)[O-])cc5F)c5ccc2[nH]5)C=C4)C=C3)cc1)[C@H](O)c1ccc(OC)c(O)c1
REMARK SMILES IDX 11 1 10 2 9 3 8 4 6 5 7 6 5 7 4 8 3 9 2 10 1 11 83 12 85 13
REMARK SMILES IDX 86 14 93 15 87 16 91 17 88 18 92 19 89 21 90 22 84 23 12 25
REMARK SMILES IDX 13 26 14 27 15 28 16 29 17 30 18 31 82 32 19 33 81 34 20 35
REMARK SMILES IDX 21 36 22 37 75 38 23 39 80 40 74 41 76 42 24 43 79 44 73 45
REMARK SMILES IDX 72 46 25 48 59 49 38 50 58 51 39 52 42 53 57 54 77 55 40 56
REMARK SMILES IDX 41 57 56 59 78 60 43 61 26 62 27 63 36 64 28 65 29 66 35 67
REMARK SMILES IDX 37 68 30 69 31 70 32 71 33 72 34 73 60 74 61 75 70 76 62 77
REMARK SMILES IDX 63 78 69 79 71 80 64 81 65 82 66 83 67 84 68 85 44 86 45 87
REMARK SMILES IDX 54 88 46 89 47 90 53 91 55 92 48 93 49 94 50 95 51 96 52 97
REMARK H PARENT 92 20 84 24 76 47 42 58
REMARK Flexibility Score: inf
ROOT
ATOM      1  O   UNL     1      -2.254  -3.083  -6.899  1.00  0.00    -0.374 OA
ENDROOT
BRANCH   1   2
ATOM      2  C   UNL     1      -0.836  -3.070  -7.092  1.00  0.00     0.202 C 
BRANCH   2   3
ATOM      3  C   UNL     1      -0.182  -1.686  -7.065  1.00  0.00     0.261 C 
BRANCH   3   4
ATOM      4  O   UNL     1      -0.030  -1.227  -5.705  1.00  0.00    -0.463 OA
BRANCH   4   5
ATOM      5  C   UNL     1      -0.707  -0.104  -5.352  1.00  0.00     0.312 C 
ATOM      6  O   UNL     1      -1.369   0.572  -6.129  1.00  0.00    -0.252 OA
BRANCH   5   7
ATOM      7  C   UNL     1      -0.503   0.236  -3.883  1.00  0.00     0.132 C 
BRANCH   7   8
ATOM      8  C   UNL     1      -0.521  -0.951  -2.887  1.00  0.00     0.018 C 
BRANCH   8   9
ATOM      9  C   UNL     1       0.728  -1.843  -2.814  1.00  0.00     0.001 C 
BRANCH   9  10
ATOM     10  C   UNL     1       2.059  -1.138  -2.569  1.00  0.00    -0.003 C 
ATOM     11  C   UNL     1       2.077  -0.289  -1.308  1.00  0.00     0.004 C 
ENDBRANCH   9  10
ENDBRANCH   8   9
ENDBRANCH   7   8
BRANCH   7  12
ATOM     12  C   UNL     1      -1.485   1.382  -3.496  1.00  0.00     0.159 C 
BRANCH  12  13
ATOM     13  C   UNL     1      -3.003   1.219  -3.511  1.00  0.00    -0.015 A 
ATOM     14  C   UNL     1      -3.781   2.388  -3.582  1.00  0.00     0.010 A 
ATOM     15  C   UNL     1      -3.691   0.006  -3.398  1.00  0.00     0.056 A 
ATOM     16  C   UNL     1      -5.179   2.337  -3.551  1.00  0.00     0.051 A 
ATOM     17  C   UNL     1      -5.097  -0.048  -3.377  1.00  0.00     0.158 A 
ATOM     18  C   UNL     1      -5.856   1.120  -3.454  1.00  0.00     0.160 A 
BRANCH  17  19
ATOM     19  O   UNL     1      -5.696  -1.273  -3.259  1.00  0.00    -0.504 OA
ATOM     20  H   UNL     1      -6.630  -1.339  -3.242  1.00  0.00     0.293 HD
ENDBRANCH  17  19
BRANCH  18  21
ATOM     21  O   UNL     1      -7.217   1.258  -3.428  1.00  0.00    -0.493 OA
ATOM     22  C   UNL     1      -8.010   0.083  -3.518  1.00  0.00     0.278 C 
ENDBRANCH  18  21
ENDBRANCH  12  13
BRANCH  12  23
ATOM     23  O   UNL     1      -1.101   1.860  -2.195  1.00  0.00    -0.388 OA
ATOM     24  H   UNL     1      -1.265   1.169  -1.535  1.00  0.00     0.211 HD
ENDBRANCH  12  23
ENDBRANCH   7  12
ENDBRANCH   5   7
ENDBRANCH   4   5
ENDBRANCH   3   4
ENDBRANCH   2   3
ENDBRANCH   1   2
BRANCH   1  25
ATOM     25  C   UNL     1      -2.718  -2.871  -5.571  1.00  0.00     0.202 C 
BRANCH  25  26
ATOM     26  C   UNL     1      -2.792  -4.113  -4.677  1.00  0.00     0.261 C 
BRANCH  26  27
ATOM     27  O   UNL     1      -1.511  -4.744  -4.529  1.00  0.00    -0.460 OA
BRANCH  27  28
ATOM     28  C   UNL     1      -1.372  -5.868  -5.271  1.00  0.00     0.338 C 
ATOM     29  O   UNL     1      -2.247  -6.428  -5.921  1.00  0.00    -0.246 OA
BRANCH  28  30
ATOM     30  C   UNL     1       0.041  -6.277  -5.347  1.00  0.00     0.060 A 
ATOM     31  C   UNL     1       0.528  -6.614  -6.615  1.00  0.00     0.016 A 
ATOM     32  C   UNL     1       0.847  -6.422  -4.214  1.00  0.00     0.016 A 
ATOM     33  C   UNL     1       1.790  -7.183  -6.747  1.00  0.00     0.010 A 
ATOM     34  C   UNL     1       2.118  -6.996  -4.349  1.00  0.00     0.010 A 
ATOM     35  C   UNL     1       2.569  -7.430  -5.609  1.00  0.00    -0.014 A 
BRANCH  35  36
ATOM     36  C   UNL     1       3.750  -8.318  -5.748  1.00  0.00     0.031 A 
ATOM     37  C   UNL     1       3.610  -9.772  -5.377  1.00  0.00     0.074 A 
ATOM     38  C   UNL     1       4.894  -7.863  -6.290  1.00  0.00     0.049 A 
ATOM     39  N   UNL     1       4.476 -10.744  -5.493  1.00  0.00    -0.248 NA
ATOM     40  C   UNL     1       2.320 -10.185  -4.799  1.00  0.00     0.031 C 
ATOM     41  C   UNL     1       5.138  -6.484  -6.713  1.00  0.00     0.029 A 
ATOM     42  N   UNL     1       6.061  -8.519  -6.587  1.00  0.00    -0.354 N 
ATOM     43  C   UNL     1       3.840 -11.880  -5.005  1.00  0.00     0.074 A 
ATOM     44  C   UNL     1       2.527 -11.471  -4.557  1.00  0.00     0.031 C 
ATOM     45  C   UNL     1       6.382  -6.398  -7.218  1.00  0.00     0.029 A 
ATOM     46  C   UNL     1       7.024  -7.709  -7.141  1.00  0.00     0.049 A 
ATOM     47  H   UNL     1       6.197  -9.479  -6.420  1.00  0.00     0.167 HD
ATOM     48  C   UNL     1       4.300 -13.152  -4.948  1.00  0.00     0.037 A 
ATOM     49  C   UNL     1       8.280  -7.995  -7.537  1.00  0.00     0.037 A 
ATOM     50  C   UNL     1       5.602 -13.560  -5.408  1.00  0.00     0.049 A 
ATOM     51  C   UNL     1       8.776  -9.415  -7.447  1.00  0.00     0.074 A 
ATOM     52  C   UNL     1       6.157 -14.828  -5.407  1.00  0.00     0.029 A 
ATOM     53  N   UNL     1       6.552 -12.709  -5.951  1.00  0.00    -0.354 N 
ATOM     54  N   UNL     1       8.152 -10.482  -7.005  1.00  0.00    -0.248 NA
ATOM     55  C   UNL     1      10.141  -9.673  -7.926  1.00  0.00     0.031 C 
ATOM     56  C   UNL     1       7.458 -14.736  -5.915  1.00  0.00     0.029 A 
ATOM     57  C   UNL     1       7.694 -13.420  -6.277  1.00  0.00     0.049 A 
ATOM     58  H   UNL     1       6.431 -11.741  -6.086  1.00  0.00     0.167 HD
ATOM     59  C   UNL     1       9.036 -11.542  -7.184  1.00  0.00     0.074 A 
ATOM     60  C   UNL     1      10.233 -10.988  -7.784  1.00  0.00     0.031 C 
ATOM     61  C   UNL     1       8.873 -12.855  -6.883  1.00  0.00     0.037 A 
BRANCH  48  62
ATOM     62  C   UNL     1       3.397 -14.195  -4.351  1.00  0.00     0.058 A 
ATOM     63  C   UNL     1       2.265 -14.672  -5.033  1.00  0.00     0.135 A 
ATOM     64  C   UNL     1       3.688 -14.753  -3.096  1.00  0.00     0.135 A 
ATOM     65  F   UNL     1       1.928 -14.157  -6.226  1.00  0.00    -0.206 F 
ATOM     66  C   UNL     1       1.445 -15.652  -4.483  1.00  0.00     0.059 A 
ATOM     67  C   UNL     1       2.896 -15.752  -2.538  1.00  0.00     0.059 A 
ATOM     68  F   UNL     1       4.755 -14.329  -2.400  1.00  0.00    -0.206 F 
ATOM     69  C   UNL     1       1.770 -16.187  -3.235  1.00  0.00     0.060 A 
BRANCH  69  70
ATOM     70  S   UNL     1       0.706 -17.470  -2.540  1.00  0.00     0.124 S 
ATOM     71  O   UNL     1      -0.463 -16.694  -2.140  1.00  0.00    -0.237 OA
ATOM     72  O   UNL     1       0.514 -18.366  -3.676  1.00  0.00    -0.237 OA
ATOM     73  O   UNL     1       1.502 -18.015  -1.445  1.00  0.00    -0.744 OA
ENDBRANCH  69  70
ENDBRANCH  48  62
BRANCH  49  74
ATOM     74  C   UNL     1       9.159  -6.915  -8.059  1.00  0.00     0.058 A 
ATOM     75  C   UNL     1       9.536  -6.867  -9.409  1.00  0.00     0.135 A 
ATOM     76  C   UNL     1       9.653  -5.915  -7.206  1.00  0.00     0.135 A 
ATOM     77  F   UNL     1       9.096  -7.805 -10.262  1.00  0.00    -0.206 F 
ATOM     78  C   UNL     1      10.389  -5.880  -9.893  1.00  0.00     0.059 A 
ATOM     79  C   UNL     1      10.486  -4.904  -7.671  1.00  0.00     0.059 A 
ATOM     80  F   UNL     1       9.311  -5.909  -5.908  1.00  0.00    -0.206 F 
ATOM     81  C   UNL     1      10.860  -4.902  -9.014  1.00  0.00     0.060 A 
BRANCH  81  82
ATOM     82  S   UNL     1      11.938  -3.603  -9.655  1.00  0.00     0.124 S 
ATOM     83  O   UNL     1      13.200  -4.316  -9.806  1.00  0.00    -0.237 OA
ATOM     84  O   UNL     1      11.263  -3.226 -10.893  1.00  0.00    -0.237 OA
ATOM     85  O   UNL     1      11.905  -2.592  -8.601  1.00  0.00    -0.744 OA
ENDBRANCH  81  82
ENDBRANCH  49  74
BRANCH  61  86
ATOM     86  C   UNL     1       9.996 -13.789  -7.244  1.00  0.00     0.058 A 
ATOM     87  C   UNL     1      11.210 -13.795  -6.540  1.00  0.00     0.135 A 
ATOM     88  C   UNL     1       9.844 -14.704  -8.298  1.00  0.00     0.135 A 
ATOM     89  F   UNL     1      11.407 -12.940  -5.524  1.00  0.00    -0.206 F 
ATOM     90  C   UNL     1      12.251 -14.646  -6.897  1.00  0.00     0.059 A 
ATOM     91  C   UNL     1      10.861 -15.584  -8.653  1.00  0.00     0.059 A 
ATOM     92  F   UNL     1       8.696 -14.752  -8.992  1.00  0.00    -0.206 F 
ATOM     93  C   UNL     1      12.069 -15.533  -7.960  1.00  0.00     0.060 A 
BRANCH  93  94
ATOM     94  S   UNL     1      13.428 -16.628  -8.422  1.00  0.00     0.124 S 
ATOM     95  O   UNL     1      14.306 -15.716  -9.146  1.00  0.00    -0.237 OA
ATOM     96  O   UNL     1      13.918 -17.086  -7.125  1.00  0.00    -0.237 OA
ATOM     97  O   UNL     1      12.776 -17.651  -9.234  1.00  0.00    -0.744 OA
ENDBRANCH  93  94
ENDBRANCH  61  86
ENDBRANCH  35  36
ENDBRANCH  28  30
ENDBRANCH  27  28
ENDBRANCH  26  27
ENDBRANCH  25  26
ENDBRANCH   1  25
TORSDOF 25
