REMARK SMILES C[NH2+][C@@]1(C(=O)OCCOCCOC(=O)c2ccc(-c3c4nc(c(-c5c(F)cc(S(=O)(=O)[O-])cc5F)c5ccc([nH]5)c(-c5c(F)cc(S(=O)(=O)[O-])cc5F)c5nc(c(-c6c(F)cc(S(=O)(=O)[O-])cc6F)c6ccc3[nH]6)C=C5)C=C4)cc2)CC[C@H](Sc2nccc(=O)[nH]2)C1
REMARK SMILES IDX 10 1 9 2 8 3 7 4 6 5 4 6 5 7 3 8 81 9 92 10 82 11 83 12 2 13
REMARK SMILES IDX 1 14 84 17 85 18 86 19 91 20 87 21 89 22 88 24 90 25 11 26
REMARK SMILES IDX 12 27 13 28 14 29 15 30 16 31 80 32 17 33 79 34 18 35 19 36
REMARK SMILES IDX 20 37 73 38 21 39 78 40 72 41 74 42 22 43 77 44 71 45 70 46
REMARK SMILES IDX 23 48 57 49 36 50 56 51 37 52 40 53 55 54 75 55 38 56 39 57
REMARK SMILES IDX 54 59 76 60 41 61 24 62 25 63 34 64 26 65 27 66 33 67 35 68
REMARK SMILES IDX 28 69 29 70 30 71 31 72 32 73 58 74 59 75 68 76 60 77 61 78
REMARK SMILES IDX 67 79 69 80 62 81 63 82 64 83 65 84 66 85 42 86 43 87 52 88
REMARK SMILES IDX 44 89 45 90 51 91 53 92 46 93 47 94 48 95 49 96 50 97
REMARK H PARENT 2 15 2 16 91 23 74 47 40 58
REMARK Flexibility Score: inf
ROOT
ATOM      1  C   UNL     1      -0.776  -1.573   1.690  1.00  0.00     0.202 C 
ENDROOT
BRANCH   1   2
ATOM      2  O   UNL     1      -1.190  -0.760   2.786  1.00  0.00    -0.374 OA
BRANCH   2   3
ATOM      3  C   UNL     1      -2.450  -0.094   2.657  1.00  0.00     0.202 C 
BRANCH   3   4
ATOM      4  C   UNL     1      -2.469   1.130   1.739  1.00  0.00     0.261 C 
BRANCH   4   5
ATOM      5  O   UNL     1      -2.276   0.730   0.371  1.00  0.00    -0.459 OA
BRANCH   5   6
ATOM      6  C   UNL     1      -1.336   1.408  -0.329  1.00  0.00     0.368 C 
ATOM      7  O   UNL     1      -0.743   2.404   0.080  1.00  0.00    -0.245 OA
BRANCH   6   8
ATOM      8  C   UNL     1      -1.050   0.782  -1.729  1.00  0.00     0.195 C 
ATOM      9  C   UNL     1      -1.745   1.668  -2.770  1.00  0.00     0.082 C 
ATOM     10  C   UNL     1      -1.664  -0.598  -2.038  1.00  0.00     0.096 C 
ATOM     11  C   UNL     1      -3.190   1.179  -2.748  1.00  0.00     0.022 C 
ATOM     12  C   UNL     1      -3.088  -0.340  -2.580  1.00  0.00     0.062 C 
BRANCH   8  13
ATOM     13  N   UNL     1       0.422   0.804  -1.968  1.00  0.00    -0.335 N 
ATOM     14  C   UNL     1       1.182  -0.007  -1.019  1.00  0.00     0.331 C 
ATOM     15  H   UNL     1       0.601   0.451  -2.908  1.00  0.00     0.347 HD
ATOM     16  H   UNL     1       0.730   1.769  -1.850  1.00  0.00     0.347 HD
ENDBRANCH   8  13
BRANCH  12  17
ATOM     17  S   UNL     1      -4.317  -1.063  -1.455  1.00  0.00    -0.084 SA
BRANCH  17  18
ATOM     18  C   UNL     1      -5.830  -0.640  -2.186  1.00  0.00     0.168 A 
ATOM     19  N   UNL     1      -5.957   0.038  -3.276  1.00  0.00    -0.233 NA
ATOM     20  N   UNL     1      -6.868  -1.122  -1.458  1.00  0.00    -0.301 N 
ATOM     21  C   UNL     1      -7.249   0.306  -3.664  1.00  0.00     0.120 A 
ATOM     22  C   UNL     1      -8.159  -0.982  -1.856  1.00  0.00     0.251 A 
ATOM     23  H   UNL     1      -6.679  -1.589  -0.613  1.00  0.00     0.172 HD
ATOM     24  C   UNL     1      -8.348  -0.134  -3.040  1.00  0.00     0.091 A 
ATOM     25  O   UNL     1      -9.089  -1.548  -1.302  1.00  0.00    -0.269 OA
ENDBRANCH  17  18
ENDBRANCH  12  17
ENDBRANCH   6   8
ENDBRANCH   5   6
ENDBRANCH   4   5
ENDBRANCH   3   4
ENDBRANCH   2   3
ENDBRANCH   1   2
BRANCH   1  26
ATOM     26  C   UNL     1      -1.407  -2.969   1.580  1.00  0.00     0.261 C 
BRANCH  26  27
ATOM     27  O   UNL     1      -2.834  -2.926   1.425  1.00  0.00    -0.460 OA
BRANCH  27  28
ATOM     28  C   UNL     1      -3.530  -3.321   2.520  1.00  0.00     0.338 C 
ATOM     29  O   UNL     1      -3.077  -3.777   3.556  1.00  0.00    -0.246 OA
BRANCH  28  30
ATOM     30  C   UNL     1      -4.949  -2.946   2.373  1.00  0.00     0.060 A 
ATOM     31  C   UNL     1      -5.503  -2.127   3.365  1.00  0.00     0.016 A 
ATOM     32  C   UNL     1      -5.742  -3.441   1.336  1.00  0.00     0.016 A 
ATOM     33  C   UNL     1      -6.863  -1.826   3.345  1.00  0.00     0.010 A 
ATOM     34  C   UNL     1      -7.112  -3.148   1.328  1.00  0.00     0.010 A 
ATOM     35  C   UNL     1      -7.684  -2.361   2.345  1.00  0.00    -0.014 A 
BRANCH  35  36
ATOM     36  C   UNL     1      -9.159  -2.239   2.468  1.00  0.00     0.031 A 
ATOM     37  C   UNL     1      -9.946  -3.442   2.918  1.00  0.00     0.074 A 
ATOM     38  C   UNL     1      -9.785  -1.072   2.230  1.00  0.00     0.049 A 
ATOM     39  N   UNL     1     -11.236  -3.582   3.075  1.00  0.00    -0.248 NA
ATOM     40  C   UNL     1      -9.168  -4.652   3.236  1.00  0.00     0.031 C 
ATOM     41  C   UNL     1      -9.133   0.173   1.823  1.00  0.00     0.029 A 
ATOM     42  N   UNL     1     -11.118  -0.746   2.290  1.00  0.00    -0.354 N 
ATOM     43  C   UNL     1     -11.426  -4.894   3.494  1.00  0.00     0.074 A 
ATOM     44  C   UNL     1     -10.123  -5.519   3.536  1.00  0.00     0.031 C 
ATOM     45  C   UNL     1     -10.069   1.123   1.654  1.00  0.00     0.029 A 
ATOM     46  C   UNL     1     -11.389   0.547   1.913  1.00  0.00     0.049 A 
ATOM     47  H   UNL     1     -11.814  -1.380   2.577  1.00  0.00     0.167 HD
ATOM     48  C   UNL     1     -12.580  -5.518   3.828  1.00  0.00     0.037 A 
ATOM     49  C   UNL     1     -12.567   1.186   1.772  1.00  0.00     0.037 A 
ATOM     50  C   UNL     1     -13.873  -4.888   3.794  1.00  0.00     0.049 A 
ATOM     51  C   UNL     1     -13.846   0.455   2.094  1.00  0.00     0.074 A 
ATOM     52  C   UNL     1     -15.101  -5.427   4.136  1.00  0.00     0.029 A 
ATOM     53  N   UNL     1     -14.107  -3.582   3.389  1.00  0.00    -0.354 N 
ATOM     54  N   UNL     1     -14.010  -0.777   2.516  1.00  0.00    -0.248 NA
ATOM     55  C   UNL     1     -15.101   1.202   1.927  1.00  0.00     0.031 C 
ATOM     56  C   UNL     1     -16.083  -4.461   3.894  1.00  0.00     0.029 A 
ATOM     57  C   UNL     1     -15.462  -3.303   3.452  1.00  0.00     0.049 A 
ATOM     58  H   UNL     1     -13.413  -2.948   3.099  1.00  0.00     0.167 HD
ATOM     59  C   UNL     1     -15.380  -0.943   2.692  1.00  0.00     0.074 A 
ATOM     60  C   UNL     1     -16.000   0.318   2.340  1.00  0.00     0.031 C 
ATOM     61  C   UNL     1     -16.063  -2.038   3.109  1.00  0.00     0.037 A 
BRANCH  48  62
ATOM     62  C   UNL     1     -12.494  -6.961   4.240  1.00  0.00     0.058 A 
ATOM     63  C   UNL     1     -11.932  -7.347   5.468  1.00  0.00     0.135 A 
ATOM     64  C   UNL     1     -12.998  -7.971   3.405  1.00  0.00     0.135 A 
ATOM     65  F   UNL     1     -11.416  -6.425   6.296  1.00  0.00    -0.206 F 
ATOM     66  C   UNL     1     -11.847  -8.685   5.840  1.00  0.00     0.059 A 
ATOM     67  C   UNL     1     -12.949  -9.313   3.769  1.00  0.00     0.059 A 
ATOM     68  F   UNL     1     -13.542  -7.657   2.219  1.00  0.00    -0.206 F 
ATOM     69  C   UNL     1     -12.358  -9.661   4.982  1.00  0.00     0.060 A 
BRANCH  69  70
ATOM     70  S   UNL     1     -12.242 -11.393   5.480  1.00  0.00     0.124 S 
ATOM     71  O   UNL     1     -10.817 -11.652   5.301  1.00  0.00    -0.237 OA
ATOM     72  O   UNL     1     -12.710 -11.353   6.862  1.00  0.00    -0.237 OA
ATOM     73  O   UNL     1     -13.127 -12.076   4.541  1.00  0.00    -0.744 OA
ENDBRANCH  69  70
ENDBRANCH  48  62
BRANCH  49  74
ATOM     74  C   UNL     1     -12.598   2.597   1.299  1.00  0.00     0.058 A 
ATOM     75  C   UNL     1     -12.972   3.643   2.156  1.00  0.00     0.135 A 
ATOM     76  C   UNL     1     -12.254   2.928  -0.022  1.00  0.00     0.135 A 
ATOM     77  F   UNL     1     -13.321   3.378   3.424  1.00  0.00    -0.206 F 
ATOM     78  C   UNL     1     -13.019   4.964   1.719  1.00  0.00     0.059 A 
ATOM     79  C   UNL     1     -12.270   4.244  -0.475  1.00  0.00     0.059 A 
ATOM     80  F   UNL     1     -11.878   1.969  -0.882  1.00  0.00    -0.206 F 
ATOM     81  C   UNL     1     -12.662   5.254   0.401  1.00  0.00     0.060 A 
BRANCH  81  82
ATOM     82  S   UNL     1     -12.675   6.977  -0.142  1.00  0.00     0.124 S 
ATOM     83  O   UNL     1     -14.105   7.244  -0.241  1.00  0.00    -0.237 OA
ATOM     84  O   UNL     1     -11.973   7.647   0.948  1.00  0.00    -0.237 OA
ATOM     85  O   UNL     1     -11.951   6.933  -1.409  1.00  0.00    -0.744 OA
ENDBRANCH  81  82
ENDBRANCH  49  74
BRANCH  61  86
ATOM     86  C   UNL     1     -17.556  -1.917   3.251  1.00  0.00     0.058 A 
ATOM     87  C   UNL     1     -18.404  -1.864   2.134  1.00  0.00     0.135 A 
ATOM     88  C   UNL     1     -18.149  -1.916   4.524  1.00  0.00     0.135 A 
ATOM     89  F   UNL     1     -17.889  -1.857   0.894  1.00  0.00    -0.206 F 
ATOM     90  C   UNL     1     -19.786  -1.793   2.274  1.00  0.00     0.059 A 
ATOM     91  C   UNL     1     -19.530  -1.874   4.687  1.00  0.00     0.059 A 
ATOM     92  F   UNL     1     -17.385  -1.977   5.626  1.00  0.00    -0.206 F 
ATOM     93  C   UNL     1     -20.340  -1.801   3.555  1.00  0.00     0.060 A 
BRANCH  93  94
ATOM     94  S   UNL     1     -22.137  -1.744   3.723  1.00  0.00     0.124 S 
ATOM     95  O   UNL     1     -22.420  -0.351   3.393  1.00  0.00    -0.237 OA
ATOM     96  O   UNL     1     -22.575  -2.730   2.739  1.00  0.00    -0.237 OA
ATOM     97  O   UNL     1     -22.361  -2.118   5.117  1.00  0.00    -0.744 OA
ENDBRANCH  93  94
ENDBRANCH  61  86
ENDBRANCH  35  36
ENDBRANCH  28  30
ENDBRANCH  27  28
ENDBRANCH  26  27
ENDBRANCH   1  26
TORSDOF 20
