REMARK SMILES Cc1ccc(/C=C(\NC(=O)c2cccc(C)c2)C(=O)OCCOCCOC(=O)c2ccc(-c3c4nc(c(-c5c(F)cc(S(=O)(=O)[O-])cc5F)c5ccc([nH]5)c(-c5c(F)cc(S(=O)(=O)[O-])cc5F)c5nc(c(-c6c(F)cc(S(=O)(=O)[O-])cc6F)c6ccc3[nH]6)C=C5)C=C4)cc2)cc1
REMARK SMILES IDX 24 1 23 2 22 3 21 4 20 5 18 6 19 7 7 8 6 9 5 10 1 11 2 12
REMARK SMILES IDX 3 13 96 14 4 15 95 16 8 17 9 18 10 20 11 21 12 22 17 23
REMARK SMILES IDX 13 24 15 25 14 26 16 27 25 28 26 29 27 30 28 31 29 32 30 33
REMARK SMILES IDX 94 34 31 35 93 36 32 37 33 38 34 39 87 40 35 41 92 42 86 43
REMARK SMILES IDX 88 44 36 45 91 46 85 47 84 48 37 50 71 51 50 52 70 53 51 54
REMARK SMILES IDX 54 55 69 56 89 57 52 58 53 59 68 61 90 62 55 63 38 64 39 65
REMARK SMILES IDX 48 66 40 67 41 68 47 69 49 70 42 71 43 72 44 73 45 74 46 75
REMARK SMILES IDX 72 76 73 77 82 78 74 79 75 80 81 81 83 82 76 83 77 84 78 85
REMARK SMILES IDX 79 86 80 87 56 88 57 89 66 90 58 91 59 92 65 93 67 94 60 95
REMARK SMILES IDX 61 96 62 97 63 98 64 99
REMARK H PARENT 8 19 88 49 54 60
REMARK Flexibility Score: inf
ROOT
ATOM      1  C   UNL     1      -6.222  -0.034   3.307  1.00  0.00     0.202 C 
ENDROOT
BRANCH   1   2
ATOM      2  O   UNL     1      -6.674  -0.915   2.329  1.00  0.00    -0.374 OA
BRANCH   2   3
ATOM      3  C   UNL     1      -6.779  -2.281   2.665  1.00  0.00     0.202 C 
BRANCH   3   4
ATOM      4  C   UNL     1      -6.464  -2.882   1.363  1.00  0.00     0.261 C 
BRANCH   4   5
ATOM      5  O   UNL     1      -5.118  -2.495   1.096  1.00  0.00    -0.459 OA
BRANCH   5   6
ATOM      6  C   UNL     1      -4.827  -1.387   0.381  1.00  0.00     0.354 C 
ATOM      7  O   UNL     1      -5.308  -0.276   0.322  1.00  0.00    -0.244 OA
BRANCH   6   8
ATOM      8  C   UNL     1      -3.555  -1.746  -0.243  1.00  0.00     0.128 C 
ATOM      9  C   UNL     1      -2.688  -0.714  -0.168  1.00  0.00     0.042 C 
BRANCH   9  10
ATOM     10  C   UNL     1      -1.241  -0.501  -0.274  1.00  0.00    -0.023 A 
ATOM     11  C   UNL     1       2.993   0.281   0.048  1.00  0.00     0.044 C 
ATOM     12  C   UNL     1       1.518   0.038  -0.041  1.00  0.00    -0.051 A 
ATOM     13  C   UNL     1       1.038  -1.277  -0.097  1.00  0.00     0.004 A 
ATOM     14  C   UNL     1       0.610   1.094  -0.084  1.00  0.00     0.004 A 
ATOM     15  C   UNL     1      -0.329  -1.544  -0.209  1.00  0.00     0.008 A 
ATOM     16  C   UNL     1      -0.756   0.825  -0.204  1.00  0.00     0.008 A 
ENDBRANCH   9  10
BRANCH   8  17
ATOM     17  N   UNL     1      -3.459  -3.060  -0.653  1.00  0.00    -0.316 N 
ATOM     18  C   UNL     1      -4.460  -4.085  -0.776  1.00  0.00     0.255 C 
ATOM     19  H   UNL     1      -2.550  -3.345  -0.904  1.00  0.00     0.170 HD
ATOM     20  O   UNL     1      -3.938  -5.208  -0.661  1.00  0.00    -0.269 OA
BRANCH  18  21
ATOM     21  C   UNL     1      -6.133  -4.055  -1.049  1.00  0.00     0.040 A 
ATOM     22  C   UNL     1      -6.612  -5.698  -0.879  1.00  0.00     0.014 A 
ATOM     23  C   UNL     1      -7.104  -3.247  -2.318  1.00  0.00     0.017 A 
ATOM     24  C   UNL     1      -7.880  -6.601  -2.156  1.00  0.00     0.001 A 
ATOM     25  C   UNL     1      -8.216  -3.973  -3.547  1.00  0.00    -0.050 A 
ATOM     26  C   UNL     1      -8.607  -5.660  -3.487  1.00  0.00     0.003 A 
ATOM     27  C   UNL     1      -8.918  -2.995  -4.439  1.00  0.00     0.044 C 
ENDBRANCH  18  21
ENDBRANCH   8  17
ENDBRANCH   6   8
ENDBRANCH   5   6
ENDBRANCH   4   5
ENDBRANCH   3   4
ENDBRANCH   2   3
ENDBRANCH   1   2
BRANCH   1  28
ATOM     28  C   UNL     1      -7.286  -0.064   4.378  1.00  0.00     0.261 C 
BRANCH  28  29
ATOM     29  O   UNL     1      -8.583   0.381   3.838  1.00  0.00    -0.460 OA
BRANCH  29  30
ATOM     30  C   UNL     1      -9.333  -0.453   3.034  1.00  0.00     0.338 C 
ATOM     31  O   UNL     1     -10.110  -1.284   3.481  1.00  0.00    -0.246 OA
BRANCH  30  32
ATOM     32  C   UNL     1      -9.132  -0.214   1.548  1.00  0.00     0.060 A 
ATOM     33  C   UNL     1      -9.486  -1.153   0.573  1.00  0.00     0.016 A 
ATOM     34  C   UNL     1      -8.353   0.861   1.136  1.00  0.00     0.016 A 
ATOM     35  C   UNL     1      -8.877  -1.092  -0.713  1.00  0.00     0.010 A 
ATOM     36  C   UNL     1      -7.625   0.788  -0.064  1.00  0.00     0.010 A 
ATOM     37  C   UNL     1      -7.760  -0.265  -0.980  1.00  0.00    -0.014 A 
BRANCH  37  38
ATOM     38  C   UNL     1      -6.969  -0.151  -2.329  1.00  0.00     0.031 A 
ATOM     39  C   UNL     1      -7.829   0.712  -3.199  1.00  0.00     0.074 A 
ATOM     40  C   UNL     1      -5.840  -0.817  -2.878  1.00  0.00     0.049 A 
ATOM     41  N   UNL     1      -8.066   0.534  -4.454  1.00  0.00    -0.248 NA
ATOM     42  C   UNL     1      -8.736   1.750  -2.632  1.00  0.00     0.031 C 
ATOM     43  C   UNL     1      -5.105  -0.679  -4.147  1.00  0.00     0.029 A 
ATOM     44  N   UNL     1      -5.165  -2.031  -2.489  1.00  0.00    -0.354 N 
ATOM     45  C   UNL     1      -8.584   1.757  -4.839  1.00  0.00     0.074 A 
ATOM     46  C   UNL     1      -9.332   2.219  -3.724  1.00  0.00     0.031 C 
ATOM     47  C   UNL     1      -4.537  -1.865  -4.533  1.00  0.00     0.029 A 
ATOM     48  C   UNL     1      -4.996  -2.937  -3.624  1.00  0.00     0.049 A 
ATOM     49  H   UNL     1      -4.856  -2.225  -1.574  1.00  0.00     0.167 HD
ATOM     50  C   UNL     1      -7.886   2.443  -5.785  1.00  0.00     0.037 A 
ATOM     51  C   UNL     1      -5.596  -4.223  -3.912  1.00  0.00     0.037 A 
ATOM     52  C   UNL     1      -7.050   1.506  -6.542  1.00  0.00     0.049 A 
ATOM     53  C   UNL     1      -6.041  -4.107  -5.425  1.00  0.00     0.074 A 
ATOM     54  C   UNL     1      -5.687   1.345  -6.703  1.00  0.00     0.029 A 
ATOM     55  N   UNL     1      -7.630   0.328  -7.010  1.00  0.00    -0.354 N 
ATOM     56  N   UNL     1      -6.201  -2.934  -5.994  1.00  0.00    -0.248 NA
ATOM     57  C   UNL     1      -6.409  -5.169  -6.362  1.00  0.00     0.031 C 
ATOM     58  C   UNL     1      -5.458   0.032  -7.221  1.00  0.00     0.029 A 
ATOM     59  C   UNL     1      -6.678  -0.607  -7.370  1.00  0.00     0.049 A 
ATOM     60  H   UNL     1      -8.601   0.180  -7.076  1.00  0.00     0.167 HD
ATOM     61  C   UNL     1      -6.734  -3.023  -7.244  1.00  0.00     0.074 A 
ATOM     62  C   UNL     1      -6.796  -4.462  -7.451  1.00  0.00     0.031 C 
ATOM     63  C   UNL     1      -7.120  -1.892  -7.922  1.00  0.00     0.037 A 
BRANCH  50  64
ATOM     64  C   UNL     1      -7.724   3.964  -5.794  1.00  0.00     0.058 A 
ATOM     65  C   UNL     1      -6.981   4.550  -6.837  1.00  0.00     0.135 A 
ATOM     66  C   UNL     1      -8.161   4.895  -4.809  1.00  0.00     0.135 A 
ATOM     67  F   UNL     1      -6.484   3.805  -7.834  1.00  0.00    -0.206 F 
ATOM     68  C   UNL     1      -6.704   5.918  -6.908  1.00  0.00     0.059 A 
ATOM     69  C   UNL     1      -7.929   6.271  -4.881  1.00  0.00     0.059 A 
ATOM     70  F   UNL     1      -8.805   4.543  -3.692  1.00  0.00    -0.206 F 
ATOM     71  C   UNL     1      -7.196   6.777  -5.936  1.00  0.00     0.060 A 
BRANCH  71  72
ATOM     72  S   UNL     1      -6.893   8.543  -6.086  1.00  0.00     0.124 S 
ATOM     73  O   UNL     1      -5.445   8.617  -5.922  1.00  0.00    -0.237 OA
ATOM     74  O   UNL     1      -7.400   8.824  -7.425  1.00  0.00    -0.237 OA
ATOM     75  O   UNL     1      -7.674   9.120  -4.994  1.00  0.00    -0.744 OA
ENDBRANCH  71  72
ENDBRANCH  50  64
BRANCH  51  76
ATOM     76  C   UNL     1      -6.576  -5.293  -2.770  1.00  0.00     0.058 A 
ATOM     77  C   UNL     1      -5.812  -6.912  -2.357  1.00  0.00     0.135 A 
ATOM     78  C   UNL     1      -8.152  -4.835  -1.564  1.00  0.00     0.135 A 
ATOM     79  F   UNL     1      -4.673  -7.317  -2.934  1.00  0.00    -0.206 F 
ATOM     80  C   UNL     1      -6.467  -7.859  -0.941  1.00  0.00     0.059 A 
ATOM     81  C   UNL     1      -8.720  -5.851  -0.273  1.00  0.00     0.059 A 
ATOM     82  F   UNL     1      -9.038  -3.784  -1.562  1.00  0.00    -0.206 F 
ATOM     83  C   UNL     1      -7.853  -7.284   0.067  1.00  0.00     0.060 A 
BRANCH  83  84
ATOM     84  S   UNL     1      -7.774  -7.312   1.984  1.00  0.00     0.124 S 
ATOM     85  O   UNL     1      -7.956  -8.721   2.292  1.00  0.00    -0.237 OA
ATOM     86  O   UNL     1      -6.457  -6.739   2.243  1.00  0.00    -0.237 OA
ATOM     87  O   UNL     1      -8.883  -6.441   2.381  1.00  0.00    -0.744 OA
ENDBRANCH  83  84
ENDBRANCH  51  76
BRANCH  63  88
ATOM     88  C   UNL     1      -7.938  -1.820  -9.201  1.00  0.00     0.058 A 
ATOM     89  C   UNL     1      -8.739  -2.855  -9.695  1.00  0.00     0.135 A 
ATOM     90  C   UNL     1      -8.005  -0.604  -9.943  1.00  0.00     0.135 A 
ATOM     91  F   UNL     1      -8.933  -3.985  -9.002  1.00  0.00    -0.206 F 
ATOM     92  C   UNL     1      -9.410  -2.755 -10.916  1.00  0.00     0.059 A 
ATOM     93  C   UNL     1      -8.742  -0.453 -11.107  1.00  0.00     0.059 A 
ATOM     94  F   UNL     1      -7.346   0.504  -9.573  1.00  0.00    -0.206 F 
ATOM     95  C   UNL     1      -9.379  -1.559 -11.627  1.00  0.00     0.060 A 
BRANCH  95  96
ATOM     96  S   UNL     1     -10.127  -1.468 -13.256  1.00  0.00     0.124 S 
ATOM     97  O   UNL     1      -9.120  -2.146 -14.067  1.00  0.00    -0.237 OA
ATOM     98  O   UNL     1     -11.381  -2.192 -13.067  1.00  0.00    -0.237 OA
ATOM     99  O   UNL     1     -10.265  -0.035 -13.492  1.00  0.00    -0.744 OA
ENDBRANCH  95  96
ENDBRANCH  63  88
ENDBRANCH  37  38
ENDBRANCH  30  32
ENDBRANCH  29  30
ENDBRANCH  28  29
ENDBRANCH   1  28
TORSDOF 20
