REMARK SMILES CC(C)C[C@@H](C(=O)OCCOCCOC(=O)c1ccc(-c2c3nc(c(-c4c(F)cc(S(=O)(=O)[O-])cc4F)c4ccc([nH]4)c(-c4c(F)cc(S(=O)(=O)[O-])cc4F)c4nc(c(-c5c(F)cc(S(=O)(=O)[O-])cc5F)c5ccc2[nH]5)C=C4)C=C3)cc1)[C@@H]1CCC[C@@H](C)C1
REMARK SMILES IDX 12 1 11 2 10 3 9 4 8 5 6 6 7 7 5 8 4 9 2 10 1 11 3 12 83 13
REMARK SMILES IDX 84 14 89 15 85 16 87 17 86 18 88 19 13 20 14 21 15 22 16 23
REMARK SMILES IDX 17 24 18 25 82 26 19 27 81 28 20 29 21 30 22 31 75 32 23 33
REMARK SMILES IDX 80 34 74 35 76 36 24 37 79 38 73 39 72 40 25 42 59 43 38 44
REMARK SMILES IDX 58 45 39 46 42 47 57 48 77 49 40 50 41 51 56 53 78 54 43 55
REMARK SMILES IDX 26 56 27 57 36 58 28 59 29 60 35 61 37 62 30 63 31 64 32 65
REMARK SMILES IDX 33 66 34 67 60 68 61 69 70 70 62 71 63 72 69 73 71 74 64 75
REMARK SMILES IDX 65 76 66 77 67 78 68 79 44 80 45 81 54 82 46 83 47 84 53 85
REMARK SMILES IDX 55 86 48 87 49 88 50 89 51 90 52 91
REMARK H PARENT 76 41 42 52
REMARK Flexibility Score: inf
ROOT
ATOM      1  C   UNL     1      -0.610  -0.010   1.414  1.00  0.00     0.202 C 
ENDROOT
BRANCH   1   2
ATOM      2  O   UNL     1       0.156   0.279   2.580  1.00  0.00    -0.374 OA
BRANCH   2   3
ATOM      3  C   UNL     1       0.325   1.651   2.928  1.00  0.00     0.202 C 
BRANCH   3   4
ATOM      4  C   UNL     1       1.257   2.465   2.032  1.00  0.00     0.261 C 
BRANCH   4   5
ATOM      5  O   UNL     1       0.731   2.650   0.702  1.00  0.00    -0.463 OA
BRANCH   5   6
ATOM      6  C   UNL     1       1.538   2.227  -0.305  1.00  0.00     0.309 C 
ATOM      7  O   UNL     1       2.588   1.611  -0.149  1.00  0.00    -0.252 OA
BRANCH   6   8
ATOM      8  C   UNL     1       1.052   2.644  -1.689  1.00  0.00     0.102 C 
BRANCH   8   9
ATOM      9  C   UNL     1       1.754   3.945  -2.127  1.00  0.00     0.018 C 
BRANCH   9  10
ATOM     10  C   UNL     1       1.421   5.316  -1.492  1.00  0.00    -0.017 C 
ATOM     11  C   UNL     1       1.812   5.469  -0.025  1.00  0.00     0.007 C 
ATOM     12  C   UNL     1       2.115   6.409  -2.317  1.00  0.00     0.007 C 
ENDBRANCH   9  10
ENDBRANCH   8   9
BRANCH   8  13
ATOM     13  C   UNL     1      -0.464   2.382  -1.974  1.00  0.00     0.003 C 
ATOM     14  C   UNL     1      -0.702   1.621  -3.305  1.00  0.00     0.004 C 
ATOM     15  C   UNL     1      -1.426   3.574  -1.882  1.00  0.00     0.007 C 
ATOM     16  C   UNL     1      -0.732   2.512  -4.543  1.00  0.00     0.001 C 
ATOM     17  C   UNL     1      -1.457   4.460  -3.140  1.00  0.00    -0.014 C 
ATOM     18  C   UNL     1      -1.750   3.638  -4.394  1.00  0.00     0.003 C 
ATOM     19  C   UNL     1      -2.447   5.610  -2.970  1.00  0.00     0.007 C 
ENDBRANCH   8  13
ENDBRANCH   6   8
ENDBRANCH   5   6
ENDBRANCH   4   5
ENDBRANCH   3   4
ENDBRANCH   2   3
ENDBRANCH   1   2
BRANCH   1  20
ATOM     20  C   UNL     1      -2.128   0.178   1.528  1.00  0.00     0.261 C 
BRANCH  20  21
ATOM     21  O   UNL     1      -2.523   1.555   1.690  1.00  0.00    -0.460 OA
BRANCH  21  22
ATOM     22  C   UNL     1      -3.077   1.845   2.892  1.00  0.00     0.338 C 
ATOM     23  O   UNL     1      -3.273   1.066   3.819  1.00  0.00    -0.246 OA
BRANCH  22  24
ATOM     24  C   UNL     1      -3.303   3.294   3.040  1.00  0.00     0.060 A 
ATOM     25  C   UNL     1      -2.754   3.927   4.162  1.00  0.00     0.016 A 
ATOM     26  C   UNL     1      -4.155   3.991   2.180  1.00  0.00     0.016 A 
ATOM     27  C   UNL     1      -3.102   5.243   4.463  1.00  0.00     0.010 A 
ATOM     28  C   UNL     1      -4.510   5.311   2.490  1.00  0.00     0.010 A 
ATOM     29  C   UNL     1      -4.018   5.928   3.654  1.00  0.00    -0.014 A 
BRANCH  29  30
ATOM     30  C   UNL     1      -4.565   7.230   4.113  1.00  0.00     0.031 A 
ATOM     31  C   UNL     1      -5.910   7.264   4.790  1.00  0.00     0.074 A 
ATOM     32  C   UNL     1      -3.853   8.363   3.977  1.00  0.00     0.049 A 
ATOM     33  N   UNL     1      -6.582   8.289   5.248  1.00  0.00    -0.248 NA
ATOM     34  C   UNL     1      -6.586   5.970   4.979  1.00  0.00     0.031 C 
ATOM     35  C   UNL     1      -2.519   8.454   3.385  1.00  0.00     0.029 A 
ATOM     36  N   UNL     1      -4.154   9.654   4.331  1.00  0.00    -0.354 N 
ATOM     37  C   UNL     1      -7.755   7.767   5.781  1.00  0.00     0.074 A 
ATOM     38  C   UNL     1      -7.718   6.337   5.562  1.00  0.00     0.031 C 
ATOM     39  C   UNL     1      -2.117   9.736   3.414  1.00  0.00     0.029 A 
ATOM     40  C   UNL     1      -3.175  10.559   3.998  1.00  0.00     0.049 A 
ATOM     41  H   UNL     1      -4.992   9.908   4.781  1.00  0.00     0.167 HD
ATOM     42  C   UNL     1      -8.766   8.417   6.406  1.00  0.00     0.037 A 
ATOM     43  C   UNL     1      -3.142  11.900   4.135  1.00  0.00     0.037 A 
ATOM     44  C   UNL     1      -8.804   9.841   6.622  1.00  0.00     0.049 A 
ATOM     45  C   UNL     1      -4.307  12.611   4.771  1.00  0.00     0.074 A 
ATOM     46  C   UNL     1      -9.792  10.593   7.234  1.00  0.00     0.029 A 
ATOM     47  N   UNL     1      -7.810  10.727   6.235  1.00  0.00    -0.354 N 
ATOM     48  N   UNL     1      -5.417  12.105   5.255  1.00  0.00    -0.248 NA
ATOM     49  C   UNL     1      -4.215  14.074   4.882  1.00  0.00     0.031 C 
ATOM     50  C   UNL     1      -9.412  11.938   7.186  1.00  0.00     0.029 A 
ATOM     51  C   UNL     1      -8.167  12.020   6.583  1.00  0.00     0.049 A 
ATOM     52  H   UNL     1      -6.974  10.475   5.780  1.00  0.00     0.167 HD
ATOM     53  C   UNL     1      -6.144  13.185   5.747  1.00  0.00     0.074 A 
ATOM     54  C   UNL     1      -5.346  14.370   5.509  1.00  0.00     0.031 C 
ATOM     55  C   UNL     1      -7.362  13.192   6.343  1.00  0.00     0.037 A 
BRANCH  42  56
ATOM     56  C   UNL     1      -9.927   7.595   6.890  1.00  0.00     0.058 A 
ATOM     57  C   UNL     1      -9.823   6.773   8.023  1.00  0.00     0.135 A 
ATOM     58  C   UNL     1     -11.170   7.661   6.240  1.00  0.00     0.135 A 
ATOM     59  F   UNL     1      -8.653   6.660   8.671  1.00  0.00    -0.206 F 
ATOM     60  C   UNL     1     -10.906   6.031   8.485  1.00  0.00     0.059 A 
ATOM     61  C   UNL     1     -12.273   6.945   6.697  1.00  0.00     0.059 A 
ATOM     62  F   UNL     1     -11.322   8.430   5.150  1.00  0.00    -0.206 F 
ATOM     63  C   UNL     1     -12.127   6.124   7.814  1.00  0.00     0.060 A 
BRANCH  63  64
ATOM     64  S   UNL     1     -13.527   5.165   8.431  1.00  0.00     0.124 S 
ATOM     65  O   UNL     1     -13.163   3.816   8.010  1.00  0.00    -0.237 OA
ATOM     66  O   UNL     1     -13.471   5.417   9.868  1.00  0.00    -0.237 OA
ATOM     67  O   UNL     1     -14.671   5.751   7.740  1.00  0.00    -0.744 OA
ENDBRANCH  63  64
ENDBRANCH  42  56
BRANCH  43  68
ATOM     68  C   UNL     1      -1.959  12.658   3.653  1.00  0.00     0.058 A 
ATOM     69  C   UNL     1      -1.051  13.233   4.553  1.00  0.00     0.135 A 
ATOM     70  C   UNL     1      -1.700  12.799   2.281  1.00  0.00     0.135 A 
ATOM     71  F   UNL     1      -1.264  13.136   5.874  1.00  0.00    -0.206 F 
ATOM     72  C   UNL     1       0.073  13.923   4.112  1.00  0.00     0.059 A 
ATOM     73  C   UNL     1      -0.572  13.466   1.815  1.00  0.00     0.059 A 
ATOM     74  F   UNL     1      -2.536  12.260   1.380  1.00  0.00    -0.206 F 
ATOM     75  C   UNL     1       0.308  14.028   2.739  1.00  0.00     0.060 A 
BRANCH  75  76
ATOM     76  S   UNL     1       1.810  14.857   2.176  1.00  0.00     0.124 S 
ATOM     77  O   UNL     1       1.477  16.258   2.407  1.00  0.00    -0.237 OA
ATOM     78  O   UNL     1       2.824  14.287   3.058  1.00  0.00    -0.237 OA
ATOM     79  O   UNL     1       1.910  14.453   0.777  1.00  0.00    -0.744 OA
ENDBRANCH  75  76
ENDBRANCH  43  68
BRANCH  55  80
ATOM     80  C   UNL     1      -7.902  14.516   6.807  1.00  0.00     0.058 A 
ATOM     81  C   UNL     1      -8.411  15.461   5.904  1.00  0.00     0.135 A 
ATOM     82  C   UNL     1      -7.962  14.819   8.177  1.00  0.00     0.135 A 
ATOM     83  F   UNL     1      -8.373  15.222   4.583  1.00  0.00    -0.206 F 
ATOM     84  C   UNL     1      -8.945  16.669   6.341  1.00  0.00     0.059 A 
ATOM     85  C   UNL     1      -8.512  16.011   8.638  1.00  0.00     0.059 A 
ATOM     86  F   UNL     1      -7.498  13.944   9.084  1.00  0.00    -0.206 F 
ATOM     87  C   UNL     1      -8.991  16.935   7.711  1.00  0.00     0.060 A 
BRANCH  87  88
ATOM     88  S   UNL     1      -9.716  18.492   8.269  1.00  0.00     0.124 S 
ATOM     89  O   UNL     1      -8.653  19.441   7.954  1.00  0.00    -0.237 OA
ATOM     90  O   UNL     1     -10.918  18.592   7.447  1.00  0.00    -0.237 OA
ATOM     91  O   UNL     1      -9.955  18.265   9.691  1.00  0.00    -0.744 OA
ENDBRANCH  87  88
ENDBRANCH  55  80
ENDBRANCH  29  30
ENDBRANCH  22  24
ENDBRANCH  21  22
ENDBRANCH  20  21
ENDBRANCH   1  20
TORSDOF 20
