REMARK SMILES CC(=O)Nc1cccc(-c2ccc(F)c(C(=O)OCCOCCOC(=O)c3ccc(-c4c5nc(c(-c6c(F)cc(S(=O)(=O)[O-])cc6F)c6ccc([nH]6)c(-c6c(F)cc(S(=O)(=O)[O-])cc6F)c6nc(c(-c7c(F)cc(S(=O)(=O)[O-])cc7F)c7ccc4[nH]7)C=C6)C=C5)cc3)c2)c1
REMARK SMILES IDX 22 1 21 2 20 3 19 4 18 5 16 6 17 7 15 8 10 9 11 10 93 11
REMARK SMILES IDX 12 12 13 13 14 14 9 15 5 16 6 17 94 18 7 19 8 20 4 21 1 22
REMARK SMILES IDX 2 23 3 24 23 26 24 27 25 28 26 29 27 30 28 31 92 32 29 33
REMARK SMILES IDX 91 34 30 35 31 36 32 37 85 38 33 39 90 40 84 41 86 42 34 43
REMARK SMILES IDX 89 44 83 45 82 46 35 48 69 49 48 50 68 51 49 52 52 53 67 54
REMARK SMILES IDX 87 55 50 56 51 57 66 59 88 60 53 61 36 62 37 63 46 64 38 65
REMARK SMILES IDX 39 66 45 67 47 68 40 69 41 70 42 71 43 72 44 73 70 74 71 75
REMARK SMILES IDX 80 76 72 77 73 78 79 79 81 80 74 81 75 82 76 83 77 84 78 85
REMARK SMILES IDX 54 86 55 87 64 88 56 89 57 90 63 91 65 92 58 93 59 94 60 95
REMARK SMILES IDX 61 96 62 97
REMARK H PARENT 4 25 86 47 52 58
REMARK Flexibility Score: inf
ROOT
ATOM      1  C   UNL     1       9.900   0.820   2.185  1.00  0.00     0.202 C 
ENDROOT
BRANCH   1   2
ATOM      2  O   UNL     1      10.490   1.429   1.037  1.00  0.00    -0.374 OA
BRANCH   2   3
ATOM      3  C   UNL     1       9.720   2.424   0.358  1.00  0.00     0.202 C 
BRANCH   3   4
ATOM      4  C   UNL     1       8.623   1.905  -0.577  1.00  0.00     0.261 C 
BRANCH   4   5
ATOM      5  O   UNL     1       7.616   1.198   0.166  1.00  0.00    -0.460 OA
BRANCH   5   6
ATOM      6  C   UNL     1       7.482  -0.118  -0.131  1.00  0.00     0.341 C 
ATOM      7  O   UNL     1       7.980  -0.711  -1.073  1.00  0.00    -0.246 OA
BRANCH   6   8
ATOM      8  C   UNL     1       6.723  -0.777   0.949  1.00  0.00     0.096 A 
ATOM      9  C   UNL     1       4.897  -0.818   2.578  1.00  0.00    -0.017 A 
ATOM     10  C   UNL     1       5.333  -2.091   2.985  1.00  0.00     0.012 A 
ATOM     11  C   UNL     1       5.624  -0.161   1.564  1.00  0.00     0.027 A 
ATOM     12  C   UNL     1       6.447  -2.693   2.395  1.00  0.00     0.041 A 
ATOM     13  C   UNL     1       7.131  -2.037   1.378  1.00  0.00     0.137 A 
ATOM     14  F   UNL     1       8.213  -2.632   0.857  1.00  0.00    -0.206 F 
BRANCH   9  15
ATOM     15  C   UNL     1       3.683  -0.209   3.154  1.00  0.00    -0.016 A 
ATOM     16  C   UNL     1       1.556   0.960   2.805  1.00  0.00     0.041 A 
ATOM     17  C   UNL     1       1.368   1.014   4.188  1.00  0.00     0.026 A 
ATOM     18  C   UNL     1       2.718   0.371   2.308  1.00  0.00     0.034 A 
ATOM     19  C   UNL     1       2.295   0.425   5.049  1.00  0.00     0.003 A 
ATOM     20  C   UNL     1       3.441  -0.187   4.535  1.00  0.00     0.009 A 
BRANCH  16  21
ATOM     21  N   UNL     1       0.579   1.556   1.993  1.00  0.00    -0.326 N 
ATOM     22  C   UNL     1       0.779   0.189  -0.088  1.00  0.00     0.114 C 
ATOM     23  C   UNL     1       0.247   1.368   0.681  1.00  0.00     0.221 C 
ATOM     24  O   UNL     1      -0.561   2.139   0.160  1.00  0.00    -0.275 OA
ATOM     25  H   UNL     1       0.033   2.233   2.453  1.00  0.00     0.169 HD
ENDBRANCH  16  21
ENDBRANCH   9  15
ENDBRANCH   6   8
ENDBRANCH   5   6
ENDBRANCH   4   5
ENDBRANCH   3   4
ENDBRANCH   2   3
ENDBRANCH   1   2
BRANCH   1  26
ATOM     26  C   UNL     1       9.948   1.617   3.493  1.00  0.00     0.261 C 
BRANCH  26  27
ATOM     27  O   UNL     1       9.181   2.831   3.426  1.00  0.00    -0.460 OA
BRANCH  27  28
ATOM     28  C   UNL     1       9.925   3.963   3.359  1.00  0.00     0.338 C 
ATOM     29  O   UNL     1      11.140   4.049   3.418  1.00  0.00    -0.246 OA
BRANCH  28  30
ATOM     30  C   UNL     1       9.064   5.114   3.025  1.00  0.00     0.060 A 
ATOM     31  C   UNL     1       9.447   5.913   1.941  1.00  0.00     0.016 A 
ATOM     32  C   UNL     1       7.949   5.448   3.796  1.00  0.00     0.016 A 
ATOM     33  C   UNL     1       8.745   7.081   1.653  1.00  0.00     0.010 A 
ATOM     34  C   UNL     1       7.248   6.625   3.509  1.00  0.00     0.010 A 
ATOM     35  C   UNL     1       7.665   7.464   2.459  1.00  0.00    -0.014 A 
BRANCH  35  36
ATOM     36  C   UNL     1       7.058   8.807   2.284  1.00  0.00     0.031 A 
ATOM     37  C   UNL     1       7.431   9.909   3.237  1.00  0.00     0.074 A 
ATOM     38  C   UNL     1       6.198   9.044   1.278  1.00  0.00     0.049 A 
ATOM     39  N   UNL     1       6.997  11.141   3.291  1.00  0.00    -0.248 NA
ATOM     40  C   UNL     1       8.425   9.574   4.269  1.00  0.00     0.031 C 
ATOM     41  C   UNL     1       5.783   8.065   0.275  1.00  0.00     0.029 A 
ATOM     42  N   UNL     1       5.512  10.184   0.941  1.00  0.00    -0.354 N 
ATOM     43  C   UNL     1       7.653  11.727   4.368  1.00  0.00     0.074 A 
ATOM     44  C   UNL     1       8.493  10.706   4.956  1.00  0.00     0.031 C 
ATOM     45  C   UNL     1       4.902   8.643  -0.559  1.00  0.00     0.029 A 
ATOM     46  C   UNL     1       4.667  10.021  -0.131  1.00  0.00     0.049 A 
ATOM     47  H   UNL     1       5.614  11.037   1.421  1.00  0.00     0.167 HD
ATOM     48  C   UNL     1       7.568  13.001   4.819  1.00  0.00     0.037 A 
ATOM     49  C   UNL     1       3.790  10.879  -0.689  1.00  0.00     0.037 A 
ATOM     50  C   UNL     1       6.731  14.012   4.226  1.00  0.00     0.049 A 
ATOM     51  C   UNL     1       3.673  12.276  -0.140  1.00  0.00     0.074 A 
ATOM     52  C   UNL     1       6.597  15.341   4.590  1.00  0.00     0.029 A 
ATOM     53  N   UNL     1       5.878  13.805   3.152  1.00  0.00    -0.354 N 
ATOM     54  N   UNL     1       4.322  12.827   0.859  1.00  0.00    -0.248 NA
ATOM     55  C   UNL     1       2.710  13.171  -0.797  1.00  0.00     0.031 C 
ATOM     56  C   UNL     1       5.624  15.923   3.771  1.00  0.00     0.029 A 
ATOM     57  C   UNL     1       5.192  14.973   2.858  1.00  0.00     0.049 A 
ATOM     58  H   UNL     1       5.774  12.953   2.669  1.00  0.00     0.167 HD
ATOM     59  C   UNL     1       3.865  14.140   0.933  1.00  0.00     0.074 A 
ATOM     60  C   UNL     1       2.891  14.302  -0.126  1.00  0.00     0.031 C 
ATOM     61  C   UNL     1       4.225  15.122   1.798  1.00  0.00     0.037 A 
BRANCH  48  62
ATOM     62  C   UNL     1       8.377  13.362   6.036  1.00  0.00     0.058 A 
ATOM     63  C   UNL     1       9.777  13.464   5.994  1.00  0.00     0.135 A 
ATOM     64  C   UNL     1       7.740  13.622   7.260  1.00  0.00     0.135 A 
ATOM     65  F   UNL     1      10.440  13.211   4.854  1.00  0.00    -0.206 F 
ATOM     66  C   UNL     1      10.518  13.775   7.130  1.00  0.00     0.059 A 
ATOM     67  C   UNL     1       8.459  13.963   8.402  1.00  0.00     0.059 A 
ATOM     68  F   UNL     1       6.404  13.539   7.357  1.00  0.00    -0.206 F 
ATOM     69  C   UNL     1       9.850  14.019   8.331  1.00  0.00     0.060 A 
BRANCH  69  70
ATOM     70  S   UNL     1      10.825  14.404   9.801  1.00  0.00     0.124 S 
ATOM     71  O   UNL     1      11.395  13.098  10.120  1.00  0.00    -0.237 OA
ATOM     72  O   UNL     1      11.766  15.400   9.300  1.00  0.00    -0.237 OA
ATOM     73  O   UNL     1       9.832  14.903  10.747  1.00  0.00    -0.744 OA
ENDBRANCH  69  70
ENDBRANCH  48  62
BRANCH  49  74
ATOM     74  C   UNL     1       2.952  10.431  -1.833  1.00  0.00     0.058 A 
ATOM     75  C   UNL     1       3.174  10.919  -3.128  1.00  0.00     0.135 A 
ATOM     76  C   UNL     1       1.933   9.482  -1.656  1.00  0.00     0.135 A 
ATOM     77  F   UNL     1       4.128  11.836  -3.345  1.00  0.00    -0.206 F 
ATOM     78  C   UNL     1       2.413  10.485  -4.209  1.00  0.00     0.059 A 
ATOM     79  C   UNL     1       1.176   9.013  -2.725  1.00  0.00     0.059 A 
ATOM     80  F   UNL     1       1.688   8.977  -0.437  1.00  0.00    -0.206 F 
ATOM     81  C   UNL     1       1.421   9.525  -3.999  1.00  0.00     0.060 A 
BRANCH  81  82
ATOM     82  S   UNL     1       0.493   8.916  -5.423  1.00  0.00     0.124 S 
ATOM     83  O   UNL     1      -0.354  10.062  -5.734  1.00  0.00    -0.237 OA
ATOM     84  O   UNL     1       1.557   8.630  -6.381  1.00  0.00    -0.237 OA
ATOM     85  O   UNL     1      -0.199   7.744  -4.897  1.00  0.00    -0.744 OA
ENDBRANCH  81  82
ENDBRANCH  49  74
BRANCH  61  86
ATOM     86  C   UNL     1       3.588  16.474   1.619  1.00  0.00     0.058 A 
ATOM     87  C   UNL     1       2.248  16.713   1.959  1.00  0.00     0.135 A 
ATOM     88  C   UNL     1       4.350  17.560   1.156  1.00  0.00     0.135 A 
ATOM     89  F   UNL     1       1.474  15.709   2.401  1.00  0.00    -0.206 F 
ATOM     90  C   UNL     1       1.679  17.976   1.827  1.00  0.00     0.059 A 
ATOM     91  C   UNL     1       3.809  18.837   1.042  1.00  0.00     0.059 A 
ATOM     92  F   UNL     1       5.640  17.390   0.827  1.00  0.00    -0.206 F 
ATOM     93  C   UNL     1       2.468  19.033   1.370  1.00  0.00     0.060 A 
BRANCH  93  94
ATOM     94  S   UNL     1       1.728  20.674   1.238  1.00  0.00     0.124 S 
ATOM     95  O   UNL     1       0.885  20.523   0.057  1.00  0.00    -0.237 OA
ATOM     96  O   UNL     1       1.021  20.802   2.509  1.00  0.00    -0.237 OA
ATOM     97  O   UNL     1       2.880  21.556   1.077  1.00  0.00    -0.744 OA
ENDBRANCH  93  94
ENDBRANCH  61  86
ENDBRANCH  35  36
ENDBRANCH  28  30
ENDBRANCH  27  28
ENDBRANCH  26  27
ENDBRANCH   1  26
TORSDOF 19
