REMARK SMILES O=C(OCCOCCOC(=O)c1sccc1[S@](=O)[O-])c1ccc(-c2c3nc(c(-c4c(F)cc(S(=O)(=O)[O-])cc4F)c4ccc([nH]4)c(-c4c(F)cc(S(=O)(=O)[O-])cc4F)c4nc(c(-c5c(F)cc(S(=O)(=O)[O-])cc5F)c5ccc2[nH]5)C=C4)C=C3)cc1
REMARK SMILES IDX 5 1 4 2 3 3 2 4 1 5 20 6 21 7 85 8 22 9 84 10 23 11 24 12
REMARK SMILES IDX 25 13 78 14 26 15 83 16 77 17 79 18 27 19 82 20 76 21 75 22
REMARK SMILES IDX 28 24 62 25 41 26 61 27 42 28 45 29 60 30 80 31 43 32 44 33
REMARK SMILES IDX 59 35 81 36 46 37 29 38 30 39 39 40 31 41 32 42 38 43 40 44
REMARK SMILES IDX 33 45 34 46 35 47 36 48 37 49 63 50 64 51 73 52 65 53 66 54
REMARK SMILES IDX 72 55 74 56 67 57 68 58 69 59 70 60 71 61 47 62 48 63 57 64
REMARK SMILES IDX 49 65 50 66 56 67 58 68 51 69 52 70 53 71 54 72 55 73 6 74
REMARK SMILES IDX 7 75 8 76 9 77 10 78 11 79 12 80 13 81 16 82 14 83 15 84
REMARK SMILES IDX 17 85 19 86 18 87
REMARK H PARENT 79 23 45 34
REMARK Flexibility Score: inf
ROOT
ATOM      1  C   UNL     1      -0.242   8.986  -1.153  1.00  0.00     0.202 C 
ENDROOT
BRANCH   1   2
ATOM      2  C   UNL     1      -0.714  10.408  -1.472  1.00  0.00     0.261 C 
BRANCH   2   3
ATOM      3  O   UNL     1       0.311  11.364  -1.147  1.00  0.00    -0.460 OA
BRANCH   3   4
ATOM      4  C   UNL     1       0.364  12.210  -0.090  1.00  0.00     0.338 C 
ATOM      5  O   UNL     1       1.288  13.019  -0.032  1.00  0.00    -0.246 OA
BRANCH   4   6
ATOM      6  C   UNL     1      -0.631  12.198   1.025  1.00  0.00     0.060 A 
ATOM      7  C   UNL     1      -1.384  11.085   1.393  1.00  0.00     0.016 A 
ATOM      8  C   UNL     1      -0.748  13.357   1.812  1.00  0.00     0.016 A 
ATOM      9  C   UNL     1      -2.274  11.123   2.447  1.00  0.00     0.010 A 
ATOM     10  C   UNL     1      -1.606  13.390   2.919  1.00  0.00     0.010 A 
ATOM     11  C   UNL     1      -2.380  12.268   3.227  1.00  0.00    -0.014 A 
BRANCH  11  12
ATOM     12  C   UNL     1      -3.397  12.234   4.290  1.00  0.00     0.031 A 
ATOM     13  C   UNL     1      -4.691  12.945   4.055  1.00  0.00     0.074 A 
ATOM     14  C   UNL     1      -3.220  11.388   5.323  1.00  0.00     0.049 A 
ATOM     15  N   UNL     1      -5.750  12.998   4.812  1.00  0.00    -0.248 NA
ATOM     16  C   UNL     1      -4.821  13.675   2.781  1.00  0.00     0.031 C 
ATOM     17  C   UNL     1      -2.029  10.556   5.534  1.00  0.00     0.029 A 
ATOM     18  N   UNL     1      -4.051  11.039   6.352  1.00  0.00    -0.354 N 
ATOM     19  C   UNL     1      -6.669  13.770   4.114  1.00  0.00     0.074 A 
ATOM     20  C   UNL     1      -6.040  14.183   2.881  1.00  0.00     0.031 C 
ATOM     21  C   UNL     1      -2.222   9.772   6.606  1.00  0.00     0.029 A 
ATOM     22  C   UNL     1      -3.512  10.098   7.199  1.00  0.00     0.049 A 
ATOM     23  H   UNL     1      -4.948  11.425   6.474  1.00  0.00     0.167 HD
ATOM     24  C   UNL     1      -7.929  14.096   4.481  1.00  0.00     0.037 A 
ATOM     25  C   UNL     1      -4.001   9.591   8.345  1.00  0.00     0.037 A 
ATOM     26  C   UNL     1      -8.514  13.670   5.724  1.00  0.00     0.049 A 
ATOM     27  C   UNL     1      -5.361  10.061   8.785  1.00  0.00     0.074 A 
ATOM     28  C   UNL     1      -9.736  14.013   6.269  1.00  0.00     0.029 A 
ATOM     29  N   UNL     1      -7.907  12.792   6.615  1.00  0.00    -0.354 N 
ATOM     30  N   UNL     1      -6.189  10.873   8.167  1.00  0.00    -0.248 NA
ATOM     31  C   UNL     1      -5.852   9.564  10.074  1.00  0.00     0.031 C 
ATOM     32  C   UNL     1      -9.850  13.374   7.509  1.00  0.00     0.029 A 
ATOM     33  C   UNL     1      -8.723  12.589   7.712  1.00  0.00     0.049 A 
ATOM     34  H   UNL     1      -7.024  12.376   6.484  1.00  0.00     0.167 HD
ATOM     35  C   UNL     1      -7.305  10.977   8.987  1.00  0.00     0.074 A 
ATOM     36  C   UNL     1      -7.055  10.118  10.130  1.00  0.00     0.031 C 
ATOM     37  C   UNL     1      -8.429  11.719   8.825  1.00  0.00     0.037 A 
BRANCH  24  38
ATOM     38  C   UNL     1      -8.704  14.993   3.560  1.00  0.00     0.058 A 
ATOM     39  C   UNL     1      -9.205  14.540   2.329  1.00  0.00     0.135 A 
ATOM     40  C   UNL     1      -8.923  16.337   3.900  1.00  0.00     0.135 A 
ATOM     41  F   UNL     1      -8.990  13.274   1.935  1.00  0.00    -0.206 F 
ATOM     42  C   UNL     1      -9.879  15.393   1.460  1.00  0.00     0.059 A 
ATOM     43  C   UNL     1      -9.616  17.202   3.058  1.00  0.00     0.059 A 
ATOM     44  F   UNL     1      -8.448  16.827   5.056  1.00  0.00    -0.206 F 
ATOM     45  C   UNL     1     -10.079  16.723   1.833  1.00  0.00     0.060 A 
BRANCH  45  46
ATOM     46  S   UNL     1     -10.951  17.818   0.693  1.00  0.00     0.124 S 
ATOM     47  O   UNL     1      -9.962  17.983  -0.368  1.00  0.00    -0.237 OA
ATOM     48  O   UNL     1     -12.128  17.029   0.345  1.00  0.00    -0.237 OA
ATOM     49  O   UNL     1     -11.212  19.008   1.496  1.00  0.00    -0.744 OA
ENDBRANCH  45  46
ENDBRANCH  24  38
BRANCH  25  50
ATOM     50  C   UNL     1      -3.179   8.670   9.180  1.00  0.00     0.058 A 
ATOM     51  C   UNL     1      -3.581   7.355   9.455  1.00  0.00     0.135 A 
ATOM     52  C   UNL     1      -1.969   9.107   9.748  1.00  0.00     0.135 A 
ATOM     53  F   UNL     1      -4.729   6.883   8.944  1.00  0.00    -0.206 F 
ATOM     54  C   UNL     1      -2.834   6.519  10.284  1.00  0.00     0.059 A 
ATOM     55  C   UNL     1      -1.189   8.282  10.550  1.00  0.00     0.059 A 
ATOM     56  F   UNL     1      -1.524  10.351   9.512  1.00  0.00    -0.206 F 
ATOM     57  C   UNL     1      -1.640   6.995  10.831  1.00  0.00     0.060 A 
BRANCH  57  58
ATOM     58  S   UNL     1      -0.674   5.910  11.904  1.00  0.00     0.124 S 
ATOM     59  O   UNL     1      -1.483   5.903  13.117  1.00  0.00    -0.237 OA
ATOM     60  O   UNL     1      -0.650   4.665  11.143  1.00  0.00    -0.237 OA
ATOM     61  O   UNL     1       0.610   6.597  12.006  1.00  0.00    -0.744 OA
ENDBRANCH  57  58
ENDBRANCH  25  50
BRANCH  37  62
ATOM     62  C   UNL     1      -9.472  11.602   9.897  1.00  0.00     0.058 A 
ATOM     63  C   UNL     1      -9.287  12.171  11.167  1.00  0.00     0.135 A 
ATOM     64  C   UNL     1     -10.683  10.944   9.636  1.00  0.00     0.135 A 
ATOM     65  F   UNL     1      -8.142  12.805  11.464  1.00  0.00    -0.206 F 
ATOM     66  C   UNL     1     -10.258  12.061  12.154  1.00  0.00     0.059 A 
ATOM     67  C   UNL     1     -11.681  10.851  10.598  1.00  0.00     0.059 A 
ATOM     68  F   UNL     1     -10.910  10.396   8.431  1.00  0.00    -0.206 F 
ATOM     69  C   UNL     1     -11.452  11.399  11.859  1.00  0.00     0.060 A 
BRANCH  69  70
ATOM     70  S   UNL     1     -12.713  11.282  13.143  1.00  0.00     0.124 S 
ATOM     71  O   UNL     1     -12.141  10.267  14.022  1.00  0.00    -0.237 OA
ATOM     72  O   UNL     1     -12.743  12.640  13.676  1.00  0.00    -0.237 OA
ATOM     73  O   UNL     1     -13.908  10.877  12.409  1.00  0.00    -0.744 OA
ENDBRANCH  69  70
ENDBRANCH  37  62
ENDBRANCH  11  12
ENDBRANCH   4   6
ENDBRANCH   3   4
ENDBRANCH   2   3
ENDBRANCH   1   2
BRANCH   1  74
ATOM     74  O   UNL     1       0.141   8.760   0.204  1.00  0.00    -0.374 OA
BRANCH  74  75
ATOM     75  C   UNL     1       1.475   9.127   0.563  1.00  0.00     0.202 C 
BRANCH  75  76
ATOM     76  C   UNL     1       2.121   7.962   1.319  1.00  0.00     0.261 C 
BRANCH  76  77
ATOM     77  O   UNL     1       2.255   6.850   0.415  1.00  0.00    -0.459 OA
BRANCH  77  78
ATOM     78  C   UNL     1       1.122   6.102   0.237  1.00  0.00     0.349 C 
ATOM     79  O   UNL     1       0.230   5.988   1.068  1.00  0.00    -0.245 OA
BRANCH  78  80
ATOM     80  C   UNL     1       1.127   5.571  -1.107  1.00  0.00     0.127 A 
ATOM     81  S   UNL     1      -0.369   5.397  -1.935  1.00  0.00    -0.136 S 
ATOM     82  C   UNL     1       2.179   5.182  -1.915  1.00  0.00     0.050 A 
ATOM     83  C   UNL     1       0.410   4.995  -3.402  1.00  0.00     0.067 A 
ATOM     84  C   UNL     1       1.772   4.871  -3.244  1.00  0.00     0.029 A 
BRANCH  82  85
ATOM     85  S   UNL     1       3.844   5.112  -1.399  1.00  0.00    -0.020 S 
ATOM     86  O   UNL     1       3.534   4.124  -0.174  1.00  0.00    -0.768 OA
ATOM     87  O   UNL     1       4.589   4.346  -2.448  1.00  0.00    -0.269 OA
ENDBRANCH  82  85
ENDBRANCH  78  80
ENDBRANCH  77  78
ENDBRANCH  76  77
ENDBRANCH  75  76
ENDBRANCH  74  75
ENDBRANCH   1  74
TORSDOF 18
