REMARK SMILES C[C@@H]1SCCC[C@@]1(CC(=O)OCCOCCOC(=O)c1ccc(-c2c3nc(c(-c4c(F)cc(S(=O)(=O)[O-])cc4F)c4ccc([nH]4)c(-c4c(F)cc(S(=O)(=O)[O-])cc4F)c4nc(c(-c5c(F)cc(S(=O)(=O)[O-])cc5F)c5ccc2[nH]5)C=C4)C=C3)cc1)[NH+]1CCCC1
REMARK SMILES IDX 15 1 14 2 13 3 12 4 11 5 9 6 10 7 8 8 7 9 1 10 2 11 3 12
REMARK SMILES IDX 4 13 6 14 5 15 86 16 87 17 90 18 88 20 89 21 16 22 17 23
REMARK SMILES IDX 18 24 19 25 20 26 21 27 85 28 22 29 84 30 23 31 24 32 25 33
REMARK SMILES IDX 78 34 26 35 83 36 77 37 79 38 27 39 82 40 76 41 75 42 28 44
REMARK SMILES IDX 62 45 41 46 61 47 42 48 45 49 60 50 80 51 43 52 44 53 59 55
REMARK SMILES IDX 81 56 46 57 29 58 30 59 39 60 31 61 32 62 38 63 40 64 33 65
REMARK SMILES IDX 34 66 35 67 36 68 37 69 63 70 64 71 73 72 65 73 66 74 72 75
REMARK SMILES IDX 74 76 67 77 68 78 69 79 70 80 71 81 47 82 48 83 57 84 49 85
REMARK SMILES IDX 50 86 56 87 58 88 51 89 52 90 53 91 54 92 55 93
REMARK H PARENT 86 19 79 43 45 54
REMARK Flexibility Score: inf
ROOT
ATOM      1  C   UNL     1       2.031  -0.120   4.414  1.00  0.00     0.202 C 
ENDROOT
BRANCH   1   2
ATOM      2  O   UNL     1       3.057   0.168   5.358  1.00  0.00    -0.374 OA
BRANCH   2   3
ATOM      3  C   UNL     1       3.258   1.559   5.627  1.00  0.00     0.202 C 
BRANCH   3   4
ATOM      4  C   UNL     1       4.071   2.321   4.572  1.00  0.00     0.261 C 
BRANCH   4   5
ATOM      5  O   UNL     1       3.282   2.669   3.413  1.00  0.00    -0.463 OA
BRANCH   5   6
ATOM      6  C   UNL     1       3.454   1.970   2.263  1.00  0.00     0.312 C 
ATOM      7  O   UNL     1       4.254   1.054   2.118  1.00  0.00    -0.252 OA
BRANCH   6   8
ATOM      8  C   UNL     1       2.597   2.504   1.123  1.00  0.00     0.192 C 
BRANCH   8   9
ATOM      9  C   UNL     1       1.017   2.340   1.181  1.00  0.00     0.120 C 
ATOM     10  C   UNL     1       1.425  -0.016   0.004  1.00  0.00     0.026 C 
ATOM     11  C   UNL     1       0.669   0.779   1.088  1.00  0.00     0.105 C 
ATOM     12  S   UNL     1      -1.100   0.350   0.816  1.00  0.00    -0.152 SA
ATOM     13  C   UNL     1      -1.426   1.354  -0.650  1.00  0.00     0.070 C 
ATOM     14  C   UNL     1       0.482   3.033  -0.114  1.00  0.00     0.071 C 
ATOM     15  C   UNL     1      -0.979   2.801  -0.515  1.00  0.00     0.017 C 
BRANCH   9  16
ATOM     16  N   UNL     1       0.499   3.009   2.414  1.00  0.00    -0.329 N 
ATOM     17  C   UNL     1      -0.911   3.051   2.782  1.00  0.00     0.262 C 
ATOM     18  C   UNL     1       1.034   4.320   2.813  1.00  0.00     0.262 C 
ATOM     19  H   UNL     1       0.925   2.227   2.913  1.00  0.00     0.348 HD
ATOM     20  C   UNL     1      -1.363   4.500   2.666  1.00  0.00     0.067 C 
ATOM     21  C   UNL     1      -0.104   5.323   2.797  1.00  0.00     0.067 C 
ENDBRANCH   9  16
ENDBRANCH   8   9
ENDBRANCH   6   8
ENDBRANCH   5   6
ENDBRANCH   4   5
ENDBRANCH   3   4
ENDBRANCH   2   3
ENDBRANCH   1   2
BRANCH   1  22
ATOM     22  C   UNL     1       0.628  -0.318   4.993  1.00  0.00     0.261 C 
BRANCH  22  23
ATOM     23  O   UNL     1       0.106   0.913   5.521  1.00  0.00    -0.460 OA
BRANCH  23  24
ATOM     24  C   UNL     1       0.167   1.023   6.864  1.00  0.00     0.338 C 
ATOM     25  O   UNL     1       0.517   0.160   7.660  1.00  0.00    -0.246 OA
BRANCH  24  26
ATOM     26  C   UNL     1      -0.096   2.416   7.269  1.00  0.00     0.060 A 
ATOM     27  C   UNL     1       0.756   2.972   8.230  1.00  0.00     0.016 A 
ATOM     28  C   UNL     1      -1.182   3.146   6.779  1.00  0.00     0.016 A 
ATOM     29  C   UNL     1       0.482   4.229   8.761  1.00  0.00     0.010 A 
ATOM     30  C   UNL     1      -1.448   4.416   7.302  1.00  0.00     0.010 A 
ATOM     31  C   UNL     1      -0.647   4.939   8.332  1.00  0.00    -0.014 A 
BRANCH  31  32
ATOM     32  C   UNL     1      -1.081   6.139   9.091  1.00  0.00     0.031 A 
ATOM     33  C   UNL     1      -2.251   6.017  10.032  1.00  0.00     0.074 A 
ATOM     34  C   UNL     1      -0.410   7.300   8.986  1.00  0.00     0.049 A 
ATOM     35  N   UNL     1      -2.811   6.930  10.782  1.00  0.00    -0.248 NA
ATOM     36  C   UNL     1      -2.877   4.688  10.138  1.00  0.00     0.031 C 
ATOM     37  C   UNL     1       0.760   7.526   8.138  1.00  0.00     0.029 A 
ATOM     38  N   UNL     1      -0.620   8.510   9.598  1.00  0.00    -0.354 N 
ATOM     39  C   UNL     1      -3.857   6.290  11.440  1.00  0.00     0.074 A 
ATOM     40  C   UNL     1      -3.880   4.923  10.970  1.00  0.00     0.031 C 
ATOM     41  C   UNL     1       1.165   8.799   8.284  1.00  0.00     0.029 A 
ATOM     42  C   UNL     1       0.265   9.487   9.207  1.00  0.00     0.049 A 
ATOM     43  H   UNL     1      -1.335   8.664  10.256  1.00  0.00     0.167 HD
ATOM     44  C   UNL     1      -4.711   6.794  12.362  1.00  0.00     0.037 A 
ATOM     45  C   UNL     1       0.327  10.791   9.542  1.00  0.00     0.037 A 
ATOM     46  C   UNL     1      -4.673   8.154  12.832  1.00  0.00     0.049 A 
ATOM     47  C   UNL     1      -0.673  11.345  10.525  1.00  0.00     0.074 A 
ATOM     48  C   UNL     1      -5.481   8.760  13.778  1.00  0.00     0.029 A 
ATOM     49  N   UNL     1      -3.781   9.120  12.391  1.00  0.00    -0.354 N 
ATOM     50  N   UNL     1      -1.645  10.724  11.152  1.00  0.00    -0.248 NA
ATOM     51  C   UNL     1      -0.565  12.774  10.851  1.00  0.00     0.031 C 
ATOM     52  C   UNL     1      -5.113  10.106  13.868  1.00  0.00     0.029 A 
ATOM     53  C   UNL     1      -4.035  10.325  13.025  1.00  0.00     0.049 A 
ATOM     54  H   UNL     1      -3.072   8.972  11.724  1.00  0.00     0.167 HD
ATOM     55  C   UNL     1      -2.242  11.679  11.970  1.00  0.00     0.074 A 
ATOM     56  C   UNL     1      -1.516  12.915  11.764  1.00  0.00     0.031 C 
ATOM     57  C   UNL     1      -3.294  11.545  12.816  1.00  0.00     0.037 A 
BRANCH  44  58
ATOM     58  C   UNL     1      -5.773   5.877  12.907  1.00  0.00     0.058 A 
ATOM     59  C   UNL     1      -5.464   4.810  13.766  1.00  0.00     0.135 A 
ATOM     60  C   UNL     1      -7.125   6.090  12.591  1.00  0.00     0.135 A 
ATOM     61  F   UNL     1      -4.187   4.548  14.087  1.00  0.00    -0.206 F 
ATOM     62  C   UNL     1      -6.454   3.973  14.272  1.00  0.00     0.059 A 
ATOM     63  C   UNL     1      -8.134   5.284  13.110  1.00  0.00     0.059 A 
ATOM     64  F   UNL     1      -7.479   7.093  11.772  1.00  0.00    -0.206 F 
ATOM     65  C   UNL     1      -7.787   4.218  13.939  1.00  0.00     0.060 A 
BRANCH  65  66
ATOM     66  S   UNL     1      -9.059   3.129  14.612  1.00  0.00     0.124 S 
ATOM     67  O   UNL     1      -8.824   1.903  13.854  1.00  0.00    -0.237 OA
ATOM     68  O   UNL     1      -8.708   3.076  16.027  1.00  0.00    -0.237 OA
ATOM     69  O   UNL     1     -10.304   3.827  14.304  1.00  0.00    -0.744 OA
ENDBRANCH  65  66
ENDBRANCH  44  58
BRANCH  45  70
ATOM     70  C   UNL     1       1.367  11.667   8.937  1.00  0.00     0.058 A 
ATOM     71  C   UNL     1       2.407  12.203   9.710  1.00  0.00     0.135 A 
ATOM     72  C   UNL     1       1.339  11.986   7.570  1.00  0.00     0.135 A 
ATOM     73  F   UNL     1       2.473  11.937  11.023  1.00  0.00    -0.206 F 
ATOM     74  C   UNL     1       3.373  13.037   9.155  1.00  0.00     0.059 A 
ATOM     75  C   UNL     1       2.310  12.794   6.986  1.00  0.00     0.059 A 
ATOM     76  F   UNL     1       0.372  11.490   6.782  1.00  0.00    -0.206 F 
ATOM     77  C   UNL     1       3.317  13.324   7.790  1.00  0.00     0.060 A 
BRANCH  77  78
ATOM     78  S   UNL     1       4.602  14.369   7.070  1.00  0.00     0.124 S 
ATOM     79  O   UNL     1       4.250  15.679   7.606  1.00  0.00    -0.237 OA
ATOM     80  O   UNL     1       5.820  13.766   7.602  1.00  0.00    -0.237 OA
ATOM     81  O   UNL     1       4.405  14.201   5.633  1.00  0.00    -0.744 OA
ENDBRANCH  77  78
ENDBRANCH  45  70
BRANCH  57  82
ATOM     82  C   UNL     1      -3.701  12.751  13.618  1.00  0.00     0.058 A 
ATOM     83  C   UNL     1      -4.342  13.852  13.030  1.00  0.00     0.135 A 
ATOM     84  C   UNL     1      -3.499  12.778  15.009  1.00  0.00     0.135 A 
ATOM     85  F   UNL     1      -4.555  13.881  11.704  1.00  0.00    -0.206 F 
ATOM     86  C   UNL     1      -4.745  14.948  13.786  1.00  0.00     0.059 A 
ATOM     87  C   UNL     1      -3.922  13.849  15.789  1.00  0.00     0.059 A 
ATOM     88  F   UNL     1      -2.902  11.745  15.625  1.00  0.00    -0.206 F 
ATOM     89  C   UNL     1      -4.534  14.935  15.167  1.00  0.00     0.060 A 
BRANCH  89  90
ATOM     90  S   UNL     1      -5.093  16.349  16.140  1.00  0.00     0.124 S 
ATOM     91  O   UNL     1      -4.118  17.367  15.768  1.00  0.00    -0.237 OA
ATOM     92  O   UNL     1      -6.449  16.555  15.639  1.00  0.00    -0.237 OA
ATOM     93  O   UNL     1      -5.007  15.870  17.517  1.00  0.00    -0.744 OA
ENDBRANCH  89  90
ENDBRANCH  57  82
ENDBRANCH  31  32
ENDBRANCH  24  26
ENDBRANCH  23  24
ENDBRANCH  22  23
ENDBRANCH   1  22
TORSDOF 19
