REMARK SMILES O=C(OCCOCCOC(=O)[C@@H](Cc1ccccc1)N1C(=O)/C(=C/c2ccncc2)SC1=S)c1ccc(-c2c3nc(c(-c4c(F)cc(S(=O)(=O)[O-])cc4F)c4ccc([nH]4)c(-c4c(F)cc(S(=O)(=O)[O-])cc4F)c4nc(c(-c5c(F)cc(S(=O)(=O)[O-])cc5F)c5ccc2[nH]5)C=C4)C=C3)cc1
REMARK SMILES IDX 5 1 4 2 3 3 2 4 1 5 34 6 35 7 99 8 36 9 98 10 37 11 38 12
REMARK SMILES IDX 39 13 92 14 40 15 97 16 91 17 93 18 41 19 96 20 90 21 89 22
REMARK SMILES IDX 42 24 76 25 55 26 75 27 56 28 59 29 74 30 94 31 57 32 58 33
REMARK SMILES IDX 73 35 95 36 60 37 43 38 44 39 53 40 45 41 46 42 52 43 54 44
REMARK SMILES IDX 47 45 48 46 49 47 50 48 51 49 77 50 78 51 87 52 79 53 80 54
REMARK SMILES IDX 86 55 88 56 81 57 82 58 83 59 84 60 85 61 61 62 62 63 71 64
REMARK SMILES IDX 63 65 64 66 70 67 72 68 65 69 66 70 67 71 68 72 69 73 6 74
REMARK SMILES IDX 7 75 8 76 9 77 10 78 11 79 12 80 13 81 14 82 15 83 19 84
REMARK SMILES IDX 16 85 18 86 17 87 20 88 21 89 32 90 22 91 23 92 31 93 33 94
REMARK SMILES IDX 24 95 25 96 26 97 30 98 27 99 29 100 28 101
REMARK H PARENT 93 23 59 34
REMARK Flexibility Score: inf
ROOT
ATOM      1  C   UNL     1       4.747   0.745  -0.633  1.00  0.00     0.202 C 
ENDROOT
BRANCH   1   2
ATOM      2  C   UNL     1       4.355  -0.656  -1.151  1.00  0.00     0.261 C 
BRANCH   2   3
ATOM      3  O   UNL     1       2.955  -0.948  -0.969  1.00  0.00    -0.460 OA
BRANCH   3   4
ATOM      4  C   UNL     1       2.358  -1.653   0.028  1.00  0.00     0.338 C 
ATOM      5  O   UNL     1       1.157  -1.899  -0.065  1.00  0.00    -0.246 OA
BRANCH   4   6
ATOM      6  C   UNL     1       3.081  -2.106   1.256  1.00  0.00     0.060 A 
ATOM      7  C   UNL     1       4.328  -1.627   1.637  1.00  0.00     0.016 A 
ATOM      8  C   UNL     1       2.452  -3.022   2.118  1.00  0.00     0.016 A 
ATOM      9  C   UNL     1       4.952  -2.014   2.792  1.00  0.00     0.010 A 
ATOM     10  C   UNL     1       3.079  -3.441   3.303  1.00  0.00     0.010 A 
ATOM     11  C   UNL     1       4.337  -2.930   3.627  1.00  0.00    -0.014 A 
BRANCH  11  12
ATOM     12  C   UNL     1       5.216  -3.406   4.700  1.00  0.00     0.031 A 
ATOM     13  C   UNL     1       6.019  -4.638   4.419  1.00  0.00     0.074 A 
ATOM     14  C   UNL     1       5.538  -2.537   5.677  1.00  0.00     0.049 A 
ATOM     15  N   UNL     1       6.956  -5.190   5.134  1.00  0.00    -0.248 NA
ATOM     16  C   UNL     1       5.767  -5.311   3.130  1.00  0.00     0.031 C 
ATOM     17  C   UNL     1       4.948  -1.200   5.839  1.00  0.00     0.029 A 
ATOM     18  N   UNL     1       6.497  -2.594   6.648  1.00  0.00    -0.354 N 
ATOM     19  C   UNL     1       7.385  -6.287   4.400  1.00  0.00     0.074 A 
ATOM     20  C   UNL     1       6.626  -6.318   3.173  1.00  0.00     0.031 C 
ATOM     21  C   UNL     1       5.584  -0.556   6.829  1.00  0.00     0.029 A 
ATOM     22  C   UNL     1       6.563  -1.458   7.420  1.00  0.00     0.049 A 
ATOM     23  H   UNL     1       7.083  -3.373   6.782  1.00  0.00     0.167 HD
ATOM     24  C   UNL     1       8.325  -7.193   4.747  1.00  0.00     0.037 A 
ATOM     25  C   UNL     1       7.308  -1.209   8.513  1.00  0.00     0.037 A 
ATOM     26  C   UNL     1       9.042  -7.116   5.989  1.00  0.00     0.049 A 
ATOM     27  C   UNL     1       8.248  -2.298   8.954  1.00  0.00     0.074 A 
ATOM     28  C   UNL     1       9.889  -8.040   6.566  1.00  0.00     0.029 A 
ATOM     29  N   UNL     1       8.989  -6.021   6.847  1.00  0.00    -0.354 N 
ATOM     30  N   UNL     1       8.524  -3.435   8.354  1.00  0.00    -0.248 NA
ATOM     31  C   UNL     1       8.953  -2.096  10.222  1.00  0.00     0.031 C 
ATOM     32  C   UNL     1      10.323  -7.516   7.790  1.00  0.00     0.029 A 
ATOM     33  C   UNL     1       9.783  -6.247   7.953  1.00  0.00     0.049 A 
ATOM     34  H   UNL     1       8.461  -5.205   6.688  1.00  0.00     0.167 HD
ATOM     35  C   UNL     1       9.430  -4.090   9.175  1.00  0.00     0.074 A 
ATOM     36  C   UNL     1       9.682  -3.202  10.296  1.00  0.00     0.031 C 
ATOM     37  C   UNL     1       9.991  -5.318   9.037  1.00  0.00     0.037 A 
BRANCH  24  38
ATOM     38  C   UNL     1       8.521  -8.360   3.826  1.00  0.00     0.058 A 
ATOM     39  C   UNL     1       9.199  -8.243   2.603  1.00  0.00     0.135 A 
ATOM     40  C   UNL     1       7.959  -9.607   4.146  1.00  0.00     0.135 A 
ATOM     41  F   UNL     1       9.714  -7.062   2.225  1.00  0.00    -0.206 F 
ATOM     42  C   UNL     1       9.298  -9.317   1.721  1.00  0.00     0.059 A 
ATOM     43  C   UNL     1       8.061 -10.698   3.289  1.00  0.00     0.059 A 
ATOM     44  F   UNL     1       7.276  -9.765   5.290  1.00  0.00    -0.206 F 
ATOM     45  C   UNL     1       8.720 -10.539   2.071  1.00  0.00     0.060 A 
BRANCH  45  46
ATOM     46  S   UNL     1       8.832 -11.917   0.908  1.00  0.00     0.124 S 
ATOM     47  O   UNL     1       7.891 -11.501  -0.127  1.00  0.00    -0.237 OA
ATOM     48  O   UNL     1      10.242 -11.892   0.530  1.00  0.00    -0.237 OA
ATOM     49  O   UNL     1       8.420 -13.068   1.705  1.00  0.00    -0.744 OA
ENDBRANCH  45  46
ENDBRANCH  24  38
BRANCH  25  50
ATOM     50  C   UNL     1       7.103   0.036   9.306  1.00  0.00     0.058 A 
ATOM     51  C   UNL     1       8.125   0.974   9.507  1.00  0.00     0.135 A 
ATOM     52  C   UNL     1       5.858   0.300   9.906  1.00  0.00     0.135 A 
ATOM     53  F   UNL     1       9.336   0.773   8.965  1.00  0.00    -0.206 F 
ATOM     54  C   UNL     1       7.931   2.112  10.290  1.00  0.00     0.059 A 
ATOM     55  C   UNL     1       5.629   1.443  10.663  1.00  0.00     0.059 A 
ATOM     56  F   UNL     1       4.837  -0.557   9.747  1.00  0.00    -0.206 F 
ATOM     57  C   UNL     1       6.679   2.335  10.867  1.00  0.00     0.060 A 
BRANCH  57  58
ATOM     58  S   UNL     1       6.423   3.810  11.878  1.00  0.00     0.124 S 
ATOM     59  O   UNL     1       7.102   3.437  13.114  1.00  0.00    -0.237 OA
ATOM     60  O   UNL     1       7.070   4.848  11.082  1.00  0.00    -0.237 OA
ATOM     61  O   UNL     1       4.969   3.910  11.962  1.00  0.00    -0.744 OA
ENDBRANCH  57  58
ENDBRANCH  25  50
BRANCH  37  62
ATOM     62  C   UNL     1      10.934  -5.741  10.120  1.00  0.00     0.058 A 
ATOM     63  C   UNL     1      10.464  -6.150  11.376  1.00  0.00     0.135 A 
ATOM     64  C   UNL     1      12.315  -5.777   9.879  1.00  0.00     0.135 A 
ATOM     65  F   UNL     1       9.150  -6.125  11.648  1.00  0.00    -0.206 F 
ATOM     66  C   UNL     1      11.340  -6.557  12.373  1.00  0.00     0.059 A 
ATOM     67  C   UNL     1      13.207  -6.205  10.853  1.00  0.00     0.059 A 
ATOM     68  F   UNL     1      12.805  -5.405   8.685  1.00  0.00    -0.206 F 
ATOM     69  C   UNL     1      12.709  -6.580  12.101  1.00  0.00     0.060 A 
BRANCH  69  70
ATOM     70  S   UNL     1      13.837  -7.136  13.393  1.00  0.00     0.124 S 
ATOM     71  O   UNL     1      13.893  -5.962  14.257  1.00  0.00    -0.237 OA
ATOM     72  O   UNL     1      13.140  -8.295  13.941  1.00  0.00    -0.237 OA
ATOM     73  O   UNL     1      15.064  -7.439  12.662  1.00  0.00    -0.744 OA
ENDBRANCH  69  70
ENDBRANCH  37  62
ENDBRANCH  11  12
ENDBRANCH   4   6
ENDBRANCH   3   4
ENDBRANCH   2   3
ENDBRANCH   1   2
BRANCH   1  74
ATOM     74  O   UNL     1       4.415   1.062   0.720  1.00  0.00    -0.374 OA
BRANCH  74  75
ATOM     75  C   UNL     1       3.057   1.437   0.984  1.00  0.00     0.202 C 
BRANCH  75  76
ATOM     76  C   UNL     1       2.937   2.945   1.073  1.00  0.00     0.261 C 
BRANCH  76  77
ATOM     77  O   UNL     1       3.277   3.438  -0.224  1.00  0.00    -0.462 OA
BRANCH  77  78
ATOM     78  C   UNL     1       4.494   4.000  -0.374  1.00  0.00     0.329 C 
ATOM     79  O   UNL     1       5.285   4.244   0.531  1.00  0.00    -0.250 OA
BRANCH  78  80
ATOM     80  C   UNL     1       4.706   4.477  -1.806  1.00  0.00     0.206 C 
BRANCH  80  81
ATOM     81  C   UNL     1       4.140   3.669  -3.014  1.00  0.00     0.073 C 
BRANCH  81  82
ATOM     82  C   UNL     1       2.676   3.292  -3.117  1.00  0.00    -0.045 A 
ATOM     83  C   UNL     1       1.699   4.235  -3.442  1.00  0.00     0.004 A 
ATOM     84  C   UNL     1       2.251   1.972  -2.898  1.00  0.00     0.004 A 
ATOM     85  C   UNL     1       0.340   3.909  -3.380  1.00  0.00     0.000 A 
ATOM     86  C   UNL     1       0.897   1.640  -2.827  1.00  0.00     0.000 A 
ATOM     87  C   UNL     1      -0.062   2.619  -3.044  1.00  0.00     0.000 A 
ENDBRANCH  81  82
ENDBRANCH  80  81
BRANCH  80  88
ATOM     88  N   UNL     1       4.429   5.922  -1.804  1.00  0.00    -0.278 N 
ATOM     89  C   UNL     1       3.159   6.348  -1.475  1.00  0.00     0.267 C 
ATOM     90  C   UNL     1       5.366   6.919  -1.976  1.00  0.00     0.149 C 
ATOM     91  O   UNL     1       2.238   5.684  -1.030  1.00  0.00    -0.268 OA
ATOM     92  C   UNL     1       3.035   7.798  -1.675  1.00  0.00     0.081 C 
ATOM     93  S   UNL     1       4.572   8.497  -1.912  1.00  0.00    -0.054 SA
ATOM     94  S   UNL     1       7.001   6.774  -2.267  1.00  0.00    -0.052 S 
ATOM     95  C   UNL     1       1.810   8.330  -1.649  1.00  0.00     0.029 C 
BRANCH  95  96
ATOM     96  C   UNL     1       1.445   9.732  -1.784  1.00  0.00    -0.021 A 
ATOM     97  C   UNL     1       1.878  10.520  -2.846  1.00  0.00     0.028 A 
ATOM     98  C   UNL     1       0.577  10.272  -0.837  1.00  0.00     0.028 A 
ATOM     99  C   UNL     1       1.450  11.834  -2.892  1.00  0.00     0.111 A 
ATOM    100  C   UNL     1       0.204  11.595  -0.973  1.00  0.00     0.111 A 
ATOM    101  N   UNL     1       0.622  12.390  -1.981  1.00  0.00    -0.265 NA
ENDBRANCH  95  96
ENDBRANCH  80  88
ENDBRANCH  78  80
ENDBRANCH  77  78
ENDBRANCH  76  77
ENDBRANCH  75  76
ENDBRANCH  74  75
ENDBRANCH   1  74
TORSDOF 21
