REMARK SMILES CO[C@H]1CCC[C@H]1NC(=O)N[C@](C)(C(=O)OCCOCCOC(=O)c1ccc(-c2c3nc(c(-c4c(F)cc(S(=O)(=O)[O-])cc4F)c4ccc([nH]4)c(-c4c(F)cc(S(=O)(=O)[O-])cc4F)c4nc(c(-c5c(F)cc(S(=O)(=O)[O-])cc5F)c5ccc2[nH]5)C=C4)C=C3)cc1)C(F)(F)F
REMARK SMILES IDX 19 1 18 2 17 3 16 4 14 5 15 6 12 7 13 8 11 9 8 10 9 11 10 13
REMARK SMILES IDX 7 15 3 16 4 17 5 18 6 19 2 20 1 21 91 22 92 23 93 24 94 25
REMARK SMILES IDX 20 26 21 27 22 28 23 29 24 30 25 31 26 32 90 33 27 34 89 35
REMARK SMILES IDX 28 36 29 37 30 38 83 39 31 40 88 41 82 42 84 43 32 44 87 45
REMARK SMILES IDX 81 46 80 47 33 49 67 50 46 51 66 52 47 53 50 54 65 55 85 56
REMARK SMILES IDX 48 57 49 58 64 60 86 61 51 62 34 63 35 64 44 65 36 66 37 67
REMARK SMILES IDX 43 68 45 69 38 70 39 71 40 72 41 73 42 74 68 75 69 76 78 77
REMARK SMILES IDX 70 78 71 79 77 80 79 81 72 82 73 83 74 84 75 85 76 86 52 87
REMARK SMILES IDX 53 88 62 89 54 90 55 91 61 92 63 93 56 94 57 95 58 96 59 97
REMARK SMILES IDX 60 98
REMARK H PARENT 8 12 11 14 84 48 50 59
REMARK Flexibility Score: inf
ROOT
ATOM      1  O   UNL     1      -2.673   0.989   1.600  1.00  0.00    -0.374 OA
ENDROOT
BRANCH   1   2
ATOM      2  C   UNL     1      -4.021   0.669   1.952  1.00  0.00     0.202 C 
BRANCH   2   3
ATOM      3  C   UNL     1      -4.549  -0.661   1.418  1.00  0.00     0.261 C 
BRANCH   3   4
ATOM      4  O   UNL     1      -3.786  -1.746   1.973  1.00  0.00    -0.461 OA
BRANCH   4   5
ATOM      5  C   UNL     1      -3.226  -2.590   1.072  1.00  0.00     0.341 C 
ATOM      6  O   UNL     1      -3.518  -2.595  -0.120  1.00  0.00    -0.249 OA
BRANCH   5   7
ATOM      7  C   UNL     1      -2.272  -3.622   1.700  1.00  0.00     0.232 C 
ATOM      8  C   UNL     1      -1.995  -3.426   3.207  1.00  0.00     0.058 C 
BRANCH   7   9
ATOM      9  N   UNL     1      -3.073  -4.875   1.470  1.00  0.00    -0.315 N 
ATOM     10  N   UNL     1      -1.879  -6.886   1.780  1.00  0.00    -0.333 N 
ATOM     11  C   UNL     1      -2.991  -6.196   1.560  1.00  0.00     0.316 C 
ATOM     12  H   UNL     1      -2.036  -7.838   1.973  1.00  0.00     0.165 HD
ATOM     13  O   UNL     1      -4.045  -6.822   1.436  1.00  0.00    -0.249 OA
ATOM     14  H   UNL     1      -3.966  -4.629   1.136  1.00  0.00     0.166 HD
BRANCH  10  15
ATOM     15  C   UNL     1      -0.496  -6.516   1.789  1.00  0.00     0.112 C 
ATOM     16  C   UNL     1       0.395  -7.348   2.718  1.00  0.00     0.140 C 
ATOM     17  C   UNL     1       1.781  -6.897   2.252  1.00  0.00     0.034 C 
ATOM     18  C   UNL     1       1.665  -6.759   0.729  1.00  0.00     0.005 C 
ATOM     19  C   UNL     1       0.170  -6.687   0.425  1.00  0.00     0.028 C 
BRANCH  16  20
ATOM     20  O   UNL     1       0.180  -8.742   2.480  1.00  0.00    -0.379 OA
ATOM     21  C   UNL     1       0.781  -9.559   3.476  1.00  0.00     0.195 C 
ENDBRANCH  16  20
ENDBRANCH  10  15
ENDBRANCH   7   9
BRANCH   7  22
ATOM     22  C   UNL     1      -1.012  -3.313   0.848  1.00  0.00     0.422 C 
ATOM     23  F   UNL     1      -0.790  -1.977   0.742  1.00  0.00    -0.168 F 
ATOM     24  F   UNL     1       0.136  -3.786   1.396  1.00  0.00    -0.168 F 
ATOM     25  F   UNL     1      -1.077  -3.809  -0.404  1.00  0.00    -0.168 F 
ENDBRANCH   7  22
ENDBRANCH   5   7
ENDBRANCH   4   5
ENDBRANCH   3   4
ENDBRANCH   2   3
ENDBRANCH   1   2
BRANCH   1  26
ATOM     26  C   UNL     1      -1.631   0.356   2.343  1.00  0.00     0.202 C 
BRANCH  26  27
ATOM     27  C   UNL     1      -1.323   0.918   3.735  1.00  0.00     0.261 C 
BRANCH  27  28
ATOM     28  O   UNL     1      -2.423   0.738   4.643  1.00  0.00    -0.460 OA
BRANCH  28  29
ATOM     29  C   UNL     1      -3.088   1.877   4.944  1.00  0.00     0.338 C 
ATOM     30  O   UNL     1      -2.784   3.018   4.606  1.00  0.00    -0.246 OA
BRANCH  29  31
ATOM     31  C   UNL     1      -4.380   1.562   5.577  1.00  0.00     0.060 A 
ATOM     32  C   UNL     1      -5.521   2.167   5.034  1.00  0.00     0.016 A 
ATOM     33  C   UNL     1      -4.476   0.747   6.707  1.00  0.00     0.016 A 
ATOM     34  C   UNL     1      -6.755   2.014   5.657  1.00  0.00     0.010 A 
ATOM     35  C   UNL     1      -5.716   0.602   7.338  1.00  0.00     0.010 A 
ATOM     36  C   UNL     1      -6.849   1.271   6.840  1.00  0.00    -0.014 A 
BRANCH  36  37
ATOM     37  C   UNL     1      -8.096   1.347   7.636  1.00  0.00     0.031 A 
ATOM     38  C   UNL     1      -8.148   2.284   8.812  1.00  0.00     0.074 A 
ATOM     39  C   UNL     1      -9.176   0.624   7.295  1.00  0.00     0.049 A 
ATOM     40  N   UNL     1      -9.128   2.515   9.646  1.00  0.00    -0.248 NA
ATOM     41  C   UNL     1      -6.929   3.062   9.084  1.00  0.00     0.031 C 
ATOM     42  C   UNL     1      -9.250  -0.298   6.163  1.00  0.00     0.029 A 
ATOM     43  N   UNL     1     -10.415   0.547   7.878  1.00  0.00    -0.354 N 
ATOM     44  C   UNL     1      -8.641   3.451  10.550  1.00  0.00     0.074 A 
ATOM     45  C   UNL     1      -7.270   3.726  10.178  1.00  0.00     0.031 C 
ATOM     46  C   UNL     1     -10.467  -0.866   6.146  1.00  0.00     0.029 A 
ATOM     47  C   UNL     1     -11.247  -0.366   7.277  1.00  0.00     0.049 A 
ATOM     48  H   UNL     1     -10.683   1.093   8.652  1.00  0.00     0.167 HD
ATOM     49  C   UNL     1      -9.280   4.032  11.593  1.00  0.00     0.037 A 
ATOM     50  C   UNL     1     -12.487  -0.770   7.617  1.00  0.00     0.037 A 
ATOM     51  C   UNL     1     -10.646   3.756  11.953  1.00  0.00     0.049 A 
ATOM     52  C   UNL     1     -13.172  -0.136   8.797  1.00  0.00     0.074 A 
ATOM     53  C   UNL     1     -11.403   4.326  12.960  1.00  0.00     0.029 A 
ATOM     54  N   UNL     1     -11.456   2.818  11.327  1.00  0.00    -0.354 N 
ATOM     55  N   UNL     1     -12.720   0.785   9.615  1.00  0.00    -0.248 NA
ATOM     56  C   UNL     1     -14.538  -0.587   9.096  1.00  0.00     0.031 C 
ATOM     57  C   UNL     1     -12.652   3.694  12.979  1.00  0.00     0.029 A 
ATOM     58  C   UNL     1     -12.693   2.769  11.947  1.00  0.00     0.049 A 
ATOM     59  H   UNL     1     -11.189   2.268  10.555  1.00  0.00     0.167 HD
ATOM     60  C   UNL     1     -13.750   1.036  10.515  1.00  0.00     0.074 A 
ATOM     61  C   UNL     1     -14.853   0.178  10.133  1.00  0.00     0.031 C 
ATOM     62  C   UNL     1     -13.780   1.901  11.561  1.00  0.00     0.037 A 
BRANCH  49  63
ATOM     63  C   UNL     1      -8.488   4.989  12.442  1.00  0.00     0.058 A 
ATOM     64  C   UNL     1      -8.092   6.251  11.971  1.00  0.00     0.135 A 
ATOM     65  C   UNL     1      -8.111   4.629  13.746  1.00  0.00     0.135 A 
ATOM     66  F   UNL     1      -8.411   6.639  10.726  1.00  0.00    -0.206 F 
ATOM     67  C   UNL     1      -7.314   7.105  12.747  1.00  0.00     0.059 A 
ATOM     68  C   UNL     1      -7.357   5.479  14.550  1.00  0.00     0.059 A 
ATOM     69  F   UNL     1      -8.462   3.434  14.246  1.00  0.00    -0.206 F 
ATOM     70  C   UNL     1      -6.944   6.705  14.033  1.00  0.00     0.060 A 
BRANCH  70  71
ATOM     71  S   UNL     1      -5.905   7.806  15.016  1.00  0.00     0.124 S 
ATOM     72  O   UNL     1      -4.608   7.634  14.370  1.00  0.00    -0.237 OA
ATOM     73  O   UNL     1      -6.545   9.103  14.817  1.00  0.00    -0.237 OA
ATOM     74  O   UNL     1      -6.012   7.259  16.365  1.00  0.00    -0.744 OA
ENDBRANCH  70  71
ENDBRANCH  49  63
BRANCH  50  75
ATOM     75  C   UNL     1     -13.143  -1.842   6.824  1.00  0.00     0.058 A 
ATOM     76  C   UNL     1     -14.202  -1.560   5.950  1.00  0.00     0.135 A 
ATOM     77  C   UNL     1     -12.676  -3.165   6.884  1.00  0.00     0.135 A 
ATOM     78  F   UNL     1     -14.689  -0.313   5.867  1.00  0.00    -0.206 F 
ATOM     79  C   UNL     1     -14.772  -2.551   5.157  1.00  0.00     0.059 A 
ATOM     80  C   UNL     1     -13.214  -4.168   6.085  1.00  0.00     0.059 A 
ATOM     81  F   UNL     1     -11.657  -3.482   7.698  1.00  0.00    -0.206 F 
ATOM     82  C   UNL     1     -14.263  -3.850   5.223  1.00  0.00     0.060 A 
BRANCH  82  83
ATOM     83  S   UNL     1     -14.944  -5.105   4.117  1.00  0.00     0.124 S 
ATOM     84  O   UNL     1     -16.245  -5.357   4.725  1.00  0.00    -0.237 OA
ATOM     85  O   UNL     1     -14.962  -4.405   2.836  1.00  0.00    -0.237 OA
ATOM     86  O   UNL     1     -13.979  -6.196   4.213  1.00  0.00    -0.744 OA
ENDBRANCH  82  83
ENDBRANCH  50  75
BRANCH  62  87
ATOM     87  C   UNL     1     -15.051   1.979  12.361  1.00  0.00     0.058 A 
ATOM     88  C   UNL     1     -15.431   0.956  13.244  1.00  0.00     0.135 A 
ATOM     89  C   UNL     1     -15.870   3.118  12.287  1.00  0.00     0.135 A 
ATOM     90  F   UNL     1     -14.687  -0.156  13.349  1.00  0.00    -0.206 F 
ATOM     91  C   UNL     1     -16.589   1.051  14.010  1.00  0.00     0.059 A 
ATOM     92  C   UNL     1     -17.017   3.245  13.063  1.00  0.00     0.059 A 
ATOM     93  F   UNL     1     -15.546   4.131  11.467  1.00  0.00    -0.206 F 
ATOM     94  C   UNL     1     -17.375   2.201  13.914  1.00  0.00     0.060 A 
BRANCH  94  95
ATOM     95  S   UNL     1     -18.857   2.326  14.938  1.00  0.00     0.124 S 
ATOM     96  O   UNL     1     -19.767   1.415  14.251  1.00  0.00    -0.237 OA
ATOM     97  O   UNL     1     -18.376   1.879  16.241  1.00  0.00    -0.237 OA
ATOM     98  O   UNL     1     -19.206   3.742  14.857  1.00  0.00    -0.744 OA
ENDBRANCH  94  95
ENDBRANCH  62  87
ENDBRANCH  36  37
ENDBRANCH  29  31
ENDBRANCH  28  29
ENDBRANCH  27  28
ENDBRANCH  26  27
ENDBRANCH   1  26
TORSDOF 21
