REMARK SMILES Cc1nn(Cc2ccc(Cl)cc2Cl)c(C)c1NC(=O)c1c(C(=O)OCCOCCOC(=O)c2ccc(-c3c4nc(c(-c5c(F)cc(S(=O)(=O)[O-])cc5F)c5ccc([nH]5)c(-c5c(F)cc(S(=O)(=O)[O-])cc5F)c5nc(c(-c6c(F)cc(S(=O)(=O)[O-])cc6F)c6ccc3[nH]6)C=C5)C=C4)cc2)cnn1C
REMARK SMILES IDX 26 1 25 2 24 3 22 4 23 5 21 6 20 7 101 8 99 9 100 10 102 11
REMARK SMILES IDX 18 12 17 13 19 15 16 16 1 17 2 18 3 19 4 20 14 21 15 22 5 23
REMARK SMILES IDX 6 24 7 25 12 26 8 27 11 28 13 29 9 30 10 31 27 32 28 33
REMARK SMILES IDX 29 34 30 35 31 36 32 37 33 38 34 39 98 40 35 41 97 42 36 43
REMARK SMILES IDX 37 44 38 45 91 46 39 47 96 48 90 49 92 50 40 51 95 52 89 53
REMARK SMILES IDX 88 54 41 56 75 57 54 58 74 59 55 60 58 61 73 62 93 63 56 64
REMARK SMILES IDX 57 65 72 67 94 68 59 69 42 70 43 71 52 72 44 73 45 74 51 75
REMARK SMILES IDX 53 76 46 77 47 78 48 79 49 80 50 81 76 82 77 83 86 84 78 85
REMARK SMILES IDX 79 86 85 87 87 88 80 89 81 90 82 91 83 92 84 93 60 94 61 95
REMARK SMILES IDX 70 96 62 97 63 98 69 99 71 100 64 101 65 102 66 103 67 104
REMARK SMILES IDX 68 105
REMARK H PARENT 17 14 92 55 58 66
REMARK Flexibility Score: inf
ROOT
ATOM      1  C   UNL     1      -4.386   2.397  -1.828  1.00  0.00     0.202 C 
ENDROOT
BRANCH   1   2
ATOM      2  C   UNL     1      -4.054   3.823  -2.286  1.00  0.00     0.261 C 
BRANCH   2   3
ATOM      3  O   UNL     1      -2.728   4.072  -2.780  1.00  0.00    -0.460 OA
BRANCH   3   4
ATOM      4  C   UNL     1      -1.885   4.699  -1.896  1.00  0.00     0.342 C 
ATOM      5  O   UNL     1      -2.102   4.815  -0.698  1.00  0.00    -0.246 OA
BRANCH   4   6
ATOM      6  C   UNL     1      -0.723   5.284  -2.533  1.00  0.00     0.111 A 
ATOM      7  C   UNL     1       0.575   5.330  -2.037  1.00  0.00     0.140 A 
ATOM      8  N   UNL     1       1.219   6.259  -2.818  1.00  0.00    -0.262 N 
ATOM      9  C   UNL     1      -0.678   6.046  -3.714  1.00  0.00     0.151 A 
ATOM     10  N   UNL     1       0.505   6.634  -3.900  1.00  0.00    -0.180 NA
ATOM     11  C   UNL     1       2.556   6.784  -2.648  1.00  0.00     0.174 C 
BRANCH   7  12
ATOM     12  C   UNL     1       1.161   4.715  -0.879  1.00  0.00     0.274 C 
ATOM     13  N   UNL     1       1.483   3.377  -0.875  1.00  0.00    -0.317 N 
ATOM     14  H   UNL     1       1.720   3.034   0.017  1.00  0.00     0.170 HD
ATOM     15  O   UNL     1       1.377   5.358   0.148  1.00  0.00    -0.267 OA
BRANCH  13  16
ATOM     16  C   UNL     1       1.542   2.416  -1.869  1.00  0.00     0.085 A 
ATOM     17  C   UNL     1       1.491   0.256  -0.349  1.00  0.00     0.071 C 
ATOM     18  C   UNL     1       1.521   1.004  -1.631  1.00  0.00     0.083 A 
ATOM     19  N   UNL     1       1.428   0.314  -2.769  1.00  0.00    -0.175 NA
ATOM     20  N   UNL     1       1.386   1.262  -3.721  1.00  0.00    -0.263 N 
ATOM     21  C   UNL     1       1.701   2.511  -3.240  1.00  0.00     0.060 A 
ATOM     22  C   UNL     1       2.132   3.564  -4.184  1.00  0.00     0.069 C 
BRANCH  20  23
ATOM     23  C   UNL     1       0.670   0.979  -4.967  1.00  0.00     0.181 C 
BRANCH  23  24
ATOM     24  C   UNL     1       1.557   0.409  -6.026  1.00  0.00    -0.008 A 
ATOM     25  C   UNL     1       2.042  -0.892  -5.827  1.00  0.00     0.009 A 
ATOM     26  C   UNL     1       1.933   1.106  -7.184  1.00  0.00     0.047 A 
ATOM     27  C   UNL     1       3.000  -1.421  -6.680  1.00  0.00     0.021 A 
ATOM     28  C   UNL     1       2.874   0.563  -8.056  1.00  0.00     0.041 A 
ATOM     29  Cl  UNL     1       1.261   2.647  -7.584  1.00  0.00    -0.084 Cl
ATOM     30  C   UNL     1       3.441  -0.675  -7.768  1.00  0.00     0.042 A 
ATOM     31  Cl  UNL     1       4.737  -1.274  -8.723  1.00  0.00    -0.084 Cl
ENDBRANCH  23  24
ENDBRANCH  20  23
ENDBRANCH  13  16
ENDBRANCH   7  12
ENDBRANCH   4   6
ENDBRANCH   3   4
ENDBRANCH   2   3
ENDBRANCH   1   2
BRANCH   1  32
ATOM     32  O   UNL     1      -3.560   1.783  -0.858  1.00  0.00    -0.374 OA
BRANCH  32  33
ATOM     33  C   UNL     1      -2.216   1.502  -1.179  1.00  0.00     0.202 C 
BRANCH  33  34
ATOM     34  C   UNL     1      -1.804   0.942  -2.542  1.00  0.00     0.261 C 
BRANCH  34  35
ATOM     35  O   UNL     1      -2.718   0.904  -3.631  1.00  0.00    -0.460 OA
BRANCH  35  36
ATOM     36  C   UNL     1      -3.217  -0.342  -3.846  1.00  0.00     0.338 C 
ATOM     37  O   UNL     1      -3.709  -1.050  -2.986  1.00  0.00    -0.246 OA
BRANCH  36  38
ATOM     38  C   UNL     1      -2.861  -0.798  -5.217  1.00  0.00     0.060 A 
ATOM     39  C   UNL     1      -3.058  -2.147  -5.524  1.00  0.00     0.016 A 
ATOM     40  C   UNL     1      -2.201   0.033  -6.132  1.00  0.00     0.016 A 
ATOM     41  C   UNL     1      -2.520  -2.679  -6.696  1.00  0.00     0.010 A 
ATOM     42  C   UNL     1      -1.612  -0.511  -7.271  1.00  0.00     0.010 A 
ATOM     43  C   UNL     1      -1.756  -1.872  -7.548  1.00  0.00    -0.014 A 
BRANCH  43  44
ATOM     44  C   UNL     1      -1.409  -2.380  -8.875  1.00  0.00     0.031 A 
ATOM     45  C   UNL     1      -2.507  -2.207  -9.847  1.00  0.00     0.074 A 
ATOM     46  C   UNL     1      -0.263  -2.951  -9.295  1.00  0.00     0.049 A 
ATOM     47  N   UNL     1      -3.321  -3.139 -10.216  1.00  0.00    -0.248 NA
ATOM     48  C   UNL     1      -2.850  -0.869 -10.338  1.00  0.00     0.031 C 
ATOM     49  C   UNL     1       0.972  -3.144  -8.551  1.00  0.00     0.029 A 
ATOM     50  N   UNL     1       0.052  -3.435 -10.538  1.00  0.00    -0.354 N 
ATOM     51  C   UNL     1      -4.115  -2.565 -11.191  1.00  0.00     0.074 A 
ATOM     52  C   UNL     1      -3.936  -1.140 -11.065  1.00  0.00     0.031 C 
ATOM     53  C   UNL     1       1.969  -3.484  -9.403  1.00  0.00     0.029 A 
ATOM     54  C   UNL     1       1.407  -3.685 -10.726  1.00  0.00     0.049 A 
ATOM     55  H   UNL     1      -0.623  -3.591 -11.238  1.00  0.00     0.167 HD
ATOM     56  C   UNL     1      -4.621  -3.320 -12.202  1.00  0.00     0.037 A 
ATOM     57  C   UNL     1       2.032  -4.084 -11.864  1.00  0.00     0.037 A 
ATOM     58  C   UNL     1      -4.552  -4.733 -11.906  1.00  0.00     0.049 A 
ATOM     59  C   UNL     1       1.054  -4.872 -12.644  1.00  0.00     0.074 A 
ATOM     60  C   UNL     1      -4.959  -5.532 -10.851  1.00  0.00     0.029 A 
ATOM     61  N   UNL     1      -3.663  -5.501 -12.621  1.00  0.00    -0.354 N 
ATOM     62  N   UNL     1       0.620  -6.045 -12.274  1.00  0.00    -0.248 NA
ATOM     63  C   UNL     1       0.246  -4.192 -13.641  1.00  0.00     0.031 C 
ATOM     64  C   UNL     1      -3.953  -6.535 -10.722  1.00  0.00     0.029 A 
ATOM     65  C   UNL     1      -3.018  -6.326 -11.735  1.00  0.00     0.049 A 
ATOM     66  H   UNL     1      -3.516  -5.465 -13.593  1.00  0.00     0.167 HD
ATOM     67  C   UNL     1      -0.722  -6.030 -12.609  1.00  0.00     0.074 A 
ATOM     68  C   UNL     1      -0.863  -4.931 -13.557  1.00  0.00     0.031 C 
ATOM     69  C   UNL     1      -1.635  -6.725 -11.870  1.00  0.00     0.037 A 
BRANCH  56  70
ATOM     70  C   UNL     1      -4.805  -2.794 -13.602  1.00  0.00     0.058 A 
ATOM     71  C   UNL     1      -5.547  -3.551 -14.529  1.00  0.00     0.135 A 
ATOM     72  C   UNL     1      -4.058  -1.722 -14.143  1.00  0.00     0.135 A 
ATOM     73  F   UNL     1      -6.269  -4.607 -14.123  1.00  0.00    -0.206 F 
ATOM     74  C   UNL     1      -5.497  -3.302 -15.899  1.00  0.00     0.059 A 
ATOM     75  C   UNL     1      -4.047  -1.416 -15.496  1.00  0.00     0.059 A 
ATOM     76  F   UNL     1      -3.217  -0.987 -13.404  1.00  0.00    -0.206 F 
ATOM     77  C   UNL     1      -4.732  -2.239 -16.372  1.00  0.00     0.060 A 
BRANCH  77  78
ATOM     78  S   UNL     1      -4.574  -1.979 -18.144  1.00  0.00     0.124 S 
ATOM     79  O   UNL     1      -3.710  -3.092 -18.518  1.00  0.00    -0.237 OA
ATOM     80  O   UNL     1      -5.961  -2.064 -18.588  1.00  0.00    -0.237 OA
ATOM     81  O   UNL     1      -3.974  -0.651 -18.233  1.00  0.00    -0.744 OA
ENDBRANCH  77  78
ENDBRANCH  56  70
BRANCH  57  82
ATOM     82  C   UNL     1       3.282  -3.547 -12.464  1.00  0.00     0.058 A 
ATOM     83  C   UNL     1       3.912  -4.183 -13.550  1.00  0.00     0.135 A 
ATOM     84  C   UNL     1       3.713  -2.238 -12.179  1.00  0.00     0.135 A 
ATOM     85  F   UNL     1       3.533  -5.415 -13.924  1.00  0.00    -0.206 F 
ATOM     86  C   UNL     1       4.881  -3.543 -14.333  1.00  0.00     0.059 A 
ATOM     87  C   UNL     1       4.699  -1.590 -12.924  1.00  0.00     0.059 A 
ATOM     88  F   UNL     1       3.095  -1.507 -11.240  1.00  0.00    -0.206 F 
ATOM     89  C   UNL     1       5.258  -2.237 -14.020  1.00  0.00     0.060 A 
BRANCH  89  90
ATOM     90  S   UNL     1       6.372  -1.344 -15.133  1.00  0.00     0.124 S 
ATOM     91  O   UNL     1       7.619  -2.084 -14.976  1.00  0.00    -0.237 OA
ATOM     92  O   UNL     1       5.702  -1.491 -16.421  1.00  0.00    -0.237 OA
ATOM     93  O   UNL     1       6.380   0.012 -14.590  1.00  0.00    -0.744 OA
ENDBRANCH  89  90
ENDBRANCH  57  82
BRANCH  69  94
ATOM     94  C   UNL     1      -1.136  -7.825 -10.969  1.00  0.00     0.058 A 
ATOM     95  C   UNL     1      -0.259  -7.650  -9.883  1.00  0.00     0.135 A 
ATOM     96  C   UNL     1      -1.659  -9.113 -11.165  1.00  0.00     0.135 A 
ATOM     97  F   UNL     1       0.207  -6.436  -9.557  1.00  0.00    -0.206 F 
ATOM     98  C   UNL     1       0.120  -8.719  -9.066  1.00  0.00     0.059 A 
ATOM     99  C   UNL     1      -1.321 -10.185 -10.343  1.00  0.00     0.059 A 
ATOM    100  F   UNL     1      -2.544  -9.337 -12.151  1.00  0.00    -0.206 F 
ATOM    101  C   UNL     1      -0.416  -9.984  -9.305  1.00  0.00     0.060 A 
BRANCH 101 102
ATOM    102  S   UNL     1       0.024 -11.351  -8.209  1.00  0.00     0.124 S 
ATOM    103  O   UNL     1       1.402 -11.629  -8.601  1.00  0.00    -0.237 OA
ATOM    104  O   UNL     1      -0.152 -10.766  -6.883  1.00  0.00    -0.237 OA
ATOM    105  O   UNL     1      -0.944 -12.390  -8.554  1.00  0.00    -0.744 OA
ENDBRANCH 101 102
ENDBRANCH  69  94
ENDBRANCH  43  44
ENDBRANCH  36  38
ENDBRANCH  35  36
ENDBRANCH  34  35
ENDBRANCH  33  34
ENDBRANCH  32  33
ENDBRANCH   1  32
TORSDOF 21
