REMARK SMILES CS(=O)(=O)c1ccc(C2=NN(c3ccc(C(=O)OCCOCCOC(=O)c4ccc(-c5c6nc(c(-c7c(F)cc(S(=O)(=O)[O-])cc7F)c7ccc([nH]7)c(-c7c(F)cc(S(=O)(=O)[O-])cc7F)c7nc(c(-c8c(F)cc(S(=O)(=O)[O-])cc8F)c8ccc5[nH]8)C=C7)C=C6)cc4)cc3)[C@H](c3ccccc3)C2)cc1
REMARK SMILES IDX 21 1 20 2 19 3 18 4 16 5 17 6 15 7 12 8 13 9 94 10 14 11
REMARK SMILES IDX 93 12 11 13 9 14 10 15 102 16 95 17 8 18 5 19 6 20 104 21
REMARK SMILES IDX 7 22 103 23 2 24 1 25 3 26 4 27 96 28 97 29 101 30 98 31
REMARK SMILES IDX 100 32 99 33 22 34 23 35 24 36 25 37 26 38 27 39 28 40 92 41
REMARK SMILES IDX 29 42 91 43 30 44 31 45 32 46 85 47 33 48 90 49 84 50 86 51
REMARK SMILES IDX 34 52 89 53 83 54 82 55 35 57 69 58 48 59 68 60 49 61 52 62
REMARK SMILES IDX 67 63 87 64 50 65 51 66 66 68 88 69 53 70 36 71 37 72 46 73
REMARK SMILES IDX 38 74 39 75 45 76 47 77 40 78 41 79 42 80 43 81 44 82 70 83
REMARK SMILES IDX 71 84 80 85 72 86 73 87 79 88 81 89 74 90 75 91 76 92 77 93
REMARK SMILES IDX 78 94 54 95 55 96 64 97 56 98 57 99 63 100 65 101 58 102
REMARK SMILES IDX 59 103 60 104 61 105 62 106
REMARK H PARENT 86 56 52 67
REMARK Flexibility Score: inf
ROOT
ATOM      1  O   UNL     1       6.560 -13.222  -3.297  1.00  0.00    -0.374 OA
ENDROOT
BRANCH   1   2
ATOM      2  C   UNL     1       6.245 -14.461  -2.659  1.00  0.00     0.202 C 
BRANCH   2   3
ATOM      3  C   UNL     1       6.425 -14.501  -1.139  1.00  0.00     0.261 C 
BRANCH   3   4
ATOM      4  O   UNL     1       5.531 -13.583  -0.491  1.00  0.00    -0.460 OA
BRANCH   4   5
ATOM      5  C   UNL     1       6.121 -12.504   0.073  1.00  0.00     0.338 C 
ATOM      6  O   UNL     1       7.321 -12.316   0.211  1.00  0.00    -0.246 OA
BRANCH   5   7
ATOM      7  C   UNL     1       5.109 -11.476   0.422  1.00  0.00     0.060 A 
ATOM      8  C   UNL     1       3.348  -9.470   1.293  1.00  0.00     0.060 A 
ATOM      9  C   UNL     1       4.678  -9.159   0.992  1.00  0.00     0.029 A 
ATOM     10  C   UNL     1       2.883 -10.769   1.039  1.00  0.00     0.029 A 
ATOM     11  C   UNL     1       5.556 -10.157   0.570  1.00  0.00     0.018 A 
ATOM     12  C   UNL     1       3.756 -11.774   0.611  1.00  0.00     0.018 A 
BRANCH   8  13
ATOM     13  N   UNL     1       2.536  -8.564   1.994  1.00  0.00    -0.257 N 
ATOM     14  C   UNL     1       2.211  -6.495   2.425  1.00  0.00     0.071 C 
ATOM     15  N   UNL     1       2.289  -7.340   1.446  1.00  0.00    -0.176 NA
ATOM     16  C   UNL     1       2.535  -7.035   3.789  1.00  0.00     0.091 C 
ATOM     17  C   UNL     1       2.733  -8.518   3.458  1.00  0.00     0.144 C 
BRANCH  14  18
ATOM     18  C   UNL     1       1.819  -5.087   2.234  1.00  0.00    -0.002 A 
ATOM     19  C   UNL     1       0.972  -2.461   1.870  1.00  0.00     0.067 A 
ATOM     20  C   UNL     1       0.331  -3.494   1.179  1.00  0.00     0.021 A 
ATOM     21  C   UNL     1       2.029  -2.732   2.745  1.00  0.00     0.021 A 
ATOM     22  C   UNL     1       0.769  -4.807   1.351  1.00  0.00     0.011 A 
ATOM     23  C   UNL     1       2.451  -4.052   2.931  1.00  0.00     0.011 A 
BRANCH  19  24
ATOM     24  S   UNL     1       0.383  -0.795   1.671  1.00  0.00     0.175 S 
ATOM     25  C   UNL     1       1.035  -0.304   0.097  1.00  0.00     0.163 C 
ATOM     26  O   UNL     1       1.022   0.021   2.690  1.00  0.00    -0.224 OA
ATOM     27  O   UNL     1      -1.060  -0.857   1.569  1.00  0.00    -0.224 OA
ENDBRANCH  19  24
ENDBRANCH  14  18
BRANCH  17  28
ATOM     28  C   UNL     1       1.843  -9.536   4.156  1.00  0.00    -0.023 A 
ATOM     29  C   UNL     1       0.565  -9.245   4.652  1.00  0.00     0.006 A 
ATOM     30  C   UNL     1       2.299 -10.867   4.254  1.00  0.00     0.006 A 
ATOM     31  C   UNL     1      -0.225 -10.249   5.224  1.00  0.00     0.000 A 
ATOM     32  C   UNL     1       1.496 -11.875   4.787  1.00  0.00     0.000 A 
ATOM     33  C   UNL     1       0.234 -11.564   5.277  1.00  0.00     0.000 A 
ENDBRANCH  17  28
ENDBRANCH   8  13
ENDBRANCH   5   7
ENDBRANCH   4   5
ENDBRANCH   3   4
ENDBRANCH   2   3
ENDBRANCH   1   2
BRANCH   1  34
ATOM     34  C   UNL     1       5.564 -12.199  -3.258  1.00  0.00     0.202 C 
BRANCH  34  35
ATOM     35  C   UNL     1       4.410 -12.325  -4.260  1.00  0.00     0.261 C 
BRANCH  35  36
ATOM     36  O   UNL     1       3.577 -13.465  -3.989  1.00  0.00    -0.460 OA
BRANCH  36  37
ATOM     37  C   UNL     1       3.693 -14.476  -4.883  1.00  0.00     0.338 C 
ATOM     38  O   UNL     1       4.363 -14.481  -5.906  1.00  0.00    -0.246 OA
BRANCH  37  39
ATOM     39  C   UNL     1       3.025 -15.687  -4.369  1.00  0.00     0.060 A 
ATOM     40  C   UNL     1       3.760 -16.879  -4.371  1.00  0.00     0.016 A 
ATOM     41  C   UNL     1       1.691 -15.677  -3.956  1.00  0.00     0.016 A 
ATOM     42  C   UNL     1       3.147 -18.078  -4.012  1.00  0.00     0.010 A 
ATOM     43  C   UNL     1       1.075 -16.883  -3.603  1.00  0.00     0.010 A 
ATOM     44  C   UNL     1       1.790 -18.093  -3.663  1.00  0.00    -0.014 A 
BRANCH  44  45
ATOM     45  C   UNL     1       1.091 -19.391  -3.499  1.00  0.00     0.031 A 
ATOM     46  C   UNL     1       0.258 -19.919  -4.636  1.00  0.00     0.074 A 
ATOM     47  C   UNL     1       1.220 -20.104  -2.366  1.00  0.00     0.049 A 
ATOM     48  N   UNL     1      -0.461 -21.009  -4.700  1.00  0.00    -0.248 NA
ATOM     49  C   UNL     1       0.231 -19.108  -5.864  1.00  0.00     0.031 C 
ATOM     50  C   UNL     1       2.027 -19.714  -1.211  1.00  0.00     0.029 A 
ATOM     51  N   UNL     1       0.666 -21.305  -1.999  1.00  0.00    -0.354 N 
ATOM     52  C   UNL     1      -1.030 -21.014  -5.968  1.00  0.00     0.074 A 
ATOM     53  C   UNL     1      -0.596 -19.804  -6.631  1.00  0.00     0.031 C 
ATOM     54  C   UNL     1       1.906 -20.654  -0.257  1.00  0.00     0.029 A 
ATOM     55  C   UNL     1       0.991 -21.695  -0.722  1.00  0.00     0.049 A 
ATOM     56  H   UNL     1       0.090 -21.836  -2.595  1.00  0.00     0.167 HD
ATOM     57  C   UNL     1      -1.833 -21.948  -6.532  1.00  0.00     0.037 A 
ATOM     58  C   UNL     1       0.581 -22.759  -0.005  1.00  0.00     0.037 A 
ATOM     59  C   UNL     1      -2.259 -23.153  -5.870  1.00  0.00     0.049 A 
ATOM     60  C   UNL     1      -0.362 -23.754  -0.632  1.00  0.00     0.074 A 
ATOM     61  C   UNL     1      -3.058 -24.170  -6.364  1.00  0.00     0.029 A 
ATOM     62  N   UNL     1      -1.928 -23.501  -4.569  1.00  0.00    -0.354 N 
ATOM     63  N   UNL     1      -0.873 -23.758  -1.840  1.00  0.00    -0.248 NA
ATOM     64  C   UNL     1      -0.781 -24.891   0.200  1.00  0.00     0.031 C 
ATOM     65  C   UNL     1      -3.246 -25.111  -5.346  1.00  0.00     0.029 A 
ATOM     66  C   UNL     1      -2.525 -24.706  -4.234  1.00  0.00     0.049 A 
ATOM     67  H   UNL     1      -1.354 -22.970  -3.971  1.00  0.00     0.167 HD
ATOM     68  C   UNL     1      -1.652 -24.908  -1.921  1.00  0.00     0.074 A 
ATOM     69  C   UNL     1      -1.536 -25.581  -0.644  1.00  0.00     0.031 C 
ATOM     70  C   UNL     1      -2.394 -25.367  -2.960  1.00  0.00     0.037 A 
BRANCH  57  71
ATOM     71  C   UNL     1      -2.322 -21.693  -7.931  1.00  0.00     0.058 A 
ATOM     72  C   UNL     1      -1.468 -21.794  -9.042  1.00  0.00     0.135 A 
ATOM     73  C   UNL     1      -3.670 -21.379  -8.168  1.00  0.00     0.135 A 
ATOM     74  F   UNL     1      -0.167 -22.073  -8.871  1.00  0.00    -0.206 F 
ATOM     75  C   UNL     1      -1.929 -21.570 -10.335  1.00  0.00     0.059 A 
ATOM     76  C   UNL     1      -4.158 -21.176  -9.455  1.00  0.00     0.059 A 
ATOM     77  F   UNL     1      -4.528 -21.268  -7.141  1.00  0.00    -0.206 F 
ATOM     78  C   UNL     1      -3.277 -21.261 -10.532  1.00  0.00     0.060 A 
BRANCH  78  79
ATOM     79  S   UNL     1      -3.862 -20.981 -12.217  1.00  0.00     0.124 S 
ATOM     80  O   UNL     1      -3.289 -19.671 -12.510  1.00  0.00    -0.237 OA
ATOM     81  O   UNL     1      -3.277 -22.105 -12.941  1.00  0.00    -0.237 OA
ATOM     82  O   UNL     1      -5.315 -21.014 -12.082  1.00  0.00    -0.744 OA
ENDBRANCH  78  79
ENDBRANCH  57  71
BRANCH  58  83
ATOM     83  C   UNL     1       1.047 -22.935   1.397  1.00  0.00     0.058 A 
ATOM     84  C   UNL     1       1.927 -23.969   1.745  1.00  0.00     0.135 A 
ATOM     85  C   UNL     1       0.615 -22.073   2.417  1.00  0.00     0.135 A 
ATOM     86  F   UNL     1       2.359 -24.827   0.808  1.00  0.00    -0.206 F 
ATOM     87  C   UNL     1       2.353 -24.153   3.057  1.00  0.00     0.059 A 
ATOM     88  C   UNL     1       1.046 -22.220   3.731  1.00  0.00     0.059 A 
ATOM     89  F   UNL     1      -0.220 -21.061   2.134  1.00  0.00    -0.206 F 
ATOM     90  C   UNL     1       1.908 -23.271   4.043  1.00  0.00     0.060 A 
BRANCH  90  91
ATOM     91  S   UNL     1       2.502 -23.487   5.735  1.00  0.00     0.124 S 
ATOM     92  O   UNL     1       1.744 -24.656   6.165  1.00  0.00    -0.237 OA
ATOM     93  O   UNL     1       3.933 -23.692   5.534  1.00  0.00    -0.237 OA
ATOM     94  O   UNL     1       2.142 -22.227   6.380  1.00  0.00    -0.744 OA
ENDBRANCH  90  91
ENDBRANCH  58  83
BRANCH  70  95
ATOM     95  C   UNL     1      -3.113 -26.676  -2.776  1.00  0.00     0.058 A 
ATOM     96  C   UNL     1      -4.255 -26.783  -1.968  1.00  0.00     0.135 A 
ATOM     97  C   UNL     1      -2.683 -27.825  -3.460  1.00  0.00     0.135 A 
ATOM     98  F   UNL     1      -4.705 -25.717  -1.288  1.00  0.00    -0.206 F 
ATOM     99  C   UNL     1      -4.935 -27.989  -1.829  1.00  0.00     0.059 A 
ATOM    100  C   UNL     1      -3.363 -29.034  -3.356  1.00  0.00     0.059 A 
ATOM    101  F   UNL     1      -1.602 -27.774  -4.254  1.00  0.00    -0.206 F 
ATOM    102  C   UNL     1      -4.482 -29.110  -2.528  1.00  0.00     0.060 A 
BRANCH 102 103
ATOM    103  S   UNL     1      -5.392 -30.660  -2.365  1.00  0.00     0.124 S 
ATOM    104  O   UNL     1      -4.989 -31.099  -1.033  1.00  0.00    -0.237 OA
ATOM    105  O   UNL     1      -6.779 -30.226  -2.497  1.00  0.00    -0.237 OA
ATOM    106  O   UNL     1      -4.887 -31.468  -3.471  1.00  0.00    -0.744 OA
ENDBRANCH 102 103
ENDBRANCH  70  95
ENDBRANCH  44  45
ENDBRANCH  37  39
ENDBRANCH  36  37
ENDBRANCH  35  36
ENDBRANCH  34  35
ENDBRANCH   1  34
TORSDOF 21
