REMARK SMILES C[C@@H](C(=O)OCCOCCOC(=O)c1ccc(-c2c3nc(c(-c4c(F)cc(S(=O)(=O)[O-])cc4F)c4ccc([nH]4)c(-c4c(F)cc(S(=O)(=O)[O-])cc4F)c4nc(c(-c5c(F)cc(S(=O)(=O)[O-])cc5F)c5ccc2[nH]5)C=C4)C=C3)cc1)c1ccc2c3cc(Cl)ccc3n(C(=O)c3cocn3)c2c1
REMARK SMILES IDX 8 1 7 2 6 3 5 4 3 5 4 6 2 7 1 8 80 9 81 10 100 11 82 12
REMARK SMILES IDX 99 13 83 14 91 15 84 16 90 17 85 18 89 19 86 20 88 21 87 22
REMARK SMILES IDX 92 23 93 24 94 25 95 26 98 27 96 28 97 29 9 30 10 31 11 32
REMARK SMILES IDX 12 33 13 34 14 35 15 36 79 37 16 38 78 39 17 40 18 41 19 42
REMARK SMILES IDX 72 43 20 44 77 45 71 46 73 47 21 48 76 49 70 50 69 51 22 53
REMARK SMILES IDX 56 54 35 55 55 56 36 57 39 58 54 59 74 60 37 61 38 62 53 64
REMARK SMILES IDX 75 65 40 66 23 67 24 68 33 69 25 70 26 71 32 72 34 73 27 74
REMARK SMILES IDX 28 75 29 76 30 77 31 78 57 79 58 80 67 81 59 82 60 83 66 84
REMARK SMILES IDX 68 85 61 86 62 87 63 88 64 89 65 90 41 91 42 92 51 93 43 94
REMARK SMILES IDX 44 95 50 96 52 97 45 98 46 99 47 100 48 101 49 102
REMARK H PARENT 73 52 39 63
REMARK Flexibility Score: inf
ROOT
ATOM      1  O   UNL     1       1.300   4.318   2.685  1.00  0.00    -0.374 OA
ENDROOT
BRANCH   1   2
ATOM      2  C   UNL     1       2.507   3.686   3.118  1.00  0.00     0.202 C 
BRANCH   2   3
ATOM      3  C   UNL     1       2.417   2.251   3.647  1.00  0.00     0.261 C 
BRANCH   3   4
ATOM      4  O   UNL     1       2.103   1.326   2.586  1.00  0.00    -0.463 OA
BRANCH   4   5
ATOM      5  C   UNL     1       1.024   0.523   2.797  1.00  0.00     0.313 C 
ATOM      6  O   UNL     1       0.415   0.457   3.859  1.00  0.00    -0.252 OA
BRANCH   5   7
ATOM      7  C   UNL     1       0.631  -0.281   1.551  1.00  0.00     0.126 C 
ATOM      8  C   UNL     1       1.408   0.028   0.271  1.00  0.00     0.025 C 
BRANCH   7   9
ATOM      9  C   UNL     1      -0.878  -0.206   1.318  1.00  0.00    -0.032 A 
ATOM     10  C   UNL     1      -1.510   0.926   0.796  1.00  0.00     0.005 A 
ATOM     11  C   UNL     1      -1.666  -1.291   1.720  1.00  0.00     0.032 A 
ATOM     12  C   UNL     1      -2.902   1.009   0.700  1.00  0.00     0.011 A 
ATOM     13  C   UNL     1      -3.070  -1.207   1.636  1.00  0.00     0.058 A 
ATOM     14  C   UNL     1      -3.693  -0.076   1.122  1.00  0.00     0.008 A 
ATOM     15  N   UNL     1      -4.058  -2.135   1.988  1.00  0.00    -0.274 N 
ATOM     16  C   UNL     1      -5.095  -0.290   1.189  1.00  0.00     0.009 A 
ATOM     17  C   UNL     1      -5.313  -1.545   1.773  1.00  0.00     0.057 A 
ATOM     18  C   UNL     1      -6.193   0.528   0.843  1.00  0.00     0.031 A 
ATOM     19  C   UNL     1      -6.619  -1.952   2.114  1.00  0.00     0.029 A 
ATOM     20  C   UNL     1      -7.482   0.106   1.150  1.00  0.00     0.041 A 
ATOM     21  C   UNL     1      -7.692  -1.107   1.793  1.00  0.00     0.023 A 
ATOM     22  Cl  UNL     1      -8.819   1.118   0.760  1.00  0.00    -0.084 Cl
BRANCH  15  23
ATOM     23  C   UNL     1      -3.763  -3.418   2.522  1.00  0.00     0.284 C 
ATOM     24  O   UNL     1      -2.742  -3.492   3.203  1.00  0.00    -0.266 OA
BRANCH  23  25
ATOM     25  C   UNL     1      -4.522  -4.639   2.268  1.00  0.00     0.167 A 
ATOM     26  C   UNL     1      -5.392  -4.944   1.244  1.00  0.00     0.231 A 
ATOM     27  N   UNL     1      -4.306  -5.792   3.014  1.00  0.00    -0.211 NA
ATOM     28  O   UNL     1      -5.715  -6.269   1.330  1.00  0.00    -0.451 OA
ATOM     29  C   UNL     1      -5.008  -6.713   2.403  1.00  0.00     0.308 A 
ENDBRANCH  23  25
ENDBRANCH  15  23
ENDBRANCH   7   9
ENDBRANCH   5   7
ENDBRANCH   4   5
ENDBRANCH   3   4
ENDBRANCH   2   3
ENDBRANCH   1   2
BRANCH   1  30
ATOM     30  C   UNL     1       0.638   3.764   1.556  1.00  0.00     0.202 C 
BRANCH  30  31
ATOM     31  C   UNL     1       1.203   4.068   0.160  1.00  0.00     0.261 C 
BRANCH  31  32
ATOM     32  O   UNL     1       2.597   3.761   0.034  1.00  0.00    -0.460 OA
BRANCH  32  33
ATOM     33  C   UNL     1       3.399   4.852   0.056  1.00  0.00     0.338 C 
ATOM     34  O   UNL     1       3.050   6.027   0.069  1.00  0.00    -0.246 OA
BRANCH  33  35
ATOM     35  C   UNL     1       4.796   4.444   0.264  1.00  0.00     0.060 A 
ATOM     36  C   UNL     1       5.450   4.962   1.389  1.00  0.00     0.016 A 
ATOM     37  C   UNL     1       5.471   3.630  -0.647  1.00  0.00     0.016 A 
ATOM     38  C   UNL     1       6.800   4.705   1.587  1.00  0.00     0.010 A 
ATOM     39  C   UNL     1       6.834   3.386  -0.455  1.00  0.00     0.010 A 
ATOM     40  C   UNL     1       7.509   3.954   0.642  1.00  0.00    -0.014 A 
BRANCH  40  41
ATOM     41  C   UNL     1       8.987   3.917   0.723  1.00  0.00     0.031 A 
ATOM     42  C   UNL     1       9.781   4.835  -0.164  1.00  0.00     0.074 A 
ATOM     43  C   UNL     1       9.602   3.119   1.614  1.00  0.00     0.049 A 
ATOM     44  N   UNL     1      11.077   4.965  -0.274  1.00  0.00    -0.248 NA
ATOM     45  C   UNL     1       9.010   5.727  -1.046  1.00  0.00     0.031 C 
ATOM     46  C   UNL     1       8.927   2.229   2.558  1.00  0.00     0.029 A 
ATOM     47  N   UNL     1      10.936   2.930   1.869  1.00  0.00    -0.354 N 
ATOM     48  C   UNL     1      11.277   5.942  -1.242  1.00  0.00     0.074 A 
ATOM     49  C   UNL     1       9.972   6.352  -1.709  1.00  0.00     0.031 C 
ATOM     50  C   UNL     1       9.853   1.584   3.287  1.00  0.00     0.029 A 
ATOM     51  C   UNL     1      11.183   1.987   2.837  1.00  0.00     0.049 A 
ATOM     52  H   UNL     1      11.649   3.424   1.402  1.00  0.00     0.167 HD
ATOM     53  C   UNL     1      12.447   6.453  -1.694  1.00  0.00     0.037 A 
ATOM     54  C   UNL     1      12.352   1.493   3.289  1.00  0.00     0.037 A 
ATOM     55  C   UNL     1      13.739   6.039  -1.213  1.00  0.00     0.049 A 
ATOM     56  C   UNL     1      13.641   2.028   2.720  1.00  0.00     0.074 A 
ATOM     57  C   UNL     1      14.986   6.508  -1.587  1.00  0.00     0.029 A 
ATOM     58  N   UNL     1      13.952   5.053  -0.261  1.00  0.00    -0.354 N 
ATOM     59  N   UNL     1      13.819   2.966   1.818  1.00  0.00    -0.248 NA
ATOM     60  C   UNL     1      14.887   1.442   3.230  1.00  0.00     0.031 C 
ATOM     61  C   UNL     1      15.954   5.764  -0.905  1.00  0.00     0.029 A 
ATOM     62  C   UNL     1      15.310   4.877  -0.057  1.00  0.00     0.049 A 
ATOM     63  H   UNL     1      13.242   4.553   0.203  1.00  0.00     0.167 HD
ATOM     64  C   UNL     1      15.196   3.103   1.678  1.00  0.00     0.074 A 
ATOM     65  C   UNL     1      15.803   2.160   2.594  1.00  0.00     0.031 C 
ATOM     66  C   UNL     1      15.896   3.936   0.867  1.00  0.00     0.037 A 
BRANCH  53  67
ATOM     67  C   UNL     1      12.386   7.487  -2.785  1.00  0.00     0.058 A 
ATOM     68  C   UNL     1      11.913   8.789  -2.554  1.00  0.00     0.135 A 
ATOM     69  C   UNL     1      12.845   7.179  -4.077  1.00  0.00     0.135 A 
ATOM     70  F   UNL     1      11.443   9.133  -1.344  1.00  0.00    -0.206 F 
ATOM     71  C   UNL     1      11.877   9.741  -3.568  1.00  0.00     0.059 A 
ATOM     72  C   UNL     1      12.846   8.124  -5.098  1.00  0.00     0.059 A 
ATOM     73  F   UNL     1      13.302   5.948  -4.356  1.00  0.00    -0.206 F 
ATOM     74  C   UNL     1      12.348   9.399  -4.837  1.00  0.00     0.060 A 
BRANCH  74  75
ATOM     75  S   UNL     1      12.309  10.650  -6.138  1.00  0.00     0.124 S 
ATOM     76  O   UNL     1      10.877  10.748  -6.405  1.00  0.00    -0.237 OA
ATOM     77  O   UNL     1      12.911  11.804  -5.479  1.00  0.00    -0.237 OA
ATOM     78  O   UNL     1      13.105  10.056  -7.207  1.00  0.00    -0.744 OA
ENDBRANCH  74  75
ENDBRANCH  53  67
BRANCH  54  79
ATOM     79  C   UNL     1      12.359   0.425   4.325  1.00  0.00     0.058 A 
ATOM     80  C   UNL     1      12.845   0.670   5.618  1.00  0.00     0.135 A 
ATOM     81  C   UNL     1      11.881  -0.864   4.042  1.00  0.00     0.135 A 
ATOM     82  F   UNL     1      13.322   1.883   5.936  1.00  0.00    -0.206 F 
ATOM     83  C   UNL     1      12.874  -0.327   6.587  1.00  0.00     0.059 A 
ATOM     84  C   UNL     1      11.872  -1.870   5.003  1.00  0.00     0.059 A 
ATOM     85  F   UNL     1      11.394  -1.149   2.824  1.00  0.00    -0.206 F 
ATOM     86  C   UNL     1      12.382  -1.594   6.270  1.00  0.00     0.060 A 
BRANCH  86  87
ATOM     87  S   UNL     1      12.386  -2.869   7.549  1.00  0.00     0.124 S 
ATOM     88  O   UNL     1      13.809  -3.173   7.656  1.00  0.00    -0.237 OA
ATOM     89  O   UNL     1      11.795  -2.166   8.683  1.00  0.00    -0.237 OA
ATOM     90  O   UNL     1      11.557  -3.925   6.973  1.00  0.00    -0.744 OA
ENDBRANCH  86  87
ENDBRANCH  54  79
BRANCH  66  91
ATOM     91  C   UNL     1      17.398   3.899   0.962  1.00  0.00     0.058 A 
ATOM     92  C   UNL     1      18.145   2.817   0.472  1.00  0.00     0.135 A 
ATOM     93  C   UNL     1      18.100   4.989   1.502  1.00  0.00     0.135 A 
ATOM     94  F   UNL     1      17.524   1.747  -0.049  1.00  0.00    -0.206 F 
ATOM     95  C   UNL     1      19.535   2.806   0.537  1.00  0.00     0.059 A 
ATOM     96  C   UNL     1      19.490   5.013   1.548  1.00  0.00     0.059 A 
ATOM     97  F   UNL     1      17.435   6.056   1.974  1.00  0.00    -0.206 F 
ATOM     98  C   UNL     1      20.199   3.911   1.074  1.00  0.00     0.060 A 
BRANCH  98  99
ATOM     99  S   UNL     1      22.003   3.897   1.121  1.00  0.00     0.124 S 
ATOM    100  O   UNL     1      22.262   2.931   2.184  1.00  0.00    -0.237 OA
ATOM    101  O   UNL     1      22.347   3.462  -0.229  1.00  0.00    -0.237 OA
ATOM    102  O   UNL     1      22.347   5.281   1.434  1.00  0.00    -0.744 OA
ENDBRANCH  98  99
ENDBRANCH  66  91
ENDBRANCH  40  41
ENDBRANCH  33  35
ENDBRANCH  32  33
ENDBRANCH  31  32
ENDBRANCH  30  31
ENDBRANCH   1  30
TORSDOF 20
