REMARK SMILES C[C@](NC(=O)N1CCC[NH2+]CC1)(C(=O)OCCOCCOC(=O)c1ccc(-c2c3nc(c(-c4c(F)cc(S(=O)(=O)[O-])cc4F)c4ccc([nH]4)c(-c4c(F)cc(S(=O)(=O)[O-])cc4F)c4nc(c(-c5c(F)cc(S(=O)(=O)[O-])cc5F)c5ccc2[nH]5)C=C4)C=C3)cc1)C(F)(F)F
REMARK SMILES IDX 16 1 15 2 13 3 14 4 2 5 1 6 90 7 91 8 92 9 93 10 3 11 4 12
REMARK SMILES IDX 5 14 6 15 7 16 12 18 11 19 10 20 9 23 8 24 17 26 18 27 19 28
REMARK SMILES IDX 20 29 21 30 22 31 23 32 24 33 25 34 89 35 26 36 88 37 27 38
REMARK SMILES IDX 28 39 29 40 82 41 30 42 87 43 81 44 83 45 31 46 86 47 80 48
REMARK SMILES IDX 79 49 32 51 66 52 45 53 65 54 46 55 49 56 64 57 84 58 47 59
REMARK SMILES IDX 48 60 63 62 85 63 50 64 33 65 34 66 43 67 35 68 36 69 42 70
REMARK SMILES IDX 44 71 37 72 38 73 39 74 40 75 41 76 67 77 68 78 77 79 69 80
REMARK SMILES IDX 70 81 76 82 78 83 71 84 72 85 73 86 74 87 75 88 51 89 52 90
REMARK SMILES IDX 61 91 53 92 54 93 60 94 62 95 55 96 56 97 57 98 58 99 59 100
REMARK H PARENT 3 13 10 21 10 22 83 50 49 61
REMARK Flexibility Score: 80.00
ROOT
ATOM      1  C   UNL     1      -3.007  -1.330  -1.065  1.00  0.00     0.261 C 
ENDROOT
BRANCH   1   2
ATOM      2  O   UNL     1      -1.576  -1.244  -0.953  1.00  0.00    -0.461 OA
BRANCH   2   3
ATOM      3  C   UNL     1      -0.912  -1.085  -2.131  1.00  0.00     0.341 C 
ATOM      4  O   UNL     1      -1.463  -1.099  -3.227  1.00  0.00    -0.249 OA
BRANCH   3   5
ATOM      5  C   UNL     1       0.610  -1.021  -1.959  1.00  0.00     0.232 C 
ATOM      6  C   UNL     1       1.126  -2.316  -2.588  1.00  0.00     0.058 C 
BRANCH   5   7
ATOM      7  C   UNL     1       1.037   0.165  -2.846  1.00  0.00     0.422 C 
ATOM      8  F   UNL     1       0.527   1.333  -2.381  1.00  0.00    -0.168 F 
ATOM      9  F   UNL     1       2.391   0.307  -2.815  1.00  0.00    -0.168 F 
ATOM     10  F   UNL     1       0.700   0.049  -4.145  1.00  0.00    -0.168 F 
ENDBRANCH   5   7
BRANCH   5  11
ATOM     11  N   UNL     1       1.059  -0.718  -0.540  1.00  0.00    -0.315 N 
ATOM     12  C   UNL     1       1.169  -1.388   0.619  1.00  0.00     0.318 C 
ATOM     13  H   UNL     1       1.346   0.218  -0.445  1.00  0.00     0.166 HD
ATOM     14  O   UNL     1       0.847  -0.758   1.629  1.00  0.00    -0.249 OA
BRANCH  12  15
ATOM     15  N   UNL     1       1.621  -2.671   0.674  1.00  0.00    -0.319 N 
BRANCH  15  16
ATOM     16  C   UNL     1       2.732  -3.171  -0.134  1.00  0.00     0.127 CG0
ATOM     17  G   UNL     1       4.066  -3.293   0.597  1.00  0.00     0.000 G0
ENDBRANCH  15  16
BRANCH  15  18
ATOM     18  C   UNL     1       1.121  -3.507   1.774  1.00  0.00     0.182 C 
BRANCH  18  19
ATOM     19  C   UNL     1       2.178  -4.098   2.721  1.00  0.00     0.282 C 
BRANCH  19  20
ATOM     20  N   UNL     1       3.040  -5.093   2.075  1.00  0.00    -0.345 N 
ATOM     21  H   UNL     1       3.316  -5.785   2.772  1.00  0.00     0.346 HD
ATOM     22  H   UNL     1       2.505  -5.512   1.314  1.00  0.00     0.346 HD
BRANCH  20  23
ATOM     23  C   UNL     1       4.239  -4.513   1.497  1.00  0.00     0.262 C 
BRANCH  23  24
ATOM     24  C   UNL     1       4.066  -3.293   0.597  1.00  0.00     0.083 CG0
ATOM     25  G   UNL     1       2.732  -3.171  -0.134  1.00  0.00     0.000 G0
ENDBRANCH  23  24
ENDBRANCH  20  23
ENDBRANCH  19  20
ENDBRANCH  18  19
ENDBRANCH  15  18
ENDBRANCH  12  15
ENDBRANCH   5  11
ENDBRANCH   3   5
ENDBRANCH   2   3
ENDBRANCH   1   2
BRANCH   1  26
ATOM     26  C   UNL     1      -3.701  -0.049  -0.601  1.00  0.00     0.202 C 
BRANCH  26  27
ATOM     27  O   UNL     1      -3.296   1.162  -1.236  1.00  0.00    -0.374 OA
BRANCH  27  28
ATOM     28  C   UNL     1      -2.080   1.763  -0.788  1.00  0.00     0.202 C 
BRANCH  28  29
ATOM     29  C   UNL     1      -2.111   2.511   0.548  1.00  0.00     0.261 C 
BRANCH  29  30
ATOM     30  O   UNL     1      -2.348   1.623   1.652  1.00  0.00    -0.460 OA
BRANCH  30  31
ATOM     31  C   UNL     1      -3.562   1.764   2.228  1.00  0.00     0.338 C 
ATOM     32  O   UNL     1      -4.405   2.614   1.959  1.00  0.00    -0.246 OA
BRANCH  31  33
ATOM     33  C   UNL     1      -3.858   0.627   3.119  1.00  0.00     0.060 A 
ATOM     34  C   UNL     1      -5.127   0.047   2.995  1.00  0.00     0.016 A 
ATOM     35  C   UNL     1      -2.975   0.199   4.113  1.00  0.00     0.016 A 
ATOM     36  C   UNL     1      -5.561  -0.884   3.930  1.00  0.00     0.010 A 
ATOM     37  C   UNL     1      -3.415  -0.736   5.058  1.00  0.00     0.010 A 
ATOM     38  C   UNL     1      -4.732  -1.229   5.005  1.00  0.00    -0.014 A 
BRANCH  38  39
ATOM     39  C   UNL     1      -5.346  -1.917   6.167  1.00  0.00     0.031 A 
ATOM     40  C   UNL     1      -5.780  -1.086   7.346  1.00  0.00     0.074 A 
ATOM     41  C   UNL     1      -5.610  -3.235   6.129  1.00  0.00     0.049 A 
ATOM     42  N   UNL     1      -6.415  -1.450   8.431  1.00  0.00    -0.248 NA
ATOM     43  C   UNL     1      -5.460   0.351   7.293  1.00  0.00     0.031 C 
ATOM     44  C   UNL     1      -5.278  -4.131   5.022  1.00  0.00     0.029 A 
ATOM     45  N   UNL     1      -6.236  -4.044   7.043  1.00  0.00    -0.354 N 
ATOM     46  C   UNL     1      -6.563  -0.293   9.188  1.00  0.00     0.074 A 
ATOM     47  C   UNL     1      -5.926   0.779   8.457  1.00  0.00     0.031 C 
ATOM     48  C   UNL     1      -5.711  -5.369   5.320  1.00  0.00     0.029 A 
ATOM     49  C   UNL     1      -6.333  -5.355   6.643  1.00  0.00     0.049 A 
ATOM     50  H   UNL     1      -6.582  -3.716   7.904  1.00  0.00     0.167 HD
ATOM     51  C   UNL     1      -7.186  -0.135  10.381  1.00  0.00     0.037 A 
ATOM     52  C   UNL     1      -6.864  -6.420   7.276  1.00  0.00     0.037 A 
ATOM     53  C   UNL     1      -7.831  -1.202  11.099  1.00  0.00     0.049 A 
ATOM     54  C   UNL     1      -7.514  -6.227   8.622  1.00  0.00     0.074 A 
ATOM     55  C   UNL     1      -8.509  -1.144  12.303  1.00  0.00     0.029 A 
ATOM     56  N   UNL     1      -7.872  -2.524  10.679  1.00  0.00    -0.354 N 
ATOM     57  N   UNL     1      -7.670  -5.123   9.314  1.00  0.00    -0.248 NA
ATOM     58  C   UNL     1      -8.069  -7.425   9.267  1.00  0.00     0.031 C 
ATOM     59  C   UNL     1      -8.921  -2.439  12.635  1.00  0.00     0.029 A 
ATOM     60  C   UNL     1      -8.545  -3.296  11.612  1.00  0.00     0.049 A 
ATOM     61  H   UNL     1      -7.481  -2.863   9.842  1.00  0.00     0.167 HD
ATOM     62  C   UNL     1      -8.372  -5.487  10.459  1.00  0.00     0.074 A 
ATOM     63  C   UNL     1      -8.614  -6.912  10.362  1.00  0.00     0.031 C 
ATOM     64  C   UNL     1      -8.784  -4.713  11.494  1.00  0.00     0.037 A 
BRANCH  51  65
ATOM     65  C   UNL     1      -7.171   1.238  10.996  1.00  0.00     0.058 A 
ATOM     66  C   UNL     1      -7.938   2.294  10.477  1.00  0.00     0.135 A 
ATOM     67  C   UNL     1      -6.390   1.495  12.134  1.00  0.00     0.135 A 
ATOM     68  F   UNL     1      -8.687   2.109   9.378  1.00  0.00    -0.206 F 
ATOM     69  C   UNL     1      -7.908   3.563  11.047  1.00  0.00     0.059 A 
ATOM     70  C   UNL     1      -6.365   2.749  12.736  1.00  0.00     0.059 A 
ATOM     71  F   UNL     1      -5.635   0.522  12.669  1.00  0.00    -0.206 F 
ATOM     72  C   UNL     1      -7.117   3.781  12.176  1.00  0.00     0.060 A 
BRANCH  72  73
ATOM     73  S   UNL     1      -7.086   5.432  12.907  1.00  0.00     0.124 S 
ATOM     74  O   UNL     1      -6.274   6.163  11.940  1.00  0.00    -0.237 OA
ATOM     75  O   UNL     1      -8.502   5.786  12.941  1.00  0.00    -0.237 OA
ATOM     76  O   UNL     1      -6.467   5.215  14.211  1.00  0.00    -0.744 OA
ENDBRANCH  72  73
ENDBRANCH  51  65
BRANCH  52  77
ATOM     77  C   UNL     1      -6.817  -7.762   6.638  1.00  0.00     0.058 A 
ATOM     78  C   UNL     1      -7.981  -8.384   6.165  1.00  0.00     0.135 A 
ATOM     79  C   UNL     1      -5.602  -8.451   6.490  1.00  0.00     0.135 A 
ATOM     80  F   UNL     1      -9.168  -7.770   6.292  1.00  0.00    -0.206 F 
ATOM     81  C   UNL     1      -7.948  -9.646   5.580  1.00  0.00     0.059 A 
ATOM     82  C   UNL     1      -5.540  -9.702   5.887  1.00  0.00     0.059 A 
ATOM     83  F   UNL     1      -4.458  -7.895   6.917  1.00  0.00    -0.206 F 
ATOM     84  C   UNL     1      -6.720 -10.296   5.443  1.00  0.00     0.060 A 
BRANCH  84  85
ATOM     85  S   UNL     1      -6.678 -11.911   4.635  1.00  0.00     0.124 S 
ATOM     86  O   UNL     1      -7.242 -12.771   5.668  1.00  0.00    -0.237 OA
ATOM     87  O   UNL     1      -7.516 -11.688   3.460  1.00  0.00    -0.237 OA
ATOM     88  O   UNL     1      -5.260 -12.107   4.353  1.00  0.00    -0.744 OA
ENDBRANCH  84  85
ENDBRANCH  52  77
BRANCH  64  89
ATOM     89  C   UNL     1      -9.580  -5.380  12.582  1.00  0.00     0.058 A 
ATOM     90  C   UNL     1      -8.986  -6.255  13.505  1.00  0.00     0.135 A 
ATOM     91  C   UNL     1     -10.951  -5.112  12.722  1.00  0.00     0.135 A 
ATOM     92  F   UNL     1      -7.678  -6.547  13.414  1.00  0.00    -0.206 F 
ATOM     93  C   UNL     1      -9.731  -6.870  14.506  1.00  0.00     0.059 A 
ATOM     94  C   UNL     1     -11.710  -5.694  13.733  1.00  0.00     0.059 A 
ATOM     95  F   UNL     1     -11.566  -4.271  11.875  1.00  0.00    -0.206 F 
ATOM     96  C   UNL     1     -11.094  -6.585  14.610  1.00  0.00     0.060 A 
BRANCH  96  97
ATOM     97  S   UNL     1     -12.050  -7.380  15.918  1.00  0.00     0.124 S 
ATOM     98  O   UNL     1     -12.207  -8.730  15.387  1.00  0.00    -0.237 OA
ATOM     99  O   UNL     1     -11.169  -7.253  17.075  1.00  0.00    -0.237 OA
ATOM    100  O   UNL     1     -13.272  -6.583  15.978  1.00  0.00    -0.744 OA
ENDBRANCH  96  97
ENDBRANCH  64  89
ENDBRANCH  38  39
ENDBRANCH  31  33
ENDBRANCH  30  31
ENDBRANCH  29  30
ENDBRANCH  28  29
ENDBRANCH  27  28
ENDBRANCH  26  27
ENDBRANCH   1  26
TORSDOF 20
