REMARK SMILES Cc1cccc(O[C@H](C)C(=O)NNC(=O)[C@H]2[C@@H]3CC[C@@H](C3)[C@@H]2C(=O)OCCOCCOC(=O)c2ccc(-c3c4nc(c(-c5c(F)cc(S(=O)(=O)[O-])cc5F)c5ccc([nH]5)c(-c5c(F)cc(S(=O)(=O)[O-])cc5F)c5nc(c(-c6c(F)cc(S(=O)(=O)[O-])cc6F)c6ccc3[nH]6)C=C5)C=C4)cc2)c1
REMARK SMILES IDX 27 1 26 2 25 3 23 4 24 5 22 6 16 7 17 8 18 9 21 10 20 11
REMARK SMILES IDX 19 12 14 13 13 14 15 16 12 17 10 18 11 19 8 21 9 22 7 23
REMARK SMILES IDX 6 24 1 25 2 26 3 27 100 28 4 29 5 30 28 31 29 32 30 33 31 34
REMARK SMILES IDX 32 35 33 36 34 37 35 38 99 39 36 40 98 41 37 42 38 43 39 44
REMARK SMILES IDX 92 45 40 46 97 47 91 48 93 49 41 50 96 51 90 52 89 53 42 55
REMARK SMILES IDX 76 56 55 57 75 58 56 59 59 60 74 61 94 62 57 63 58 64 73 66
REMARK SMILES IDX 95 67 60 68 43 69 44 70 53 71 45 72 46 73 52 74 54 75 47 76
REMARK SMILES IDX 48 77 49 78 50 79 51 80 77 81 78 82 87 83 79 84 80 85 86 86
REMARK SMILES IDX 88 87 81 88 82 89 83 90 84 91 85 92 61 93 62 94 71 95 63 96
REMARK SMILES IDX 64 97 70 98 72 99 65 100 66 101 67 102 68 103 69 104
REMARK H PARENT 13 15 12 20 93 54 59 65
REMARK Flexibility Score: inf
ROOT
ATOM      1  C   UNL     1       3.800   4.412  -0.375  1.00  0.00     0.202 C 
ENDROOT
BRANCH   1   2
ATOM      2  C   UNL     1       3.934   4.724  -1.843  1.00  0.00     0.261 C 
BRANCH   2   3
ATOM      3  O   UNL     1       3.211   3.795  -2.674  1.00  0.00    -0.463 OA
BRANCH   3   4
ATOM      4  C   UNL     1       3.674   2.524  -2.896  1.00  0.00     0.310 C 
ATOM      5  O   UNL     1       4.778   2.081  -2.686  1.00  0.00    -0.252 OA
BRANCH   4   6
ATOM      6  C   UNL     1       2.481   1.694  -3.277  1.00  0.00     0.115 C 
ATOM      7  C   UNL     1       2.409   0.442  -2.403  1.00  0.00     0.098 C 
ATOM      8  C   UNL     1       1.838  -0.620  -3.369  1.00  0.00     0.003 C 
ATOM      9  C   UNL     1       3.001  -1.110  -4.259  1.00  0.00     0.005 C 
ATOM     10  C   UNL     1       1.063   0.215  -4.391  1.00  0.00     0.009 C 
ATOM     11  C   UNL     1       2.254   1.145  -4.687  1.00  0.00     0.004 C 
ATOM     12  C   UNL     1       3.327   0.131  -5.105  1.00  0.00     0.005 C 
BRANCH   7  13
ATOM     13  C   UNL     1       1.758   0.555  -1.038  1.00  0.00     0.242 C 
ATOM     14  N   UNL     1       0.955   1.595  -0.670  1.00  0.00    -0.267 N 
ATOM     15  H   UNL     1       1.045   1.906   0.260  1.00  0.00     0.191 HD
ATOM     16  O   UNL     1       2.019  -0.294  -0.177  1.00  0.00    -0.273 OA
BRANCH  14  17
ATOM     17  N   UNL     1       0.030   2.263  -1.450  1.00  0.00    -0.264 N 
ATOM     18  C   UNL     1      -0.674   3.362  -1.053  1.00  0.00     0.279 C 
ATOM     19  O   UNL     1      -0.977   4.179  -1.933  1.00  0.00    -0.269 OA
ATOM     20  H   UNL     1      -0.133   1.920  -2.359  1.00  0.00     0.191 HD
BRANCH  18  21
ATOM     21  C   UNL     1      -1.326   3.466   0.351  1.00  0.00     0.260 C 
ATOM     22  C   UNL     1      -2.729   2.844   0.268  1.00  0.00     0.064 C 
BRANCH  21  23
ATOM     23  O   UNL     1      -0.689   3.352   1.605  1.00  0.00    -0.481 OA
BRANCH  23  24
ATOM     24  C   UNL     1      -0.258   2.212   2.198  1.00  0.00     0.120 A 
ATOM     25  C   UNL     1       2.390   1.608   4.885  1.00  0.00     0.044 C 
ATOM     26  C   UNL     1       1.343   1.366   3.840  1.00  0.00    -0.047 A 
ATOM     27  C   UNL     1       1.033   0.061   3.454  1.00  0.00     0.003 A 
ATOM     28  C   UNL     1       0.686   2.431   3.212  1.00  0.00     0.049 A 
ATOM     29  C   UNL     1       0.070  -0.168   2.473  1.00  0.00     0.004 A 
ATOM     30  C   UNL     1      -0.584   0.903   1.856  1.00  0.00     0.046 A 
ENDBRANCH  23  24
ENDBRANCH  21  23
ENDBRANCH  18  21
ENDBRANCH  14  17
ENDBRANCH   7  13
ENDBRANCH   4   6
ENDBRANCH   3   4
ENDBRANCH   2   3
ENDBRANCH   1   2
BRANCH   1  31
ATOM     31  O   UNL     1       4.475   3.177  -0.164  1.00  0.00    -0.374 OA
BRANCH  31  32
ATOM     32  C   UNL     1       4.405   2.641   1.141  1.00  0.00     0.202 C 
BRANCH  32  33
ATOM     33  C   UNL     1       5.042   3.536   2.210  1.00  0.00     0.261 C 
BRANCH  33  34
ATOM     34  O   UNL     1       6.473   3.601   2.039  1.00  0.00    -0.460 OA
BRANCH  34  35
ATOM     35  C   UNL     1       6.943   4.756   1.482  1.00  0.00     0.338 C 
ATOM     36  O   UNL     1       6.969   5.828   2.059  1.00  0.00    -0.246 OA
BRANCH  35  37
ATOM     37  C   UNL     1       7.375   4.505   0.077  1.00  0.00     0.060 A 
ATOM     38  C   UNL     1       7.499   5.554  -0.851  1.00  0.00     0.016 A 
ATOM     39  C   UNL     1       7.451   3.188  -0.362  1.00  0.00     0.016 A 
ATOM     40  C   UNL     1       7.565   5.283  -2.234  1.00  0.00     0.010 A 
ATOM     41  C   UNL     1       7.424   2.934  -1.717  1.00  0.00     0.010 A 
ATOM     42  C   UNL     1       7.465   3.965  -2.674  1.00  0.00    -0.014 A 
BRANCH  42  43
ATOM     43  C   UNL     1       7.309   3.495  -4.061  1.00  0.00     0.031 A 
ATOM     44  C   UNL     1       8.275   2.490  -4.584  1.00  0.00     0.074 A 
ATOM     45  C   UNL     1       6.161   3.672  -4.762  1.00  0.00     0.049 A 
ATOM     46  N   UNL     1       8.289   2.062  -5.800  1.00  0.00    -0.248 NA
ATOM     47  C   UNL     1       9.348   1.905  -3.788  1.00  0.00     0.031 C 
ATOM     48  C   UNL     1       5.605   2.737  -5.743  1.00  0.00     0.029 A 
ATOM     49  N   UNL     1       5.200   4.678  -4.716  1.00  0.00    -0.354 N 
ATOM     50  C   UNL     1       9.066   0.928  -5.849  1.00  0.00     0.074 A 
ATOM     51  C   UNL     1       9.814   0.970  -4.619  1.00  0.00     0.031 C 
ATOM     52  C   UNL     1       4.518   3.262  -6.322  1.00  0.00     0.029 A 
ATOM     53  C   UNL     1       4.414   4.631  -5.874  1.00  0.00     0.049 A 
ATOM     54  H   UNL     1       5.090   5.324  -3.981  1.00  0.00     0.167 HD
ATOM     55  C   UNL     1       8.865   0.043  -6.872  1.00  0.00     0.037 A 
ATOM     56  C   UNL     1       4.261   5.725  -6.667  1.00  0.00     0.037 A 
ATOM     57  C   UNL     1       7.830   0.549  -7.802  1.00  0.00     0.049 A 
ATOM     58  C   UNL     1       4.880   5.458  -8.013  1.00  0.00     0.074 A 
ATOM     59  C   UNL     1       6.538   0.149  -8.111  1.00  0.00     0.029 A 
ATOM     60  N   UNL     1       7.992   1.799  -8.405  1.00  0.00    -0.354 N 
ATOM     61  N   UNL     1       5.722   4.479  -8.211  1.00  0.00    -0.248 NA
ATOM     62  C   UNL     1       4.564   6.163  -9.245  1.00  0.00     0.031 C 
ATOM     63  C   UNL     1       5.942   1.156  -8.924  1.00  0.00     0.029 A 
ATOM     64  C   UNL     1       6.871   2.167  -9.125  1.00  0.00     0.049 A 
ATOM     65  H   UNL     1       8.804   2.350  -8.326  1.00  0.00     0.167 HD
ATOM     66  C   UNL     1       6.028   4.366  -9.533  1.00  0.00     0.074 A 
ATOM     67  C   UNL     1       5.288   5.460 -10.139  1.00  0.00     0.031 C 
ATOM     68  C   UNL     1       6.864   3.373  -9.966  1.00  0.00     0.037 A 
BRANCH  55  69
ATOM     69  C   UNL     1       9.442  -1.374  -6.982  1.00  0.00     0.058 A 
ATOM     70  C   UNL     1       9.029  -2.243  -8.023  1.00  0.00     0.135 A 
ATOM     71  C   UNL     1      10.380  -1.964  -6.107  1.00  0.00     0.135 A 
ATOM     72  F   UNL     1       8.171  -1.842  -8.972  1.00  0.00    -0.206 F 
ATOM     73  C   UNL     1       9.473  -3.567  -8.153  1.00  0.00     0.059 A 
ATOM     74  C   UNL     1      10.836  -3.282  -6.213  1.00  0.00     0.059 A 
ATOM     75  F   UNL     1      10.942  -1.306  -5.096  1.00  0.00    -0.206 F 
ATOM     76  C   UNL     1      10.375  -4.083  -7.237  1.00  0.00     0.060 A 
BRANCH  76  77
ATOM     77  S   UNL     1      10.955  -5.780  -7.403  1.00  0.00     0.124 S 
ATOM     78  O   UNL     1       9.717  -6.540  -7.270  1.00  0.00    -0.237 OA
ATOM     79  O   UNL     1      11.559  -5.770  -8.731  1.00  0.00    -0.237 OA
ATOM     80  O   UNL     1      11.896  -5.931  -6.295  1.00  0.00    -0.744 OA
ENDBRANCH  76  77
ENDBRANCH  55  69
BRANCH  56  81
ATOM     81  C   UNL     1       4.171   6.985  -5.870  1.00  0.00     0.058 A 
ATOM     82  C   UNL     1       2.960   7.197  -5.171  1.00  0.00     0.135 A 
ATOM     83  C   UNL     1       5.325   7.579  -5.334  1.00  0.00     0.135 A 
ATOM     84  F   UNL     1       1.823   6.649  -5.631  1.00  0.00    -0.206 F 
ATOM     85  C   UNL     1       2.921   7.816  -3.920  1.00  0.00     0.059 A 
ATOM     86  C   UNL     1       5.311   8.181  -4.069  1.00  0.00     0.059 A 
ATOM     87  F   UNL     1       6.509   7.412  -5.941  1.00  0.00    -0.206 F 
ATOM     88  C   UNL     1       4.116   8.247  -3.346  1.00  0.00     0.060 A 
BRANCH  88  89
ATOM     89  S   UNL     1       4.156   8.634  -1.567  1.00  0.00     0.124 S 
ATOM     90  O   UNL     1       3.875  10.063  -1.560  1.00  0.00    -0.237 OA
ATOM     91  O   UNL     1       3.105   7.780  -1.017  1.00  0.00    -0.237 OA
ATOM     92  O   UNL     1       5.508   8.241  -1.188  1.00  0.00    -0.744 OA
ENDBRANCH  88  89
ENDBRANCH  56  81
BRANCH  68  93
ATOM     93  C   UNL     1       7.703   3.384 -11.233  1.00  0.00     0.058 A 
ATOM     94  C   UNL     1       7.812   4.471 -12.116  1.00  0.00     0.135 A 
ATOM     95  C   UNL     1       8.581   2.302 -11.523  1.00  0.00     0.135 A 
ATOM     96  F   UNL     1       7.127   5.605 -11.944  1.00  0.00    -0.206 F 
ATOM     97  C   UNL     1       8.677   4.472 -13.211  1.00  0.00     0.059 A 
ATOM     98  C   UNL     1       9.496   2.309 -12.572  1.00  0.00     0.059 A 
ATOM     99  F   UNL     1       8.617   1.188 -10.781  1.00  0.00    -0.206 F 
ATOM    100  C   UNL     1       9.523   3.393 -13.425  1.00  0.00     0.060 A 
BRANCH 100 101
ATOM    101  S   UNL     1      10.670   3.449 -14.805  1.00  0.00     0.124 S 
ATOM    102  O   UNL     1       9.765   3.299 -15.941  1.00  0.00    -0.237 OA
ATOM    103  O   UNL     1      11.274   4.769 -14.649  1.00  0.00    -0.237 OA
ATOM    104  O   UNL     1      11.564   2.324 -14.557  1.00  0.00    -0.744 OA
ENDBRANCH 100 101
ENDBRANCH  68  93
ENDBRANCH  42  43
ENDBRANCH  35  37
ENDBRANCH  34  35
ENDBRANCH  33  34
ENDBRANCH  32  33
ENDBRANCH  31  32
ENDBRANCH   1  31
TORSDOF 22
