REMARK SMILES C[C@@H]1[C@@H](C(=O)OCCOCCOC(=O)c2ccc(-c3c4nc(c(-c5c(F)cc(S(=O)(=O)[O-])cc5F)c5ccc([nH]5)c(-c5c(F)cc(S(=O)(=O)[O-])cc5F)c5nc(c(-c6c(F)cc(S(=O)(=O)[O-])cc6F)c6ccc3[nH]6)C=C5)C=C4)cc2)CCN1C(=O)N1CCC[C@H]2CCC[C@@H]21
REMARK SMILES IDX 10 1 9 2 8 3 7 4 6 5 4 6 5 7 3 8 1 9 2 10 83 11 81 12 82 13
REMARK SMILES IDX 84 14 85 15 86 16 87 17 94 18 88 19 90 20 93 21 89 22 91 23
REMARK SMILES IDX 92 24 11 25 12 26 13 27 14 28 15 29 16 30 80 31 17 32 79 33
REMARK SMILES IDX 18 34 19 35 20 36 73 37 21 38 78 39 72 40 74 41 22 42 77 43
REMARK SMILES IDX 71 44 70 45 23 47 57 48 36 49 56 50 37 51 40 52 55 53 75 54
REMARK SMILES IDX 38 55 39 56 54 58 76 59 41 60 24 61 25 62 34 63 26 64 27 65
REMARK SMILES IDX 33 66 35 67 28 68 29 69 30 70 31 71 32 72 58 73 59 74 68 75
REMARK SMILES IDX 60 76 61 77 67 78 69 79 62 80 63 81 64 82 65 83 66 84 42 85
REMARK SMILES IDX 43 86 52 87 44 88 45 89 51 90 53 91 46 92 47 93 48 94 49 95
REMARK SMILES IDX 50 96
REMARK H PARENT 74 46 40 57
REMARK Flexibility Score: inf
ROOT
ATOM      1  C   UNL     1       0.605   2.893  -3.342  1.00  0.00     0.202 C 
ENDROOT
BRANCH   1   2
ATOM      2  O   UNL     1      -0.116   2.395  -4.469  1.00  0.00    -0.374 OA
BRANCH   2   3
ATOM      3  C   UNL     1      -1.541   2.391  -4.398  1.00  0.00     0.202 C 
BRANCH   3   4
ATOM      4  C   UNL     1      -2.203   1.245  -3.626  1.00  0.00     0.261 C 
BRANCH   4   5
ATOM      5  O   UNL     1      -1.852   1.259  -2.232  1.00  0.00    -0.463 OA
BRANCH   5   6
ATOM      6  C   UNL     1      -0.904   0.344  -1.886  1.00  0.00     0.311 C 
ATOM      7  O   UNL     1      -0.415  -0.467  -2.658  1.00  0.00    -0.252 OA
BRANCH   6   8
ATOM      8  C   UNL     1      -0.429   0.584  -0.463  1.00  0.00     0.123 C 
ATOM      9  C   UNL     1       1.645   0.254   0.935  1.00  0.00     0.032 C 
ATOM     10  C   UNL     1       0.757  -0.341  -0.162  1.00  0.00     0.098 C 
ATOM     11  N   UNL     1       0.100  -1.590   0.247  1.00  0.00    -0.321 N 
ATOM     12  C   UNL     1      -1.456   0.180   0.589  1.00  0.00     0.039 C 
ATOM     13  C   UNL     1      -1.253  -1.326   0.726  1.00  0.00     0.122 C 
BRANCH  11  14
ATOM     14  C   UNL     1       0.362  -2.850  -0.285  1.00  0.00     0.320 C 
ATOM     15  O   UNL     1      -0.448  -3.774  -0.219  1.00  0.00    -0.248 OA
BRANCH  14  16
ATOM     16  N   UNL     1       1.534  -2.961  -0.996  1.00  0.00    -0.321 N 
ATOM     17  C   UNL     1       2.825  -2.858  -0.330  1.00  0.00     0.121 C 
ATOM     18  C   UNL     1       1.593  -3.653  -2.272  1.00  0.00     0.090 C 
ATOM     19  C   UNL     1       3.857  -2.144  -1.209  1.00  0.00     0.022 C 
ATOM     20  C   UNL     1       2.490  -2.823  -3.198  1.00  0.00     0.012 C 
ATOM     21  C   UNL     1       0.336  -3.812  -3.123  1.00  0.00     0.025 C 
ATOM     22  C   UNL     1       3.904  -2.721  -2.634  1.00  0.00     0.007 C 
ATOM     23  C   UNL     1       2.330  -3.511  -4.542  1.00  0.00     0.006 C 
ATOM     24  C   UNL     1       0.864  -3.964  -4.559  1.00  0.00     0.002 C 
ENDBRANCH  14  16
ENDBRANCH  11  14
ENDBRANCH   6   8
ENDBRANCH   5   6
ENDBRANCH   4   5
ENDBRANCH   3   4
ENDBRANCH   2   3
ENDBRANCH   1   2
BRANCH   1  25
ATOM     25  C   UNL     1       0.633   4.412  -3.136  1.00  0.00     0.261 C 
BRANCH  25  26
ATOM     26  O   UNL     1      -0.664   4.942  -2.812  1.00  0.00    -0.460 OA
BRANCH  26  27
ATOM     27  C   UNL     1      -1.218   5.705  -3.784  1.00  0.00     0.338 C 
ATOM     28  O   UNL     1      -0.700   6.040  -4.841  1.00  0.00    -0.246 OA
BRANCH  27  29
ATOM     29  C   UNL     1      -2.643   5.943  -3.494  1.00  0.00     0.060 A 
ATOM     30  C   UNL     1      -3.568   5.617  -4.495  1.00  0.00     0.016 A 
ATOM     31  C   UNL     1      -3.065   6.541  -2.304  1.00  0.00     0.016 A 
ATOM     32  C   UNL     1      -4.912   5.938  -4.334  1.00  0.00     0.010 A 
ATOM     33  C   UNL     1      -4.415   6.873  -2.149  1.00  0.00     0.010 A 
ATOM     34  C   UNL     1      -5.337   6.607  -3.179  1.00  0.00    -0.014 A 
BRANCH  34  35
ATOM     35  C   UNL     1      -6.710   7.163  -3.124  1.00  0.00     0.031 A 
ATOM     36  C   UNL     1      -6.916   8.622  -3.432  1.00  0.00     0.074 A 
ATOM     37  C   UNL     1      -7.761   6.374  -2.843  1.00  0.00     0.049 A 
ATOM     38  N   UNL     1      -8.019   9.324  -3.423  1.00  0.00    -0.248 NA
ATOM     39  C   UNL     1      -5.716   9.393  -3.798  1.00  0.00     0.031 C 
ATOM     40  C   UNL     1      -7.690   4.939  -2.567  1.00  0.00     0.029 A 
ATOM     41  N   UNL     1      -9.097   6.671  -2.738  1.00  0.00    -0.354 N 
ATOM     42  C   UNL     1      -7.649  10.616  -3.776  1.00  0.00     0.074 A 
ATOM     43  C   UNL     1      -6.214  10.609  -3.964  1.00  0.00     0.031 C 
ATOM     44  C   UNL     1      -8.929   4.483  -2.313  1.00  0.00     0.029 A 
ATOM     45  C   UNL     1      -9.874   5.596  -2.381  1.00  0.00     0.049 A 
ATOM     46  H   UNL     1      -9.463   7.570  -2.904  1.00  0.00     0.167 HD
ATOM     47  C   UNL     1      -8.434  11.707  -3.938  1.00  0.00     0.037 A 
ATOM     48  C   UNL     1     -11.194   5.524  -2.119  1.00  0.00     0.037 A 
ATOM     49  C   UNL     1      -9.862  11.707  -3.753  1.00  0.00     0.049 A 
ATOM     50  C   UNL     1     -12.040   6.765  -2.247  1.00  0.00     0.074 A 
ATOM     51  C   UNL     1     -10.750  12.757  -3.909  1.00  0.00     0.029 A 
ATOM     52  N   UNL     1     -10.610  10.605  -3.366  1.00  0.00    -0.354 N 
ATOM     53  N   UNL     1     -11.680   7.976  -2.601  1.00  0.00    -0.248 NA
ATOM     54  C   UNL     1     -13.472   6.629  -1.945  1.00  0.00     0.031 C 
ATOM     55  C   UNL     1     -12.029  12.301  -3.572  1.00  0.00     0.029 A 
ATOM     56  C   UNL     1     -11.946  10.954  -3.255  1.00  0.00     0.049 A 
ATOM     57  H   UNL     1     -10.245   9.707  -3.195  1.00  0.00     0.167 HD
ATOM     58  C   UNL     1     -12.843   8.739  -2.589  1.00  0.00     0.074 A 
ATOM     59  C   UNL     1     -13.920   7.850  -2.203  1.00  0.00     0.031 C 
ATOM     60  C   UNL     1     -13.007  10.055  -2.875  1.00  0.00     0.037 A 
BRANCH  47  61
ATOM     61  C   UNL     1      -7.763  12.999  -4.314  1.00  0.00     0.058 A 
ATOM     62  C   UNL     1      -7.239  13.213  -5.598  1.00  0.00     0.135 A 
ATOM     63  C   UNL     1      -7.667  14.047  -3.384  1.00  0.00     0.135 A 
ATOM     64  F   UNL     1      -7.287  12.238  -6.520  1.00  0.00    -0.206 F 
ATOM     65  C   UNL     1      -6.623  14.413  -5.941  1.00  0.00     0.059 A 
ATOM     66  C   UNL     1      -7.078  15.264  -3.713  1.00  0.00     0.059 A 
ATOM     67  F   UNL     1      -8.148  13.893  -2.140  1.00  0.00    -0.206 F 
ATOM     68  C   UNL     1      -6.546  15.432  -4.990  1.00  0.00     0.060 A 
BRANCH  68  69
ATOM     69  S   UNL     1      -5.746  16.984  -5.450  1.00  0.00     0.124 S 
ATOM     70  O   UNL     1      -4.340  16.593  -5.465  1.00  0.00    -0.237 OA
ATOM     71  O   UNL     1      -6.338  17.268  -6.753  1.00  0.00    -0.237 OA
ATOM     72  O   UNL     1      -6.131  17.896  -4.378  1.00  0.00    -0.744 OA
ENDBRANCH  68  69
ENDBRANCH  47  61
BRANCH  48  73
ATOM     73  C   UNL     1     -11.799   4.232  -1.699  1.00  0.00     0.058 A 
ATOM     74  C   UNL     1     -12.671   3.530  -2.542  1.00  0.00     0.135 A 
ATOM     75  C   UNL     1     -11.513   3.675  -0.442  1.00  0.00     0.135 A 
ATOM     76  F   UNL     1     -12.983   4.028  -3.749  1.00  0.00    -0.206 F 
ATOM     77  C   UNL     1     -13.252   2.328  -2.151  1.00  0.00     0.059 A 
ATOM     78  C   UNL     1     -12.062   2.462  -0.039  1.00  0.00     0.059 A 
ATOM     79  F   UNL     1     -10.676   4.303   0.398  1.00  0.00    -0.206 F 
ATOM     80  C   UNL     1     -12.938   1.800  -0.897  1.00  0.00     0.060 A 
BRANCH  80  81
ATOM     81  S   UNL     1     -13.659   0.215  -0.417  1.00  0.00     0.124 S 
ATOM     82  O   UNL     1     -15.037   0.595  -0.130  1.00  0.00    -0.237 OA
ATOM     83  O   UNL     1     -13.453  -0.590  -1.616  1.00  0.00    -0.237 OA
ATOM     84  O   UNL     1     -12.858  -0.179   0.738  1.00  0.00    -0.744 OA
ENDBRANCH  80  81
ENDBRANCH  48  73
BRANCH  60  85
ATOM     85  C   UNL     1     -14.403  10.610  -2.817  1.00  0.00     0.058 A 
ATOM     86  C   UNL     1     -15.056  10.840  -1.596  1.00  0.00     0.135 A 
ATOM     87  C   UNL     1     -15.076  10.966  -3.997  1.00  0.00     0.135 A 
ATOM     88  F   UNL     1     -14.460  10.512  -0.439  1.00  0.00    -0.206 F 
ATOM     89  C   UNL     1     -16.336  11.383  -1.548  1.00  0.00     0.059 A 
ATOM     90  C   UNL     1     -16.345  11.535  -3.972  1.00  0.00     0.059 A 
ATOM     91  F   UNL     1     -14.492  10.778  -5.191  1.00  0.00    -0.206 F 
ATOM     92  C   UNL     1     -16.972  11.729  -2.742  1.00  0.00     0.060 A 
BRANCH  92  93
ATOM     93  S   UNL     1     -18.619  12.464  -2.665  1.00  0.00     0.124 S 
ATOM     94  O   UNL     1     -19.445  11.303  -2.350  1.00  0.00    -0.237 OA
ATOM     95  O   UNL     1     -18.474  13.448  -1.597  1.00  0.00    -0.237 OA
ATOM     96  O   UNL     1     -18.805  13.023  -4.001  1.00  0.00    -0.744 OA
ENDBRANCH  92  93
ENDBRANCH  60  85
ENDBRANCH  34  35
ENDBRANCH  27  29
ENDBRANCH  26  27
ENDBRANCH  25  26
ENDBRANCH   1  25
TORSDOF 19
