REMARK SMILES Cc1cc(C)c(C(N)=O)c(N[C@H]2C=C[C@H](C(=O)OCCOCCOC(=O)c3ccc(-c4c5nc(c(-c6c(F)cc(S(=O)(=O)[O-])cc6F)c6ccc([nH]6)c(-c6c(F)cc(S(=O)(=O)[O-])cc6F)c6nc(c(-c7c(F)cc(S(=O)(=O)[O-])cc7F)c7ccc4[nH]7)C=C6)C=C5)cc3)C2)n1
REMARK SMILES IDX 21 1 20 2 19 3 18 4 16 5 17 6 15 7 12 8 13 9 93 10 14 11
REMARK SMILES IDX 11 12 10 14 1 15 2 16 3 17 94 18 4 19 5 20 6 21 7 22 8 23
REMARK SMILES IDX 9 24 22 27 23 28 24 29 25 30 26 31 27 32 28 33 92 34 29 35
REMARK SMILES IDX 91 36 30 37 31 38 32 39 85 40 33 41 90 42 84 43 86 44 34 45
REMARK SMILES IDX 89 46 83 47 82 48 35 50 69 51 48 52 68 53 49 54 52 55 67 56
REMARK SMILES IDX 87 57 50 58 51 59 66 61 88 62 53 63 36 64 37 65 46 66 38 67
REMARK SMILES IDX 39 68 45 69 47 70 40 71 41 72 42 73 43 74 44 75 70 76 71 77
REMARK SMILES IDX 80 78 72 79 73 80 79 81 81 82 74 83 75 84 76 85 77 86 78 87
REMARK SMILES IDX 54 88 55 89 64 90 56 91 57 92 63 93 65 94 58 95 59 96 60 97
REMARK SMILES IDX 61 98 62 99
REMARK H PARENT 11 13 8 25 8 26 86 49 52 60
REMARK Flexibility Score: inf
ROOT
ATOM      1  O   UNL     1      -5.524  -5.501  -3.722  1.00  0.00    -0.374 OA
ENDROOT
BRANCH   1   2
ATOM      2  C   UNL     1      -6.608  -5.766  -2.830  1.00  0.00     0.202 C 
BRANCH   2   3
ATOM      3  C   UNL     1      -6.229  -5.960  -1.360  1.00  0.00     0.261 C 
BRANCH   3   4
ATOM      4  O   UNL     1      -5.679  -4.745  -0.831  1.00  0.00    -0.463 OA
BRANCH   4   5
ATOM      5  C   UNL     1      -4.413  -4.835  -0.342  1.00  0.00     0.312 C 
ATOM      6  O   UNL     1      -3.804  -5.876  -0.128  1.00  0.00    -0.252 OA
BRANCH   5   7
ATOM      7  C   UNL     1      -3.806  -3.445  -0.212  1.00  0.00     0.124 C 
ATOM      8  C   UNL     1      -1.421  -3.694   0.138  1.00  0.00     0.104 C 
ATOM      9  C   UNL     1      -2.112  -3.292   1.401  1.00  0.00    -0.006 C 
ATOM     10  C   UNL     1      -2.458  -3.422  -0.955  1.00  0.00     0.048 C 
ATOM     11  C   UNL     1      -3.430  -3.154   1.207  1.00  0.00    -0.014 C 
BRANCH   8  12
ATOM     12  N   UNL     1      -0.155  -3.018  -0.068  1.00  0.00    -0.363 N 
ATOM     13  H   UNL     1       0.637  -3.576  -0.242  1.00  0.00     0.162 HD
BRANCH  12  14
ATOM     14  C   UNL     1       0.022  -1.640  -0.037  1.00  0.00     0.139 A 
ATOM     15  C   UNL     1      -2.253   1.255   0.089  1.00  0.00     0.067 C 
ATOM     16  C   UNL     1      -0.977   0.470   0.068  1.00  0.00     0.040 A 
ATOM     17  C   UNL     1       0.251   1.109   0.071  1.00  0.00     0.028 A 
ATOM     18  N   UNL     1      -1.087  -0.872   0.033  1.00  0.00    -0.236 NA
ATOM     19  C   UNL     1       1.423   0.342   0.037  1.00  0.00    -0.033 A 
ATOM     20  C   UNL     1       2.734   1.078   0.059  1.00  0.00     0.045 C 
ATOM     21  C   UNL     1       1.307  -1.062  -0.042  1.00  0.00     0.084 A 
BRANCH  21  22
ATOM     22  C   UNL     1       2.527  -1.913  -0.160  1.00  0.00     0.252 C 
ATOM     23  N   UNL     1       2.521  -3.114   0.496  1.00  0.00    -0.365 N 
ATOM     24  O   UNL     1       3.504  -1.575  -0.817  1.00  0.00    -0.269 OA
ATOM     25  H   UNL     1       1.734  -3.383   1.023  1.00  0.00     0.159 HD
ATOM     26  H   UNL     1       3.304  -3.709   0.442  1.00  0.00     0.159 HD
ENDBRANCH  21  22
ENDBRANCH  12  14
ENDBRANCH   8  12
ENDBRANCH   5   7
ENDBRANCH   4   5
ENDBRANCH   3   4
ENDBRANCH   2   3
ENDBRANCH   1   2
BRANCH   1  27
ATOM     27  C   UNL     1      -5.000  -4.172  -3.753  1.00  0.00     0.202 C 
BRANCH  27  28
ATOM     28  C   UNL     1      -5.835  -3.112  -4.480  1.00  0.00     0.261 C 
BRANCH  28  29
ATOM     29  O   UNL     1      -7.038  -2.786  -3.761  1.00  0.00    -0.460 OA
BRANCH  29  30
ATOM     30  C   UNL     1      -8.184  -3.173  -4.369  1.00  0.00     0.338 C 
ATOM     31  O   UNL     1      -8.291  -3.702  -5.470  1.00  0.00    -0.246 OA
BRANCH  30  32
ATOM     32  C   UNL     1      -9.321  -3.051  -3.441  1.00  0.00     0.060 A 
ATOM     33  C   UNL     1     -10.122  -4.185  -3.251  1.00  0.00     0.016 A 
ATOM     34  C   UNL     1      -9.655  -1.835  -2.841  1.00  0.00     0.016 A 
ATOM     35  C   UNL     1     -11.296  -4.093  -2.509  1.00  0.00     0.010 A 
ATOM     36  C   UNL     1     -10.842  -1.742  -2.104  1.00  0.00     0.010 A 
ATOM     37  C   UNL     1     -11.687  -2.859  -1.973  1.00  0.00    -0.014 A 
BRANCH  37  38
ATOM     38  C   UNL     1     -13.062  -2.706  -1.439  1.00  0.00     0.031 A 
ATOM     39  C   UNL     1     -14.119  -2.108  -2.328  1.00  0.00     0.074 A 
ATOM     40  C   UNL     1     -13.375  -3.130  -0.202  1.00  0.00     0.049 A 
ATOM     41  N   UNL     1     -15.376  -1.859  -2.071  1.00  0.00    -0.248 NA
ATOM     42  C   UNL     1     -13.699  -1.741  -3.692  1.00  0.00     0.031 C 
ATOM     43  C   UNL     1     -12.447  -3.761   0.735  1.00  0.00     0.029 A 
ATOM     44  N   UNL     1     -14.565  -3.088   0.479  1.00  0.00    -0.354 N 
ATOM     45  C   UNL     1     -15.896  -1.302  -3.234  1.00  0.00     0.074 A 
ATOM     46  C   UNL     1     -14.812  -1.222  -4.188  1.00  0.00     0.031 C 
ATOM     47  C   UNL     1     -13.101  -4.038   1.876  1.00  0.00     0.029 A 
ATOM     48  C   UNL     1     -14.485  -3.580   1.760  1.00  0.00     0.049 A 
ATOM     49  H   UNL     1     -15.398  -2.738   0.088  1.00  0.00     0.167 HD
ATOM     50  C   UNL     1     -17.165  -0.901  -3.486  1.00  0.00     0.037 A 
ATOM     51  C   UNL     1     -15.418  -3.637   2.730  1.00  0.00     0.037 A 
ATOM     52  C   UNL     1     -18.241  -0.987  -2.534  1.00  0.00     0.049 A 
ATOM     53  C   UNL     1     -16.811  -3.136   2.445  1.00  0.00     0.074 A 
ATOM     54  C   UNL     1     -19.565  -0.618  -2.696  1.00  0.00     0.029 A 
ATOM     55  N   UNL     1     -18.116  -1.474  -1.242  1.00  0.00    -0.354 N 
ATOM     56  N   UNL     1     -17.293  -2.625   1.337  1.00  0.00    -0.248 NA
ATOM     57  C   UNL     1     -17.788  -3.225   3.539  1.00  0.00     0.031 C 
ATOM     58  C   UNL     1     -20.232  -0.844  -1.486  1.00  0.00     0.029 A 
ATOM     59  C   UNL     1     -19.334  -1.399  -0.587  1.00  0.00     0.049 A 
ATOM     60  H   UNL     1     -17.284  -1.822  -0.847  1.00  0.00     0.167 HD
ATOM     61  C   UNL     1     -18.635  -2.359   1.591  1.00  0.00     0.074 A 
ATOM     62  C   UNL     1     -18.889  -2.772   2.956  1.00  0.00     0.031 C 
ATOM     63  C   UNL     1     -19.572  -1.826   0.769  1.00  0.00     0.037 A 
BRANCH  50  64
ATOM     64  C   UNL     1     -17.450  -0.310  -4.838  1.00  0.00     0.058 A 
ATOM     65  C   UNL     1     -17.496  -1.103  -5.996  1.00  0.00     0.135 A 
ATOM     66  C   UNL     1     -17.703   1.064  -4.975  1.00  0.00     0.135 A 
ATOM     67  F   UNL     1     -17.243  -2.419  -5.925  1.00  0.00    -0.206 F 
ATOM     68  C   UNL     1     -17.757  -0.549  -7.246  1.00  0.00     0.059 A 
ATOM     69  C   UNL     1     -17.990   1.635  -6.211  1.00  0.00     0.059 A 
ATOM     70  F   UNL     1     -17.667   1.868  -3.900  1.00  0.00    -0.206 F 
ATOM     71  C   UNL     1     -18.000   0.822  -7.343  1.00  0.00     0.060 A 
BRANCH  71  72
ATOM     72  S   UNL     1     -18.336   1.528  -8.971  1.00  0.00     0.124 S 
ATOM     73  O   UNL     1     -17.007   1.512  -9.574  1.00  0.00    -0.237 OA
ATOM     74  O   UNL     1     -19.296   0.582  -9.530  1.00  0.00    -0.237 OA
ATOM     75  O   UNL     1     -18.870   2.851  -8.664  1.00  0.00    -0.744 OA
ENDBRANCH  71  72
ENDBRANCH  50  64
BRANCH  51  76
ATOM     76  C   UNL     1     -15.066  -4.184   4.067  1.00  0.00     0.058 A 
ATOM     77  C   UNL     1     -15.575  -5.414   4.507  1.00  0.00     0.135 A 
ATOM     78  C   UNL     1     -14.210  -3.484   4.932  1.00  0.00     0.135 A 
ATOM     79  F   UNL     1     -16.406  -6.115   3.720  1.00  0.00    -0.206 F 
ATOM     80  C   UNL     1     -15.259  -5.927   5.761  1.00  0.00     0.059 A 
ATOM     81  C   UNL     1     -13.860  -3.987   6.181  1.00  0.00     0.059 A 
ATOM     82  F   UNL     1     -13.687  -2.306   4.554  1.00  0.00    -0.206 F 
ATOM     83  C   UNL     1     -14.398  -5.206   6.590  1.00  0.00     0.060 A 
BRANCH  83  84
ATOM     84  S   UNL     1     -13.954  -5.903   8.196  1.00  0.00     0.124 S 
ATOM     85  O   UNL     1     -15.177  -5.683   8.960  1.00  0.00    -0.237 OA
ATOM     86  O   UNL     1     -13.652  -7.290   7.856  1.00  0.00    -0.237 OA
ATOM     87  O   UNL     1     -12.803  -5.101   8.601  1.00  0.00    -0.744 OA
ENDBRANCH  83  84
ENDBRANCH  51  76
BRANCH  63  88
ATOM     88  C   UNL     1     -20.972  -1.695   1.303  1.00  0.00     0.058 A 
ATOM     89  C   UNL     1     -21.316  -0.712   2.243  1.00  0.00     0.135 A 
ATOM     90  C   UNL     1     -21.994  -2.531   0.823  1.00  0.00     0.135 A 
ATOM     91  F   UNL     1     -20.375   0.109   2.737  1.00  0.00    -0.206 F 
ATOM     92  C   UNL     1     -22.621  -0.575   2.705  1.00  0.00     0.059 A 
ATOM     93  C   UNL     1     -23.310  -2.395   1.252  1.00  0.00     0.059 A 
ATOM     94  F   UNL     1     -21.720  -3.480  -0.086  1.00  0.00    -0.206 F 
ATOM     95  C   UNL     1     -23.612  -1.421   2.202  1.00  0.00     0.060 A 
BRANCH  95  96
ATOM     96  S   UNL     1     -25.309  -1.211   2.783  1.00  0.00     0.124 S 
ATOM     97  O   UNL     1     -25.239  -1.805   4.114  1.00  0.00    -0.237 OA
ATOM     98  O   UNL     1     -25.477   0.239   2.744  1.00  0.00    -0.237 OA
ATOM     99  O   UNL     1     -26.097  -1.953   1.804  1.00  0.00    -0.744 OA
ENDBRANCH  95  96
ENDBRANCH  63  88
ENDBRANCH  37  38
ENDBRANCH  30  32
ENDBRANCH  29  30
ENDBRANCH  28  29
ENDBRANCH  27  28
ENDBRANCH   1  27
TORSDOF 20
