REMARK SMILES CCOc1cnc(C(=O)c2[nH]c3cc(Cl)ccc3c2CC(=O)OCCOCCOC(=O)c2ccc(-c3c4nc(c(-c5c(F)cc(S(=O)(=O)[O-])cc5F)c5ccc([nH]5)c(-c5c(F)cc(S(=O)(=O)[O-])cc5F)c5nc(c(-c6c(F)cc(S(=O)(=O)[O-])cc6F)c6ccc3[nH]6)C=C5)C=C4)cc2)cc1CC
REMARK SMILES IDX 25 1 24 2 23 3 21 4 22 5 20 6 19 7 10 8 11 9 12 10 18 12
REMARK SMILES IDX 13 13 17 14 14 15 16 16 15 17 8 18 9 19 7 20 4 21 5 22 99 23
REMARK SMILES IDX 6 24 98 25 3 26 2 27 1 28 100 29 101 30 26 31 27 32 28 33
REMARK SMILES IDX 29 34 30 35 31 36 32 37 33 38 97 39 34 40 96 41 35 42 36 43
REMARK SMILES IDX 37 44 90 45 38 46 95 47 89 48 91 49 39 50 94 51 88 52 87 53
REMARK SMILES IDX 40 55 74 56 53 57 73 58 54 59 57 60 72 61 92 62 55 63 56 64
REMARK SMILES IDX 71 66 93 67 58 68 41 69 42 70 51 71 43 72 44 73 50 74 52 75
REMARK SMILES IDX 45 76 46 77 47 78 48 79 49 80 75 81 76 82 85 83 77 84 78 85
REMARK SMILES IDX 84 86 86 87 79 88 80 89 81 90 82 91 83 92 59 93 60 94 69 95
REMARK SMILES IDX 61 96 62 97 68 98 70 99 63 100 64 101 65 102 66 103 67 104
REMARK H PARENT 11 11 91 54 57 65
REMARK Flexibility Score: inf
ROOT
ATOM      1  C   UNL     1      10.334   5.812   2.768  1.00  0.00     0.202 C 
ENDROOT
BRANCH   1   2
ATOM      2  C   UNL     1      10.885   4.427   3.124  1.00  0.00     0.261 C 
BRANCH   2   3
ATOM      3  O   UNL     1      10.226   3.365   2.398  1.00  0.00    -0.463 OA
BRANCH   3   4
ATOM      4  C   UNL     1       9.785   2.324   3.156  1.00  0.00     0.310 C 
ATOM      5  O   UNL     1       9.977   2.225   4.366  1.00  0.00    -0.252 OA
BRANCH   4   6
ATOM      6  C   UNL     1       9.111   1.209   2.386  1.00  0.00     0.161 C 
BRANCH   6   7
ATOM      7  C   UNL     1       8.582   1.496   1.005  1.00  0.00     0.000 A 
ATOM      8  C   UNL     1       7.343   2.048   0.668  1.00  0.00     0.093 A 
ATOM      9  N   UNL     1       7.342   2.189  -0.705  1.00  0.00    -0.351 N 
ATOM     10  C   UNL     1       8.319   1.400  -1.261  1.00  0.00     0.048 A 
ATOM     11  H   UNL     1       6.730   2.770  -1.212  1.00  0.00     0.167 HD
ATOM     12  C   UNL     1       9.149   0.996  -0.217  1.00  0.00     0.004 A 
ATOM     13  C   UNL     1       8.522   1.012  -2.592  1.00  0.00     0.047 A 
ATOM     14  C   UNL     1      10.254   0.174  -0.521  1.00  0.00     0.012 A 
ATOM     15  C   UNL     1       9.593   0.152  -2.851  1.00  0.00     0.043 A 
ATOM     16  C   UNL     1      10.454  -0.258  -1.838  1.00  0.00     0.021 A 
ATOM     17  Cl  UNL     1       9.829  -0.435  -4.454  1.00  0.00    -0.084 Cl
BRANCH   8  18
ATOM     18  C   UNL     1       6.251   2.421   1.563  1.00  0.00     0.227 C 
ATOM     19  O   UNL     1       6.454   2.696   2.744  1.00  0.00    -0.285 OA
BRANCH  18  20
ATOM     20  C   UNL     1       4.824   2.385   1.087  1.00  0.00     0.113 A 
ATOM     21  C   UNL     1       2.146   2.135   0.557  1.00  0.00     0.140 A 
ATOM     22  C   UNL     1       2.643   3.024   1.502  1.00  0.00     0.158 A 
ATOM     23  C   UNL     1       3.044   1.420  -0.238  1.00  0.00    -0.002 A 
ATOM     24  N   UNL     1       3.957   3.172   1.776  1.00  0.00    -0.249 NA
ATOM     25  C   UNL     1       4.407   1.512   0.082  1.00  0.00     0.040 A 
BRANCH  21  26
ATOM     26  O   UNL     1       0.798   1.972   0.408  1.00  0.00    -0.492 OA
BRANCH  26  27
ATOM     27  C   UNL     1       0.271   1.082   1.409  1.00  0.00     0.226 C 
ATOM     28  C   UNL     1       0.087  -0.314   0.834  1.00  0.00     0.049 C 
ENDBRANCH  26  27
ENDBRANCH  21  26
BRANCH  23  29
ATOM     29  C   UNL     1       2.588   0.519  -1.359  1.00  0.00     0.036 C 
ATOM     30  C   UNL     1       3.228   0.854  -2.700  1.00  0.00     0.009 C 
ENDBRANCH  23  29
ENDBRANCH  18  20
ENDBRANCH   8  18
ENDBRANCH   6   7
ENDBRANCH   4   6
ENDBRANCH   3   4
ENDBRANCH   2   3
ENDBRANCH   1   2
BRANCH   1  31
ATOM     31  O   UNL     1       9.012   6.120   3.217  1.00  0.00    -0.374 OA
BRANCH  31  32
ATOM     32  C   UNL     1       7.948   5.393   2.606  1.00  0.00     0.202 C 
BRANCH  32  33
ATOM     33  C   UNL     1       7.476   5.894   1.235  1.00  0.00     0.261 C 
BRANCH  33  34
ATOM     34  O   UNL     1       8.541   5.978   0.274  1.00  0.00    -0.460 OA
BRANCH  34  35
ATOM     35  C   UNL     1       8.931   7.243  -0.012  1.00  0.00     0.338 C 
ATOM     36  O   UNL     1       8.387   8.283   0.342  1.00  0.00    -0.246 OA
BRANCH  35  37
ATOM     37  C   UNL     1      10.234   7.235  -0.697  1.00  0.00     0.060 A 
ATOM     38  C   UNL     1      11.252   8.024  -0.146  1.00  0.00     0.016 A 
ATOM     39  C   UNL     1      10.444   6.527  -1.883  1.00  0.00     0.016 A 
ATOM     40  C   UNL     1      12.468   8.155  -0.810  1.00  0.00     0.010 A 
ATOM     41  C   UNL     1      11.664   6.667  -2.553  1.00  0.00     0.010 A 
ATOM     42  C   UNL     1      12.664   7.511  -2.038  1.00  0.00    -0.014 A 
BRANCH  42  43
ATOM     43  C   UNL     1      13.853   7.858  -2.853  1.00  0.00     0.031 A 
ATOM     44  C   UNL     1      13.696   8.859  -3.966  1.00  0.00     0.074 A 
ATOM     45  C   UNL     1      15.057   7.332  -2.566  1.00  0.00     0.049 A 
ATOM     46  N   UNL     1      14.586   9.304  -4.813  1.00  0.00    -0.248 NA
ATOM     47  C   UNL     1      12.353   9.438  -4.146  1.00  0.00     0.031 C 
ATOM     48  C   UNL     1      15.329   6.391  -1.479  1.00  0.00     0.029 A 
ATOM     49  N   UNL     1      16.278   7.517  -3.162  1.00  0.00    -0.354 N 
ATOM     50  C   UNL     1      13.916  10.217  -5.620  1.00  0.00     0.074 A 
ATOM     51  C   UNL     1      12.536  10.233  -5.190  1.00  0.00     0.031 C 
ATOM     52  C   UNL     1      16.637   6.079  -1.489  1.00  0.00     0.029 A 
ATOM     53  C   UNL     1      17.287   6.772  -2.599  1.00  0.00     0.049 A 
ATOM     54  H   UNL     1      16.419   8.126  -3.923  1.00  0.00     0.167 HD
ATOM     55  C   UNL     1      14.413  10.985  -6.619  1.00  0.00     0.037 A 
ATOM     56  C   UNL     1      18.582   6.654  -2.954  1.00  0.00     0.037 A 
ATOM     57  C   UNL     1      15.789  10.957  -7.040  1.00  0.00     0.049 A 
ATOM     58  C   UNL     1      19.091   7.457  -4.125  1.00  0.00     0.074 A 
ATOM     59  C   UNL     1      16.397  11.679  -8.051  1.00  0.00     0.029 A 
ATOM     60  N   UNL     1      16.773  10.162  -6.468  1.00  0.00    -0.354 N 
ATOM     61  N   UNL     1      18.447   8.317  -4.878  1.00  0.00    -0.248 NA
ATOM     62  C   UNL     1      20.502   7.275  -4.493  1.00  0.00     0.031 C 
ATOM     63  C   UNL     1      17.739  11.291  -8.118  1.00  0.00     0.029 A 
ATOM     64  C   UNL     1      17.980  10.365  -7.115  1.00  0.00     0.049 A 
ATOM     65  H   UNL     1      16.633   9.544  -5.714  1.00  0.00     0.167 HD
ATOM     66  C   UNL     1      19.383   8.806  -5.784  1.00  0.00     0.074 A 
ATOM     67  C   UNL     1      20.638   8.150  -5.480  1.00  0.00     0.031 C 
ATOM     68  C   UNL     1      19.221   9.714  -6.778  1.00  0.00     0.037 A 
BRANCH  55  69
ATOM     69  C   UNL     1      13.465  11.912  -7.329  1.00  0.00     0.058 A 
ATOM     70  C   UNL     1      12.962  13.067  -6.708  1.00  0.00     0.135 A 
ATOM     71  C   UNL     1      13.085  11.667  -8.659  1.00  0.00     0.135 A 
ATOM     72  F   UNL     1      13.276  13.339  -5.431  1.00  0.00    -0.206 F 
ATOM     73  C   UNL     1      12.104  13.937  -7.374  1.00  0.00     0.059 A 
ATOM     74  C   UNL     1      12.249  12.537  -9.352  1.00  0.00     0.059 A 
ATOM     75  F   UNL     1      13.531  10.575  -9.299  1.00  0.00    -0.206 F 
ATOM     76  C   UNL     1      11.755  13.665  -8.698  1.00  0.00     0.060 A 
BRANCH  76  77
ATOM     77  S   UNL     1      10.656  14.814  -9.553  1.00  0.00     0.124 S 
ATOM     78  O   UNL     1       9.383  14.546  -8.893  1.00  0.00    -0.237 OA
ATOM     79  O   UNL     1      11.264  16.107  -9.255  1.00  0.00    -0.237 OA
ATOM     80  O   UNL     1      10.740  14.392 -10.947  1.00  0.00    -0.744 OA
ENDBRANCH  76  77
ENDBRANCH  55  69
BRANCH  56  81
ATOM     81  C   UNL     1      19.488   5.737  -2.209  1.00  0.00     0.058 A 
ATOM     82  C   UNL     1      20.559   6.232  -1.449  1.00  0.00     0.135 A 
ATOM     83  C   UNL     1      19.321   4.344  -2.268  1.00  0.00     0.135 A 
ATOM     84  F   UNL     1      20.767   7.555  -1.367  1.00  0.00    -0.206 F 
ATOM     85  C   UNL     1      21.448   5.381  -0.798  1.00  0.00     0.059 A 
ATOM     86  C   UNL     1      20.180   3.474  -1.603  1.00  0.00     0.059 A 
ATOM     87  F   UNL     1      18.306   3.817  -2.970  1.00  0.00    -0.206 F 
ATOM     88  C   UNL     1      21.251   4.002  -0.885  1.00  0.00     0.060 A 
BRANCH  88  89
ATOM     89  S   UNL     1      22.402   2.904  -0.029  1.00  0.00     0.124 S 
ATOM     90  O   UNL     1      23.585   3.002  -0.876  1.00  0.00    -0.237 OA
ATOM     91  O   UNL     1      22.503   3.530   1.286  1.00  0.00    -0.237 OA
ATOM     92  O   UNL     1      21.715   1.616  -0.050  1.00  0.00    -0.744 OA
ENDBRANCH  88  89
ENDBRANCH  56  81
BRANCH  68  93
ATOM     93  C   UNL     1      20.438  10.093  -7.577  1.00  0.00     0.058 A 
ATOM     94  C   UNL     1      21.001   9.223  -8.523  1.00  0.00     0.135 A 
ATOM     95  C   UNL     1      21.007  11.369  -7.436  1.00  0.00     0.135 A 
ATOM     96  F   UNL     1      20.498   7.990  -8.691  1.00  0.00    -0.206 F 
ATOM     97  C   UNL     1      22.100   9.599  -9.289  1.00  0.00     0.059 A 
ATOM     98  C   UNL     1      22.088  11.776  -8.211  1.00  0.00     0.059 A 
ATOM     99  F   UNL     1      20.498  12.243  -6.552  1.00  0.00    -0.206 F 
ATOM    100  C   UNL     1      22.634  10.879  -9.128  1.00  0.00     0.060 A 
BRANCH 100 101
ATOM    101  S   UNL     1      24.031  11.369 -10.161  1.00  0.00     0.124 S 
ATOM    102  O   UNL     1      25.123  10.613  -9.556  1.00  0.00    -0.237 OA
ATOM    103  O   UNL     1      23.611  10.925 -11.486  1.00  0.00    -0.237 OA
ATOM    104  O   UNL     1      24.095  12.816  -9.982  1.00  0.00    -0.744 OA
ENDBRANCH 100 101
ENDBRANCH  68  93
ENDBRANCH  42  43
ENDBRANCH  35  37
ENDBRANCH  34  35
ENDBRANCH  33  34
ENDBRANCH  32  33
ENDBRANCH  31  32
ENDBRANCH   1  31
TORSDOF 23
