REMARK SMILES O=C(OCCOCCOC(=O)[C@@H]1Cc2[nH]cnc2CN1C(=O)NCC(F)(F)F)c1ccc(-c2c3nc(c(-c4c(F)cc(S(=O)(=O)[O-])cc4F)c4ccc([nH]4)c(-c4c(F)cc(S(=O)(=O)[O-])cc4F)c4nc(c(-c5c(F)cc(S(=O)(=O)[O-])cc5F)c5ccc2[nH]5)C=C4)C=C3)cc1
REMARK SMILES IDX 6 1 5 2 4 3 3 4 2 5 1 6 29 7 30 8 94 9 31 10 93 11 32 12
REMARK SMILES IDX 33 13 34 14 87 15 35 16 92 17 86 18 88 19 36 20 91 21 85 22
REMARK SMILES IDX 84 23 37 25 71 26 50 27 70 28 51 29 54 30 69 31 89 32 52 33
REMARK SMILES IDX 53 34 68 36 90 37 55 38 38 39 39 40 48 41 40 42 41 43 47 44
REMARK SMILES IDX 49 45 42 46 43 47 44 48 45 49 46 50 72 51 73 52 82 53 74 54
REMARK SMILES IDX 75 55 81 56 83 57 76 58 77 59 78 60 79 61 80 62 56 63 57 64
REMARK SMILES IDX 66 65 58 66 59 67 65 68 67 69 60 70 61 71 62 72 63 73 64 74
REMARK SMILES IDX 7 75 8 76 9 77 10 78 11 79 12 80 13 81 20 82 14 83 19 84
REMARK SMILES IDX 15 85 18 86 16 87 17 89 21 90 22 91 23 92 24 94 25 95 26 96
REMARK SMILES IDX 27 97 28 98
REMARK H PARENT 88 24 54 35 15 88 23 93
REMARK Flexibility Score: inf
ROOT
ATOM      1  O   UNL     1       2.620  -0.763   4.030  1.00  0.00    -0.374 OA
ENDROOT
BRANCH   1   2
ATOM      2  C   UNL     1       3.617  -0.713   3.013  1.00  0.00     0.202 C 
BRANCH   2   3
ATOM      3  C   UNL     1       4.908   0.065   3.274  1.00  0.00     0.261 C 
BRANCH   3   4
ATOM      4  O   UNL     1       5.674  -0.467   4.364  1.00  0.00    -0.460 OA
BRANCH   4   5
ATOM      5  C   UNL     1       5.472  -0.341   5.691  1.00  0.00     0.338 C 
ATOM      6  O   UNL     1       5.872  -1.241   6.430  1.00  0.00    -0.246 OA
BRANCH   5   7
ATOM      7  C   UNL     1       4.881   0.872   6.320  1.00  0.00     0.060 A 
ATOM      8  C   UNL     1       4.246   1.916   5.653  1.00  0.00     0.016 A 
ATOM      9  C   UNL     1       5.076   0.985   7.711  1.00  0.00     0.016 A 
ATOM     10  C   UNL     1       4.082   3.135   6.281  1.00  0.00     0.010 A 
ATOM     11  C   UNL     1       4.841   2.180   8.368  1.00  0.00     0.010 A 
ATOM     12  C   UNL     1       4.440   3.277   7.622  1.00  0.00    -0.014 A 
BRANCH  12  13
ATOM     13  C   UNL     1       4.238   4.581   8.223  1.00  0.00     0.031 A 
ATOM     14  C   UNL     1       2.821   5.019   8.190  1.00  0.00     0.074 A 
ATOM     15  C   UNL     1       5.228   5.302   8.780  1.00  0.00     0.049 A 
ATOM     16  N   UNL     1       2.302   5.928   7.434  1.00  0.00    -0.248 NA
ATOM     17  C   UNL     1       1.833   4.211   8.921  1.00  0.00     0.031 C 
ATOM     18  C   UNL     1       6.598   4.887   9.086  1.00  0.00     0.029 A 
ATOM     19  N   UNL     1       5.181   6.570   9.269  1.00  0.00    -0.354 N 
ATOM     20  C   UNL     1       0.954   5.973   7.773  1.00  0.00     0.074 A 
ATOM     21  C   UNL     1       0.690   4.777   8.530  1.00  0.00     0.031 C 
ATOM     22  C   UNL     1       7.163   5.795   9.916  1.00  0.00     0.029 A 
ATOM     23  C   UNL     1       6.253   6.916  10.083  1.00  0.00     0.049 A 
ATOM     24  H   UNL     1       4.447   7.193   9.064  1.00  0.00     0.167 HD
ATOM     25  C   UNL     1       0.233   7.116   7.618  1.00  0.00     0.037 A 
ATOM     26  C   UNL     1       6.337   8.015  10.878  1.00  0.00     0.037 A 
ATOM     27  C   UNL     1       0.899   8.034   6.728  1.00  0.00     0.049 A 
ATOM     28  C   UNL     1       5.364   9.009  10.347  1.00  0.00     0.074 A 
ATOM     29  C   UNL     1       1.306   7.982   5.408  1.00  0.00     0.029 A 
ATOM     30  N   UNL     1       1.590   9.077   7.296  1.00  0.00    -0.354 N 
ATOM     31  N   UNL     1       5.495   9.603   9.191  1.00  0.00    -0.248 NA
ATOM     32  C   UNL     1       4.008   8.982  10.879  1.00  0.00     0.031 C 
ATOM     33  C   UNL     1       2.554   8.669   5.380  1.00  0.00     0.029 A 
ATOM     34  C   UNL     1       2.802   9.165   6.661  1.00  0.00     0.049 A 
ATOM     35  H   UNL     1       1.273   9.655   8.027  1.00  0.00     0.167 HD
ATOM     36  C   UNL     1       4.215   9.625   8.655  1.00  0.00     0.074 A 
ATOM     37  C   UNL     1       3.330   9.301   9.772  1.00  0.00     0.031 C 
ATOM     38  C   UNL     1       4.015   9.620   7.304  1.00  0.00     0.037 A 
BRANCH  25  39
ATOM     39  C   UNL     1      -0.852   7.562   8.567  1.00  0.00     0.058 A 
ATOM     40  C   UNL     1      -1.622   8.698   8.245  1.00  0.00     0.135 A 
ATOM     41  C   UNL     1      -0.969   7.105   9.899  1.00  0.00     0.135 A 
ATOM     42  F   UNL     1      -1.581   9.226   7.011  1.00  0.00    -0.206 F 
ATOM     43  C   UNL     1      -2.390   9.373   9.194  1.00  0.00     0.059 A 
ATOM     44  C   UNL     1      -1.770   7.729  10.846  1.00  0.00     0.059 A 
ATOM     45  F   UNL     1      -0.239   6.092  10.379  1.00  0.00    -0.206 F 
ATOM     46  C   UNL     1      -2.447   8.885  10.496  1.00  0.00     0.060 A 
BRANCH  46  47
ATOM     47  S   UNL     1      -3.371   9.795  11.743  1.00  0.00     0.124 S 
ATOM     48  O   UNL     1      -2.557  10.996  11.889  1.00  0.00    -0.237 OA
ATOM     49  O   UNL     1      -4.663   9.972  11.089  1.00  0.00    -0.237 OA
ATOM     50  O   UNL     1      -3.373   8.889  12.887  1.00  0.00    -0.744 OA
ENDBRANCH  46  47
ENDBRANCH  25  39
BRANCH  26  51
ATOM     51  C   UNL     1       6.907   8.112  12.251  1.00  0.00     0.058 A 
ATOM     52  C   UNL     1       7.075   9.358  12.885  1.00  0.00     0.135 A 
ATOM     53  C   UNL     1       7.024   6.978  13.082  1.00  0.00     0.135 A 
ATOM     54  F   UNL     1       6.963  10.494  12.180  1.00  0.00    -0.206 F 
ATOM     55  C   UNL     1       7.287   9.474  14.265  1.00  0.00     0.059 A 
ATOM     56  C   UNL     1       7.244   7.069  14.456  1.00  0.00     0.059 A 
ATOM     57  F   UNL     1       6.830   5.742  12.599  1.00  0.00    -0.206 F 
ATOM     58  C   UNL     1       7.346   8.322  15.047  1.00  0.00     0.060 A 
BRANCH  58  59
ATOM     59  S   UNL     1       7.427   8.467  16.849  1.00  0.00     0.124 S 
ATOM     60  O   UNL     1       8.778   8.978  17.051  1.00  0.00    -0.237 OA
ATOM     61  O   UNL     1       6.343   9.401  17.133  1.00  0.00    -0.237 OA
ATOM     62  O   UNL     1       7.202   7.099  17.310  1.00  0.00    -0.744 OA
ENDBRANCH  58  59
ENDBRANCH  26  51
BRANCH  38  63
ATOM     63  C   UNL     1       5.186   9.911   6.402  1.00  0.00     0.058 A 
ATOM     64  C   UNL     1       6.343   9.119   6.301  1.00  0.00     0.135 A 
ATOM     65  C   UNL     1       5.051  10.967   5.488  1.00  0.00     0.135 A 
ATOM     66  F   UNL     1       6.502   8.027   7.064  1.00  0.00    -0.206 F 
ATOM     67  C   UNL     1       7.341   9.395   5.362  1.00  0.00     0.059 A 
ATOM     68  C   UNL     1       6.015  11.239   4.523  1.00  0.00     0.059 A 
ATOM     69  F   UNL     1       3.940  11.723   5.492  1.00  0.00    -0.206 F 
ATOM     70  C   UNL     1       7.167  10.458   4.476  1.00  0.00     0.060 A 
BRANCH  70  71
ATOM     71  S   UNL     1       8.423  10.782   3.220  1.00  0.00     0.124 S 
ATOM     72  O   UNL     1       9.531  11.293   4.019  1.00  0.00    -0.237 OA
ATOM     73  O   UNL     1       8.624   9.464   2.625  1.00  0.00    -0.237 OA
ATOM     74  O   UNL     1       7.785  11.760   2.342  1.00  0.00    -0.744 OA
ENDBRANCH  70  71
ENDBRANCH  38  63
ENDBRANCH  12  13
ENDBRANCH   5   7
ENDBRANCH   4   5
ENDBRANCH   3   4
ENDBRANCH   2   3
ENDBRANCH   1   2
BRANCH   1  75
ATOM     75  C   UNL     1       2.698  -1.760   5.054  1.00  0.00     0.202 C 
BRANCH  75  76
ATOM     76  C   UNL     1       2.600  -3.231   4.644  1.00  0.00     0.261 C 
BRANCH  76  77
ATOM     77  O   UNL     1       3.748  -3.578   3.859  1.00  0.00    -0.462 OA
BRANCH  77  78
ATOM     78  C   UNL     1       3.517  -4.045   2.610  1.00  0.00     0.329 C 
ATOM     79  O   UNL     1       2.435  -4.432   2.198  1.00  0.00    -0.250 OA
BRANCH  78  80
ATOM     80  C   UNL     1       4.790  -4.059   1.722  1.00  0.00     0.203 C 
ATOM     81  C   UNL     1       5.108  -5.559   1.497  1.00  0.00     0.093 C 
ATOM     82  N   UNL     1       6.055  -3.353   2.130  1.00  0.00    -0.305 N 
ATOM     83  C   UNL     1       5.754  -6.034   2.750  1.00  0.00     0.042 A 
ATOM     84  C   UNL     1       6.611  -3.743   3.465  1.00  0.00     0.180 C 
ATOM     85  N   UNL     1       5.674  -7.255   3.346  1.00  0.00    -0.348 N 
ATOM     86  C   UNL     1       6.429  -5.222   3.639  1.00  0.00     0.081 A 
ATOM     87  C   UNL     1       6.311  -7.143   4.554  1.00  0.00     0.197 A 
ATOM     88  H   UNL     1       5.242  -8.061   2.981  1.00  0.00     0.167 HD
ATOM     89  N   UNL     1       6.789  -5.934   4.751  1.00  0.00    -0.240 NA
BRANCH  82  90
ATOM     90  C   UNL     1       6.875  -2.559   1.385  1.00  0.00     0.318 C 
ATOM     91  O   UNL     1       7.899  -2.051   1.853  1.00  0.00    -0.249 OA
ATOM     92  N   UNL     1       6.705  -2.270   0.089  1.00  0.00    -0.329 N 
ATOM     93  H   UNL     1       7.484  -1.775  -0.254  1.00  0.00     0.165 HD
BRANCH  92  94
ATOM     94  C   UNL     1       5.720  -2.463  -0.975  1.00  0.00     0.233 C 
BRANCH  94  95
ATOM     95  C   UNL     1       4.756  -1.287  -1.158  1.00  0.00     0.405 C 
ATOM     96  F   UNL     1       5.342  -0.292  -1.861  1.00  0.00    -0.169 F 
ATOM     97  F   UNL     1       3.655  -1.678  -1.841  1.00  0.00    -0.169 F 
ATOM     98  F   UNL     1       4.345  -0.780   0.023  1.00  0.00    -0.169 F 
ENDBRANCH  94  95
ENDBRANCH  92  94
ENDBRANCH  82  90
ENDBRANCH  78  80
ENDBRANCH  77  78
ENDBRANCH  76  77
ENDBRANCH  75  76
ENDBRANCH   1  75
TORSDOF 20
