REMARK SMILES COc1cc(/C=C2/SC(=S)N(c3ccc(C)cc3C)C2=O)ccc1O[C@@H](C)C(=O)OCCOCCOC(=O)c1ccc(-c2c3nc(c(-c4c(F)cc(S(=O)(=O)[O-])cc4F)c4ccc([nH]4)c(-c4c(F)cc(S(=O)(=O)[O-])cc4F)c4nc(c(-c5c(F)cc(S(=O)(=O)[O-])cc5F)c5ccc2[nH]5)C=C4)C=C3)cc1
REMARK SMILES IDX 32 1 31 2 30 3 28 4 29 5 26 6 27 7 25 8 24 9 3 10 4 11 5 12
REMARK SMILES IDX 23 13 22 14 2 15 1 16 6 17 7 18 8 19 20 20 9 21 11 22 21 23
REMARK SMILES IDX 10 24 12 25 13 26 18 27 14 28 17 29 19 30 15 31 16 32 33 33
REMARK SMILES IDX 34 34 35 35 36 36 37 37 38 38 39 39 40 40 104 41 41 42
REMARK SMILES IDX 103 43 42 44 43 45 44 46 97 47 45 48 102 49 96 50 98 51
REMARK SMILES IDX 46 52 101 53 95 54 94 55 47 57 81 58 60 59 80 60 61 61 64 62
REMARK SMILES IDX 79 63 99 64 62 65 63 66 78 68 100 69 65 70 48 71 49 72 58 73
REMARK SMILES IDX 50 74 51 75 57 76 59 77 52 78 53 79 54 80 55 81 56 82 82 83
REMARK SMILES IDX 83 84 92 85 84 86 85 87 91 88 93 89 86 90 87 91 88 92 89 93
REMARK SMILES IDX 90 94 66 95 67 96 76 97 68 98 69 99 75 100 77 101 70 102
REMARK SMILES IDX 71 103 72 104 73 105 74 106
REMARK H PARENT 98 56 64 67
REMARK Flexibility Score: inf
ROOT
ATOM      1  C   UNL     1       1.776  -4.192   1.889  1.00  0.00     0.202 C 
ENDROOT
BRANCH   1   2
ATOM      2  C   UNL     1       1.243  -2.766   2.025  1.00  0.00     0.261 C 
BRANCH   2   3
ATOM      3  O   UNL     1       1.664  -1.997   0.896  1.00  0.00    -0.461 OA
BRANCH   3   4
ATOM      4  C   UNL     1       1.682  -0.650   1.062  1.00  0.00     0.347 C 
ATOM      5  O   UNL     1       1.240  -0.064   2.044  1.00  0.00    -0.248 OA
BRANCH   4   6
ATOM      6  C   UNL     1       2.486   0.026  -0.065  1.00  0.00     0.279 C 
ATOM      7  C   UNL     1       2.144   1.502  -0.250  1.00  0.00     0.066 C 
BRANCH   6   8
ATOM      8  O   UNL     1       2.767  -0.579  -1.311  1.00  0.00    -0.475 OA
BRANCH   8   9
ATOM      9  C   UNL     1       1.840  -0.877  -2.262  1.00  0.00     0.162 A 
ATOM     10  C   UNL     1       0.485  -1.185  -2.129  1.00  0.00     0.161 A 
ATOM     11  C   UNL     1      -0.224  -1.732  -3.221  1.00  0.00     0.058 A 
ATOM     12  C   UNL     1       0.396  -1.918  -4.468  1.00  0.00    -0.020 A 
ATOM     13  C   UNL     1       2.415  -0.970  -3.536  1.00  0.00     0.051 A 
ATOM     14  C   UNL     1       1.696  -1.448  -4.632  1.00  0.00     0.012 A 
BRANCH  10  15
ATOM     15  O   UNL     1      -0.148  -1.139  -0.920  1.00  0.00    -0.493 OA
ATOM     16  C   UNL     1      -1.076  -0.060  -0.814  1.00  0.00     0.278 C 
ENDBRANCH  10  15
BRANCH  12  17
ATOM     17  C   UNL     1      -0.293  -2.623  -5.565  1.00  0.00     0.029 C 
ATOM     18  C   UNL     1       0.136  -3.728  -6.207  1.00  0.00     0.081 C 
ATOM     19  S   UNL     1      -0.815  -4.532  -7.405  1.00  0.00    -0.054 SA
ATOM     20  C   UNL     1       1.381  -4.526  -5.966  1.00  0.00     0.270 C 
ATOM     21  C   UNL     1       0.197  -5.984  -7.397  1.00  0.00     0.152 C 
ATOM     22  N   UNL     1       1.317  -5.756  -6.616  1.00  0.00    -0.261 N 
ATOM     23  O   UNL     1       2.321  -4.124  -5.290  1.00  0.00    -0.268 OA
ATOM     24  S   UNL     1      -0.289  -7.374  -8.181  1.00  0.00    -0.051 S 
BRANCH  22  25
ATOM     25  C   UNL     1       2.360  -6.705  -6.372  1.00  0.00     0.054 A 
ATOM     26  C   UNL     1       2.611  -7.067  -5.036  1.00  0.00     0.027 A 
ATOM     27  C   UNL     1       3.207  -7.210  -7.375  1.00  0.00    -0.027 A 
ATOM     28  C   UNL     1       3.667  -7.907  -4.684  1.00  0.00     0.005 A 
ATOM     29  C   UNL     1       4.261  -8.076  -7.006  1.00  0.00     0.009 A 
ATOM     30  C   UNL     1       3.101  -6.851  -8.831  1.00  0.00     0.046 C 
ATOM     31  C   UNL     1       4.507  -8.416  -5.670  1.00  0.00    -0.051 A 
ATOM     32  C   UNL     1       5.677  -9.270  -5.282  1.00  0.00     0.044 C 
ENDBRANCH  22  25
ENDBRANCH  12  17
ENDBRANCH   8   9
ENDBRANCH   6   8
ENDBRANCH   4   6
ENDBRANCH   3   4
ENDBRANCH   2   3
ENDBRANCH   1   2
BRANCH   1  33
ATOM     33  O   UNL     1       3.200  -4.330   1.879  1.00  0.00    -0.374 OA
BRANCH  33  34
ATOM     34  C   UNL     1       3.924  -3.758   0.788  1.00  0.00     0.202 C 
BRANCH  34  35
ATOM     35  C   UNL     1       3.835  -4.454  -0.577  1.00  0.00     0.261 C 
BRANCH  35  36
ATOM     36  O   UNL     1       2.501  -4.644  -1.067  1.00  0.00    -0.460 OA
BRANCH  36  37
ATOM     37  C   UNL     1       2.022  -5.904  -0.943  1.00  0.00     0.338 C 
ATOM     38  O   UNL     1       2.587  -6.851  -0.405  1.00  0.00    -0.246 OA
BRANCH  37  39
ATOM     39  C   UNL     1       0.660  -6.020  -1.504  1.00  0.00     0.060 A 
ATOM     40  C   UNL     1      -0.232  -6.934  -0.927  1.00  0.00     0.016 A 
ATOM     41  C   UNL     1       0.301  -5.341  -2.667  1.00  0.00     0.016 A 
ATOM     42  C   UNL     1      -1.440  -7.238  -1.561  1.00  0.00     0.010 A 
ATOM     43  C   UNL     1      -0.891  -5.667  -3.313  1.00  0.00     0.010 A 
ATOM     44  C   UNL     1      -1.745  -6.648  -2.792  1.00  0.00    -0.014 A 
BRANCH  44  45
ATOM     45  C   UNL     1      -2.904  -7.088  -3.602  1.00  0.00     0.031 A 
ATOM     46  C   UNL     1      -2.750  -8.236  -4.565  1.00  0.00     0.074 A 
ATOM     47  C   UNL     1      -4.052  -6.391  -3.554  1.00  0.00     0.049 A 
ATOM     48  N   UNL     1      -3.619  -8.729  -5.409  1.00  0.00    -0.248 NA
ATOM     49  C   UNL     1      -1.436  -8.899  -4.595  1.00  0.00     0.031 C 
ATOM     50  C   UNL     1      -4.299  -5.235  -2.693  1.00  0.00     0.029 A 
ATOM     51  N   UNL     1      -5.216  -6.541  -4.262  1.00  0.00    -0.354 N 
ATOM     52  C   UNL     1      -2.958  -9.751  -6.084  1.00  0.00     0.074 A 
ATOM     53  C   UNL     1      -1.611  -9.800  -5.553  1.00  0.00     0.031 C 
ATOM     54  C   UNL     1      -5.537  -4.772  -2.932  1.00  0.00     0.029 A 
ATOM     55  C   UNL     1      -6.165  -5.595  -3.964  1.00  0.00     0.049 A 
ATOM     56  H   UNL     1      -5.357  -7.258  -4.922  1.00  0.00     0.167 HD
ATOM     57  C   UNL     1      -3.430 -10.567  -7.059  1.00  0.00     0.037 A 
ATOM     58  C   UNL     1      -7.403  -5.418  -4.463  1.00  0.00     0.037 A 
ATOM     59  C   UNL     1      -4.773 -10.508  -7.580  1.00  0.00     0.049 A 
ATOM     60  C   UNL     1      -7.928  -6.374  -5.500  1.00  0.00     0.074 A 
ATOM     61  C   UNL     1      -5.367 -11.325  -8.529  1.00  0.00     0.029 A 
ATOM     62  N   UNL     1      -5.730  -9.578  -7.203  1.00  0.00    -0.354 N 
ATOM     63  N   UNL     1      -7.317  -7.383  -6.074  1.00  0.00    -0.248 NA
ATOM     64  C   UNL     1      -9.316  -6.181  -5.941  1.00  0.00     0.031 C 
ATOM     65  C   UNL     1      -6.674 -10.871  -8.744  1.00  0.00     0.029 A 
ATOM     66  C   UNL     1      -6.908  -9.800  -7.898  1.00  0.00     0.049 A 
ATOM     67  H   UNL     1      -5.593  -8.865  -6.538  1.00  0.00     0.167 HD
ATOM     68  C   UNL     1      -8.257  -7.965  -6.918  1.00  0.00     0.074 A 
ATOM     69  C   UNL     1      -9.477  -7.199  -6.776  1.00  0.00     0.031 C 
ATOM     70  C   UNL     1      -8.121  -9.040  -7.733  1.00  0.00     0.037 A 
BRANCH  57  71
ATOM     71  C   UNL     1      -2.496 -11.600  -7.631  1.00  0.00     0.058 A 
ATOM     72  C   UNL     1      -2.099 -12.723  -6.888  1.00  0.00     0.135 A 
ATOM     73  C   UNL     1      -2.050 -11.510  -8.961  1.00  0.00     0.135 A 
ATOM     74  F   UNL     1      -2.490 -12.861  -5.611  1.00  0.00    -0.206 F 
ATOM     75  C   UNL     1      -1.281 -13.709  -7.433  1.00  0.00     0.059 A 
ATOM     76  C   UNL     1      -1.250 -12.496  -9.535  1.00  0.00     0.059 A 
ATOM     77  F   UNL     1      -2.410 -10.467  -9.726  1.00  0.00    -0.206 F 
ATOM     78  C   UNL     1      -0.861 -13.587  -8.758  1.00  0.00     0.060 A 
BRANCH  78  79
ATOM     79  S   UNL     1       0.170 -14.891  -9.464  1.00  0.00     0.124 S 
ATOM     80  O   UNL     1       1.468 -14.595  -8.865  1.00  0.00    -0.237 OA
ATOM     81  O   UNL     1      -0.484 -16.105  -8.985  1.00  0.00    -0.237 OA
ATOM     82  O   UNL     1       0.075 -14.661 -10.902  1.00  0.00    -0.744 OA
ENDBRANCH  78  79
ENDBRANCH  57  71
BRANCH  58  83
ATOM     83  C   UNL     1      -8.258  -4.322  -3.942  1.00  0.00     0.058 A 
ATOM     84  C   UNL     1      -9.330  -4.604  -3.084  1.00  0.00     0.135 A 
ATOM     85  C   UNL     1      -8.015  -2.982  -4.275  1.00  0.00     0.135 A 
ATOM     86  F   UNL     1      -9.598  -5.873  -2.740  1.00  0.00    -0.206 F 
ATOM     87  C   UNL     1     -10.149  -3.597  -2.589  1.00  0.00     0.059 A 
ATOM     88  C   UNL     1      -8.809  -1.954  -3.777  1.00  0.00     0.059 A 
ATOM     89  F   UNL     1      -6.985  -2.662  -5.074  1.00  0.00    -0.206 F 
ATOM     90  C   UNL     1      -9.881  -2.273  -2.943  1.00  0.00     0.060 A 
BRANCH  90  91
ATOM     91  S   UNL     1     -10.923  -0.967  -2.260  1.00  0.00     0.124 S 
ATOM     92  O   UNL     1     -12.129  -1.102  -3.069  1.00  0.00    -0.237 OA
ATOM     93  O   UNL     1     -11.043  -1.368  -0.861  1.00  0.00    -0.237 OA
ATOM     94  O   UNL     1     -10.137   0.241  -2.491  1.00  0.00    -0.744 OA
ENDBRANCH  90  91
ENDBRANCH  58  83
BRANCH  70  95
ATOM     95  C   UNL     1      -9.336  -9.485  -8.500  1.00  0.00     0.058 A 
ATOM     96  C   UNL     1      -9.810  -8.776  -9.613  1.00  0.00     0.135 A 
ATOM     97  C   UNL     1     -10.005 -10.666  -8.139  1.00  0.00     0.135 A 
ATOM     98  F   UNL     1      -9.210  -7.637  -9.995  1.00  0.00    -0.206 F 
ATOM     99  C   UNL     1     -10.921  -9.209 -10.330  1.00  0.00     0.059 A 
ATOM    100  C   UNL     1     -11.104 -11.130  -8.856  1.00  0.00     0.059 A 
ATOM    101  F   UNL     1      -9.587 -11.386  -7.087  1.00  0.00    -0.206 F 
ATOM    102  C   UNL     1     -11.562 -10.388  -9.943  1.00  0.00     0.060 A 
BRANCH 102 103
ATOM    103  S   UNL     1     -12.985 -10.956 -10.899  1.00  0.00     0.124 S 
ATOM    104  O   UNL     1     -14.028 -10.043 -10.443  1.00  0.00    -0.237 OA
ATOM    105  O   UNL     1     -12.536 -10.768 -12.275  1.00  0.00    -0.237 OA
ATOM    106  O   UNL     1     -13.141 -12.346 -10.482  1.00  0.00    -0.744 OA
ENDBRANCH 102 103
ENDBRANCH  70  95
ENDBRANCH  44  45
ENDBRANCH  37  39
ENDBRANCH  36  37
ENDBRANCH  35  36
ENDBRANCH  34  35
ENDBRANCH  33  34
ENDBRANCH   1  33
TORSDOF 22
