REMARK SMILES Cc1ccc(NC(=O)C[C@H]([NH2+]Cc2cccnc2)C(=O)OCCOCCOC(=O)c2ccc(-c3c4nc(c(-c5c(F)cc(S(=O)(=O)[O-])cc5F)c5ccc([nH]5)c(-c5c(F)cc(S(=O)(=O)[O-])cc5F)c5nc(c(-c6c(F)cc(S(=O)(=O)[O-])cc6F)c6ccc3[nH]6)C=C5)C=C4)cc2)cc1Cl
REMARK SMILES IDX 24 1 23 2 22 3 21 4 19 5 20 6 10 7 9 8 7 9 6 10 8 12 5 13
REMARK SMILES IDX 1 14 2 15 3 16 97 17 4 18 96 19 98 20 11 21 12 24 13 25
REMARK SMILES IDX 14 26 18 27 15 28 17 29 16 30 25 31 26 32 27 33 28 34 29 35
REMARK SMILES IDX 30 36 31 37 95 38 32 39 94 40 33 41 34 42 35 43 88 44 36 45
REMARK SMILES IDX 93 46 87 47 89 48 37 49 92 50 86 51 85 52 38 54 72 55 51 56
REMARK SMILES IDX 71 57 52 58 55 59 70 60 90 61 53 62 54 63 69 65 91 66 56 67
REMARK SMILES IDX 39 68 40 69 49 70 41 71 42 72 48 73 50 74 43 75 44 76 45 77
REMARK SMILES IDX 46 78 47 79 73 80 74 81 83 82 75 83 76 84 82 85 84 86 77 87
REMARK SMILES IDX 78 88 79 89 80 90 81 91 57 92 58 93 67 94 59 95 60 96 66 97
REMARK SMILES IDX 68 98 61 99 62 100 63 101 64 102 65 103
REMARK H PARENT 6 11 11 22 11 23 89 53 55 64
REMARK Flexibility Score: inf
ROOT
ATOM      1  O   UNL     1       3.763  -4.833  -1.746  1.00  0.00    -0.374 OA
ENDROOT
BRANCH   1   2
ATOM      2  C   UNL     1       3.915  -3.625  -0.999  1.00  0.00     0.202 C 
BRANCH   2   3
ATOM      3  C   UNL     1       3.117  -2.476  -1.612  1.00  0.00     0.261 C 
BRANCH   3   4
ATOM      4  O   UNL     1       1.761  -2.445  -1.127  1.00  0.00    -0.459 OA
BRANCH   4   5
ATOM      5  C   UNL     1       0.761  -2.807  -1.965  1.00  0.00     0.365 C 
ATOM      6  O   UNL     1       0.914  -3.403  -3.025  1.00  0.00    -0.245 OA
BRANCH   5   7
ATOM      7  C   UNL     1      -0.632  -2.416  -1.424  1.00  0.00     0.303 C 
BRANCH   7   8
ATOM      8  C   UNL     1      -0.621  -1.138  -0.583  1.00  0.00     0.177 C 
BRANCH   8   9
ATOM      9  C   UNL     1       0.406  -0.772   0.481  1.00  0.00     0.231 C 
ATOM     10  N   UNL     1       0.522  -1.332   1.712  1.00  0.00    -0.326 N 
ATOM     11  H   UNL     1       0.852  -0.680   2.372  1.00  0.00     0.169 HD
ATOM     12  O   UNL     1       1.044   0.280   0.311  1.00  0.00    -0.274 OA
BRANCH  10  13
ATOM     13  C   UNL     1       0.300  -2.586   2.301  1.00  0.00     0.042 A 
ATOM     14  C   UNL     1      -0.172  -6.330   4.455  1.00  0.00     0.046 C 
ATOM     15  C   UNL     1      -0.013  -5.043   3.697  1.00  0.00    -0.032 A 
ATOM     16  C   UNL     1       0.037  -3.827   4.386  1.00  0.00     0.007 A 
ATOM     17  C   UNL     1       0.106  -5.009   2.304  1.00  0.00     0.046 A 
ATOM     18  C   UNL     1       0.194  -2.619   3.696  1.00  0.00     0.026 A 
ATOM     19  C   UNL     1       0.309  -3.796   1.628  1.00  0.00     0.047 A 
ATOM     20  Cl  UNL     1       0.010  -6.461   1.366  1.00  0.00    -0.084 Cl
ENDBRANCH  10  13
ENDBRANCH   8   9
ENDBRANCH   7   8
BRANCH   7  21
ATOM     21  N   UNL     1      -1.328  -3.576  -0.825  1.00  0.00    -0.330 N 
ATOM     22  H   UNL     1      -0.865  -3.801   0.056  1.00  0.00     0.347 HD
ATOM     23  H   UNL     1      -1.276  -4.325  -1.516  1.00  0.00     0.347 HD
BRANCH  21  24
ATOM     24  C   UNL     1      -2.750  -3.375  -0.551  1.00  0.00     0.299 C 
BRANCH  24  25
ATOM     25  C   UNL     1      -3.155  -4.015   0.750  1.00  0.00     0.024 A 
ATOM     26  C   UNL     1      -3.426  -5.382   0.850  1.00  0.00     0.013 A 
ATOM     27  C   UNL     1      -3.241  -3.268   1.924  1.00  0.00     0.120 A 
ATOM     28  C   UNL     1      -3.768  -5.934   2.083  1.00  0.00     0.021 A 
ATOM     29  N   UNL     1      -3.592  -3.772   3.131  1.00  0.00    -0.264 NA
ATOM     30  C   UNL     1      -3.836  -5.097   3.184  1.00  0.00     0.111 A 
ENDBRANCH  24  25
ENDBRANCH  21  24
ENDBRANCH   7  21
ENDBRANCH   5   7
ENDBRANCH   4   5
ENDBRANCH   3   4
ENDBRANCH   2   3
ENDBRANCH   1   2
BRANCH   1  31
ATOM     31  C   UNL     1       2.713  -5.693  -1.295  1.00  0.00     0.202 C 
BRANCH  31  32
ATOM     32  C   UNL     1       3.188  -6.628  -0.184  1.00  0.00     0.261 C 
BRANCH  32  33
ATOM     33  O   UNL     1       3.325  -5.886   1.043  1.00  0.00    -0.460 OA
BRANCH  33  34
ATOM     34  C   UNL     1       4.412  -6.205   1.774  1.00  0.00     0.338 C 
ATOM     35  O   UNL     1       5.190  -7.128   1.574  1.00  0.00    -0.246 OA
BRANCH  34  36
ATOM     36  C   UNL     1       4.639  -5.186   2.811  1.00  0.00     0.060 A 
ATOM     37  C   UNL     1       5.877  -4.539   2.816  1.00  0.00     0.016 A 
ATOM     38  C   UNL     1       3.720  -4.965   3.839  1.00  0.00     0.016 A 
ATOM     39  C   UNL     1       6.234  -3.739   3.900  1.00  0.00     0.010 A 
ATOM     40  C   UNL     1       4.071  -4.142   4.916  1.00  0.00     0.010 A 
ATOM     41  C   UNL     1       5.356  -3.579   4.984  1.00  0.00    -0.014 A 
BRANCH  41  42
ATOM     42  C   UNL     1       5.882  -2.991   6.245  1.00  0.00     0.031 A 
ATOM     43  C   UNL     1       6.227  -3.906   7.394  1.00  0.00     0.074 A 
ATOM     44  C   UNL     1       6.141  -1.673   6.339  1.00  0.00     0.049 A 
ATOM     45  N   UNL     1       6.799  -3.624   8.537  1.00  0.00    -0.248 NA
ATOM     46  C   UNL     1       5.877  -5.328   7.237  1.00  0.00     0.031 C 
ATOM     47  C   UNL     1       5.859  -0.680   5.304  1.00  0.00     0.029 A 
ATOM     48  N   UNL     1       6.720  -0.949   7.352  1.00  0.00    -0.354 N 
ATOM     49  C   UNL     1       6.878  -4.826   9.232  1.00  0.00     0.074 A 
ATOM     50  C   UNL     1       6.252  -5.833   8.403  1.00  0.00     0.031 C 
ATOM     51  C   UNL     1       6.282   0.524   5.729  1.00  0.00     0.029 A 
ATOM     52  C   UNL     1       6.858   0.388   7.066  1.00  0.00     0.049 A 
ATOM     53  H   UNL     1       7.010  -1.350   8.203  1.00  0.00     0.167 HD
ATOM     54  C   UNL     1       7.440  -5.080  10.438  1.00  0.00     0.037 A 
ATOM     55  C   UNL     1       7.399   1.386   7.792  1.00  0.00     0.037 A 
ATOM     56  C   UNL     1       8.088  -4.089  11.256  1.00  0.00     0.049 A 
ATOM     57  C   UNL     1       8.021   1.083   9.130  1.00  0.00     0.074 A 
ATOM     58  C   UNL     1       8.713  -4.256  12.479  1.00  0.00     0.029 A 
ATOM     59  N   UNL     1       8.198  -2.746  10.931  1.00  0.00    -0.354 N 
ATOM     60  N   UNL     1       8.122  -0.069   9.751  1.00  0.00    -0.248 NA
ATOM     61  C   UNL     1       8.617   2.212   9.858  1.00  0.00     0.031 C 
ATOM     62  C   UNL     1       9.176  -3.007  12.909  1.00  0.00     0.029 A 
ATOM     63  C   UNL     1       8.870  -2.070  11.935  1.00  0.00     0.049 A 
ATOM     64  H   UNL     1       7.849  -2.333  10.108  1.00  0.00     0.167 HD
ATOM     65  C   UNL     1       8.815   0.194  10.929  1.00  0.00     0.074 A 
ATOM     66  C   UNL     1       9.117   1.610  10.930  1.00  0.00     0.031 C 
ATOM     67  C   UNL     1       9.171  -0.661  11.919  1.00  0.00     0.037 A 
BRANCH  54  68
ATOM     68  C   UNL     1       7.375  -6.492  10.947  1.00  0.00     0.058 A 
ATOM     69  C   UNL     1       8.173  -7.509  10.399  1.00  0.00     0.135 A 
ATOM     70  C   UNL     1       6.518  -6.830  12.007  1.00  0.00     0.135 A 
ATOM     71  F   UNL     1       8.996  -7.243   9.373  1.00  0.00    -0.206 F 
ATOM     72  C   UNL     1       8.103  -8.818  10.865  1.00  0.00     0.059 A 
ATOM     73  C   UNL     1       6.449  -8.128  12.504  1.00  0.00     0.059 A 
ATOM     74  F   UNL     1       5.733  -5.896  12.565  1.00  0.00    -0.206 F 
ATOM     75  C   UNL     1       7.234  -9.119  11.915  1.00  0.00     0.060 A 
BRANCH  75  76
ATOM     76  S   UNL     1       7.146 -10.822  12.507  1.00  0.00     0.124 S 
ATOM     77  O   UNL     1       6.344 -11.451  11.462  1.00  0.00    -0.237 OA
ATOM     78  O   UNL     1       8.551 -11.215  12.549  1.00  0.00    -0.237 OA
ATOM     79  O   UNL     1       6.495 -10.695  13.807  1.00  0.00    -0.744 OA
ENDBRANCH  75  76
ENDBRANCH  54  68
BRANCH  55  80
ATOM     80  C   UNL     1       7.402   2.772   7.255  1.00  0.00     0.058 A 
ATOM     81  C   UNL     1       8.586   3.374   6.805  1.00  0.00     0.135 A 
ATOM     82  C   UNL     1       6.217   3.520   7.181  1.00  0.00     0.135 A 
ATOM     83  F   UNL     1       9.745   2.702   6.865  1.00  0.00    -0.206 F 
ATOM     84  C   UNL     1       8.599   4.675   6.311  1.00  0.00     0.059 A 
ATOM     85  C   UNL     1       6.200   4.814   6.672  1.00  0.00     0.059 A 
ATOM     86  F   UNL     1       5.057   2.982   7.590  1.00  0.00    -0.206 F 
ATOM     87  C   UNL     1       7.399   5.387   6.248  1.00  0.00     0.060 A 
BRANCH  87  88
ATOM     88  S   UNL     1       7.413   7.056   5.557  1.00  0.00     0.124 S 
ATOM     89  O   UNL     1       7.968   7.826   6.663  1.00  0.00    -0.237 OA
ATOM     90  O   UNL     1       8.276   6.900   4.390  1.00  0.00    -0.237 OA
ATOM     91  O   UNL     1       6.005   7.303   5.256  1.00  0.00    -0.744 OA
ENDBRANCH  87  88
ENDBRANCH  55  80
BRANCH  67  92
ATOM     92  C   UNL     1       9.954  -0.098  13.072  1.00  0.00     0.058 A 
ATOM     93  C   UNL     1       9.344   0.692  14.059  1.00  0.00     0.135 A 
ATOM     94  C   UNL     1      11.320  -0.387  13.214  1.00  0.00     0.135 A 
ATOM     95  F   UNL     1       8.040   0.999  13.969  1.00  0.00    -0.206 F 
ATOM     96  C   UNL     1      10.069   1.200  15.133  1.00  0.00     0.059 A 
ATOM     97  C   UNL     1      12.060   0.092  14.291  1.00  0.00     0.059 A 
ATOM     98  F   UNL     1      11.948  -1.149  12.304  1.00  0.00    -0.206 F 
ATOM     99  C   UNL     1      11.428   0.897  15.238  1.00  0.00     0.060 A 
BRANCH  99 100
ATOM    100  S   UNL     1      12.358   1.544  16.645  1.00  0.00     0.124 S 
ATOM    101  O   UNL     1      12.584   2.926  16.236  1.00  0.00    -0.237 OA
ATOM    102  O   UNL     1      11.427   1.355  17.753  1.00  0.00    -0.237 OA
ATOM    103  O   UNL     1      13.546   0.696  16.683  1.00  0.00    -0.744 OA
ENDBRANCH  99 100
ENDBRANCH  67  92
ENDBRANCH  41  42
ENDBRANCH  34  36
ENDBRANCH  33  34
ENDBRANCH  32  33
ENDBRANCH  31  32
ENDBRANCH   1  31
TORSDOF 23
