REMARK SMILES COc1ccc(NC(=O)N[C@@H]2C=C[C@H](C(=O)OCCOCCOC(=O)c3ccc(-c4c5nc(c(-c6c(F)cc(S(=O)(=O)[O-])cc6F)c6ccc([nH]6)c(-c6c(F)cc(S(=O)(=O)[O-])cc6F)c6nc(c(-c7c(F)cc(S(=O)(=O)[O-])cc7F)c7ccc4[nH]7)C=C6)C=C5)cc3)C2)c(C)c1
REMARK SMILES IDX 20 1 19 2 18 3 17 4 15 5 16 6 14 7 11 8 12 9 92 10 13 11
REMARK SMILES IDX 10 12 7 13 8 14 9 16 6 18 3 19 4 20 95 21 5 22 93 23 94 24
REMARK SMILES IDX 2 25 1 26 21 27 22 28 23 29 24 30 25 31 26 32 27 33 91 34
REMARK SMILES IDX 28 35 90 36 29 37 30 38 31 39 84 40 32 41 89 42 83 43 85 44
REMARK SMILES IDX 33 45 88 46 82 47 81 48 34 50 68 51 47 52 67 53 48 54 51 55
REMARK SMILES IDX 66 56 86 57 49 58 50 59 65 61 87 62 52 63 35 64 36 65 45 66
REMARK SMILES IDX 37 67 38 68 44 69 46 70 39 71 40 72 41 73 42 74 43 75 69 76
REMARK SMILES IDX 70 77 79 78 71 79 72 80 78 81 80 82 73 83 74 84 75 85 76 86
REMARK SMILES IDX 77 87 53 88 54 89 63 90 55 91 56 92 62 93 64 94 57 95 58 96
REMARK SMILES IDX 59 97 60 98 61 99
REMARK H PARENT 7 15 10 17 85 49 51 60
REMARK Flexibility Score: inf
ROOT
ATOM      1  O   UNL     1       0.357   3.170  -0.054  1.00  0.00    -0.374 OA
ENDROOT
BRANCH   1   2
ATOM      2  C   UNL     1      -0.351   3.756   1.036  1.00  0.00     0.202 C 
BRANCH   2   3
ATOM      3  C   UNL     1      -0.170   2.760   2.148  1.00  0.00     0.261 C 
BRANCH   3   4
ATOM      4  O   UNL     1       1.093   2.922   2.810  1.00  0.00    -0.463 OA
BRANCH   4   5
ATOM      5  C   UNL     1       2.233   2.749   2.067  1.00  0.00     0.312 C 
ATOM      6  O   UNL     1       2.440   1.854   1.286  1.00  0.00    -0.252 OA
BRANCH   5   7
ATOM      7  C   UNL     1       3.108   3.952   2.357  1.00  0.00     0.124 C 
ATOM      8  C   UNL     1       4.295   4.865   0.418  1.00  0.00     0.107 C 
ATOM      9  C   UNL     1       5.221   4.407   1.445  1.00  0.00    -0.006 C 
ATOM     10  C   UNL     1       3.001   4.983   1.239  1.00  0.00     0.048 C 
ATOM     11  C   UNL     1       4.574   3.772   2.425  1.00  0.00    -0.014 C 
BRANCH   8  12
ATOM     12  N   UNL     1       4.277   3.993  -0.758  1.00  0.00    -0.332 N 
ATOM     13  N   UNL     1       5.444   1.843  -0.849  1.00  0.00    -0.308 N 
ATOM     14  C   UNL     1       4.727   2.873  -1.315  1.00  0.00     0.319 C 
ATOM     15  H   UNL     1       5.635   1.199  -1.569  1.00  0.00     0.171 HD
ATOM     16  O   UNL     1       4.364   2.749  -2.501  1.00  0.00    -0.248 OA
ATOM     17  H   UNL     1       3.675   4.414  -1.414  1.00  0.00     0.165 HD
BRANCH  13  18
ATOM     18  C   UNL     1       6.003   1.409   0.364  1.00  0.00     0.046 A 
ATOM     19  C   UNL     1       6.569   0.811   3.024  1.00  0.00     0.119 A 
ATOM     20  C   UNL     1       7.220   1.872   2.410  1.00  0.00     0.048 A 
ATOM     21  C   UNL     1       5.928  -0.129   2.232  1.00  0.00     0.052 A 
ATOM     22  C   UNL     1       6.950   2.151   1.061  1.00  0.00     0.030 A 
ATOM     23  C   UNL     1       5.701   0.131   0.865  1.00  0.00    -0.024 A 
ATOM     24  C   UNL     1       5.160  -1.000   0.034  1.00  0.00     0.047 C 
BRANCH  19  25
ATOM     25  O   UNL     1       6.580   0.665   4.385  1.00  0.00    -0.497 OA
ATOM     26  C   UNL     1       5.566   1.497   4.973  1.00  0.00     0.278 C 
ENDBRANCH  19  25
ENDBRANCH  13  18
ENDBRANCH   8  12
ENDBRANCH   5   7
ENDBRANCH   4   5
ENDBRANCH   3   4
ENDBRANCH   2   3
ENDBRANCH   1   2
BRANCH   1  27
ATOM     27  C   UNL     1       0.498   3.875  -1.262  1.00  0.00     0.202 C 
BRANCH  27  28
ATOM     28  C   UNL     1      -0.769   4.568  -1.752  1.00  0.00     0.261 C 
BRANCH  28  29
ATOM     29  O   UNL     1      -1.740   3.651  -2.306  1.00  0.00    -0.460 OA
BRANCH  29  30
ATOM     30  C   UNL     1      -2.671   3.134  -1.449  1.00  0.00     0.338 C 
ATOM     31  O   UNL     1      -3.710   3.696  -1.154  1.00  0.00    -0.246 OA
BRANCH  30  32
ATOM     32  C   UNL     1      -2.250   1.795  -0.945  1.00  0.00     0.060 A 
ATOM     33  C   UNL     1      -2.767   1.260   0.253  1.00  0.00     0.016 A 
ATOM     34  C   UNL     1      -1.141   1.211  -1.542  1.00  0.00     0.016 A 
ATOM     35  C   UNL     1      -2.088   0.218   0.910  1.00  0.00     0.010 A 
ATOM     36  C   UNL     1      -0.379   0.347  -0.793  1.00  0.00     0.010 A 
ATOM     37  C   UNL     1      -0.849  -0.187   0.414  1.00  0.00    -0.014 A 
BRANCH  37  38
ATOM     38  C   UNL     1       0.064  -1.165   1.002  1.00  0.00     0.031 A 
ATOM     39  C   UNL     1       0.218  -2.433   0.247  1.00  0.00     0.074 A 
ATOM     40  C   UNL     1       0.870  -0.928   2.067  1.00  0.00     0.049 A 
ATOM     41  N   UNL     1       0.438  -3.571   0.813  1.00  0.00    -0.248 NA
ATOM     42  C   UNL     1       0.052  -2.546  -1.207  1.00  0.00     0.031 C 
ATOM     43  C   UNL     1       2.123  -1.620   2.358  1.00  0.00     0.029 A 
ATOM     44  N   UNL     1       0.779   0.017   3.092  1.00  0.00    -0.354 N 
ATOM     45  C   UNL     1       0.756  -4.450  -0.194  1.00  0.00     0.074 A 
ATOM     46  C   UNL     1       0.341  -3.828  -1.421  1.00  0.00     0.031 C 
ATOM     47  C   UNL     1       2.620  -1.194   3.531  1.00  0.00     0.029 A 
ATOM     48  C   UNL     1       1.641  -0.312   4.144  1.00  0.00     0.049 A 
ATOM     49  H   UNL     1       0.190   0.805   3.076  1.00  0.00     0.167 HD
ATOM     50  C   UNL     1       1.567  -5.512   0.049  1.00  0.00     0.037 A 
ATOM     51  C   UNL     1       1.220  -0.350   5.439  1.00  0.00     0.037 A 
ATOM     52  C   UNL     1       2.124  -5.428   1.398  1.00  0.00     0.049 A 
ATOM     53  C   UNL     1       1.195  -1.790   5.881  1.00  0.00     0.074 A 
ATOM     54  C   UNL     1       3.349  -4.974   1.861  1.00  0.00     0.029 A 
ATOM     55  N   UNL     1       1.282  -5.456   2.509  1.00  0.00    -0.354 N 
ATOM     56  N   UNL     1       1.248  -2.772   5.023  1.00  0.00    -0.248 NA
ATOM     57  C   UNL     1       1.176  -2.269   7.259  1.00  0.00     0.031 C 
ATOM     58  C   UNL     1       3.244  -4.746   3.255  1.00  0.00     0.029 A 
ATOM     59  C   UNL     1       1.955  -5.062   3.652  1.00  0.00     0.049 A 
ATOM     60  H   UNL     1       0.334  -5.720   2.483  1.00  0.00     0.167 HD
ATOM     61  C   UNL     1       1.278  -3.964   5.667  1.00  0.00     0.074 A 
ATOM     62  C   UNL     1       1.220  -3.603   7.072  1.00  0.00     0.031 C 
ATOM     63  C   UNL     1       1.325  -5.133   4.967  1.00  0.00     0.037 A 
BRANCH  50  64
ATOM     64  C   UNL     1       2.102  -6.360  -1.081  1.00  0.00     0.058 A 
ATOM     65  C   UNL     1       3.411  -6.876  -1.065  1.00  0.00     0.135 A 
ATOM     66  C   UNL     1       1.344  -6.691  -2.229  1.00  0.00     0.135 A 
ATOM     67  F   UNL     1       4.222  -6.698  -0.016  1.00  0.00    -0.206 F 
ATOM     68  C   UNL     1       3.950  -7.600  -2.129  1.00  0.00     0.059 A 
ATOM     69  C   UNL     1       1.880  -7.359  -3.333  1.00  0.00     0.059 A 
ATOM     70  F   UNL     1       0.037  -6.386  -2.305  1.00  0.00    -0.206 F 
ATOM     71  C   UNL     1       3.186  -7.824  -3.267  1.00  0.00     0.060 A 
BRANCH  71  72
ATOM     72  S   UNL     1       3.906  -8.768  -4.622  1.00  0.00     0.124 S 
ATOM     73  O   UNL     1       5.188  -8.097  -4.824  1.00  0.00    -0.237 OA
ATOM     74  O   UNL     1       3.974 -10.107  -4.048  1.00  0.00    -0.237 OA
ATOM     75  O   UNL     1       2.943  -8.597  -5.706  1.00  0.00    -0.744 OA
ENDBRANCH  71  72
ENDBRANCH  50  64
BRANCH  51  76
ATOM     76  C   UNL     1       0.300   0.766   5.817  1.00  0.00     0.058 A 
ATOM     77  C   UNL     1       0.869   2.050   5.979  1.00  0.00     0.135 A 
ATOM     78  C   UNL     1      -1.085   0.718   5.600  1.00  0.00     0.135 A 
ATOM     79  F   UNL     1       2.193   2.173   6.180  1.00  0.00    -0.206 F 
ATOM     80  C   UNL     1       0.135   3.227   5.795  1.00  0.00     0.059 A 
ATOM     81  C   UNL     1      -1.839   1.885   5.397  1.00  0.00     0.059 A 
ATOM     82  F   UNL     1      -1.699  -0.464   5.446  1.00  0.00    -0.206 F 
ATOM     83  C   UNL     1      -1.210   3.135   5.442  1.00  0.00     0.060 A 
BRANCH  83  84
ATOM     84  S   UNL     1      -2.006   4.590   4.660  1.00  0.00     0.124 S 
ATOM     85  O   UNL     1      -2.571   5.292   5.803  1.00  0.00    -0.237 OA
ATOM     86  O   UNL     1      -0.882   5.256   3.999  1.00  0.00    -0.237 OA
ATOM     87  O   UNL     1      -2.962   3.985   3.738  1.00  0.00    -0.744 OA
ENDBRANCH  83  84
ENDBRANCH  51  76
BRANCH  63  88
ATOM     88  C   UNL     1       0.879  -6.464   5.501  1.00  0.00     0.058 A 
ATOM     89  C   UNL     1      -0.010  -6.600   6.580  1.00  0.00     0.135 A 
ATOM     90  C   UNL     1       1.208  -7.663   4.823  1.00  0.00     0.135 A 
ATOM     91  F   UNL     1      -0.512  -5.537   7.222  1.00  0.00    -0.206 F 
ATOM     92  C   UNL     1      -0.459  -7.840   7.019  1.00  0.00     0.059 A 
ATOM     93  C   UNL     1       0.708  -8.902   5.196  1.00  0.00     0.059 A 
ATOM     94  F   UNL     1       2.020  -7.677   3.755  1.00  0.00    -0.206 F 
ATOM     95  C   UNL     1      -0.090  -8.986   6.324  1.00  0.00     0.060 A 
BRANCH  95  96
ATOM     96  S   UNL     1      -0.673 -10.581   6.902  1.00  0.00     0.124 S 
ATOM     97  O   UNL     1       0.261 -10.845   7.993  1.00  0.00    -0.237 OA
ATOM     98  O   UNL     1      -2.046 -10.289   7.303  1.00  0.00    -0.237 OA
ATOM     99  O   UNL     1      -0.536 -11.438   5.730  1.00  0.00    -0.744 OA
ENDBRANCH  95  96
ENDBRANCH  63  88
ENDBRANCH  37  38
ENDBRANCH  30  32
ENDBRANCH  29  30
ENDBRANCH  28  29
ENDBRANCH  27  28
ENDBRANCH   1  27
TORSDOF 20
