REMARK SMILES COc1cc(OC(F)(F)F)cc2c1O[C@@H](C(F)(F)F)C(C(=O)OCCOCCOC(=O)c1ccc(-c3c4nc(c(-c5c(F)cc(S(=O)(=O)[O-])cc5F)c5ccc([nH]5)c(-c5c(F)cc(S(=O)(=O)[O-])cc5F)c5nc(c(-c6c(F)cc(S(=O)(=O)[O-])cc6F)c6ccc3[nH]6)C=C5)C=C4)cc1)=C2
REMARK SMILES IDX 27 1 26 2 25 3 24 4 23 5 21 6 22 7 20 8 3 9 4 10 13 11 5 12
REMARK SMILES IDX 12 13 14 14 11 15 98 16 15 17 2 18 1 19 6 20 7 21 8 22 9 23
REMARK SMILES IDX 10 24 16 25 17 26 18 27 19 28 28 29 29 30 30 31 31 32 32 33
REMARK SMILES IDX 33 34 97 35 34 36 96 37 35 38 36 39 37 40 90 41 38 42 95 43
REMARK SMILES IDX 89 44 91 45 39 46 94 47 88 48 87 49 40 51 74 52 53 53 73 54
REMARK SMILES IDX 54 55 57 56 72 57 92 58 55 59 56 60 71 62 93 63 58 64 41 65
REMARK SMILES IDX 42 66 51 67 43 68 44 69 50 70 52 71 45 72 46 73 47 74 48 75
REMARK SMILES IDX 49 76 75 77 76 78 85 79 77 80 78 81 84 82 86 83 79 84 80 85
REMARK SMILES IDX 81 86 82 87 83 88 59 89 60 90 69 91 61 92 62 93 68 94 70 95
REMARK SMILES IDX 63 96 64 97 65 98 66 99 67 100
REMARK H PARENT 91 50 57 61
REMARK Flexibility Score: inf
ROOT
ATOM      1  C   UNL     1       7.063   3.529   0.946  1.00  0.00     0.202 C 
ENDROOT
BRANCH   1   2
ATOM      2  O   UNL     1       8.377   3.371   0.416  1.00  0.00    -0.374 OA
BRANCH   2   3
ATOM      3  C   UNL     1       8.760   4.173  -0.698  1.00  0.00     0.202 C 
BRANCH   3   4
ATOM      4  C   UNL     1       8.191   3.802  -2.071  1.00  0.00     0.261 C 
BRANCH   4   5
ATOM      5  O   UNL     1       6.757   3.733  -2.063  1.00  0.00    -0.460 OA
BRANCH   5   6
ATOM      6  C   UNL     1       6.252   2.492  -2.249  1.00  0.00     0.338 C 
ATOM      7  O   UNL     1       6.881   1.485  -2.535  1.00  0.00    -0.246 OA
BRANCH   6   8
ATOM      8  C   UNL     1       4.818   2.453  -1.921  1.00  0.00     0.087 C 
ATOM      9  C   UNL     1       0.754   1.551  -1.661  1.00  0.00     0.165 A 
ATOM     10  C   UNL     1      -0.196   2.484  -2.082  1.00  0.00     0.097 A 
ATOM     11  C   UNL     1       2.115   1.860  -1.736  1.00  0.00     0.170 A 
ATOM     12  C   UNL     1       0.204   3.741  -2.539  1.00  0.00     0.134 A 
ATOM     13  C   UNL     1       2.533   3.115  -2.210  1.00  0.00     0.025 A 
ATOM     14  O   UNL     1       3.024   0.875  -1.445  1.00  0.00    -0.471 OA
ATOM     15  C   UNL     1       1.570   4.059  -2.584  1.00  0.00     0.059 A 
ATOM     16  C   UNL     1       3.963   3.350  -2.441  1.00  0.00     0.027 C 
ATOM     17  C   UNL     1       4.310   1.370  -1.000  1.00  0.00     0.316 C 
BRANCH   9  18
ATOM     18  O   UNL     1       0.265   0.325  -1.289  1.00  0.00    -0.493 OA
ATOM     19  C   UNL     1       0.670  -0.071   0.020  1.00  0.00     0.278 C 
ENDBRANCH   9  18
BRANCH  12  20
ATOM     20  O   UNL     1      -0.626   4.732  -2.984  1.00  0.00    -0.406 OA
BRANCH  20  21
ATOM     21  C   UNL     1      -1.981   4.390  -3.232  1.00  0.00     0.573 C 
ATOM     22  F   UNL     1      -2.078   3.352  -4.091  1.00  0.00    -0.132 F 
ATOM     23  F   UNL     1      -2.619   4.080  -2.082  1.00  0.00    -0.132 F 
ATOM     24  F   UNL     1      -2.608   5.452  -3.784  1.00  0.00    -0.132 F 
ENDBRANCH  20  21
ENDBRANCH  12  20
BRANCH  17  25
ATOM     25  C   UNL     1       5.207   0.163  -0.679  1.00  0.00     0.430 C 
ATOM     26  F   UNL     1       6.357   0.547  -0.079  1.00  0.00    -0.167 F 
ATOM     27  F   UNL     1       4.577  -0.644   0.221  1.00  0.00    -0.167 F 
ATOM     28  F   UNL     1       5.496  -0.600  -1.749  1.00  0.00    -0.167 F 
ENDBRANCH  17  25
ENDBRANCH   6   8
ENDBRANCH   5   6
ENDBRANCH   4   5
ENDBRANCH   3   4
ENDBRANCH   2   3
ENDBRANCH   1   2
BRANCH   1  29
ATOM     29  C   UNL     1       6.729   4.821   1.701  1.00  0.00     0.261 C 
BRANCH  29  30
ATOM     30  O   UNL     1       6.760   5.986   0.861  1.00  0.00    -0.460 OA
BRANCH  30  31
ATOM     31  C   UNL     1       7.784   6.837   1.112  1.00  0.00     0.338 C 
ATOM     32  O   UNL     1       8.643   6.726   1.976  1.00  0.00    -0.246 OA
BRANCH  31  33
ATOM     33  C   UNL     1       7.846   7.859   0.054  1.00  0.00     0.060 A 
ATOM     34  C   UNL     1       9.040   7.989  -0.669  1.00  0.00     0.016 A 
ATOM     35  C   UNL     1       6.774   8.721  -0.176  1.00  0.00     0.016 A 
ATOM     36  C   UNL     1       9.178   9.010  -1.606  1.00  0.00     0.010 A 
ATOM     37  C   UNL     1       6.919   9.750  -1.108  1.00  0.00     0.010 A 
ATOM     38  C   UNL     1       8.131   9.917  -1.804  1.00  0.00    -0.014 A 
BRANCH  38  39
ATOM     39  C   UNL     1       8.336  11.128  -2.631  1.00  0.00     0.031 A 
ATOM     40  C   UNL     1       8.561  12.445  -1.945  1.00  0.00     0.074 A 
ATOM     41  C   UNL     1       8.291  11.056  -3.972  1.00  0.00     0.049 A 
ATOM     42  N   UNL     1       8.634  13.646  -2.455  1.00  0.00    -0.248 NA
ATOM     43  C   UNL     1       8.712  12.399  -0.482  1.00  0.00     0.031 C 
ATOM     44  C   UNL     1       8.113   9.829  -4.746  1.00  0.00     0.029 A 
ATOM     45  N   UNL     1       8.366  12.046  -4.919  1.00  0.00    -0.354 N 
ATOM     46  C   UNL     1       8.823  14.502  -1.377  1.00  0.00     0.074 A 
ATOM     47  C   UNL     1       8.821  13.685  -0.183  1.00  0.00     0.031 C 
ATOM     48  C   UNL     1       8.060  10.143  -6.051  1.00  0.00     0.029 A 
ATOM     49  C   UNL     1       8.161  11.594  -6.199  1.00  0.00     0.049 A 
ATOM     50  H   UNL     1       8.549  12.989  -4.702  1.00  0.00     0.167 HD
ATOM     51  C   UNL     1       8.988  15.847  -1.385  1.00  0.00     0.037 A 
ATOM     52  C   UNL     1       8.031  12.277  -7.354  1.00  0.00     0.037 A 
ATOM     53  C   UNL     1       8.975  16.648  -2.582  1.00  0.00     0.049 A 
ATOM     54  C   UNL     1       8.156  13.777  -7.340  1.00  0.00     0.074 A 
ATOM     55  C   UNL     1       9.146  18.016  -2.706  1.00  0.00     0.029 A 
ATOM     56  N   UNL     1       8.767  16.155  -3.863  1.00  0.00    -0.354 N 
ATOM     57  N   UNL     1       8.351  14.578  -6.319  1.00  0.00    -0.248 NA
ATOM     58  C   UNL     1       8.048  14.466  -8.633  1.00  0.00     0.031 C 
ATOM     59  C   UNL     1       8.988  18.355  -4.054  1.00  0.00     0.029 A 
ATOM     60  C   UNL     1       8.780  17.192  -4.781  1.00  0.00     0.049 A 
ATOM     61  H   UNL     1       8.630  15.206  -4.087  1.00  0.00     0.167 HD
ATOM     62  C   UNL     1       8.417  15.863  -6.848  1.00  0.00     0.074 A 
ATOM     63  C   UNL     1       8.246  15.730  -8.281  1.00  0.00     0.031 C 
ATOM     64  C   UNL     1       8.609  17.044  -6.207  1.00  0.00     0.037 A 
BRANCH  51  65
ATOM     65  C   UNL     1       9.153  16.529  -0.054  1.00  0.00     0.058 A 
ATOM     66  C   UNL     1      10.300  16.348   0.737  1.00  0.00     0.135 A 
ATOM     67  C   UNL     1       8.142  17.365   0.447  1.00  0.00     0.135 A 
ATOM     68  F   UNL     1      11.292  15.547   0.316  1.00  0.00    -0.206 F 
ATOM     69  C   UNL     1      10.416  16.930   1.996  1.00  0.00     0.059 A 
ATOM     70  C   UNL     1       8.251  17.984   1.690  1.00  0.00     0.059 A 
ATOM     71  F   UNL     1       7.023  17.576  -0.265  1.00  0.00    -0.206 F 
ATOM     72  C   UNL     1       9.382  17.740   2.467  1.00  0.00     0.060 A 
BRANCH  72  73
ATOM     73  S   UNL     1       9.528  18.455   4.118  1.00  0.00     0.124 S 
ATOM     74  O   UNL     1       9.309  17.284   4.961  1.00  0.00    -0.237 OA
ATOM     75  O   UNL     1      10.889  18.983   4.110  1.00  0.00    -0.237 OA
ATOM     76  O   UNL     1       8.469  19.458   4.149  1.00  0.00    -0.744 OA
ENDBRANCH  72  73
ENDBRANCH  51  65
BRANCH  52  77
ATOM     77  C   UNL     1       7.755  11.534  -8.611  1.00  0.00     0.058 A 
ATOM     78  C   UNL     1       8.737  11.395  -9.602  1.00  0.00     0.135 A 
ATOM     79  C   UNL     1       6.519  10.901  -8.820  1.00  0.00     0.135 A 
ATOM     80  F   UNL     1       9.929  11.991  -9.453  1.00  0.00    -0.206 F 
ATOM     81  C   UNL     1       8.507  10.649 -10.754  1.00  0.00     0.059 A 
ATOM     82  C   UNL     1       6.274  10.130  -9.952  1.00  0.00     0.059 A 
ATOM     83  F   UNL     1       5.551  10.994  -7.895  1.00  0.00    -0.206 F 
ATOM     84  C   UNL     1       7.276  10.011 -10.914  1.00  0.00     0.060 A 
BRANCH  84  85
ATOM     85  S   UNL     1       7.024   8.968 -12.367  1.00  0.00     0.124 S 
ATOM     86  O   UNL     1       6.921   9.961 -13.429  1.00  0.00    -0.237 OA
ATOM     87  O   UNL     1       8.236   8.153 -12.368  1.00  0.00    -0.237 OA
ATOM     88  O   UNL     1       5.794   8.247 -12.053  1.00  0.00    -0.744 OA
ENDBRANCH  84  85
ENDBRANCH  52  77
BRANCH  64  89
ATOM     89  C   UNL     1       8.684  18.289  -7.049  1.00  0.00     0.058 A 
ATOM     90  C   UNL     1       7.549  18.842  -7.661  1.00  0.00     0.135 A 
ATOM     91  C   UNL     1       9.903  18.973  -7.192  1.00  0.00     0.135 A 
ATOM     92  F   UNL     1       6.360  18.226  -7.562  1.00  0.00    -0.206 F 
ATOM     93  C   UNL     1       7.623  20.018  -8.402  1.00  0.00     0.059 A 
ATOM     94  C   UNL     1       9.995  20.165  -7.904  1.00  0.00     0.059 A 
ATOM     95  F   UNL     1      11.019  18.494  -6.619  1.00  0.00    -0.206 F 
ATOM     96  C   UNL     1       8.850  20.674  -8.514  1.00  0.00     0.060 A 
BRANCH  96  97
ATOM     97  S   UNL     1       8.925  22.220  -9.445  1.00  0.00     0.124 S 
ATOM     98  O   UNL     1       8.797  21.743 -10.818  1.00  0.00    -0.237 OA
ATOM     99  O   UNL     1       7.778  22.955  -8.920  1.00  0.00    -0.237 OA
ATOM    100  O   UNL     1      10.230  22.769  -9.089  1.00  0.00    -0.744 OA
ENDBRANCH  96  97
ENDBRANCH  64  89
ENDBRANCH  38  39
ENDBRANCH  31  33
ENDBRANCH  30  31
ENDBRANCH  29  30
ENDBRANCH   1  29
TORSDOF 21
