REMARK SMILES CCCc1cc(OC(F)(F)F)cc2c1O[C@@H](C(F)(F)F)C(C(=O)OCCOCCOC(=O)c1ccc(-c3c4nc(c(-c5c(F)cc(S(=O)(=O)[O-])cc5F)c5ccc([nH]5)c(-c5c(F)cc(S(=O)(=O)[O-])cc5F)c5nc(c(-c6c(F)cc(S(=O)(=O)[O-])cc6F)c6ccc3[nH]6)C=C5)C=C4)cc1)=C2
REMARK SMILES IDX 28 1 27 2 26 3 25 4 24 5 22 6 23 7 21 8 4 9 5 10 14 11 6 12
REMARK SMILES IDX 13 13 15 14 12 15 99 16 16 17 3 18 2 19 1 20 7 21 8 22 9 23
REMARK SMILES IDX 10 24 11 25 17 26 18 27 19 28 20 29 29 30 30 31 31 32 32 33
REMARK SMILES IDX 33 34 34 35 98 36 35 37 97 38 36 39 37 40 38 41 91 42 39 43
REMARK SMILES IDX 96 44 90 45 92 46 40 47 95 48 89 49 88 50 41 52 75 53 54 54
REMARK SMILES IDX 74 55 55 56 58 57 73 58 93 59 56 60 57 61 72 63 94 64 59 65
REMARK SMILES IDX 42 66 43 67 52 68 44 69 45 70 51 71 53 72 46 73 47 74 48 75
REMARK SMILES IDX 49 76 50 77 76 78 77 79 86 80 78 81 79 82 85 83 87 84 80 85
REMARK SMILES IDX 81 86 82 87 83 88 84 89 60 90 61 91 70 92 62 93 63 94 69 95
REMARK SMILES IDX 71 96 64 97 65 98 66 99 67 100 68 101
REMARK H PARENT 92 51 58 62
REMARK Flexibility Score: inf
ROOT
ATOM      1  C   UNL     1      -3.741  -4.758   7.092  1.00  0.00     0.202 C 
ENDROOT
BRANCH   1   2
ATOM      2  O   UNL     1      -3.421  -5.628   8.174  1.00  0.00    -0.374 OA
BRANCH   2   3
ATOM      3  C   UNL     1      -2.822  -5.077   9.343  1.00  0.00     0.202 C 
BRANCH   3   4
ATOM      4  C   UNL     1      -1.360  -4.625   9.266  1.00  0.00     0.261 C 
BRANCH   4   5
ATOM      5  O   UNL     1      -1.137  -3.702   8.191  1.00  0.00    -0.460 OA
BRANCH   5   6
ATOM      6  C   UNL     1      -0.387  -4.192   7.176  1.00  0.00     0.338 C 
ATOM      7  O   UNL     1       0.197  -5.263   7.155  1.00  0.00    -0.246 OA
BRANCH   6   8
ATOM      8  C   UNL     1      -0.453  -3.307   6.002  1.00  0.00     0.087 C 
ATOM      9  C   UNL     1       0.622  -1.160   2.589  1.00  0.00    -0.002 A 
ATOM     10  C   UNL     1       0.776   0.230   2.707  1.00  0.00     0.054 A 
ATOM     11  C   UNL     1       0.178  -1.865   3.718  1.00  0.00     0.131 A 
ATOM     12  C   UNL     1       0.414   0.918   3.868  1.00  0.00     0.130 A 
ATOM     13  C   UNL     1      -0.113  -1.198   4.922  1.00  0.00     0.021 A 
ATOM     14  O   UNL     1       0.150  -3.236   3.635  1.00  0.00    -0.475 OA
ATOM     15  C   UNL     1      -0.035   0.196   4.975  1.00  0.00     0.058 A 
ATOM     16  C   UNL     1      -0.296  -1.981   6.145  1.00  0.00     0.027 C 
ATOM     17  C   UNL     1      -0.667  -3.901   4.630  1.00  0.00     0.316 C 
BRANCH   9  18
ATOM     18  C   UNL     1       1.051  -1.873   1.322  1.00  0.00     0.039 C 
BRANCH  18  19
ATOM     19  C   UNL     1       0.361  -1.445   0.017  1.00  0.00     0.001 C 
ATOM     20  C   UNL     1       0.804  -0.098  -0.539  1.00  0.00     0.004 C 
ENDBRANCH  18  19
ENDBRANCH   9  18
BRANCH  12  21
ATOM     21  O   UNL     1       0.500   2.269   4.056  1.00  0.00    -0.406 OA
BRANCH  21  22
ATOM     22  C   UNL     1       0.938   3.059   2.962  1.00  0.00     0.573 C 
ATOM     23  F   UNL     1       2.207   2.752   2.617  1.00  0.00    -0.132 F 
ATOM     24  F   UNL     1       0.132   2.898   1.888  1.00  0.00    -0.132 F 
ATOM     25  F   UNL     1       0.903   4.362   3.317  1.00  0.00    -0.132 F 
ENDBRANCH  21  22
ENDBRANCH  12  21
BRANCH  17  26
ATOM     26  C   UNL     1      -0.521  -5.420   4.440  1.00  0.00     0.430 C 
ATOM     27  F   UNL     1      -1.399  -6.104   5.212  1.00  0.00    -0.167 F 
ATOM     28  F   UNL     1      -0.827  -5.754   3.155  1.00  0.00    -0.167 F 
ATOM     29  F   UNL     1       0.725  -5.876   4.672  1.00  0.00    -0.167 F 
ENDBRANCH  17  26
ENDBRANCH   6   8
ENDBRANCH   5   6
ENDBRANCH   4   5
ENDBRANCH   3   4
ENDBRANCH   2   3
ENDBRANCH   1   2
BRANCH   1  30
ATOM     30  C   UNL     1      -4.866  -3.728   7.265  1.00  0.00     0.261 C 
BRANCH  30  31
ATOM     31  O   UNL     1      -4.638  -2.799   8.335  1.00  0.00    -0.460 OA
BRANCH  31  32
ATOM     32  C   UNL     1      -5.459  -2.971   9.403  1.00  0.00     0.338 C 
ATOM     33  O   UNL     1      -6.360  -3.785   9.515  1.00  0.00    -0.246 OA
BRANCH  32  34
ATOM     34  C   UNL     1      -4.993  -2.149  10.534  1.00  0.00     0.060 A 
ATOM     35  C   UNL     1      -4.666  -2.811  11.724  1.00  0.00     0.016 A 
ATOM     36  C   UNL     1      -4.964  -0.756  10.460  1.00  0.00     0.016 A 
ATOM     37  C   UNL     1      -4.347  -2.078  12.863  1.00  0.00     0.010 A 
ATOM     38  C   UNL     1      -4.652  -0.021  11.609  1.00  0.00     0.010 A 
ATOM     39  C   UNL     1      -4.377  -0.678  12.823  1.00  0.00    -0.014 A 
BRANCH  39  40
ATOM     40  C   UNL     1      -4.256   0.087  14.088  1.00  0.00     0.031 A 
ATOM     41  C   UNL     1      -5.496   0.654  14.722  1.00  0.00     0.074 A 
ATOM     42  C   UNL     1      -3.058   0.236  14.682  1.00  0.00     0.049 A 
ATOM     43  N   UNL     1      -5.618   1.364  15.814  1.00  0.00    -0.248 NA
ATOM     44  C   UNL     1      -6.769   0.388  14.033  1.00  0.00     0.031 C 
ATOM     45  C   UNL     1      -1.794  -0.300  14.179  1.00  0.00     0.029 A 
ATOM     46  N   UNL     1      -2.711   0.886  15.839  1.00  0.00    -0.354 N 
ATOM     47  C   UNL     1      -6.976   1.636  15.940  1.00  0.00     0.074 A 
ATOM     48  C   UNL     1      -7.633   1.045  14.794  1.00  0.00     0.031 C 
ATOM     49  C   UNL     1      -0.807   0.049  15.021  1.00  0.00     0.029 A 
ATOM     50  C   UNL     1      -1.363   0.860  16.102  1.00  0.00     0.049 A 
ATOM     51  H   UNL     1      -3.366   1.330  16.425  1.00  0.00     0.167 HD
ATOM     52  C   UNL     1      -7.616   2.307  16.926  1.00  0.00     0.037 A 
ATOM     53  C   UNL     1      -0.656   1.442  17.092  1.00  0.00     0.037 A 
ATOM     54  C   UNL     1      -6.953   2.889  18.065  1.00  0.00     0.049 A 
ATOM     55  C   UNL     1      -1.383   2.238  18.144  1.00  0.00     0.074 A 
ATOM     56  C   UNL     1      -7.513   3.569  19.132  1.00  0.00     0.029 A 
ATOM     57  N   UNL     1      -5.582   2.870  18.281  1.00  0.00    -0.354 N 
ATOM     58  N   UNL     1      -2.671   2.463  18.267  1.00  0.00    -0.248 NA
ATOM     59  C   UNL     1      -0.563   2.856  19.195  1.00  0.00     0.031 C 
ATOM     60  C   UNL     1      -6.478   4.012  19.962  1.00  0.00     0.029 A 
ATOM     61  C   UNL     1      -5.276   3.553  19.447  1.00  0.00     0.049 A 
ATOM     62  H   UNL     1      -4.924   2.435  17.692  1.00  0.00     0.167 HD
ATOM     63  C   UNL     1      -2.816   3.225  19.422  1.00  0.00     0.074 A 
ATOM     64  C   UNL     1      -1.488   3.408  19.969  1.00  0.00     0.031 C 
ATOM     65  C   UNL     1      -3.946   3.727  19.981  1.00  0.00     0.037 A 
BRANCH  52  66
ATOM     66  C   UNL     1      -9.107   2.474  16.806  1.00  0.00     0.058 A 
ATOM     67  C   UNL     1      -9.990   1.392  16.958  1.00  0.00     0.135 A 
ATOM     68  C   UNL     1      -9.664   3.742  16.572  1.00  0.00     0.135 A 
ATOM     69  F   UNL     1      -9.514   0.154  17.166  1.00  0.00    -0.206 F 
ATOM     70  C   UNL     1     -11.368   1.557  16.856  1.00  0.00     0.059 A 
ATOM     71  C   UNL     1     -11.040   3.936  16.496  1.00  0.00     0.059 A 
ATOM     72  F   UNL     1      -8.867   4.811  16.416  1.00  0.00    -0.206 F 
ATOM     73  C   UNL     1     -11.884   2.834  16.625  1.00  0.00     0.060 A 
BRANCH  73  74
ATOM     74  S   UNL     1     -13.674   3.032  16.502  1.00  0.00     0.124 S 
ATOM     75  O   UNL     1     -13.949   2.394  15.218  1.00  0.00    -0.237 OA
ATOM     76  O   UNL     1     -14.148   2.314  17.680  1.00  0.00    -0.237 OA
ATOM     77  O   UNL     1     -13.860   4.479  16.535  1.00  0.00    -0.744 OA
ENDBRANCH  73  74
ENDBRANCH  52  66
BRANCH  53  78
ATOM     78  C   UNL     1       0.825   1.302  17.128  1.00  0.00     0.058 A 
ATOM     79  C   UNL     1       1.462   0.568  18.138  1.00  0.00     0.135 A 
ATOM     80  C   UNL     1       1.633   1.903  16.149  1.00  0.00     0.135 A 
ATOM     81  F   UNL     1       0.735  -0.016  19.103  1.00  0.00    -0.206 F 
ATOM     82  C   UNL     1       2.847   0.445  18.187  1.00  0.00     0.059 A 
ATOM     83  C   UNL     1       3.018   1.770  16.160  1.00  0.00     0.059 A 
ATOM     84  F   UNL     1       1.073   2.608  15.153  1.00  0.00    -0.206 F 
ATOM     85  C   UNL     1       3.616   1.047  17.190  1.00  0.00     0.060 A 
BRANCH  85  86
ATOM     86  S   UNL     1       5.409   0.839  17.235  1.00  0.00     0.124 S 
ATOM     87  O   UNL     1       5.774   1.677  18.371  1.00  0.00    -0.237 OA
ATOM     88  O   UNL     1       5.543  -0.601  17.432  1.00  0.00    -0.237 OA
ATOM     89  O   UNL     1       5.836   1.327  15.927  1.00  0.00    -0.744 OA
ENDBRANCH  85  86
ENDBRANCH  53  78
BRANCH  65  90
ATOM     90  C   UNL     1      -3.802   4.498  21.267  1.00  0.00     0.058 A 
ATOM     91  C   UNL     1      -3.214   5.772  21.305  1.00  0.00     0.135 A 
ATOM     92  C   UNL     1      -4.300   3.971  22.471  1.00  0.00     0.135 A 
ATOM     93  F   UNL     1      -2.717   6.321  20.186  1.00  0.00    -0.206 F 
ATOM     94  C   UNL     1      -3.097   6.483  22.496  1.00  0.00     0.059 A 
ATOM     95  C   UNL     1      -4.223   4.679  23.666  1.00  0.00     0.059 A 
ATOM     96  F   UNL     1      -4.884   2.762  22.490  1.00  0.00    -0.206 F 
ATOM     97  C   UNL     1      -3.606   5.928  23.671  1.00  0.00     0.060 A 
BRANCH  97  98
ATOM     98  S   UNL     1      -3.468   6.872  25.204  1.00  0.00     0.124 S 
ATOM     99  O   UNL     1      -2.041   6.763  25.488  1.00  0.00    -0.237 OA
ATOM    100  O   UNL     1      -3.934   8.195  24.798  1.00  0.00    -0.237 OA
ATOM    101  O   UNL     1      -4.348   6.159  26.124  1.00  0.00    -0.744 OA
ENDBRANCH  97  98
ENDBRANCH  65  90
ENDBRANCH  39  40
ENDBRANCH  32  34
ENDBRANCH  31  32
ENDBRANCH  30  31
ENDBRANCH   1  30
TORSDOF 22
