REMARK SMILES Cc1c(CC(=O)OCCOCCOC(=O)c2ccc(-c3c4nc(c(-c5c(F)cc(S(=O)(=O)[O-])cc5F)c5ccc([nH]5)c(-c5c(F)cc(S(=O)(=O)[O-])cc5F)c5nc(c(-c6c(F)cc(S(=O)(=O)[O-])cc6F)c6ccc3[nH]6)C=C5)C=C4)cc2)c2ccccc2n1C(=O)c1ccc(Cl)cc1
REMARK SMILES IDX 10 1 9 2 8 3 7 4 5 5 6 6 4 7 3 8 1 9 2 10 88 11 82 12 87 13
REMARK SMILES IDX 83 14 86 15 84 16 85 17 89 18 90 19 91 20 92 21 97 22 93 23
REMARK SMILES IDX 96 24 94 25 95 26 11 27 12 28 13 29 14 30 15 31 16 32 17 33
REMARK SMILES IDX 81 34 18 35 80 36 19 37 20 38 21 39 74 40 22 41 79 42 73 43
REMARK SMILES IDX 75 44 23 45 78 46 72 47 71 48 24 50 58 51 37 52 57 53 38 54
REMARK SMILES IDX 41 55 56 56 76 57 39 58 40 59 55 61 77 62 42 63 25 64 26 65
REMARK SMILES IDX 35 66 27 67 28 68 34 69 36 70 29 71 30 72 31 73 32 74 33 75
REMARK SMILES IDX 59 76 60 77 69 78 61 79 62 80 68 81 70 82 63 83 64 84 65 85
REMARK SMILES IDX 66 86 67 87 43 88 44 89 53 90 45 91 46 92 52 93 54 94 47 95
REMARK SMILES IDX 48 96 49 97 50 98 51 99
REMARK H PARENT 75 49 41 60
REMARK Flexibility Score: inf
ROOT
ATOM      1  O   UNL     1      -3.374  -2.761  -4.374  1.00  0.00    -0.374 OA
ENDROOT
BRANCH   1   2
ATOM      2  C   UNL     1      -3.931  -2.838  -3.069  1.00  0.00     0.202 C 
BRANCH   2   3
ATOM      3  C   UNL     1      -3.037  -2.942  -1.821  1.00  0.00     0.261 C 
BRANCH   3   4
ATOM      4  O   UNL     1      -1.839  -2.146  -1.852  1.00  0.00    -0.463 OA
BRANCH   4   5
ATOM      5  C   UNL     1      -0.704  -2.855  -2.089  1.00  0.00     0.310 C 
ATOM      6  O   UNL     1      -0.672  -4.074  -2.243  1.00  0.00    -0.252 OA
BRANCH   5   7
ATOM      7  C   UNL     1       0.573  -2.048  -2.158  1.00  0.00     0.160 C 
BRANCH   7   8
ATOM      8  C   UNL     1       0.505  -0.551  -2.333  1.00  0.00    -0.008 A 
ATOM      9  C   UNL     1       0.878   0.173   0.123  1.00  0.00     0.065 C 
ATOM     10  C   UNL     1       0.661   0.407  -1.340  1.00  0.00     0.028 A 
ATOM     11  N   UNL     1       0.659   1.686  -1.918  1.00  0.00    -0.280 N 
ATOM     12  C   UNL     1       0.425   0.153  -3.572  1.00  0.00     0.004 A 
ATOM     13  C   UNL     1       0.433   1.527  -3.298  1.00  0.00     0.056 A 
ATOM     14  C   UNL     1       0.351  -0.274  -4.921  1.00  0.00     0.010 A 
ATOM     15  C   UNL     1       0.291   2.450  -4.359  1.00  0.00     0.027 A 
ATOM     16  C   UNL     1       0.163   0.646  -5.954  1.00  0.00     0.001 A 
ATOM     17  C   UNL     1       0.117   1.997  -5.669  1.00  0.00     0.002 A 
BRANCH  11  18
ATOM     18  C   UNL     1       0.931   2.908  -1.230  1.00  0.00     0.262 C 
ATOM     19  O   UNL     1       1.332   2.864  -0.067  1.00  0.00    -0.268 OA
BRANCH  18  20
ATOM     20  C   UNL     1       0.857   4.256  -1.818  1.00  0.00     0.040 A 
ATOM     21  C   UNL     1      -0.374   4.812  -2.179  1.00  0.00     0.015 A 
ATOM     22  C   UNL     1       2.050   4.959  -2.025  1.00  0.00     0.015 A 
ATOM     23  C   UNL     1      -0.398   6.041  -2.846  1.00  0.00     0.021 A 
ATOM     24  C   UNL     1       2.018   6.191  -2.679  1.00  0.00     0.021 A 
ATOM     25  C   UNL     1       0.797   6.715  -3.107  1.00  0.00     0.041 A 
ATOM     26  Cl  UNL     1       0.769   8.194  -3.988  1.00  0.00    -0.084 Cl
ENDBRANCH  18  20
ENDBRANCH  11  18
ENDBRANCH   7   8
ENDBRANCH   5   7
ENDBRANCH   4   5
ENDBRANCH   3   4
ENDBRANCH   2   3
ENDBRANCH   1   2
BRANCH   1  27
ATOM     27  C   UNL     1      -2.578  -1.624  -4.683  1.00  0.00     0.202 C 
BRANCH  27  28
ATOM     28  C   UNL     1      -3.199  -0.216  -4.654  1.00  0.00     0.261 C 
BRANCH  28  29
ATOM     29  O   UNL     1      -3.764   0.113  -3.386  1.00  0.00    -0.460 OA
BRANCH  29  30
ATOM     30  C   UNL     1      -4.928   0.810  -3.463  1.00  0.00     0.338 C 
ATOM     31  O   UNL     1      -5.292   1.564  -4.349  1.00  0.00    -0.246 OA
BRANCH  30  32
ATOM     32  C   UNL     1      -5.807   0.135  -2.500  1.00  0.00     0.060 A 
ATOM     33  C   UNL     1      -5.401  -0.013  -1.170  1.00  0.00     0.016 A 
ATOM     34  C   UNL     1      -6.817  -0.664  -3.059  1.00  0.00     0.016 A 
ATOM     35  C   UNL     1      -5.958  -1.036  -0.419  1.00  0.00     0.010 A 
ATOM     36  C   UNL     1      -7.341  -1.709  -2.315  1.00  0.00     0.010 A 
ATOM     37  C   UNL     1      -6.886  -1.913  -1.008  1.00  0.00    -0.014 A 
BRANCH  37  38
ATOM     38  C   UNL     1      -7.579  -2.859  -0.136  1.00  0.00     0.031 A 
ATOM     39  C   UNL     1      -8.493  -2.150   0.805  1.00  0.00     0.074 A 
ATOM     40  C   UNL     1      -7.565  -4.203  -0.257  1.00  0.00     0.049 A 
ATOM     41  N   UNL     1      -8.445  -2.119   2.095  1.00  0.00    -0.248 NA
ATOM     42  C   UNL     1      -9.460  -1.202   0.219  1.00  0.00     0.031 C 
ATOM     43  C   UNL     1      -6.937  -5.016  -1.296  1.00  0.00     0.029 A 
ATOM     44  N   UNL     1      -8.219  -5.137   0.493  1.00  0.00    -0.354 N 
ATOM     45  C   UNL     1      -9.509  -1.310   2.486  1.00  0.00     0.074 A 
ATOM     46  C   UNL     1      -9.961  -0.623   1.308  1.00  0.00     0.031 C 
ATOM     47  C   UNL     1      -7.431  -6.275  -1.244  1.00  0.00     0.029 A 
ATOM     48  C   UNL     1      -8.332  -6.388  -0.111  1.00  0.00     0.049 A 
ATOM     49  H   UNL     1      -8.582  -4.943   1.387  1.00  0.00     0.167 HD
ATOM     50  C   UNL     1     -10.103  -1.440   3.702  1.00  0.00     0.037 A 
ATOM     51  C   UNL     1      -9.166  -7.401   0.254  1.00  0.00     0.037 A 
ATOM     52  C   UNL     1      -9.268  -2.159   4.624  1.00  0.00     0.049 A 
ATOM     53  C   UNL     1      -9.583  -7.134   1.657  1.00  0.00     0.074 A 
ATOM     54  C   UNL     1      -8.009  -1.948   5.151  1.00  0.00     0.029 A 
ATOM     55  N   UNL     1      -9.557  -3.482   4.852  1.00  0.00    -0.354 N 
ATOM     56  N   UNL     1      -8.774  -7.195   2.679  1.00  0.00    -0.248 NA
ATOM     57  C   UNL     1     -10.791  -6.347   1.865  1.00  0.00     0.031 C 
ATOM     58  C   UNL     1      -7.420  -3.242   5.228  1.00  0.00     0.029 A 
ATOM     59  C   UNL     1      -8.371  -4.169   4.803  1.00  0.00     0.049 A 
ATOM     60  H   UNL     1     -10.448  -3.866   5.020  1.00  0.00     0.167 HD
ATOM     61  C   UNL     1      -9.143  -6.130   3.487  1.00  0.00     0.074 A 
ATOM     62  C   UNL     1     -10.439  -5.690   2.974  1.00  0.00     0.031 C 
ATOM     63  C   UNL     1      -8.241  -5.522   4.311  1.00  0.00     0.037 A 
BRANCH  50  64
ATOM     64  C   UNL     1     -11.577  -1.228   3.931  1.00  0.00     0.058 A 
ATOM     65  C   UNL     1     -12.072  -1.170   5.248  1.00  0.00     0.135 A 
ATOM     66  C   UNL     1     -12.551  -1.357   2.914  1.00  0.00     0.135 A 
ATOM     67  F   UNL     1     -11.232  -1.064   6.290  1.00  0.00    -0.206 F 
ATOM     68  C   UNL     1     -13.431  -1.298   5.536  1.00  0.00     0.059 A 
ATOM     69  C   UNL     1     -13.912  -1.425   3.175  1.00  0.00     0.059 A 
ATOM     70  F   UNL     1     -12.226  -1.528   1.627  1.00  0.00    -0.206 F 
ATOM     71  C   UNL     1     -14.341  -1.439   4.491  1.00  0.00     0.060 A 
BRANCH  71  72
ATOM     72  S   UNL     1     -16.079  -1.719   4.862  1.00  0.00     0.124 S 
ATOM     73  O   UNL     1     -16.035  -3.042   5.474  1.00  0.00    -0.237 OA
ATOM     74  O   UNL     1     -16.378  -0.607   5.758  1.00  0.00    -0.237 OA
ATOM     75  O   UNL     1     -16.718  -1.650   3.551  1.00  0.00    -0.744 OA
ENDBRANCH  71  72
ENDBRANCH  50  64
BRANCH  51  76
ATOM     76  C   UNL     1      -9.884  -8.383  -0.613  1.00  0.00     0.058 A 
ATOM     77  C   UNL     1     -10.580  -9.479  -0.063  1.00  0.00     0.135 A 
ATOM     78  C   UNL     1     -10.143  -8.117  -1.972  1.00  0.00     0.135 A 
ATOM     79  F   UNL     1     -10.416  -9.804   1.229  1.00  0.00    -0.206 F 
ATOM     80  C   UNL     1     -11.514 -10.225  -0.798  1.00  0.00     0.059 A 
ATOM     81  C   UNL     1     -11.058  -8.853  -2.728  1.00  0.00     0.059 A 
ATOM     82  F   UNL     1      -9.586  -7.068  -2.593  1.00  0.00    -0.206 F 
ATOM     83  C   UNL     1     -11.764  -9.887  -2.127  1.00  0.00     0.060 A 
BRANCH  83  84
ATOM     84  S   UNL     1     -13.098 -10.714  -3.028  1.00  0.00     0.124 S 
ATOM     85  O   UNL     1     -12.584 -12.074  -3.153  1.00  0.00    -0.237 OA
ATOM     86  O   UNL     1     -14.231 -10.542  -2.125  1.00  0.00    -0.237 OA
ATOM     87  O   UNL     1     -13.182  -9.962  -4.277  1.00  0.00    -0.744 OA
ENDBRANCH  83  84
ENDBRANCH  51  76
BRANCH  63  88
ATOM     88  C   UNL     1      -6.911  -6.190   4.538  1.00  0.00     0.058 A 
ATOM     89  C   UNL     1      -5.939  -6.378   3.539  1.00  0.00     0.135 A 
ATOM     90  C   UNL     1      -6.537  -6.478   5.859  1.00  0.00     0.135 A 
ATOM     91  F   UNL     1      -6.181  -6.032   2.267  1.00  0.00    -0.206 F 
ATOM     92  C   UNL     1      -4.661  -6.855   3.838  1.00  0.00     0.059 A 
ATOM     93  C   UNL     1      -5.259  -6.923   6.184  1.00  0.00     0.059 A 
ATOM     94  F   UNL     1      -7.401  -6.261   6.864  1.00  0.00    -0.206 F 
ATOM     95  C   UNL     1      -4.328  -7.116   5.167  1.00  0.00     0.060 A 
BRANCH  95  96
ATOM     96  S   UNL     1      -2.643  -7.631   5.566  1.00  0.00     0.124 S 
ATOM     97  O   UNL     1      -2.598  -8.984   5.022  1.00  0.00    -0.237 OA
ATOM     98  O   UNL     1      -1.835  -6.637   4.866  1.00  0.00    -0.237 OA
ATOM     99  O   UNL     1      -2.596  -7.543   7.024  1.00  0.00    -0.744 OA
ENDBRANCH  95  96
ENDBRANCH  63  88
ENDBRANCH  37  38
ENDBRANCH  30  32
ENDBRANCH  29  30
ENDBRANCH  28  29
ENDBRANCH  27  28
ENDBRANCH   1  27
TORSDOF 20
