REMARK SMILES O=C(OCCOCCOC(=O)[C@@H]1CN(Cc2ccccc2)c2ccccc2O1)c1ccc(-c2c3nc(c(-c4c(F)cc(S(=O)(=O)[O-])cc4F)c4ccc([nH]4)c(-c4c(F)cc(S(=O)(=O)[O-])cc4F)c4nc(c(-c5c(F)cc(S(=O)(=O)[O-])cc5F)c5ccc2[nH]5)C=C4)C=C3)cc1
REMARK SMILES IDX 5 1 4 2 3 3 2 4 1 5 29 6 30 7 94 8 31 9 93 10 32 11 33 12
REMARK SMILES IDX 34 13 87 14 35 15 92 16 86 17 88 18 36 19 91 20 85 21 84 22
REMARK SMILES IDX 37 24 71 25 50 26 70 27 51 28 54 29 69 30 89 31 52 32 53 33
REMARK SMILES IDX 68 35 90 36 55 37 38 38 39 39 48 40 40 41 41 42 47 43 49 44
REMARK SMILES IDX 42 45 43 46 44 47 45 48 46 49 72 50 73 51 82 52 74 53 75 54
REMARK SMILES IDX 81 55 83 56 76 57 77 58 78 59 79 60 80 61 56 62 57 63 66 64
REMARK SMILES IDX 58 65 59 66 65 67 67 68 60 69 61 70 62 71 63 72 64 73 6 74
REMARK SMILES IDX 7 75 8 76 9 77 10 78 11 79 12 80 13 81 28 82 14 83 27 84
REMARK SMILES IDX 22 85 26 86 23 87 25 88 24 89 15 90 16 91 17 92 21 93 18 94
REMARK SMILES IDX 20 95 19 96
REMARK H PARENT 88 23 54 34
REMARK Flexibility Score: inf
ROOT
ATOM      1  C   UNL     1       3.746   1.604  -0.236  1.00  0.00     0.202 C 
ENDROOT
BRANCH   1   2
ATOM      2  C   UNL     1       3.518   0.805  -1.521  1.00  0.00     0.261 C 
BRANCH   2   3
ATOM      3  O   UNL     1       2.175   0.312  -1.588  1.00  0.00    -0.460 OA
BRANCH   3   4
ATOM      4  C   UNL     1       1.735  -0.911  -1.207  1.00  0.00     0.338 C 
ATOM      5  O   UNL     1       0.526  -1.135  -1.236  1.00  0.00    -0.246 OA
BRANCH   4   6
ATOM      6  C   UNL     1       2.643  -2.018  -0.781  1.00  0.00     0.060 A 
ATOM      7  C   UNL     1       3.818  -1.861  -0.039  1.00  0.00     0.016 A 
ATOM      8  C   UNL     1       2.217  -3.322  -1.073  1.00  0.00     0.016 A 
ATOM      9  C   UNL     1       4.577  -2.948   0.365  1.00  0.00     0.010 A 
ATOM     10  C   UNL     1       2.956  -4.426  -0.643  1.00  0.00     0.010 A 
ATOM     11  C   UNL     1       4.146  -4.235   0.069  1.00  0.00    -0.014 A 
BRANCH  11  12
ATOM     12  C   UNL     1       5.023  -5.362   0.423  1.00  0.00     0.031 A 
ATOM     13  C   UNL     1       5.787  -6.028  -0.676  1.00  0.00     0.074 A 
ATOM     14  C   UNL     1       5.189  -5.699   1.714  1.00  0.00     0.049 A 
ATOM     15  N   UNL     1       6.530  -7.098  -0.636  1.00  0.00    -0.248 NA
ATOM     16  C   UNL     1       5.708  -5.395  -2.005  1.00  0.00     0.031 C 
ATOM     17  C   UNL     1       4.577  -5.008   2.854  1.00  0.00     0.029 A 
ATOM     18  N   UNL     1       5.933  -6.693   2.288  1.00  0.00    -0.354 N 
ATOM     19  C   UNL     1       6.976  -7.289  -1.936  1.00  0.00     0.074 A 
ATOM     20  C   UNL     1       6.422  -6.229  -2.745  1.00  0.00     0.031 C 
ATOM     21  C   UNL     1       4.977  -5.599   3.991  1.00  0.00     0.029 A 
ATOM     22  C   UNL     1       5.809  -6.749   3.656  1.00  0.00     0.049 A 
ATOM     23  H   UNL     1       6.502  -7.309   1.772  1.00  0.00     0.167 HD
ATOM     24  C   UNL     1       7.774  -8.277  -2.402  1.00  0.00     0.037 A 
ATOM     25  C   UNL     1       6.280  -7.662   4.525  1.00  0.00     0.037 A 
ATOM     26  C   UNL     1       8.307  -9.312  -1.558  1.00  0.00     0.049 A 
ATOM     27  C   UNL     1       7.085  -8.807   3.969  1.00  0.00     0.074 A 
ATOM     28  C   UNL     1       9.082 -10.400  -1.908  1.00  0.00     0.029 A 
ATOM     29  N   UNL     1       8.114  -9.378  -0.182  1.00  0.00    -0.354 N 
ATOM     30  N   UNL     1       7.448  -9.030   2.725  1.00  0.00    -0.248 NA
ATOM     31  C   UNL     1       7.532  -9.830   4.920  1.00  0.00     0.031 C 
ATOM     32  C   UNL     1       9.319 -11.149  -0.750  1.00  0.00     0.029 A 
ATOM     33  C   UNL     1       8.741 -10.498   0.331  1.00  0.00     0.049 A 
ATOM     34  H   UNL     1       7.605  -8.723   0.348  1.00  0.00     0.167 HD
ATOM     35  C   UNL     1       8.182 -10.209   2.747  1.00  0.00     0.074 A 
ATOM     36  C   UNL     1       8.225 -10.641   4.131  1.00  0.00     0.031 C 
ATOM     37  C   UNL     1       8.765 -10.880   1.722  1.00  0.00     0.037 A 
BRANCH  24  38
ATOM     38  C   UNL     1       8.040  -8.310  -3.879  1.00  0.00     0.058 A 
ATOM     39  C   UNL     1       8.859  -7.362  -4.513  1.00  0.00     0.135 A 
ATOM     40  C   UNL     1       7.440  -9.295  -4.680  1.00  0.00     0.135 A 
ATOM     41  F   UNL     1       9.429  -6.376  -3.802  1.00  0.00    -0.206 F 
ATOM     42  C   UNL     1       9.052  -7.374  -5.892  1.00  0.00     0.059 A 
ATOM     43  C   UNL     1       7.640  -9.343  -6.056  1.00  0.00     0.059 A 
ATOM     44  F   UNL     1       6.633 -10.215  -4.128  1.00  0.00    -0.206 F 
ATOM     45  C   UNL     1       8.436  -8.368  -6.655  1.00  0.00     0.060 A 
BRANCH  45  46
ATOM     46  S   UNL     1       8.688  -8.364  -8.443  1.00  0.00     0.124 S 
ATOM     47  O   UNL     1       7.897  -7.205  -8.845  1.00  0.00    -0.237 OA
ATOM     48  O   UNL     1      10.134  -8.213  -8.553  1.00  0.00    -0.237 OA
ATOM     49  O   UNL     1       8.161  -9.659  -8.864  1.00  0.00    -0.744 OA
ENDBRANCH  45  46
ENDBRANCH  24  38
BRANCH  25  50
ATOM     50  C   UNL     1       5.954  -7.567   5.975  1.00  0.00     0.058 A 
ATOM     51  C   UNL     1       6.951  -7.346   6.936  1.00  0.00     0.135 A 
ATOM     52  C   UNL     1       4.632  -7.702   6.433  1.00  0.00     0.135 A 
ATOM     53  F   UNL     1       8.232  -7.215   6.555  1.00  0.00    -0.206 F 
ATOM     54  C   UNL     1       6.656  -7.282   8.295  1.00  0.00     0.059 A 
ATOM     55  C   UNL     1       4.307  -7.611   7.783  1.00  0.00     0.059 A 
ATOM     56  F   UNL     1       3.634  -7.906   5.559  1.00  0.00    -0.206 F 
ATOM     57  C   UNL     1       5.329  -7.416   8.709  1.00  0.00     0.060 A 
BRANCH  57  58
ATOM     58  S   UNL     1       4.953  -7.309  10.472  1.00  0.00     0.124 S 
ATOM     59  O   UNL     1       5.487  -8.575  10.963  1.00  0.00    -0.237 OA
ATOM     60  O   UNL     1       5.684  -6.110  10.869  1.00  0.00    -0.237 OA
ATOM     61  O   UNL     1       3.498  -7.185  10.499  1.00  0.00    -0.744 OA
ENDBRANCH  57  58
ENDBRANCH  25  50
BRANCH  37  62
ATOM     62  C   UNL     1       9.531 -12.123   2.072  1.00  0.00     0.058 A 
ATOM     63  C   UNL     1       8.880 -13.313   2.432  1.00  0.00     0.135 A 
ATOM     64  C   UNL     1      10.931 -12.136   1.981  1.00  0.00     0.135 A 
ATOM     65  F   UNL     1       7.542 -13.347   2.538  1.00  0.00    -0.206 F 
ATOM     66  C   UNL     1       9.596 -14.471   2.710  1.00  0.00     0.059 A 
ATOM     67  C   UNL     1      11.665 -13.290   2.225  1.00  0.00     0.059 A 
ATOM     68  F   UNL     1      11.597 -11.024   1.628  1.00  0.00    -0.206 F 
ATOM     69  C   UNL     1      10.988 -14.450   2.600  1.00  0.00     0.060 A 
BRANCH  69  70
ATOM     70  S   UNL     1      11.902 -15.972   2.921  1.00  0.00     0.124 S 
ATOM     71  O   UNL     1      11.813 -16.065   4.374  1.00  0.00    -0.237 OA
ATOM     72  O   UNL     1      11.133 -16.961   2.173  1.00  0.00    -0.237 OA
ATOM     73  O   UNL     1      13.232 -15.687   2.390  1.00  0.00    -0.744 OA
ENDBRANCH  69  70
ENDBRANCH  37  62
ENDBRANCH  11  12
ENDBRANCH   4   6
ENDBRANCH   3   4
ENDBRANCH   2   3
ENDBRANCH   1   2
BRANCH   1  74
ATOM     74  O   UNL     1       3.374   0.919   0.964  1.00  0.00    -0.374 OA
BRANCH  74  75
ATOM     75  C   UNL     1       1.979   1.025   1.298  1.00  0.00     0.202 C 
BRANCH  75  76
ATOM     76  C   UNL     1       1.822   1.783   2.608  1.00  0.00     0.261 C 
BRANCH  76  77
ATOM     77  O   UNL     1       2.765   2.866   2.577  1.00  0.00    -0.460 OA
BRANCH  77  78
ATOM     78  C   UNL     1       3.861   2.630   3.358  1.00  0.00     0.349 C 
ATOM     79  O   UNL     1       3.838   1.871   4.318  1.00  0.00    -0.248 OA
BRANCH  78  80
ATOM     80  C   UNL     1       5.070   3.450   2.877  1.00  0.00     0.301 C 
ATOM     81  C   UNL     1       6.252   2.639   2.326  1.00  0.00     0.174 C 
ATOM     82  O   UNL     1       5.550   4.280   3.933  1.00  0.00    -0.475 OA
ATOM     83  N   UNL     1       6.777   1.676   3.306  1.00  0.00    -0.360 N 
ATOM     84  C   UNL     1       6.204   3.514   4.878  1.00  0.00     0.144 A 
ATOM     85  C   UNL     1       6.812   2.255   4.599  1.00  0.00     0.080 A 
ATOM     86  C   UNL     1       6.129   4.045   6.167  1.00  0.00     0.049 A 
ATOM     87  C   UNL     1       7.408   1.615   5.685  1.00  0.00     0.030 A 
ATOM     88  C   UNL     1       6.641   3.322   7.232  1.00  0.00     0.004 A 
ATOM     89  C   UNL     1       7.294   2.117   6.989  1.00  0.00     0.002 A 
BRANCH  83  90
ATOM     90  C   UNL     1       6.293   0.281   3.126  1.00  0.00     0.152 C 
BRANCH  90  91
ATOM     91  C   UNL     1       7.253  -0.847   3.430  1.00  0.00    -0.029 A 
ATOM     92  C   UNL     1       8.152  -1.333   2.468  1.00  0.00     0.005 A 
ATOM     93  C   UNL     1       7.170  -1.517   4.662  1.00  0.00     0.005 A 
ATOM     94  C   UNL     1       8.957  -2.443   2.747  1.00  0.00     0.000 A 
ATOM     95  C   UNL     1       8.003  -2.595   4.955  1.00  0.00     0.000 A 
ATOM     96  C   UNL     1       8.894  -3.062   3.995  1.00  0.00     0.000 A 
ENDBRANCH  90  91
ENDBRANCH  83  90
ENDBRANCH  78  80
ENDBRANCH  77  78
ENDBRANCH  76  77
ENDBRANCH  75  76
ENDBRANCH  74  75
ENDBRANCH   1  74
TORSDOF 19
