REMARK SMILES O=C(OCCOCCOC(=O)c1ccccc1Sc1ccc(S(=O)(=O)N2CCCC2)cc1[N+](=O)[O-])c1ccc(-c2c3nc(c(-c4c(F)cc(S(=O)(=O)[O-])cc4F)c4ccc([nH]4)c(-c4c(F)cc(S(=O)(=O)[O-])cc4F)c4nc(c(-c5c(F)cc(S(=O)(=O)[O-])cc5F)c5ccc2[nH]5)C=C4)C=C3)cc1
REMARK SMILES IDX 7 1 6 2 5 3 4 4 3 5 2 6 1 7 36 8 37 9 101 10 38 11 100 12
REMARK SMILES IDX 39 13 40 14 41 15 94 16 42 17 99 18 93 19 95 20 43 21 98 22
REMARK SMILES IDX 92 23 91 24 44 26 78 27 57 28 77 29 58 30 61 31 76 32 96 33
REMARK SMILES IDX 59 34 60 35 75 37 97 38 62 39 45 40 46 41 55 42 47 43 48 44
REMARK SMILES IDX 54 45 56 46 49 47 50 48 51 49 52 50 53 51 79 52 80 53 89 54
REMARK SMILES IDX 81 55 82 56 88 57 90 58 83 59 84 60 85 61 86 62 87 63 63 64
REMARK SMILES IDX 64 65 73 66 65 67 66 68 72 69 74 70 67 71 68 72 69 73 70 74
REMARK SMILES IDX 71 75 8 76 9 77 10 78 11 79 12 80 13 81 17 82 14 83 16 84
REMARK SMILES IDX 15 85 18 86 19 87 20 88 32 89 21 90 31 91 22 92 33 93 34 94
REMARK SMILES IDX 35 95 23 96 24 97 25 98 26 99 27 100 30 101 28 102 29 103
REMARK H PARENT 95 25 61 36
REMARK Flexibility Score: inf
ROOT
ATOM      1  C   UNL     1       3.608  -0.915  -0.139  1.00  0.00     0.202 C 
ENDROOT
BRANCH   1   2
ATOM      2  O   UNL     1       5.002  -0.734   0.071  1.00  0.00    -0.374 OA
BRANCH   2   3
ATOM      3  C   UNL     1       5.335  -0.563   1.441  1.00  0.00     0.202 C 
BRANCH   3   4
ATOM      4  C   UNL     1       4.990   0.829   1.989  1.00  0.00     0.261 C 
BRANCH   4   5
ATOM      5  O   UNL     1       3.593   1.173   1.858  1.00  0.00    -0.460 OA
BRANCH   5   6
ATOM      6  C   UNL     1       2.943   1.942   0.946  1.00  0.00     0.338 C 
ATOM      7  O   UNL     1       1.796   2.293   1.222  1.00  0.00    -0.246 OA
BRANCH   6   8
ATOM      8  C   UNL     1       3.458   2.266  -0.435  1.00  0.00     0.060 A 
ATOM      9  C   UNL     1       4.721   1.932  -0.939  1.00  0.00     0.016 A 
ATOM     10  C   UNL     1       2.545   2.856  -1.333  1.00  0.00     0.016 A 
ATOM     11  C   UNL     1       5.061   2.128  -2.276  1.00  0.00     0.010 A 
ATOM     12  C   UNL     1       2.905   3.143  -2.657  1.00  0.00     0.010 A 
ATOM     13  C   UNL     1       4.183   2.805  -3.117  1.00  0.00    -0.014 A 
BRANCH  13  14
ATOM     14  C   UNL     1       4.767   3.491  -4.287  1.00  0.00     0.031 A 
ATOM     15  C   UNL     1       5.416   4.809  -4.007  1.00  0.00     0.074 A 
ATOM     16  C   UNL     1       4.805   2.940  -5.510  1.00  0.00     0.049 A 
ATOM     17  N   UNL     1       6.012   5.623  -4.828  1.00  0.00    -0.248 NA
ATOM     18  C   UNL     1       5.430   5.249  -2.599  1.00  0.00     0.031 C 
ATOM     19  C   UNL     1       4.348   1.597  -5.813  1.00  0.00     0.029 A 
ATOM     20  N   UNL     1       5.235   3.415  -6.719  1.00  0.00    -0.354 N 
ATOM     21  C   UNL     1       6.478   6.662  -4.036  1.00  0.00     0.074 A 
ATOM     22  C   UNL     1       6.096   6.385  -2.674  1.00  0.00     0.031 C 
ATOM     23  C   UNL     1       4.447   1.362  -7.129  1.00  0.00     0.029 A 
ATOM     24  C   UNL     1       4.960   2.565  -7.768  1.00  0.00     0.049 A 
ATOM     25  H   UNL     1       5.695   4.279  -6.828  1.00  0.00     0.167 HD
ATOM     26  C   UNL     1       7.152   7.762  -4.431  1.00  0.00     0.037 A 
ATOM     27  C   UNL     1       5.075   2.761  -9.095  1.00  0.00     0.037 A 
ATOM     28  C   UNL     1       7.424   8.038  -5.811  1.00  0.00     0.049 A 
ATOM     29  C   UNL     1       5.685   4.059  -9.538  1.00  0.00     0.074 A 
ATOM     30  C   UNL     1       8.021   9.149  -6.368  1.00  0.00     0.029 A 
ATOM     31  N   UNL     1       7.072   7.193  -6.861  1.00  0.00    -0.354 N 
ATOM     32  N   UNL     1       6.107   5.052  -8.787  1.00  0.00    -0.248 NA
ATOM     33  C   UNL     1       5.858   4.272 -10.977  1.00  0.00     0.031 C 
ATOM     34  C   UNL     1       7.965   9.008  -7.758  1.00  0.00     0.029 A 
ATOM     35  C   UNL     1       7.407   7.773  -8.068  1.00  0.00     0.049 A 
ATOM     36  H   UNL     1       6.646   6.311  -6.757  1.00  0.00     0.167 HD
ATOM     37  C   UNL     1       6.630   5.995  -9.656  1.00  0.00     0.074 A 
ATOM     38  C   UNL     1       6.460   5.456 -10.995  1.00  0.00     0.031 C 
ATOM     39  C   UNL     1       7.214   7.187  -9.375  1.00  0.00     0.037 A 
BRANCH  26  40
ATOM     40  C   UNL     1       7.488   8.756  -3.357  1.00  0.00     0.058 A 
ATOM     41  C   UNL     1       8.421   8.474  -2.344  1.00  0.00     0.135 A 
ATOM     42  C   UNL     1       6.770   9.958  -3.269  1.00  0.00     0.135 A 
ATOM     43  F   UNL     1       9.099   7.314  -2.351  1.00  0.00    -0.206 F 
ATOM     44  C   UNL     1       8.593   9.325  -1.257  1.00  0.00     0.059 A 
ATOM     45  C   UNL     1       6.949  10.839  -2.208  1.00  0.00     0.059 A 
ATOM     46  F   UNL     1       5.847  10.264  -4.194  1.00  0.00    -0.206 F 
ATOM     47  C   UNL     1       7.843  10.501  -1.194  1.00  0.00     0.060 A 
BRANCH  47  48
ATOM     48  S   UNL     1       8.032  11.569   0.249  1.00  0.00     0.124 S 
ATOM     49  O   UNL     1       7.354  10.787   1.279  1.00  0.00    -0.237 OA
ATOM     50  O   UNL     1       9.482  11.663   0.379  1.00  0.00    -0.237 OA
ATOM     51  O   UNL     1       7.358  12.801  -0.149  1.00  0.00    -0.744 OA
ENDBRANCH  47  48
ENDBRANCH  26  40
BRANCH  27  52
ATOM     52  C   UNL     1       4.574   1.728 -10.044  1.00  0.00     0.058 A 
ATOM     53  C   UNL     1       5.440   0.945 -10.819  1.00  0.00     0.135 A 
ATOM     54  C   UNL     1       3.198   1.445 -10.130  1.00  0.00     0.135 A 
ATOM     55  F   UNL     1       6.762   1.171 -10.781  1.00  0.00    -0.206 F 
ATOM     56  C   UNL     1       4.967  -0.087 -11.630  1.00  0.00     0.059 A 
ATOM     57  C   UNL     1       2.702   0.410 -10.918  1.00  0.00     0.059 A 
ATOM     58  F   UNL     1       2.321   2.153  -9.401  1.00  0.00    -0.206 F 
ATOM     59  C   UNL     1       3.596  -0.355 -11.664  1.00  0.00     0.060 A 
BRANCH  59  60
ATOM     60  S   UNL     1       3.004  -1.753 -12.645  1.00  0.00     0.124 S 
ATOM     61  O   UNL     1       3.245  -1.285 -14.005  1.00  0.00    -0.237 OA
ATOM     62  O   UNL     1       3.865  -2.836 -12.179  1.00  0.00    -0.237 OA
ATOM     63  O   UNL     1       1.602  -1.868 -12.256  1.00  0.00    -0.744 OA
ENDBRANCH  59  60
ENDBRANCH  27  52
BRANCH  39  64
ATOM     64  C   UNL     1       7.750   7.973 -10.531  1.00  0.00     0.058 A 
ATOM     65  C   UNL     1       6.904   8.690 -11.388  1.00  0.00     0.135 A 
ATOM     66  C   UNL     1       9.138   8.117 -10.686  1.00  0.00     0.135 A 
ATOM     67  F   UNL     1       5.572   8.572 -11.281  1.00  0.00    -0.206 F 
ATOM     68  C   UNL     1       7.420   9.537 -12.360  1.00  0.00     0.059 A 
ATOM     69  C   UNL     1       9.674   8.981 -11.630  1.00  0.00     0.059 A 
ATOM     70  F   UNL     1       9.981   7.454  -9.878  1.00  0.00    -0.206 F 
ATOM     71  C   UNL     1       8.806   9.688 -12.460  1.00  0.00     0.060 A 
BRANCH  71  72
ATOM     72  S   UNL     1       9.457  10.872 -13.654  1.00  0.00     0.124 S 
ATOM     73  O   UNL     1       9.204  10.185 -14.916  1.00  0.00    -0.237 OA
ATOM     74  O   UNL     1       8.639  12.053 -13.396  1.00  0.00    -0.237 OA
ATOM     75  O   UNL     1      10.863  10.996 -13.277  1.00  0.00    -0.744 OA
ENDBRANCH  71  72
ENDBRANCH  39  64
ENDBRANCH  13  14
ENDBRANCH   6   8
ENDBRANCH   5   6
ENDBRANCH   4   5
ENDBRANCH   3   4
ENDBRANCH   2   3
ENDBRANCH   1   2
BRANCH   1  76
ATOM     76  C   UNL     1       3.385  -2.211  -0.830  1.00  0.00     0.261 C 
BRANCH  76  77
ATOM     77  O   UNL     1       3.668  -3.249   0.084  1.00  0.00    -0.460 OA
BRANCH  77  78
ATOM     78  C   UNL     1       4.767  -3.962  -0.221  1.00  0.00     0.339 C 
ATOM     79  O   UNL     1       5.521  -3.850  -1.160  1.00  0.00    -0.246 OA
BRANCH  78  80
ATOM     80  C   UNL     1       4.974  -4.828   0.922  1.00  0.00     0.074 A 
ATOM     81  C   UNL     1       6.183  -4.573   1.607  1.00  0.00     0.017 A 
ATOM     82  C   UNL     1       4.048  -5.794   1.337  1.00  0.00     0.027 A 
ATOM     83  C   UNL     1       6.512  -5.301   2.738  1.00  0.00     0.001 A 
ATOM     84  C   UNL     1       4.430  -6.526   2.482  1.00  0.00     0.016 A 
ATOM     85  C   UNL     1       5.635  -6.287   3.171  1.00  0.00     0.001 A 
BRANCH  82  86
ATOM     86  S   UNL     1       2.493  -6.342   0.601  1.00  0.00    -0.082 SA
BRANCH  86  87
ATOM     87  C   UNL     1       1.758  -5.178  -0.554  1.00  0.00     0.090 A 
ATOM     88  C   UNL     1       0.699  -4.388  -0.047  1.00  0.00     0.024 A 
ATOM     89  C   UNL     1       2.039  -5.026  -1.933  1.00  0.00     0.284 A 
ATOM     90  C   UNL     1       0.039  -3.420  -0.835  1.00  0.00     0.023 A 
ATOM     91  C   UNL     1       1.352  -4.070  -2.741  1.00  0.00     0.108 A 
ATOM     92  C   UNL     1       0.396  -3.229  -2.177  1.00  0.00     0.089 A 
BRANCH  89  93
ATOM     93  N   UNL     1       3.126  -5.763  -2.594  1.00  0.00     0.063 N 
ATOM     94  O   UNL     1       3.654  -5.219  -3.574  1.00  0.00    -0.258 OA
ATOM     95  O   UNL     1       3.430  -6.883  -2.169  1.00  0.00    -0.258 OA
ENDBRANCH  89  93
BRANCH  92  96
ATOM     96  S   UNL     1      -0.221  -1.756  -3.012  1.00  0.00     0.243 S 
ATOM     97  O   UNL     1      -1.415  -2.169  -3.712  1.00  0.00    -0.207 OA
ATOM     98  O   UNL     1      -0.258  -0.734  -1.984  1.00  0.00    -0.207 OA
BRANCH  96  99
ATOM     99  N   UNL     1       0.917  -1.263  -4.126  1.00  0.00    -0.198 NA
ATOM    100  C   UNL     1       1.074  -1.846  -5.465  1.00  0.00     0.102 C 
ATOM    101  C   UNL     1       2.161  -0.588  -3.772  1.00  0.00     0.102 C 
ATOM    102  C   UNL     1       2.583  -2.044  -5.637  1.00  0.00     0.018 C 
ATOM    103  C   UNL     1       3.216  -1.510  -4.361  1.00  0.00     0.018 C 
ENDBRANCH  96  99
ENDBRANCH  92  96
ENDBRANCH  86  87
ENDBRANCH  82  86
ENDBRANCH  78  80
ENDBRANCH  77  78
ENDBRANCH  76  77
ENDBRANCH   1  76
TORSDOF 22
