REMARK SMILES O=C(OCCOCCOC(=O)c1ccc2nc(Cl)sc2c1)c1ccc(-c2c3nc(c(-c4c(F)cc(S(=O)(=O)[O-])cc4F)c4ccc([nH]4)c(-c4c(F)cc(S(=O)(=O)[O-])cc4F)c4nc(c(-c5c(F)cc(S(=O)(=O)[O-])cc5F)c5ccc2[nH]5)C=C4)C=C3)cc1
REMARK SMILES IDX 4 1 3 2 2 3 1 4 22 5 23 6 87 7 24 8 86 9 25 10 26 11 27 12
REMARK SMILES IDX 80 13 28 14 85 15 79 16 81 17 29 18 84 19 78 20 77 21 30 23
REMARK SMILES IDX 64 24 43 25 63 26 44 27 47 28 62 29 82 30 45 31 46 32 61 34
REMARK SMILES IDX 83 35 48 36 31 37 32 38 41 39 33 40 34 41 40 42 42 43 35 44
REMARK SMILES IDX 36 45 37 46 38 47 39 48 65 49 66 50 75 51 67 52 68 53 74 54
REMARK SMILES IDX 76 55 69 56 70 57 71 58 72 59 73 60 49 61 50 62 59 63 51 64
REMARK SMILES IDX 52 65 58 66 60 67 53 68 54 69 55 70 56 71 57 72 5 73 6 74
REMARK SMILES IDX 7 75 8 76 9 77 10 78 11 79 12 80 13 81 21 82 14 83 20 84
REMARK SMILES IDX 15 85 19 86 16 87 17 88 18 89
REMARK H PARENT 81 22 47 33
REMARK Flexibility Score: inf
ROOT
ATOM      1  C   UNL     1       4.320  -0.128  -0.593  1.00  0.00     0.261 C 
ENDROOT
BRANCH   1   2
ATOM      2  O   UNL     1       2.928  -0.492  -0.527  1.00  0.00    -0.460 OA
BRANCH   2   3
ATOM      3  C   UNL     1       2.502  -1.693  -0.049  1.00  0.00     0.338 C 
ATOM      4  O   UNL     1       1.680  -2.357  -0.671  1.00  0.00    -0.246 OA
BRANCH   3   5
ATOM      5  C   UNL     1       2.790  -2.016   1.379  1.00  0.00     0.060 A 
ATOM      6  C   UNL     1       1.743  -2.510   2.172  1.00  0.00     0.016 A 
ATOM      7  C   UNL     1       4.031  -1.833   1.974  1.00  0.00     0.016 A 
ATOM      8  C   UNL     1       1.933  -2.742   3.544  1.00  0.00     0.010 A 
ATOM      9  C   UNL     1       4.196  -1.984   3.345  1.00  0.00     0.010 A 
ATOM     10  C   UNL     1       3.162  -2.449   4.157  1.00  0.00    -0.014 A 
BRANCH  10  11
ATOM     11  C   UNL     1       3.432  -2.784   5.580  1.00  0.00     0.031 A 
ATOM     12  C   UNL     1       4.877  -2.682   6.015  1.00  0.00     0.074 A 
ATOM     13  C   UNL     1       2.509  -2.572   6.540  1.00  0.00     0.049 A 
ATOM     14  N   UNL     1       5.473  -1.578   6.371  1.00  0.00    -0.248 NA
ATOM     15  C   UNL     1       5.806  -3.785   5.746  1.00  0.00     0.031 C 
ATOM     16  C   UNL     1       1.762  -1.320   6.691  1.00  0.00     0.029 A 
ATOM     17  N   UNL     1       2.278  -3.261   7.710  1.00  0.00    -0.354 N 
ATOM     18  C   UNL     1       6.842  -1.818   6.347  1.00  0.00     0.074 A 
ATOM     19  C   UNL     1       6.996  -3.198   5.941  1.00  0.00     0.031 C 
ATOM     20  C   UNL     1       1.280  -1.259   7.949  1.00  0.00     0.029 A 
ATOM     21  C   UNL     1       1.592  -2.502   8.654  1.00  0.00     0.049 A 
ATOM     22  H   UNL     1       2.567  -4.189   7.862  1.00  0.00     0.167 HD
ATOM     23  C   UNL     1       7.791  -0.890   6.652  1.00  0.00     0.037 A 
ATOM     24  C   UNL     1       1.757  -2.631  10.001  1.00  0.00     0.037 A 
ATOM     25  C   UNL     1       7.302   0.379   7.098  1.00  0.00     0.049 A 
ATOM     26  C   UNL     1       3.008  -1.811  10.202  1.00  0.00     0.074 A 
ATOM     27  C   UNL     1       7.068   1.632   6.576  1.00  0.00     0.029 A 
ATOM     28  N   UNL     1       6.909   0.475   8.412  1.00  0.00    -0.354 N 
ATOM     29  N   UNL     1       3.077  -0.507  10.263  1.00  0.00    -0.248 NA
ATOM     30  C   UNL     1       4.289  -2.476   9.948  1.00  0.00     0.031 C 
ATOM     31  C   UNL     1       6.123   2.242   7.462  1.00  0.00     0.029 A 
ATOM     32  C   UNL     1       5.814   1.297   8.440  1.00  0.00     0.049 A 
ATOM     33  H   UNL     1       7.334   0.036   9.185  1.00  0.00     0.167 HD
ATOM     34  C   UNL     1       4.343  -0.181   9.771  1.00  0.00     0.074 A 
ATOM     35  C   UNL     1       5.055  -1.437   9.646  1.00  0.00     0.031 C 
ATOM     36  C   UNL     1       4.677   1.055   9.299  1.00  0.00     0.037 A 
BRANCH  23  37
ATOM     37  C   UNL     1       9.242  -1.172   6.762  1.00  0.00     0.058 A 
ATOM     38  C   UNL     1       9.776  -1.385   8.042  1.00  0.00     0.135 A 
ATOM     39  C   UNL     1      10.134  -1.028   5.693  1.00  0.00     0.135 A 
ATOM     40  F   UNL     1       8.953  -1.519   9.097  1.00  0.00    -0.206 F 
ATOM     41  C   UNL     1      11.145  -1.408   8.270  1.00  0.00     0.059 A 
ATOM     42  C   UNL     1      11.516  -1.056   5.896  1.00  0.00     0.059 A 
ATOM     43  F   UNL     1       9.675  -0.815   4.449  1.00  0.00    -0.206 F 
ATOM     44  C   UNL     1      12.009  -1.223   7.192  1.00  0.00     0.060 A 
BRANCH  44  45
ATOM     45  S   UNL     1      13.783  -1.171   7.534  1.00  0.00     0.124 S 
ATOM     46  O   UNL     1      13.890   0.003   8.394  1.00  0.00    -0.237 OA
ATOM     47  O   UNL     1      14.001  -2.458   8.186  1.00  0.00    -0.237 OA
ATOM     48  O   UNL     1      14.381  -1.034   6.210  1.00  0.00    -0.744 OA
ENDBRANCH  44  45
ENDBRANCH  23  37
BRANCH  24  49
ATOM     49  C   UNL     1       1.553  -4.010  10.553  1.00  0.00     0.058 A 
ATOM     50  C   UNL     1       0.359  -4.684  10.214  1.00  0.00     0.135 A 
ATOM     51  C   UNL     1       2.449  -4.720  11.365  1.00  0.00     0.135 A 
ATOM     52  F   UNL     1      -0.618  -4.040   9.554  1.00  0.00    -0.206 F 
ATOM     53  C   UNL     1       0.147  -6.027  10.511  1.00  0.00     0.059 A 
ATOM     54  C   UNL     1       2.273  -6.075  11.657  1.00  0.00     0.059 A 
ATOM     55  F   UNL     1       3.539  -4.131  11.876  1.00  0.00    -0.206 F 
ATOM     56  C   UNL     1       1.137  -6.730  11.188  1.00  0.00     0.060 A 
BRANCH  56  57
ATOM     57  S   UNL     1       0.946  -8.514  11.373  1.00  0.00     0.124 S 
ATOM     58  O   UNL     1      -0.268  -8.609  12.176  1.00  0.00    -0.237 OA
ATOM     59  O   UNL     1       0.823  -8.942   9.982  1.00  0.00    -0.237 OA
ATOM     60  O   UNL     1       2.178  -8.920  12.041  1.00  0.00    -0.744 OA
ENDBRANCH  56  57
ENDBRANCH  24  49
BRANCH  36  61
ATOM     61  C   UNL     1       3.660   2.127   9.488  1.00  0.00     0.058 A 
ATOM     62  C   UNL     1       3.443   2.678  10.757  1.00  0.00     0.135 A 
ATOM     63  C   UNL     1       2.950   2.669   8.403  1.00  0.00     0.135 A 
ATOM     64  F   UNL     1       4.100   2.200  11.826  1.00  0.00    -0.206 F 
ATOM     65  C   UNL     1       2.586   3.758  10.938  1.00  0.00     0.059 A 
ATOM     66  C   UNL     1       2.108   3.765   8.558  1.00  0.00     0.059 A 
ATOM     67  F   UNL     1       3.094   2.165   7.166  1.00  0.00    -0.206 F 
ATOM     68  C   UNL     1       1.940   4.309   9.830  1.00  0.00     0.060 A 
BRANCH  68  69
ATOM     69  S   UNL     1       0.944   5.795  10.063  1.00  0.00     0.124 S 
ATOM     70  O   UNL     1      -0.185   5.289  10.836  1.00  0.00    -0.237 OA
ATOM     71  O   UNL     1       1.863   6.674  10.782  1.00  0.00    -0.237 OA
ATOM     72  O   UNL     1       0.630   6.216   8.699  1.00  0.00    -0.744 OA
ENDBRANCH  68  69
ENDBRANCH  36  61
ENDBRANCH  10  11
ENDBRANCH   3   5
ENDBRANCH   2   3
ENDBRANCH   1   2
BRANCH   1  73
ATOM     73  C   UNL     1       4.620   1.112   0.257  1.00  0.00     0.202 C 
BRANCH  73  74
ATOM     74  O   UNL     1       4.313   0.962   1.639  1.00  0.00    -0.374 OA
BRANCH  74  75
ATOM     75  C   UNL     1       2.991   1.363   2.019  1.00  0.00     0.202 C 
BRANCH  75  76
ATOM     76  C   UNL     1       2.966   2.739   2.686  1.00  0.00     0.261 C 
BRANCH  76  77
ATOM     77  O   UNL     1       3.356   3.759   1.751  1.00  0.00    -0.460 OA
BRANCH  77  78
ATOM     78  C   UNL     1       4.674   4.065   1.757  1.00  0.00     0.338 C 
ATOM     79  O   UNL     1       5.553   3.640   2.486  1.00  0.00    -0.246 OA
BRANCH  78  80
ATOM     80  C   UNL     1       4.953   4.890   0.570  1.00  0.00     0.061 A 
ATOM     81  C   UNL     1       4.197   6.027   0.294  1.00  0.00     0.018 A 
ATOM     82  C   UNL     1       5.998   4.480  -0.270  1.00  0.00     0.037 A 
ATOM     83  C   UNL     1       4.476   6.787  -0.847  1.00  0.00     0.031 A 
ATOM     84  C   UNL     1       6.245   5.238  -1.422  1.00  0.00     0.057 A 
ATOM     85  C   UNL     1       5.506   6.389  -1.726  1.00  0.00     0.083 A 
ATOM     86  S   UNL     1       7.416   4.978  -2.661  1.00  0.00    -0.102 S 
ATOM     87  N   UNL     1       5.876   7.038  -2.892  1.00  0.00    -0.225 NA
ATOM     88  C   UNL     1       6.866   6.380  -3.438  1.00  0.00     0.184 A 
ATOM     89  Cl  UNL     1       7.606   6.888  -4.901  1.00  0.00    -0.050 Cl
ENDBRANCH  78  80
ENDBRANCH  77  78
ENDBRANCH  76  77
ENDBRANCH  75  76
ENDBRANCH  74  75
ENDBRANCH  73  74
ENDBRANCH   1  73
TORSDOF 17
