REMARK SMILES O=C(OCCOCCOC(=O)[C@@H]1CC[C@@H](CNC(=O)c2cc(Cl)ccc2Cl)O1)c1ccc(-c2c3nc(c(-c4c(F)cc(S(=O)(=O)[O-])cc4F)c4ccc([nH]4)c(-c4c(F)cc(S(=O)(=O)[O-])cc4F)c4nc(c(-c5c(F)cc(S(=O)(=O)[O-])cc5F)c5ccc2[nH]5)C=C4)C=C3)cc1
REMARK SMILES IDX 6 1 5 2 4 3 3 4 2 5 1 6 29 7 30 8 94 9 31 10 93 11 32 12
REMARK SMILES IDX 33 13 34 14 87 15 35 16 92 17 86 18 88 19 36 20 91 21 85 22
REMARK SMILES IDX 84 23 37 25 71 26 50 27 70 28 51 29 54 30 69 31 89 32 52 33
REMARK SMILES IDX 53 34 68 36 90 37 55 38 38 39 39 40 48 41 40 42 41 43 47 44
REMARK SMILES IDX 49 45 42 46 43 47 44 48 45 49 46 50 72 51 73 52 82 53 74 54
REMARK SMILES IDX 75 55 81 56 83 57 76 58 77 59 78 60 79 61 80 62 56 63 57 64
REMARK SMILES IDX 66 65 58 66 59 67 65 68 67 69 60 70 61 71 62 72 63 73 64 74
REMARK SMILES IDX 7 75 8 76 9 77 10 78 11 79 12 80 13 81 28 82 14 83 15 84
REMARK SMILES IDX 16 85 17 86 18 87 19 89 20 90 21 91 26 92 22 93 25 94 27 95
REMARK SMILES IDX 23 96 24 97
REMARK H PARENT 88 24 54 35 17 88
REMARK Flexibility Score: inf
ROOT
ATOM      1  O   UNL     1       4.141   1.719  -0.175  1.00  0.00    -0.374 OA
ENDROOT
BRANCH   1   2
ATOM      2  C   UNL     1       4.551   0.894  -1.270  1.00  0.00     0.202 C 
BRANCH   2   3
ATOM      3  C   UNL     1       4.203  -0.601  -1.216  1.00  0.00     0.261 C 
BRANCH   3   4
ATOM      4  O   UNL     1       2.799  -0.805  -0.981  1.00  0.00    -0.460 OA
BRANCH   4   5
ATOM      5  C   UNL     1       2.199  -1.136   0.189  1.00  0.00     0.338 C 
ATOM      6  O   UNL     1       0.986  -1.333   0.201  1.00  0.00    -0.246 OA
BRANCH   5   7
ATOM      7  C   UNL     1       2.950  -1.258   1.472  1.00  0.00     0.060 A 
ATOM      8  C   UNL     1       4.139  -0.584   1.746  1.00  0.00     0.016 A 
ATOM      9  C   UNL     1       2.386  -2.037   2.494  1.00  0.00     0.016 A 
ATOM     10  C   UNL     1       4.802  -0.725   2.942  1.00  0.00     0.010 A 
ATOM     11  C   UNL     1       3.021  -2.146   3.736  1.00  0.00     0.010 A 
ATOM     12  C   UNL     1       4.240  -1.494   3.948  1.00  0.00    -0.014 A 
BRANCH  12  13
ATOM     13  C   UNL     1       5.062  -1.664   5.149  1.00  0.00     0.031 A 
ATOM     14  C   UNL     1       5.811  -2.947   5.303  1.00  0.00     0.074 A 
ATOM     15  C   UNL     1       5.290  -0.592   5.931  1.00  0.00     0.049 A 
ATOM     16  N   UNL     1       6.605  -3.326   6.262  1.00  0.00    -0.248 NA
ATOM     17  C   UNL     1       5.665  -3.930   4.213  1.00  0.00     0.031 C 
ATOM     18  C   UNL     1       4.718   0.744   5.718  1.00  0.00     0.029 A 
ATOM     19  N   UNL     1       6.094  -0.435   7.023  1.00  0.00    -0.354 N 
ATOM     20  C   UNL     1       7.037  -4.596   5.906  1.00  0.00     0.074 A 
ATOM     21  C   UNL     1       6.410  -4.933   4.649  1.00  0.00     0.031 C 
ATOM     22  C   UNL     1       5.205   1.585   6.643  1.00  0.00     0.029 A 
ATOM     23  C   UNL     1       6.054   0.832   7.556  1.00  0.00     0.049 A 
ATOM     24  H   UNL     1       6.649  -1.159   7.394  1.00  0.00     0.167 HD
ATOM     25  C   UNL     1       7.884  -5.399   6.585  1.00  0.00     0.037 A 
ATOM     26  C   UNL     1       6.609   1.302   8.687  1.00  0.00     0.037 A 
ATOM     27  C   UNL     1       8.476  -5.016   7.837  1.00  0.00     0.049 A 
ATOM     28  C   UNL     1       7.435   0.339   9.496  1.00  0.00     0.074 A 
ATOM     29  C   UNL     1       9.266  -5.763   8.688  1.00  0.00     0.029 A 
ATOM     30  N   UNL     1       8.336  -3.758   8.414  1.00  0.00    -0.354 N 
ATOM     31  N   UNL     1       7.759  -0.904   9.215  1.00  0.00    -0.248 NA
ATOM     32  C   UNL     1       7.960   0.825  10.775  1.00  0.00     0.031 C 
ATOM     33  C   UNL     1       9.566  -4.971   9.801  1.00  0.00     0.029 A 
ATOM     34  C   UNL     1       9.014  -3.710   9.617  1.00  0.00     0.049 A 
ATOM     35  H   UNL     1       7.828  -3.011   8.023  1.00  0.00     0.167 HD
ATOM     36  C   UNL     1       8.543  -1.343  10.273  1.00  0.00     0.074 A 
ATOM     37  C   UNL     1       8.661  -0.222  11.187  1.00  0.00     0.031 C 
ATOM     38  C   UNL     1       9.110  -2.558  10.481  1.00  0.00     0.037 A 
BRANCH  25  39
ATOM     39  C   UNL     1       8.139  -6.766   6.018  1.00  0.00     0.058 A 
ATOM     40  C   UNL     1       8.901  -6.960   4.855  1.00  0.00     0.135 A 
ATOM     41  C   UNL     1       7.577  -7.898   6.629  1.00  0.00     0.135 A 
ATOM     42  F   UNL     1       9.426  -5.909   4.206  1.00  0.00    -0.206 F 
ATOM     43  C   UNL     1       9.081  -8.227   4.307  1.00  0.00     0.059 A 
ATOM     44  C   UNL     1       7.766  -9.177   6.114  1.00  0.00     0.059 A 
ATOM     45  F   UNL     1       6.821  -7.766   7.730  1.00  0.00    -0.206 F 
ATOM     46  C   UNL     1       8.509  -9.330   4.945  1.00  0.00     0.060 A 
BRANCH  46  47
ATOM     47  S   UNL     1       8.750 -10.966   4.221  1.00  0.00     0.124 S 
ATOM     48  O   UNL     1       7.922 -10.880   3.022  1.00  0.00    -0.237 OA
ATOM     49  O   UNL     1      10.191 -10.995   3.994  1.00  0.00    -0.237 OA
ATOM     50  O   UNL     1       8.262 -11.872   5.256  1.00  0.00    -0.744 OA
ENDBRANCH  46  47
ENDBRANCH  25  39
BRANCH  26  51
ATOM     51  C   UNL     1       6.335   2.690   9.152  1.00  0.00     0.058 A 
ATOM     52  C   UNL     1       7.360   3.634   9.307  1.00  0.00     0.135 A 
ATOM     53  C   UNL     1       5.029   3.095   9.485  1.00  0.00     0.135 A 
ATOM     54  F   UNL     1       8.626   3.304   9.007  1.00  0.00    -0.206 F 
ATOM     55  C   UNL     1       7.111   4.911   9.806  1.00  0.00     0.059 A 
ATOM     56  C   UNL     1       4.750   4.375   9.952  1.00  0.00     0.059 A 
ATOM     57  F   UNL     1       4.003   2.241   9.348  1.00  0.00    -0.206 F 
ATOM     58  C   UNL     1       5.801   5.270  10.131  1.00  0.00     0.060 A 
BRANCH  58  59
ATOM     59  S   UNL     1       5.487   6.922  10.787  1.00  0.00     0.124 S 
ATOM     60  O   UNL     1       6.058   6.819  12.125  1.00  0.00    -0.237 OA
ATOM     61  O   UNL     1       6.212   7.770   9.847  1.00  0.00    -0.237 OA
ATOM     62  O   UNL     1       4.032   7.036  10.730  1.00  0.00    -0.744 OA
ENDBRANCH  58  59
ENDBRANCH  26  51
BRANCH  38  63
ATOM     63  C   UNL     1       9.943  -2.708  11.720  1.00  0.00     0.058 A 
ATOM     64  C   UNL     1       9.363  -2.777  12.995  1.00  0.00     0.135 A 
ATOM     65  C   UNL     1      11.337  -2.839  11.617  1.00  0.00     0.135 A 
ATOM     66  F   UNL     1       8.034  -2.649  13.142  1.00  0.00    -0.206 F 
ATOM     67  C   UNL     1      10.141  -2.945  14.133  1.00  0.00     0.059 A 
ATOM     68  C   UNL     1      12.131  -3.042  12.738  1.00  0.00     0.059 A 
ATOM     69  F   UNL     1      11.935  -2.792  10.416  1.00  0.00    -0.206 F 
ATOM     70  C   UNL     1      11.524  -3.081  13.993  1.00  0.00     0.060 A 
BRANCH  70  71
ATOM     71  S   UNL     1      12.519  -3.337  15.474  1.00  0.00     0.124 S 
ATOM     72  O   UNL     1      12.491  -2.010  16.079  1.00  0.00    -0.237 OA
ATOM     73  O   UNL     1      11.767  -4.371  16.179  1.00  0.00    -0.237 OA
ATOM     74  O   UNL     1      13.812  -3.761  14.946  1.00  0.00    -0.744 OA
ENDBRANCH  70  71
ENDBRANCH  38  63
ENDBRANCH  12  13
ENDBRANCH   5   7
ENDBRANCH   4   5
ENDBRANCH   3   4
ENDBRANCH   2   3
ENDBRANCH   1   2
BRANCH   1  75
ATOM     75  C   UNL     1       2.745   2.036  -0.100  1.00  0.00     0.202 C 
BRANCH  75  76
ATOM     76  C   UNL     1       2.556   3.544   0.077  1.00  0.00     0.261 C 
BRANCH  76  77
ATOM     77  O   UNL     1       2.938   4.173  -1.152  1.00  0.00    -0.461 OA
BRANCH  77  78
ATOM     78  C   UNL     1       4.273   4.418  -1.260  1.00  0.00     0.335 C 
ATOM     79  O   UNL     1       5.024   4.715  -0.337  1.00  0.00    -0.249 OA
BRANCH  78  80
ATOM     80  C   UNL     1       4.723   4.246  -2.704  1.00  0.00     0.228 C 
ATOM     81  C   UNL     1       4.434   5.474  -3.533  1.00  0.00     0.047 C 
ATOM     82  O   UNL     1       4.068   3.154  -3.369  1.00  0.00    -0.361 OA
ATOM     83  C   UNL     1       4.307   4.898  -4.923  1.00  0.00     0.037 C 
ATOM     84  C   UNL     1       3.647   3.550  -4.680  1.00  0.00     0.138 C 
BRANCH  84  85
ATOM     85  C   UNL     1       4.086   2.462  -5.672  1.00  0.00     0.148 C 
BRANCH  85  86
ATOM     86  N   UNL     1       2.981   1.709  -6.259  1.00  0.00    -0.349 N 
ATOM     87  C   UNL     1       2.304   1.898  -7.437  1.00  0.00     0.252 C 
ATOM     88  H   UNL     1       2.672   0.943  -5.723  1.00  0.00     0.163 HD
ATOM     89  O   UNL     1       1.422   1.118  -7.782  1.00  0.00    -0.269 OA
BRANCH  87  90
ATOM     90  C   UNL     1       2.646   3.037  -8.310  1.00  0.00     0.059 A 
ATOM     91  C   UNL     1       3.941   3.120  -8.841  1.00  0.00     0.036 A 
ATOM     92  C   UNL     1       1.687   3.999  -8.652  1.00  0.00     0.053 A 
ATOM     93  C   UNL     1       4.296   4.209  -9.631  1.00  0.00     0.041 A 
ATOM     94  C   UNL     1       2.046   5.070  -9.478  1.00  0.00     0.023 A 
ATOM     95  Cl  UNL     1       0.064   3.960  -8.065  1.00  0.00    -0.083 Cl
ATOM     96  Cl  UNL     1       5.912   4.362 -10.195  1.00  0.00    -0.084 Cl
ATOM     97  C   UNL     1       3.355   5.185  -9.952  1.00  0.00     0.022 A 
ENDBRANCH  87  90
ENDBRANCH  85  86
ENDBRANCH  84  85
ENDBRANCH  78  80
ENDBRANCH  77  78
ENDBRANCH  76  77
ENDBRANCH  75  76
ENDBRANCH   1  75
TORSDOF 20
