REMARK SMILES O=C(CSc1ccnc(C(=O)OCCOCCOC(=O)c2ccc(-c3c4nc(c(-c5c(F)cc(S(=O)(=O)[O-])cc5F)c5ccc([nH]5)c(-c5c(F)cc(S(=O)(=O)[O-])cc5F)c5nc(c(-c6c(F)cc(S(=O)(=O)[O-])cc6F)c6ccc3[nH]6)C=C5)C=C4)cc2)c1)NCC(F)(F)F
REMARK SMILES IDX 14 1 13 2 12 3 10 4 11 5 9 6 5 7 6 8 87 9 7 10 8 11 4 12
REMARK SMILES IDX 3 13 2 14 1 15 88 16 89 18 90 19 91 20 92 21 93 22 15 23
REMARK SMILES IDX 16 24 17 25 18 26 19 27 20 28 21 29 22 30 86 31 23 32 85 33
REMARK SMILES IDX 24 34 25 35 26 36 79 37 27 38 84 39 78 40 80 41 28 42 83 43
REMARK SMILES IDX 77 44 76 45 29 47 63 48 42 49 62 50 43 51 46 52 61 53 81 54
REMARK SMILES IDX 44 55 45 56 60 58 82 59 47 60 30 61 31 62 40 63 32 64 33 65
REMARK SMILES IDX 39 66 41 67 34 68 35 69 36 70 37 71 38 72 64 73 65 74 74 75
REMARK SMILES IDX 66 76 67 77 73 78 75 79 68 80 69 81 70 82 71 83 72 84 48 85
REMARK SMILES IDX 49 86 58 87 50 88 51 89 57 90 59 91 52 92 53 93 54 94 55 95
REMARK SMILES IDX 56 96
REMARK H PARENT 88 17 80 46 46 57
REMARK Flexibility Score: inf
ROOT
ATOM      1  C   UNL     1      -1.839   3.076   3.754  1.00  0.00     0.202 C 
ENDROOT
BRANCH   1   2
ATOM      2  C   UNL     1      -2.119   3.082   2.248  1.00  0.00     0.261 C 
BRANCH   2   3
ATOM      3  O   UNL     1      -0.886   3.111   1.508  1.00  0.00    -0.459 OA
BRANCH   3   4
ATOM      4  C   UNL     1      -0.667   4.228   0.765  1.00  0.00     0.357 C 
ATOM      5  O   UNL     1      -1.475   5.117   0.545  1.00  0.00    -0.244 OA
BRANCH   4   6
ATOM      6  C   UNL     1       0.775   4.285   0.362  1.00  0.00     0.149 A 
ATOM      7  C   UNL     1       2.880   3.268  -0.160  1.00  0.00     0.012 A 
ATOM      8  C   UNL     1       3.421   4.553  -0.252  1.00  0.00     0.035 A 
ATOM      9  C   UNL     1       1.531   3.131   0.169  1.00  0.00     0.051 A 
ATOM     10  C   UNL     1       2.597   5.642  -0.042  1.00  0.00     0.113 A 
ATOM     11  N   UNL     1       1.291   5.537   0.257  1.00  0.00    -0.249 NA
BRANCH   7  12
ATOM     12  S   UNL     1       4.020   1.913  -0.415  1.00  0.00    -0.116 SA
BRANCH  12  13
ATOM     13  C   UNL     1       2.966   0.604  -1.135  1.00  0.00     0.174 C 
BRANCH  13  14
ATOM     14  C   UNL     1       2.174  -0.135  -0.071  1.00  0.00     0.230 C 
ATOM     15  O   UNL     1       0.991  -0.418  -0.229  1.00  0.00    -0.274 OA
ATOM     16  N   UNL     1       2.877  -0.477   1.059  1.00  0.00    -0.346 N 
ATOM     17  H   UNL     1       3.815  -0.189   1.141  1.00  0.00     0.163 HD
BRANCH  16  18
ATOM     18  C   UNL     1       2.280  -1.255   2.145  1.00  0.00     0.231 C 
BRANCH  18  19
ATOM     19  C   UNL     1       2.748  -2.708   2.195  1.00  0.00     0.405 C 
ATOM     20  F   UNL     1       4.093  -2.750   2.367  1.00  0.00    -0.169 F 
ATOM     21  F   UNL     1       2.190  -3.362   3.233  1.00  0.00    -0.169 F 
ATOM     22  F   UNL     1       2.458  -3.376   1.062  1.00  0.00    -0.169 F 
ENDBRANCH  18  19
ENDBRANCH  16  18
ENDBRANCH  13  14
ENDBRANCH  12  13
ENDBRANCH   7  12
ENDBRANCH   4   6
ENDBRANCH   3   4
ENDBRANCH   2   3
ENDBRANCH   1   2
BRANCH   1  23
ATOM     23  O   UNL     1      -1.243   4.271   4.266  1.00  0.00    -0.374 OA
BRANCH  23  24
ATOM     24  C   UNL     1       0.176   4.375   4.145  1.00  0.00     0.202 C 
BRANCH  24  25
ATOM     25  C   UNL     1       0.983   3.678   5.248  1.00  0.00     0.261 C 
BRANCH  25  26
ATOM     26  O   UNL     1       0.850   2.245   5.189  1.00  0.00    -0.460 OA
BRANCH  26  27
ATOM     27  C   UNL     1       0.095   1.701   6.173  1.00  0.00     0.338 C 
ATOM     28  O   UNL     1      -0.402   2.278   7.130  1.00  0.00    -0.246 OA
BRANCH  27  29
ATOM     29  C   UNL     1      -0.200   0.293   5.850  1.00  0.00     0.060 A 
ATOM     30  C   UNL     1      -1.541  -0.109   5.832  1.00  0.00     0.016 A 
ATOM     31  C   UNL     1       0.821  -0.634   5.630  1.00  0.00     0.016 A 
ATOM     32  C   UNL     1      -1.866  -1.449   5.618  1.00  0.00     0.010 A 
ATOM     33  C   UNL     1       0.490  -1.977   5.424  1.00  0.00     0.010 A 
ATOM     34  C   UNL     1      -0.852  -2.399   5.436  1.00  0.00    -0.014 A 
BRANCH  34  35
ATOM     35  C   UNL     1      -1.184  -3.847   5.391  1.00  0.00     0.031 A 
ATOM     36  C   UNL     1      -0.883  -4.706   6.591  1.00  0.00     0.074 A 
ATOM     37  C   UNL     1      -1.755  -4.393   4.301  1.00  0.00     0.049 A 
ATOM     38  N   UNL     1      -1.044  -5.993   6.753  1.00  0.00    -0.248 NA
ATOM     39  C   UNL     1      -0.315  -4.020   7.763  1.00  0.00     0.031 C 
ATOM     40  C   UNL     1      -2.112  -3.670   3.080  1.00  0.00     0.029 A 
ATOM     41  N   UNL     1      -2.127  -5.689   4.043  1.00  0.00    -0.354 N 
ATOM     42  C   UNL     1      -0.587  -6.275   8.035  1.00  0.00     0.074 A 
ATOM     43  C   UNL     1      -0.109  -5.030   8.596  1.00  0.00     0.031 C 
ATOM     44  C   UNL     1      -2.650  -4.534   2.202  1.00  0.00     0.029 A 
ATOM     45  C   UNL     1      -2.648  -5.876   2.784  1.00  0.00     0.049 A 
ATOM     46  H   UNL     1      -2.031  -6.418   4.698  1.00  0.00     0.167 HD
ATOM     47  C   UNL     1      -0.578  -7.460   8.691  1.00  0.00     0.037 A 
ATOM     48  C   UNL     1      -3.059  -7.001   2.164  1.00  0.00     0.037 A 
ATOM     49  C   UNL     1      -1.068  -8.695   8.139  1.00  0.00     0.049 A 
ATOM     50  C   UNL     1      -2.998  -8.316   2.899  1.00  0.00     0.074 A 
ATOM     51  C   UNL     1      -1.134  -9.940   8.741  1.00  0.00     0.029 A 
ATOM     52  N   UNL     1      -1.571  -8.845   6.856  1.00  0.00    -0.354 N 
ATOM     53  N   UNL     1      -2.594  -8.560   4.123  1.00  0.00    -0.248 NA
ATOM     54  C   UNL     1      -3.449  -9.509   2.168  1.00  0.00     0.031 C 
ATOM     55  C   UNL     1      -1.637 -10.851   7.806  1.00  0.00     0.029 A 
ATOM     56  C   UNL     1      -1.928 -10.165   6.638  1.00  0.00     0.049 A 
ATOM     57  H   UNL     1      -1.662  -8.119   6.197  1.00  0.00     0.167 HD
ATOM     58  C   UNL     1      -2.763  -9.928   4.315  1.00  0.00     0.074 A 
ATOM     59  C   UNL     1      -3.317 -10.457   3.087  1.00  0.00     0.031 C 
ATOM     60  C   UNL     1      -2.484 -10.678   5.410  1.00  0.00     0.037 A 
BRANCH  47  61
ATOM     61  C   UNL     1      -0.003  -7.477  10.081  1.00  0.00     0.058 A 
ATOM     62  C   UNL     1      -0.676  -6.893  11.166  1.00  0.00     0.135 A 
ATOM     63  C   UNL     1       1.227  -8.105  10.335  1.00  0.00     0.135 A 
ATOM     64  F   UNL     1      -1.847  -6.264  10.975  1.00  0.00    -0.206 F 
ATOM     65  C   UNL     1      -0.136  -6.904  12.447  1.00  0.00     0.059 A 
ATOM     66  C   UNL     1       1.774  -8.151  11.614  1.00  0.00     0.059 A 
ATOM     67  F   UNL     1       1.913  -8.678   9.333  1.00  0.00    -0.206 F 
ATOM     68  C   UNL     1       1.091  -7.533  12.661  1.00  0.00     0.060 A 
BRANCH  68  69
ATOM     69  S   UNL     1       1.783  -7.534  14.328  1.00  0.00     0.124 S 
ATOM     70  O   UNL     1       2.229  -6.150  14.458  1.00  0.00    -0.237 OA
ATOM     71  O   UNL     1       0.632  -7.907  15.145  1.00  0.00    -0.237 OA
ATOM     72  O   UNL     1       2.846  -8.532  14.255  1.00  0.00    -0.744 OA
ENDBRANCH  68  69
ENDBRANCH  47  61
BRANCH  48  73
ATOM     73  C   UNL     1      -3.562  -6.939   0.766  1.00  0.00     0.058 A 
ATOM     74  C   UNL     1      -4.918  -7.148   0.473  1.00  0.00     0.135 A 
ATOM     75  C   UNL     1      -2.696  -6.674  -0.307  1.00  0.00     0.135 A 
ATOM     76  F   UNL     1      -5.783  -7.419   1.462  1.00  0.00    -0.206 F 
ATOM     77  C   UNL     1      -5.397  -7.107  -0.833  1.00  0.00     0.059 A 
ATOM     78  C   UNL     1      -3.155  -6.604  -1.619  1.00  0.00     0.059 A 
ATOM     79  F   UNL     1      -1.390  -6.461  -0.080  1.00  0.00    -0.206 F 
ATOM     80  C   UNL     1      -4.507  -6.831  -1.872  1.00  0.00     0.060 A 
BRANCH  80  81
ATOM     81  S   UNL     1      -5.147  -6.732  -3.558  1.00  0.00     0.124 S 
ATOM     82  O   UNL     1      -5.385  -8.138  -3.866  1.00  0.00    -0.237 OA
ATOM     83  O   UNL     1      -6.339  -5.906  -3.386  1.00  0.00    -0.237 OA
ATOM     84  O   UNL     1      -4.057  -6.100  -4.295  1.00  0.00    -0.744 OA
ENDBRANCH  80  81
ENDBRANCH  48  73
BRANCH  60  85
ATOM     85  C   UNL     1      -2.797 -12.148   5.347  1.00  0.00     0.058 A 
ATOM     86  C   UNL     1      -2.010 -13.037   4.599  1.00  0.00     0.135 A 
ATOM     87  C   UNL     1      -3.860 -12.683   6.094  1.00  0.00     0.135 A 
ATOM     88  F   UNL     1      -0.985 -12.578   3.864  1.00  0.00    -0.206 F 
ATOM     89  C   UNL     1      -2.276 -14.403   4.579  1.00  0.00     0.059 A 
ATOM     90  C   UNL     1      -4.129 -14.048   6.108  1.00  0.00     0.059 A 
ATOM     91  F   UNL     1      -4.638 -11.878   6.835  1.00  0.00    -0.206 F 
ATOM     92  C   UNL     1      -3.337 -14.900   5.339  1.00  0.00     0.060 A 
BRANCH  92  93
ATOM     93  S   UNL     1      -3.647 -16.679   5.337  1.00  0.00     0.124 S 
ATOM     94  O   UNL     1      -4.255 -16.870   4.025  1.00  0.00    -0.237 OA
ATOM     95  O   UNL     1      -2.306 -17.231   5.501  1.00  0.00    -0.237 OA
ATOM     96  O   UNL     1      -4.540 -16.869   6.477  1.00  0.00    -0.744 OA
ENDBRANCH  92  93
ENDBRANCH  60  85
ENDBRANCH  34  35
ENDBRANCH  27  29
ENDBRANCH  26  27
ENDBRANCH  25  26
ENDBRANCH  24  25
ENDBRANCH  23  24
ENDBRANCH   1  23
TORSDOF 22
