REMARK SMILES O=C(OCCOCCOC(=O)[C@H]1[C@H]2CC[C@H](CC2)[C@@H]1C(=O)Nc1ccc(Cc2ccncc2)cc1)c1ccc(-c2c3nc(c(-c4c(F)cc(S(=O)(=O)[O-])cc4F)c4ccc([nH]4)c(-c4c(F)cc(S(=O)(=O)[O-])cc4F)c4nc(c(-c5c(F)cc(S(=O)(=O)[O-])cc5F)c5ccc2[nH]5)C=C4)C=C3)cc1
REMARK SMILES IDX 7 1 6 2 5 3 4 4 3 5 2 6 1 7 36 8 37 9 101 10 38 11 100 12
REMARK SMILES IDX 39 13 40 14 41 15 94 16 42 17 99 18 93 19 95 20 43 21 98 22
REMARK SMILES IDX 92 23 91 24 44 26 78 27 57 28 77 29 58 30 61 31 76 32 96 33
REMARK SMILES IDX 59 34 60 35 75 37 97 38 62 39 45 40 46 41 55 42 47 43 48 44
REMARK SMILES IDX 54 45 56 46 49 47 50 48 51 49 52 50 53 51 79 52 80 53 89 54
REMARK SMILES IDX 81 55 82 56 88 57 90 58 83 59 84 60 85 61 86 62 87 63 63 64
REMARK SMILES IDX 64 65 73 66 65 67 66 68 72 69 74 70 67 71 68 72 69 73 70 74
REMARK SMILES IDX 71 75 8 76 9 77 10 78 11 79 12 80 13 81 19 82 18 83 14 84
REMARK SMILES IDX 16 85 17 86 15 87 20 88 21 89 22 90 23 92 24 93 35 94 25 95
REMARK SMILES IDX 34 96 26 97 27 98 28 99 29 100 33 101 30 102 32 103 31 104
REMARK H PARENT 95 25 61 36 22 91
REMARK Flexibility Score: inf
ROOT
ATOM      1  C   UNL     1       2.059  -0.813   1.637  1.00  0.00     0.202 C 
ENDROOT
BRANCH   1   2
ATOM      2  O   UNL     1       3.436  -0.757   1.256  1.00  0.00    -0.374 OA
BRANCH   2   3
ATOM      3  C   UNL     1       3.932   0.539   0.919  1.00  0.00     0.202 C 
BRANCH   3   4
ATOM      4  C   UNL     1       3.903   0.929  -0.561  1.00  0.00     0.261 C 
BRANCH   4   5
ATOM      5  O   UNL     1       2.560   0.842  -1.063  1.00  0.00    -0.460 OA
BRANCH   5   6
ATOM      6  C   UNL     1       1.981  -0.241  -1.635  1.00  0.00     0.338 C 
ATOM      7  O   UNL     1       0.777  -0.219  -1.877  1.00  0.00    -0.246 OA
BRANCH   6   8
ATOM      8  C   UNL     1       2.772  -1.436  -2.041  1.00  0.00     0.060 A 
ATOM      9  C   UNL     1       3.878  -1.911  -1.341  1.00  0.00     0.016 A 
ATOM     10  C   UNL     1       2.337  -2.160  -3.160  1.00  0.00     0.016 A 
ATOM     11  C   UNL     1       4.578  -3.018  -1.740  1.00  0.00     0.010 A 
ATOM     12  C   UNL     1       3.006  -3.323  -3.549  1.00  0.00     0.010 A 
ATOM     13  C   UNL     1       4.124  -3.747  -2.824  1.00  0.00    -0.014 A 
BRANCH  13  14
ATOM     14  C   UNL     1       4.931  -4.916  -3.161  1.00  0.00     0.031 A 
ATOM     15  C   UNL     1       5.885  -4.796  -4.297  1.00  0.00     0.074 A 
ATOM     16  C   UNL     1       4.936  -5.949  -2.299  1.00  0.00     0.049 A 
ATOM     17  N   UNL     1       6.642  -5.711  -4.824  1.00  0.00    -0.248 NA
ATOM     18  C   UNL     1       6.025  -3.461  -4.912  1.00  0.00     0.031 C 
ATOM     19  C   UNL     1       4.159  -6.012  -1.051  1.00  0.00     0.029 A 
ATOM     20  N   UNL     1       5.645  -7.114  -2.302  1.00  0.00    -0.354 N 
ATOM     21  C   UNL     1       7.296  -5.087  -5.875  1.00  0.00     0.074 A 
ATOM     22  C   UNL     1       6.891  -3.702  -5.885  1.00  0.00     0.031 C 
ATOM     23  C   UNL     1       4.452  -7.151  -0.406  1.00  0.00     0.029 A 
ATOM     24  C   UNL     1       5.344  -7.938  -1.243  1.00  0.00     0.049 A 
ATOM     25  H   UNL     1       6.306  -7.343  -2.994  1.00  0.00     0.167 HD
ATOM     26  C   UNL     1       8.131  -5.663  -6.766  1.00  0.00     0.037 A 
ATOM     27  C   UNL     1       5.698  -9.218  -1.032  1.00  0.00     0.037 A 
ATOM     28  C   UNL     1       8.500  -7.049  -6.684  1.00  0.00     0.049 A 
ATOM     29  C   UNL     1       6.548  -9.862  -2.093  1.00  0.00     0.074 A 
ATOM     30  C   UNL     1       9.270  -7.795  -7.552  1.00  0.00     0.029 A 
ATOM     31  N   UNL     1       8.113  -7.896  -5.650  1.00  0.00    -0.354 N 
ATOM     32  N   UNL     1       7.079  -9.312  -3.163  1.00  0.00    -0.248 NA
ATOM     33  C   UNL     1       6.811 -11.296  -1.954  1.00  0.00     0.031 C 
ATOM     34  C   UNL     1       9.312  -9.106  -7.064  1.00  0.00     0.029 A 
ATOM     35  C   UNL     1       8.606  -9.166  -5.870  1.00  0.00     0.049 A 
ATOM     36  H   UNL     1       7.568  -7.629  -4.875  1.00  0.00     0.167 HD
ATOM     37  C   UNL     1       7.732 -10.334  -3.832  1.00  0.00     0.074 A 
ATOM     38  C   UNL     1       7.559 -11.529  -3.024  1.00  0.00     0.031 C 
ATOM     39  C   UNL     1       8.399 -10.308  -5.013  1.00  0.00     0.037 A 
BRANCH  26  40
ATOM     40  C   UNL     1       8.581  -4.834  -7.929  1.00  0.00     0.058 A 
ATOM     41  C   UNL     1       9.568  -3.846  -7.815  1.00  0.00     0.135 A 
ATOM     42  C   UNL     1       7.992  -5.032  -9.189  1.00  0.00     0.135 A 
ATOM     43  F   UNL     1      10.128  -3.583  -6.623  1.00  0.00    -0.206 F 
ATOM     44  C   UNL     1       9.959  -3.082  -8.912  1.00  0.00     0.059 A 
ATOM     45  C   UNL     1       8.378  -4.293 -10.301  1.00  0.00     0.059 A 
ATOM     46  F   UNL     1       7.018  -5.943  -9.342  1.00  0.00    -0.206 F 
ATOM     47  C   UNL     1       9.360  -3.316 -10.152  1.00  0.00     0.060 A 
BRANCH  47  48
ATOM     48  S   UNL     1       9.890  -2.333 -11.571  1.00  0.00     0.124 S 
ATOM     49  O   UNL     1       9.297  -1.035 -11.264  1.00  0.00    -0.237 OA
ATOM     50  O   UNL     1      11.344  -2.405 -11.473  1.00  0.00    -0.237 OA
ATOM     51  O   UNL     1       9.305  -3.035 -12.709  1.00  0.00    -0.744 OA
ENDBRANCH  47  48
ENDBRANCH  26  40
BRANCH  27  52
ATOM     52  C   UNL     1       5.147  -9.986   0.117  1.00  0.00     0.058 A 
ATOM     53  C   UNL     1       5.978 -10.530   1.106  1.00  0.00     0.135 A 
ATOM     54  C   UNL     1       3.764 -10.216   0.236  1.00  0.00     0.135 A 
ATOM     55  F   UNL     1       7.305 -10.344   1.043  1.00  0.00    -0.206 F 
ATOM     56  C   UNL     1       5.466 -11.296   2.151  1.00  0.00     0.059 A 
ATOM     57  C   UNL     1       3.225 -10.949   1.288  1.00  0.00     0.059 A 
ATOM     58  F   UNL     1       2.915  -9.712  -0.673  1.00  0.00    -0.206 F 
ATOM     59  C   UNL     1       4.088 -11.506   2.228  1.00  0.00     0.060 A 
BRANCH  59  60
ATOM     60  S   UNL     1       3.426 -12.508   3.578  1.00  0.00     0.124 S 
ATOM     61  O   UNL     1       3.762 -13.854   3.132  1.00  0.00    -0.237 OA
ATOM     62  O   UNL     1       4.174 -12.010   4.729  1.00  0.00    -0.237 OA
ATOM     63  O   UNL     1       2.004 -12.176   3.574  1.00  0.00    -0.744 OA
ENDBRANCH  59  60
ENDBRANCH  27  52
BRANCH  39  64
ATOM     64  C   UNL     1       8.986 -11.604  -5.471  1.00  0.00     0.058 A 
ATOM     65  C   UNL     1       8.182 -12.607  -6.032  1.00  0.00     0.135 A 
ATOM     66  C   UNL     1      10.371 -11.812  -5.411  1.00  0.00     0.135 A 
ATOM     67  F   UNL     1       6.850 -12.449  -6.096  1.00  0.00    -0.206 F 
ATOM     68  C   UNL     1       8.735 -13.786  -6.510  1.00  0.00     0.059 A 
ATOM     69  C   UNL     1      10.948 -12.972  -5.907  1.00  0.00     0.059 A 
ATOM     70  F   UNL     1      11.175 -10.871  -4.889  1.00  0.00    -0.206 F 
ATOM     71  C   UNL     1      10.120 -13.956  -6.447  1.00  0.00     0.060 A 
BRANCH  71  72
ATOM     72  S   UNL     1      10.833 -15.466  -7.124  1.00  0.00     0.124 S 
ATOM     73  O   UNL     1      10.517 -16.433  -6.078  1.00  0.00    -0.237 OA
ATOM     74  O   UNL     1      10.102 -15.625  -8.377  1.00  0.00    -0.237 OA
ATOM     75  O   UNL     1      12.248 -15.136  -7.269  1.00  0.00    -0.744 OA
ENDBRANCH  71  72
ENDBRANCH  39  64
ENDBRANCH  13  14
ENDBRANCH   6   8
ENDBRANCH   5   6
ENDBRANCH   4   5
ENDBRANCH   3   4
ENDBRANCH   2   3
ENDBRANCH   1   2
BRANCH   1  76
ATOM     76  C   UNL     1       1.917  -0.846   3.157  1.00  0.00     0.261 C 
BRANCH  76  77
ATOM     77  O   UNL     1       2.535   0.333   3.701  1.00  0.00    -0.463 OA
BRANCH  77  78
ATOM     78  C   UNL     1       3.846   0.174   4.020  1.00  0.00     0.310 C 
ATOM     79  O   UNL     1       4.386  -0.905   4.168  1.00  0.00    -0.252 OA
BRANCH  78  80
ATOM     80  C   UNL     1       4.570   1.497   4.257  1.00  0.00     0.115 C 
ATOM     81  C   UNL     1       4.349   2.718   3.326  1.00  0.00     0.004 C 
ATOM     82  C   UNL     1       4.372   1.886   5.722  1.00  0.00     0.096 C 
ATOM     83  C   UNL     1       2.898   3.195   3.360  1.00  0.00     0.005 C 
ATOM     84  C   UNL     1       5.223   3.886   3.837  1.00  0.00     0.005 C 
ATOM     85  C   UNL     1       3.721   3.309   5.755  1.00  0.00     0.002 C 
ATOM     86  C   UNL     1       2.475   3.347   4.825  1.00  0.00     0.005 C 
ATOM     87  C   UNL     1       4.729   4.337   5.213  1.00  0.00     0.005 C 
BRANCH  82  88
ATOM     88  C   UNL     1       5.572   1.755   6.705  1.00  0.00     0.228 C 
ATOM     89  O   UNL     1       5.552   2.397   7.763  1.00  0.00    -0.274 OA
ATOM     90  N   UNL     1       6.490   0.737   6.606  1.00  0.00    -0.326 N 
ATOM     91  H   UNL     1       6.703   0.291   7.458  1.00  0.00     0.169 HD
BRANCH  90  92
ATOM     92  C   UNL     1       7.173   0.229   5.490  1.00  0.00     0.041 A 
ATOM     93  C   UNL     1       7.208  -1.150   5.301  1.00  0.00     0.026 A 
ATOM     94  C   UNL     1       7.782   1.066   4.549  1.00  0.00     0.026 A 
ATOM     95  C   UNL     1       7.629  -1.669   4.071  1.00  0.00     0.006 A 
ATOM     96  C   UNL     1       8.221   0.545   3.325  1.00  0.00     0.006 A 
ATOM     97  C   UNL     1       8.075  -0.820   3.047  1.00  0.00    -0.043 A 
BRANCH  97  98
ATOM     98  C   UNL     1       8.323  -1.365   1.656  1.00  0.00     0.071 C 
BRANCH  98  99
ATOM     99  C   UNL     1       9.758  -1.702   1.351  1.00  0.00    -0.041 A 
ATOM    100  C   UNL     1      10.392  -2.770   1.994  1.00  0.00     0.024 A 
ATOM    101  C   UNL     1      10.477  -0.989   0.388  1.00  0.00     0.024 A 
ATOM    102  C   UNL     1      11.708  -3.056   1.670  1.00  0.00     0.111 A 
ATOM    103  C   UNL     1      11.789  -1.355   0.130  1.00  0.00     0.111 A 
ATOM    104  N   UNL     1      12.427  -2.362   0.762  1.00  0.00    -0.265 NA
ENDBRANCH  98  99
ENDBRANCH  97  98
ENDBRANCH  90  92
ENDBRANCH  82  88
ENDBRANCH  78  80
ENDBRANCH  77  78
ENDBRANCH  76  77
ENDBRANCH   1  76
TORSDOF 21
