REMARK SMILES Cc1ccc(Cl)c(Nc2ccccc2C(=O)N[C@@H](C)C(=O)OCCOCCOC(=O)c2ccc(-c3c4nc(c(-c5c(F)cc(S(=O)(=O)[O-])cc5F)c5ccc([nH]5)c(-c5c(F)cc(S(=O)(=O)[O-])cc5F)c5nc(c(-c6c(F)cc(S(=O)(=O)[O-])cc6F)c6ccc3[nH]6)C=C5)C=C4)cc2)c1Cl
REMARK SMILES IDX 24 1 23 2 22 3 20 4 21 5 18 6 19 7 17 8 15 9 16 10 14 12
REMARK SMILES IDX 9 13 10 14 11 15 13 16 12 17 8 18 7 20 1 21 2 22 3 23 97 24
REMARK SMILES IDX 4 25 98 26 5 27 6 28 25 29 26 30 27 31 28 32 29 33 30 34
REMARK SMILES IDX 31 35 32 36 96 37 33 38 95 39 34 40 35 41 36 42 89 43 37 44
REMARK SMILES IDX 94 45 88 46 90 47 38 48 93 49 87 50 86 51 39 53 73 54 52 55
REMARK SMILES IDX 72 56 53 57 56 58 71 59 91 60 54 61 55 62 70 64 92 65 57 66
REMARK SMILES IDX 40 67 41 68 50 69 42 70 43 71 49 72 51 73 44 74 45 75 46 76
REMARK SMILES IDX 47 77 48 78 74 79 75 80 84 81 76 82 77 83 83 84 85 85 78 86
REMARK SMILES IDX 79 87 80 88 81 89 82 90 58 91 59 92 68 93 60 94 61 95 67 96
REMARK SMILES IDX 69 97 62 98 63 99 64 100 65 101 66 102
REMARK H PARENT 17 11 8 19 90 52 56 63
REMARK Flexibility Score: inf
ROOT
ATOM      1  C   UNL     1       0.530   3.674  -0.958  1.00  0.00     0.202 C 
ENDROOT
BRANCH   1   2
ATOM      2  C   UNL     1      -0.590   3.211   0.079  1.00  0.00     0.261 C 
BRANCH   2   3
ATOM      3  O   UNL     1      -0.427   1.972   0.853  1.00  0.00    -0.462 OA
BRANCH   3   4
ATOM      4  C   UNL     1      -1.575   1.252   1.122  1.00  0.00     0.328 C 
ATOM      5  O   UNL     1      -2.697   1.694   0.873  1.00  0.00    -0.250 OA
BRANCH   4   6
ATOM      6  C   UNL     1      -1.372  -0.267   1.562  1.00  0.00     0.189 C 
ATOM      7  C   UNL     1      -2.559  -0.729   2.415  1.00  0.00     0.043 C 
BRANCH   6   8
ATOM      8  N   UNL     1      -0.140  -0.690   2.224  1.00  0.00    -0.339 N 
ATOM      9  C   UNL     1       0.652  -1.817   2.274  1.00  0.00     0.254 C 
ATOM     10  O   UNL     1       1.468  -1.729   3.209  1.00  0.00    -0.269 OA
ATOM     11  H   UNL     1       0.225   0.027   2.791  1.00  0.00     0.164 HD
BRANCH   9  12
ATOM     12  C   UNL     1       0.755  -3.082   1.401  1.00  0.00     0.063 A 
ATOM     13  C   UNL     1      -0.040  -3.670   0.380  1.00  0.00     0.051 A 
ATOM     14  C   UNL     1       0.392  -4.881  -0.255  1.00  0.00     0.027 A 
ATOM     15  C   UNL     1       1.607  -5.489   0.031  1.00  0.00     0.002 A 
ATOM     16  C   UNL     1       1.968  -3.788   1.689  1.00  0.00     0.016 A 
ATOM     17  C   UNL     1       2.399  -4.940   1.014  1.00  0.00     0.001 A 
BRANCH  13  18
ATOM     18  N   UNL     1      -1.121  -3.081  -0.317  1.00  0.00    -0.352 N 
ATOM     19  H   UNL     1      -2.035  -3.296  -0.025  1.00  0.00     0.167 HD
BRANCH  18  20
ATOM     20  C   UNL     1      -0.956  -2.182  -1.432  1.00  0.00     0.077 A 
ATOM     21  C   UNL     1       1.389   0.255  -0.578  1.00  0.00     0.046 C 
ATOM     22  C   UNL     1       0.306  -0.218  -1.498  1.00  0.00    -0.030 A 
ATOM     23  C   UNL     1      -0.808   0.507  -1.935  1.00  0.00     0.006 A 
ATOM     24  C   UNL     1       0.275  -1.581  -1.638  1.00  0.00     0.069 A 
ATOM     25  C   UNL     1      -1.992  -0.160  -2.253  1.00  0.00     0.023 A 
ATOM     26  Cl  UNL     1       1.765  -2.436  -1.840  1.00  0.00    -0.082 Cl
ATOM     27  C   UNL     1      -2.088  -1.505  -1.916  1.00  0.00     0.066 A 
ATOM     28  Cl  UNL     1      -3.626  -2.281  -1.945  1.00  0.00    -0.082 Cl
ENDBRANCH  18  20
ENDBRANCH  13  18
ENDBRANCH   9  12
ENDBRANCH   6   8
ENDBRANCH   4   6
ENDBRANCH   3   4
ENDBRANCH   2   3
ENDBRANCH   1   2
BRANCH   1  29
ATOM     29  O   UNL     1       1.305   2.708  -1.674  1.00  0.00    -0.374 OA
BRANCH  29  30
ATOM     30  C   UNL     1       2.730   2.932  -1.773  1.00  0.00     0.202 C 
BRANCH  30  31
ATOM     31  C   UNL     1       3.590   2.514  -0.554  1.00  0.00     0.261 C 
BRANCH  31  32
ATOM     32  O   UNL     1       2.911   2.918   0.632  1.00  0.00    -0.460 OA
BRANCH  32  33
ATOM     33  C   UNL     1       3.648   3.464   1.608  1.00  0.00     0.338 C 
ATOM     34  O   UNL     1       4.863   3.422   1.760  1.00  0.00    -0.246 OA
BRANCH  33  35
ATOM     35  C   UNL     1       2.726   4.342   2.331  1.00  0.00     0.060 A 
ATOM     36  C   UNL     1       2.176   5.402   1.597  1.00  0.00     0.016 A 
ATOM     37  C   UNL     1       2.478   4.208   3.693  1.00  0.00     0.016 A 
ATOM     38  C   UNL     1       1.381   6.348   2.215  1.00  0.00     0.010 A 
ATOM     39  C   UNL     1       1.722   5.196   4.333  1.00  0.00     0.010 A 
ATOM     40  C   UNL     1       1.228   6.297   3.602  1.00  0.00    -0.014 A 
BRANCH  40  41
ATOM     41  C   UNL     1       0.896   7.574   4.273  1.00  0.00     0.031 A 
ATOM     42  C   UNL     1       2.044   8.421   4.761  1.00  0.00     0.074 A 
ATOM     43  C   UNL     1      -0.359   8.051   4.315  1.00  0.00     0.049 A 
ATOM     44  N   UNL     1       2.021   9.576   5.371  1.00  0.00    -0.248 NA
ATOM     45  C   UNL     1       3.400   7.899   4.512  1.00  0.00     0.031 C 
ATOM     46  C   UNL     1      -1.543   7.387   3.775  1.00  0.00     0.029 A 
ATOM     47  N   UNL     1      -0.834   9.227   4.836  1.00  0.00    -0.354 N 
ATOM     48  C   UNL     1       3.351   9.907   5.598  1.00  0.00     0.074 A 
ATOM     49  C   UNL     1       4.157   8.827   5.075  1.00  0.00     0.031 C 
ATOM     50  C   UNL     1      -2.617   8.162   4.012  1.00  0.00     0.029 A 
ATOM     51  C   UNL     1      -2.197   9.357   4.747  1.00  0.00     0.049 A 
ATOM     52  H   UNL     1      -0.252   9.913   5.237  1.00  0.00     0.167 HD
ATOM     53  C   UNL     1       3.861  11.013   6.186  1.00  0.00     0.037 A 
ATOM     54  C   UNL     1      -3.012  10.316   5.229  1.00  0.00     0.037 A 
ATOM     55  C   UNL     1       3.067  12.098   6.697  1.00  0.00     0.049 A 
ATOM     56  C   UNL     1      -2.428  11.499   5.962  1.00  0.00     0.074 A 
ATOM     57  C   UNL     1       3.498  13.253   7.324  1.00  0.00     0.029 A 
ATOM     58  N   UNL     1       1.684  12.165   6.642  1.00  0.00    -0.354 N 
ATOM     59  N   UNL     1      -1.171  11.787   6.203  1.00  0.00    -0.248 NA
ATOM     60  C   UNL     1      -3.380  12.490   6.485  1.00  0.00     0.031 C 
ATOM     61  C   UNL     1       2.373  13.998   7.690  1.00  0.00     0.029 A 
ATOM     62  C   UNL     1       1.244  13.334   7.239  1.00  0.00     0.049 A 
ATOM     63  H   UNL     1       1.101  11.482   6.238  1.00  0.00     0.167 HD
ATOM     64  C   UNL     1      -1.181  13.008   6.875  1.00  0.00     0.074 A 
ATOM     65  C   UNL     1      -2.568  13.406   6.995  1.00  0.00     0.031 C 
ATOM     66  C   UNL     1      -0.136  13.735   7.344  1.00  0.00     0.037 A 
BRANCH  53  67
ATOM     67  C   UNL     1       5.352  11.082   6.351  1.00  0.00     0.058 A 
ATOM     68  C   UNL     1       6.212  11.306   5.265  1.00  0.00     0.135 A 
ATOM     69  C   UNL     1       5.923  10.945   7.626  1.00  0.00     0.135 A 
ATOM     70  F   UNL     1       5.718  11.415   4.021  1.00  0.00    -0.206 F 
ATOM     71  C   UNL     1       7.590  11.376   5.436  1.00  0.00     0.059 A 
ATOM     72  C   UNL     1       7.296  11.040   7.824  1.00  0.00     0.059 A 
ATOM     73  F   UNL     1       5.144  10.720   8.696  1.00  0.00    -0.206 F 
ATOM     74  C   UNL     1       8.122  11.242   6.720  1.00  0.00     0.060 A 
BRANCH  74  75
ATOM     75  S   UNL     1       9.912  11.348   6.929  1.00  0.00     0.124 S 
ATOM     76  O   UNL     1      10.345  10.071   6.370  1.00  0.00    -0.237 OA
ATOM     77  O   UNL     1      10.248  12.530   6.143  1.00  0.00    -0.237 OA
ATOM     78  O   UNL     1      10.078  11.490   8.372  1.00  0.00    -0.744 OA
ENDBRANCH  74  75
ENDBRANCH  53  67
BRANCH  54  79
ATOM     79  C   UNL     1      -4.483  10.187   5.063  1.00  0.00     0.058 A 
ATOM     80  C   UNL     1      -5.203  11.063   4.238  1.00  0.00     0.135 A 
ATOM     81  C   UNL     1      -5.200   9.194   5.750  1.00  0.00     0.135 A 
ATOM     82  F   UNL     1      -4.562  12.038   3.575  1.00  0.00    -0.206 F 
ATOM     83  C   UNL     1      -6.584  10.971   4.110  1.00  0.00     0.059 A 
ATOM     84  C   UNL     1      -6.578   9.064   5.616  1.00  0.00     0.059 A 
ATOM     85  F   UNL     1      -4.556   8.329   6.548  1.00  0.00    -0.206 F 
ATOM     86  C   UNL     1      -7.263   9.964   4.801  1.00  0.00     0.060 A 
BRANCH  86  87
ATOM     87  S   UNL     1      -9.049   9.819   4.586  1.00  0.00     0.124 S 
ATOM     88  O   UNL     1      -9.531  10.957   5.360  1.00  0.00    -0.237 OA
ATOM     89  O   UNL     1      -9.192   9.924   3.138  1.00  0.00    -0.237 OA
ATOM     90  O   UNL     1      -9.347   8.503   5.144  1.00  0.00    -0.744 OA
ENDBRANCH  86  87
ENDBRANCH  54  79
BRANCH  66  91
ATOM     91  C   UNL     1      -0.437  15.066   7.981  1.00  0.00     0.058 A 
ATOM     92  C   UNL     1      -1.047  15.170   9.241  1.00  0.00     0.135 A 
ATOM     93  C   UNL     1      -0.073  16.259   7.333  1.00  0.00     0.135 A 
ATOM     94  F   UNL     1      -1.416  14.064   9.906  1.00  0.00    -0.206 F 
ATOM     95  C   UNL     1      -1.320  16.407   9.819  1.00  0.00     0.059 A 
ATOM     96  C   UNL     1      -0.310  17.506   7.904  1.00  0.00     0.059 A 
ATOM     97  F   UNL     1       0.529  16.221   6.134  1.00  0.00    -0.206 F 
ATOM     98  C   UNL     1      -0.951  17.571   9.140  1.00  0.00     0.060 A 
BRANCH  98  99
ATOM     99  S   UNL     1      -1.304  19.171   9.900  1.00  0.00     0.124 S 
ATOM    100  O   UNL     1      -2.744  19.282   9.693  1.00  0.00    -0.237 OA
ATOM    101  O   UNL     1      -0.876  18.965  11.281  1.00  0.00    -0.237 OA
ATOM    102  O   UNL     1      -0.485  20.102   9.130  1.00  0.00    -0.744 OA
ENDBRANCH  98  99
ENDBRANCH  66  91
ENDBRANCH  40  41
ENDBRANCH  33  35
ENDBRANCH  32  33
ENDBRANCH  31  32
ENDBRANCH  30  31
ENDBRANCH  29  30
ENDBRANCH   1  29
TORSDOF 21
