REMARK SMILES O=C(OCCOCCOC(=O)c1ccc(-c2c3nc(c(-c4c(F)cc(S(=O)(=O)[O-])cc4F)c4ccc([nH]4)c(-c4c(F)cc(S(=O)(=O)[O-])cc4F)c4nc(c(-c5c(F)cc(S(=O)(=O)[O-])cc5F)c5ccc2[nH]5)C=C4)C=C3)cc1)C1=Cc2cc(Cl)cc(C#Cc3ccccc3)c2O[C@@H]1C(F)(F)F
REMARK SMILES IDX 7 1 6 2 5 3 4 4 3 5 2 6 1 7 78 8 79 9 96 10 80 11 95 12
REMARK SMILES IDX 81 13 94 14 82 15 85 16 83 17 84 18 97 19 98 20 99 21 100 22
REMARK SMILES IDX 86 23 87 24 88 25 89 26 93 27 90 28 92 29 91 30 8 31 9 32
REMARK SMILES IDX 10 33 11 34 12 35 13 36 77 37 14 38 76 39 15 40 16 41 17 42
REMARK SMILES IDX 70 43 18 44 75 45 69 46 71 47 19 48 74 49 68 50 67 51 20 53
REMARK SMILES IDX 54 54 33 55 53 56 34 57 37 58 52 59 72 60 35 61 36 62 51 64
REMARK SMILES IDX 73 65 38 66 21 67 22 68 31 69 23 70 24 71 30 72 32 73 25 74
REMARK SMILES IDX 26 75 27 76 28 77 29 78 55 79 56 80 65 81 57 82 58 83 64 84
REMARK SMILES IDX 66 85 59 86 60 87 61 88 62 89 63 90 39 91 40 92 49 93 41 94
REMARK SMILES IDX 42 95 48 96 50 97 43 98 44 99 45 100 46 101 47 102
REMARK H PARENT 71 52 37 63
REMARK Flexibility Score: inf
ROOT
ATOM      1  C   UNL     1       3.085   2.097   2.417  1.00  0.00     0.202 C 
ENDROOT
BRANCH   1   2
ATOM      2  O   UNL     1       3.685   0.814   2.246  1.00  0.00    -0.374 OA
BRANCH   2   3
ATOM      3  C   UNL     1       4.127   0.130   0.952  1.00  0.00     0.202 C 
BRANCH   3   4
ATOM      4  C   UNL     1       2.984  -0.597  -0.758  1.00  0.00     0.261 C 
BRANCH   4   5
ATOM      5  O   UNL     1       2.178  -1.906  -0.844  1.00  0.00    -0.460 OA
BRANCH   5   6
ATOM      6  C   UNL     1       2.598  -2.839   0.013  1.00  0.00     0.338 C 
ATOM      7  O   UNL     1       2.147  -3.929   0.252  1.00  0.00    -0.246 OA
BRANCH   6   8
ATOM      8  C   UNL     1       3.503  -1.976   0.738  1.00  0.00     0.087 C 
ATOM      9  C   UNL     1       4.747  -1.765  -0.085  1.00  0.00     0.027 C 
ATOM     10  C   UNL     1       2.211  -0.584   1.130  1.00  0.00     0.316 C 
ATOM     11  C   UNL     1       5.126  -0.181  -0.939  1.00  0.00     0.020 A 
ATOM     12  O   UNL     1       2.583   1.061   0.231  1.00  0.00    -0.474 OA
ATOM     13  C   UNL     1       6.193  -0.135  -1.777  1.00  0.00     0.032 A 
ATOM     14  C   UNL     1       4.009   1.196  -0.879  1.00  0.00     0.143 A 
ATOM     15  C   UNL     1       6.218   1.027  -2.555  1.00  0.00     0.043 A 
ATOM     16  C   UNL     1       4.104   2.310  -1.672  1.00  0.00     0.069 A 
ATOM     17  Cl  UNL     1       7.545   1.150  -3.674  1.00  0.00    -0.084 Cl
ATOM     18  C   UNL     1       5.238   2.144  -2.509  1.00  0.00     0.041 A 
BRANCH  10  19
ATOM     19  C   UNL     1       1.895  -0.774   2.653  1.00  0.00     0.430 C 
ATOM     20  F   UNL     1       1.241   0.248   3.232  1.00  0.00    -0.167 F 
ATOM     21  F   UNL     1       1.070  -1.859   2.766  1.00  0.00    -0.167 F 
ATOM     22  F   UNL     1       2.975  -1.101   3.406  1.00  0.00    -0.167 F 
ENDBRANCH  10  19
BRANCH  16  23
ATOM     23  C   UNL     1       3.327   3.550  -1.618  1.00  0.00    -0.058 C 
ATOM     24  C   UNL     1       2.852   4.667  -1.520  1.00  0.00    -0.062 C 
BRANCH  24  25
ATOM     25  C   UNL     1       2.378   6.063  -1.405  1.00  0.00     0.025 A 
ATOM     26  C   UNL     1       3.193   7.156  -1.033  1.00  0.00     0.017 A 
ATOM     27  C   UNL     1       1.057   6.381  -1.698  1.00  0.00     0.017 A 
ATOM     28  C   UNL     1       2.780   8.492  -1.063  1.00  0.00     0.001 A 
ATOM     29  C   UNL     1       0.607   7.720  -1.666  1.00  0.00     0.001 A 
ATOM     30  C   UNL     1       1.473   8.776  -1.379  1.00  0.00     0.000 A 
ENDBRANCH  24  25
ENDBRANCH  16  23
ENDBRANCH   6   8
ENDBRANCH   5   6
ENDBRANCH   4   5
ENDBRANCH   3   4
ENDBRANCH   2   3
ENDBRANCH   1   2
BRANCH   1  31
ATOM     31  C   UNL     1       3.799   3.399   2.071  1.00  0.00     0.261 C 
BRANCH  31  32
ATOM     32  O   UNL     1       4.695   3.375   0.960  1.00  0.00    -0.460 OA
BRANCH  32  33
ATOM     33  C   UNL     1       6.045   3.477   1.112  1.00  0.00     0.338 C 
ATOM     34  O   UNL     1       6.691   3.165   2.091  1.00  0.00    -0.246 OA
BRANCH  33  35
ATOM     35  C   UNL     1       6.552   4.128  -0.149  1.00  0.00     0.060 A 
ATOM     36  C   UNL     1       7.613   3.734  -0.968  1.00  0.00     0.016 A 
ATOM     37  C   UNL     1       5.784   5.180  -0.598  1.00  0.00     0.016 A 
ATOM     38  C   UNL     1       7.813   4.347  -2.262  1.00  0.00     0.010 A 
ATOM     39  C   UNL     1       5.896   5.667  -1.905  1.00  0.00     0.010 A 
ATOM     40  C   UNL     1       6.920   5.307  -2.768  1.00  0.00    -0.014 A 
BRANCH  40  41
ATOM     41  C   UNL     1       6.949   6.170  -4.016  1.00  0.00     0.031 A 
ATOM     42  C   UNL     1       7.199   7.667  -3.801  1.00  0.00     0.074 A 
ATOM     43  C   UNL     1       6.362   5.837  -5.196  1.00  0.00     0.049 A 
ATOM     44  N   UNL     1       7.094   8.671  -4.639  1.00  0.00    -0.248 NA
ATOM     45  C   UNL     1       7.477   8.087  -2.414  1.00  0.00     0.031 C 
ATOM     46  C   UNL     1       5.742   4.559  -5.527  1.00  0.00     0.029 A 
ATOM     47  N   UNL     1       6.121   6.594  -6.334  1.00  0.00    -0.354 N 
ATOM     48  C   UNL     1       7.270   9.822  -3.874  1.00  0.00     0.074 A 
ATOM     49  C   UNL     1       7.341   9.399  -2.495  1.00  0.00     0.031 C 
ATOM     50  C   UNL     1       5.205   4.609  -6.759  1.00  0.00     0.029 A 
ATOM     51  C   UNL     1       5.455   5.922  -7.342  1.00  0.00     0.049 A 
ATOM     52  H   UNL     1       6.402   7.534  -6.417  1.00  0.00     0.167 HD
ATOM     53  C   UNL     1       7.424  11.111  -4.268  1.00  0.00     0.037 A 
ATOM     54  C   UNL     1       5.106   6.286  -8.599  1.00  0.00     0.037 A 
ATOM     55  C   UNL     1       7.362  11.538  -5.638  1.00  0.00     0.049 A 
ATOM     56  C   UNL     1       5.443   7.668  -9.102  1.00  0.00     0.074 A 
ATOM     57  C   UNL     1       7.704  12.768  -6.174  1.00  0.00     0.029 A 
ATOM     58  N   UNL     1       6.899  10.759  -6.686  1.00  0.00    -0.354 N 
ATOM     59  N   UNL     1       5.900   8.696  -8.429  1.00  0.00    -0.248 NA
ATOM     60  C   UNL     1       5.245   7.938 -10.536  1.00  0.00     0.031 C 
ATOM     61  C   UNL     1       7.394  12.751  -7.537  1.00  0.00     0.029 A 
ATOM     62  C   UNL     1       6.934  11.486  -7.864  1.00  0.00     0.049 A 
ATOM     63  H   UNL     1       6.591   9.828  -6.605  1.00  0.00     0.167 HD
ATOM     64  C   UNL     1       6.085   9.715  -9.361  1.00  0.00     0.074 A 
ATOM     65  C   UNL     1       5.685   9.186 -10.646  1.00  0.00     0.031 C 
ATOM     66  C   UNL     1       6.559  10.969  -9.158  1.00  0.00     0.037 A 
BRANCH  53  67
ATOM     67  C   UNL     1       7.746  12.136  -3.203  1.00  0.00     0.058 A 
ATOM     68  C   UNL     1       8.902  12.024  -2.407  1.00  0.00     0.135 A 
ATOM     69  C   UNL     1       6.918  13.249  -2.982  1.00  0.00     0.135 A 
ATOM     70  F   UNL     1       9.748  10.995  -2.578  1.00  0.00    -0.206 F 
ATOM     71  C   UNL     1       9.176  12.920  -1.381  1.00  0.00     0.059 A 
ATOM     72  C   UNL     1       7.204  14.191  -1.994  1.00  0.00     0.059 A 
ATOM     73  F   UNL     1       5.813  13.431  -3.722  1.00  0.00    -0.206 F 
ATOM     74  C   UNL     1       8.317  13.998  -1.178  1.00  0.00     0.060 A 
BRANCH  74  75
ATOM     75  S   UNL     1       8.677  15.130   0.180  1.00  0.00     0.124 S 
ATOM     76  O   UNL     1       8.337  14.307   1.337  1.00  0.00    -0.237 OA
ATOM     77  O   UNL     1      10.099  15.399  -0.008  1.00  0.00    -0.237 OA
ATOM     78  O   UNL     1       7.787  16.258  -0.072  1.00  0.00    -0.744 OA
ENDBRANCH  74  75
ENDBRANCH  53  67
BRANCH  54  79
ATOM     79  C   UNL     1       4.503   5.280  -9.530  1.00  0.00     0.058 A 
ATOM     80  C   UNL     1       5.279   4.694 -10.546  1.00  0.00     0.135 A 
ATOM     81  C   UNL     1       3.170   4.858  -9.416  1.00  0.00     0.135 A 
ATOM     82  F   UNL     1       6.553   5.079 -10.720  1.00  0.00    -0.206 F 
ATOM     83  C   UNL     1       4.763   3.726 -11.405  1.00  0.00     0.059 A 
ATOM     84  C   UNL     1       2.636   3.873 -10.249  1.00  0.00     0.059 A 
ATOM     85  F   UNL     1       2.380   5.379  -8.464  1.00  0.00    -0.206 F 
ATOM     86  C   UNL     1       3.443   3.308 -11.238  1.00  0.00     0.060 A 
BRANCH  86  87
ATOM     87  S   UNL     1       2.826   1.966 -12.282  1.00  0.00     0.124 S 
ATOM     88  O   UNL     1       2.779   2.603 -13.593  1.00  0.00    -0.237 OA
ATOM     89  O   UNL     1       3.858   0.948 -12.105  1.00  0.00    -0.237 OA
ATOM     90  O   UNL     1       1.532   1.645 -11.689  1.00  0.00    -0.744 OA
ENDBRANCH  86  87
ENDBRANCH  54  79
BRANCH  66  91
ATOM     91  C   UNL     1       6.757  11.874 -10.345  1.00  0.00     0.058 A 
ATOM     92  C   UNL     1       5.686  12.457 -11.037  1.00  0.00     0.135 A 
ATOM     93  C   UNL     1       8.059  12.260 -10.715  1.00  0.00     0.135 A 
ATOM     94  F   UNL     1       4.422  12.124 -10.732  1.00  0.00    -0.206 F 
ATOM     95  C   UNL     1       5.896  13.389 -12.052  1.00  0.00     0.059 A 
ATOM     96  C   UNL     1       8.291  13.210 -11.703  1.00  0.00     0.059 A 
ATOM     97  F   UNL     1       9.123  11.740 -10.081  1.00  0.00    -0.206 F 
ATOM     98  C   UNL     1       7.202  13.769 -12.369  1.00  0.00     0.060 A 
BRANCH  98  99
ATOM     99  S   UNL     1       7.457  15.034 -13.632  1.00  0.00     0.124 S 
ATOM    100  O   UNL     1       7.061  14.326 -14.845  1.00  0.00    -0.237 OA
ATOM    101  O   UNL     1       6.556  16.095 -13.194  1.00  0.00    -0.237 OA
ATOM    102  O   UNL     1       8.880  15.344 -13.524  1.00  0.00    -0.744 OA
ENDBRANCH  98  99
ENDBRANCH  66  91
ENDBRANCH  40  41
ENDBRANCH  33  35
ENDBRANCH  32  33
ENDBRANCH  31  32
ENDBRANCH   1  31
TORSDOF 20
