REMARK SMILES Cc1nsc(N(C)C(=O)Nc2cccc(Cl)c2)c1C(=O)OCCOCCOC(=O)c1ccc(-c2c3nc(c(-c4c(F)cc(S(=O)(=O)[O-])cc4F)c4ccc([nH]4)c(-c4c(F)cc(S(=O)(=O)[O-])cc4F)c4nc(c(-c5c(F)cc(S(=O)(=O)[O-])cc5F)c5ccc2[nH]5)C=C4)C=C3)cc1
REMARK SMILES IDX 24 1 23 2 22 3 21 4 19 5 20 6 18 7 1 8 2 9 3 10 4 11 5 12
REMARK SMILES IDX 6 13 7 14 8 15 9 16 10 17 11 19 12 20 17 21 13 22 15 23
REMARK SMILES IDX 14 24 16 25 25 26 26 27 27 28 28 29 29 30 30 31 31 32 95 33
REMARK SMILES IDX 32 34 94 35 33 36 34 37 35 38 88 39 36 40 93 41 87 42 89 43
REMARK SMILES IDX 37 44 92 45 86 46 85 47 38 49 72 50 51 51 71 52 52 53 55 54
REMARK SMILES IDX 70 55 90 56 53 57 54 58 69 60 91 61 56 62 39 63 40 64 49 65
REMARK SMILES IDX 41 66 42 67 48 68 50 69 43 70 44 71 45 72 46 73 47 74 73 75
REMARK SMILES IDX 74 76 83 77 75 78 76 79 82 80 84 81 77 82 78 83 79 84 80 85
REMARK SMILES IDX 81 86 57 87 58 88 67 89 59 90 60 91 66 92 68 93 61 94 62 95
REMARK SMILES IDX 63 96 64 97 65 98
REMARK H PARENT 10 18 89 48 55 59
REMARK Flexibility Score: inf
ROOT
ATOM      1  O   UNL     1       5.227   3.708  -1.523  1.00  0.00    -0.374 OA
ENDROOT
BRANCH   1   2
ATOM      2  C   UNL     1       5.646   2.440  -1.003  1.00  0.00     0.202 C 
BRANCH   2   3
ATOM      3  C   UNL     1       4.972   1.912   0.267  1.00  0.00     0.261 C 
BRANCH   3   4
ATOM      4  O   UNL     1       3.561   1.785   0.073  1.00  0.00    -0.460 OA
BRANCH   4   5
ATOM      5  C   UNL     1       2.802   2.153   1.145  1.00  0.00     0.343 C 
ATOM      6  O   UNL     1       3.184   2.167   2.306  1.00  0.00    -0.246 OA
BRANCH   5   7
ATOM      7  C   UNL     1       1.430   2.412   0.757  1.00  0.00     0.118 A 
ATOM      8  C   UNL     1       0.867  -0.122   0.289  1.00  0.00     0.069 C 
ATOM      9  C   UNL     1       0.527   1.325   0.424  1.00  0.00     0.068 A 
ATOM     10  N   UNL     1      -0.742   1.662   0.220  1.00  0.00    -0.195 NA
ATOM     11  S   UNL     1      -0.886   3.283   0.374  1.00  0.00    -0.017 S 
ATOM     12  C   UNL     1       0.804   3.647   0.532  1.00  0.00     0.134 A 
BRANCH  12  13
ATOM     13  N   UNL     1       1.183   5.026   0.376  1.00  0.00    -0.286 N 
ATOM     14  C   UNL     1       0.216   5.988  -0.192  1.00  0.00     0.156 C 
BRANCH  13  15
ATOM     15  C   UNL     1       2.520   5.401   0.612  1.00  0.00     0.326 C 
ATOM     16  O   UNL     1       3.381   4.664   1.087  1.00  0.00    -0.248 OA
ATOM     17  N   UNL     1       2.989   6.587   0.095  1.00  0.00    -0.307 N 
ATOM     18  H   UNL     1       3.819   6.505  -0.429  1.00  0.00     0.171 HD
BRANCH  17  19
ATOM     19  C   UNL     1       2.487   7.891   0.189  1.00  0.00     0.044 A 
ATOM     20  C   UNL     1       1.660   8.279   1.244  1.00  0.00     0.026 A 
ATOM     21  C   UNL     1       2.807   8.803  -0.822  1.00  0.00     0.046 A 
ATOM     22  C   UNL     1       1.064   9.538   1.238  1.00  0.00     0.004 A 
ATOM     23  C   UNL     1       2.193  10.056  -0.830  1.00  0.00     0.043 A 
ATOM     24  C   UNL     1       1.311  10.420   0.186  1.00  0.00     0.020 A 
ATOM     25  Cl  UNL     1       2.487  11.147  -2.129  1.00  0.00    -0.084 Cl
ENDBRANCH  17  19
ENDBRANCH  13  15
ENDBRANCH  12  13
ENDBRANCH   5   7
ENDBRANCH   4   5
ENDBRANCH   3   4
ENDBRANCH   2   3
ENDBRANCH   1   2
BRANCH   1  26
ATOM     26  C   UNL     1       3.871   3.898  -1.912  1.00  0.00     0.202 C 
BRANCH  26  27
ATOM     27  C   UNL     1       3.351   3.243  -3.174  1.00  0.00     0.261 C 
BRANCH  27  28
ATOM     28  O   UNL     1       3.462   1.838  -3.095  1.00  0.00    -0.460 OA
BRANCH  28  29
ATOM     29  C   UNL     1       4.537   1.355  -3.756  1.00  0.00     0.338 C 
ATOM     30  O   UNL     1       5.499   1.978  -4.158  1.00  0.00    -0.246 OA
BRANCH  29  31
ATOM     31  C   UNL     1       4.267  -0.048  -4.076  1.00  0.00     0.060 A 
ATOM     32  C   UNL     1       5.200  -0.646  -4.920  1.00  0.00     0.016 A 
ATOM     33  C   UNL     1       2.969  -0.553  -3.893  1.00  0.00     0.016 A 
ATOM     34  C   UNL     1       4.732  -1.572  -5.816  1.00  0.00     0.010 A 
ATOM     35  C   UNL     1       2.505  -1.474  -4.792  1.00  0.00     0.010 A 
ATOM     36  C   UNL     1       3.366  -1.877  -5.805  1.00  0.00    -0.014 A 
BRANCH  36  37
ATOM     37  C   UNL     1       2.864  -2.724  -6.857  1.00  0.00     0.031 A 
ATOM     38  C   UNL     1       3.306  -4.120  -6.676  1.00  0.00     0.074 A 
ATOM     39  C   UNL     1       2.036  -2.268  -7.814  1.00  0.00     0.049 A 
ATOM     40  N   UNL     1       4.216  -4.745  -7.343  1.00  0.00    -0.248 NA
ATOM     41  C   UNL     1       2.877  -4.809  -5.447  1.00  0.00     0.031 C 
ATOM     42  C   UNL     1       1.349  -0.978  -7.908  1.00  0.00     0.029 A 
ATOM     43  N   UNL     1       1.564  -2.941  -8.893  1.00  0.00    -0.354 N 
ATOM     44  C   UNL     1       4.289  -6.004  -6.763  1.00  0.00     0.074 A 
ATOM     45  C   UNL     1       3.641  -5.901  -5.484  1.00  0.00     0.031 C 
ATOM     46  C   UNL     1       0.376  -1.058  -8.848  1.00  0.00     0.029 A 
ATOM     47  C   UNL     1       0.470  -2.346  -9.513  1.00  0.00     0.049 A 
ATOM     48  H   UNL     1       1.963  -3.782  -9.212  1.00  0.00     0.167 HD
ATOM     49  C   UNL     1       4.627  -7.094  -7.501  1.00  0.00     0.037 A 
ATOM     50  C   UNL     1      -0.325  -2.954 -10.432  1.00  0.00     0.037 A 
ATOM     51  C   UNL     1       5.258  -6.707  -8.737  1.00  0.00     0.049 A 
ATOM     52  C   UNL     1       0.471  -4.088 -10.992  1.00  0.00     0.074 A 
ATOM     53  C   UNL     1       6.416  -6.024  -9.052  1.00  0.00     0.029 A 
ATOM     54  N   UNL     1       4.470  -6.659  -9.864  1.00  0.00    -0.354 N 
ATOM     55  N   UNL     1       1.563  -3.923 -11.694  1.00  0.00    -0.248 NA
ATOM     56  C   UNL     1       0.344  -5.383 -10.337  1.00  0.00     0.031 C 
ATOM     57  C   UNL     1       6.071  -5.205 -10.166  1.00  0.00     0.029 A 
ATOM     58  C   UNL     1       4.750  -5.487 -10.520  1.00  0.00     0.049 A 
ATOM     59  H   UNL     1       3.821  -7.343 -10.148  1.00  0.00     0.167 HD
ATOM     60  C   UNL     1       2.434  -4.909 -11.246  1.00  0.00     0.074 A 
ATOM     61  C   UNL     1       1.607  -5.808 -10.442  1.00  0.00     0.031 C 
ATOM     62  C   UNL     1       3.789  -4.752 -11.318  1.00  0.00     0.037 A 
BRANCH  49  63
ATOM     63  C   UNL     1       4.040  -8.463  -7.276  1.00  0.00     0.058 A 
ATOM     64  C   UNL     1       4.576  -9.560  -7.977  1.00  0.00     0.135 A 
ATOM     65  C   UNL     1       2.812  -8.699  -6.616  1.00  0.00     0.135 A 
ATOM     66  F   UNL     1       5.733  -9.444  -8.647  1.00  0.00    -0.206 F 
ATOM     67  C   UNL     1       3.906 -10.779  -8.072  1.00  0.00     0.059 A 
ATOM     68  C   UNL     1       2.158  -9.922  -6.649  1.00  0.00     0.059 A 
ATOM     69  F   UNL     1       2.130  -7.734  -5.990  1.00  0.00    -0.206 F 
ATOM     70  C   UNL     1       2.690 -10.944  -7.414  1.00  0.00     0.060 A 
BRANCH  70  71
ATOM     71  S   UNL     1       1.774 -12.478  -7.615  1.00  0.00     0.124 S 
ATOM     72  O   UNL     1       1.388 -12.403  -9.020  1.00  0.00    -0.237 OA
ATOM     73  O   UNL     1       2.783 -13.476  -7.279  1.00  0.00    -0.237 OA
ATOM     74  O   UNL     1       0.684 -12.347  -6.653  1.00  0.00    -0.744 OA
ENDBRANCH  70  71
ENDBRANCH  49  63
BRANCH  50  75
ATOM     75  C   UNL     1      -1.813  -2.904 -10.504  1.00  0.00     0.058 A 
ATOM     76  C   UNL     1      -2.512  -3.391 -11.624  1.00  0.00     0.135 A 
ATOM     77  C   UNL     1      -2.594  -2.636  -9.360  1.00  0.00     0.135 A 
ATOM     78  F   UNL     1      -1.848  -3.699 -12.748  1.00  0.00    -0.206 F 
ATOM     79  C   UNL     1      -3.892  -3.636 -11.598  1.00  0.00     0.059 A 
ATOM     80  C   UNL     1      -3.969  -2.866  -9.312  1.00  0.00     0.059 A 
ATOM     81  F   UNL     1      -2.026  -2.227  -8.216  1.00  0.00    -0.206 F 
ATOM     82  C   UNL     1      -4.610  -3.388 -10.428  1.00  0.00     0.060 A 
BRANCH  82  83
ATOM     83  S   UNL     1      -6.357  -3.853 -10.331  1.00  0.00     0.124 S 
ATOM     84  O   UNL     1      -6.976  -2.891 -11.237  1.00  0.00    -0.237 OA
ATOM     85  O   UNL     1      -6.335  -5.237 -10.790  1.00  0.00    -0.237 OA
ATOM     86  O   UNL     1      -6.678  -3.674  -8.918  1.00  0.00    -0.744 OA
ENDBRANCH  82  83
ENDBRANCH  50  75
BRANCH  62  87
ATOM     87  C   UNL     1       4.343  -3.604 -12.126  1.00  0.00     0.058 A 
ATOM     88  C   UNL     1       4.211  -2.247 -11.778  1.00  0.00     0.135 A 
ATOM     89  C   UNL     1       5.219  -3.913 -13.176  1.00  0.00     0.135 A 
ATOM     90  F   UNL     1       3.464  -1.875 -10.729  1.00  0.00    -0.206 F 
ATOM     91  C   UNL     1       4.911  -1.243 -12.457  1.00  0.00     0.059 A 
ATOM     92  C   UNL     1       5.947  -2.935 -13.845  1.00  0.00     0.059 A 
ATOM     93  F   UNL     1       5.432  -5.195 -13.516  1.00  0.00    -0.206 F 
ATOM     94  C   UNL     1       5.785  -1.599 -13.484  1.00  0.00     0.060 A 
BRANCH  94  95
ATOM     95  S   UNL     1       6.774  -0.321 -14.293  1.00  0.00     0.124 S 
ATOM     96  O   UNL     1       5.770   0.397 -15.071  1.00  0.00    -0.237 OA
ATOM     97  O   UNL     1       7.339   0.408 -13.161  1.00  0.00    -0.237 OA
ATOM     98  O   UNL     1       7.743  -1.083 -15.078  1.00  0.00    -0.744 OA
ENDBRANCH  94  95
ENDBRANCH  62  87
ENDBRANCH  36  37
ENDBRANCH  29  31
ENDBRANCH  28  29
ENDBRANCH  27  28
ENDBRANCH  26  27
ENDBRANCH   1  26
TORSDOF 20
