REMARK SMILES CC[C@H](NC(=O)N1CCO[C@@H](CC(=O)OCCOCCOC(=O)c2ccc(-c3c4nc(c(-c5c(F)cc(S(=O)(=O)[O-])cc5F)c5ccc([nH]5)c(-c5c(F)cc(S(=O)(=O)[O-])cc5F)c5nc(c(-c6c(F)cc(S(=O)(=O)[O-])cc6F)c6ccc3[nH]6)C=C5)C=C4)cc2)C1)c1cccs1
REMARK SMILES IDX 17 1 16 2 15 3 13 4 14 5 12 6 11 7 7 8 8 9 90 10 9 11 10 12
REMARK SMILES IDX 5 13 4 14 6 16 3 17 2 18 1 19 91 20 92 21 95 22 93 23 94 24
REMARK SMILES IDX 18 25 19 26 20 27 21 28 22 29 23 30 24 31 25 32 89 33 26 34
REMARK SMILES IDX 88 35 27 36 28 37 29 38 82 39 30 40 87 41 81 42 83 43 31 44
REMARK SMILES IDX 86 45 80 46 79 47 32 49 66 50 45 51 65 52 46 53 49 54 64 55
REMARK SMILES IDX 84 56 47 57 48 58 63 60 85 61 50 62 33 63 34 64 43 65 35 66
REMARK SMILES IDX 36 67 42 68 44 69 37 70 38 71 39 72 40 73 41 74 67 75 68 76
REMARK SMILES IDX 77 77 69 78 70 79 76 80 78 81 71 82 72 83 73 84 74 85 75 86
REMARK SMILES IDX 51 87 52 88 61 89 53 90 54 91 60 92 62 93 55 94 56 95 57 96
REMARK SMILES IDX 58 97 59 98
REMARK H PARENT 4 15 83 48 49 59
REMARK Flexibility Score: inf
ROOT
ATOM      1  C   UNL     1       4.311  -4.007   1.702  1.00  0.00     0.202 C 
ENDROOT
BRANCH   1   2
ATOM      2  C   UNL     1       5.108  -3.513   2.911  1.00  0.00     0.261 C 
BRANCH   2   3
ATOM      3  O   UNL     1       5.080  -2.075   3.011  1.00  0.00    -0.463 OA
BRANCH   3   4
ATOM      4  C   UNL     1       6.244  -1.427   2.757  1.00  0.00     0.308 C 
ATOM      5  O   UNL     1       7.303  -1.968   2.466  1.00  0.00    -0.252 OA
BRANCH   4   6
ATOM      6  C   UNL     1       6.107   0.061   2.929  1.00  0.00     0.156 C 
BRANCH   6   7
ATOM      7  C   UNL     1       5.031   0.751   2.090  1.00  0.00     0.149 C 
ATOM      8  N   UNL     1       2.651   1.434   1.967  1.00  0.00    -0.320 N 
ATOM      9  C   UNL     1       3.063   2.825   2.071  1.00  0.00     0.150 C 
ATOM     10  C   UNL     1       3.593   0.520   2.619  1.00  0.00     0.154 C 
ATOM     11  C   UNL     1       4.429   2.981   1.424  1.00  0.00     0.182 C 
ATOM     12  O   UNL     1       5.386   2.161   2.109  1.00  0.00    -0.374 OA
BRANCH   8  13
ATOM     13  C   UNL     1       1.365   1.033   1.768  1.00  0.00     0.318 C 
ATOM     14  N   UNL     1       0.632   1.549   0.757  1.00  0.00    -0.330 N 
ATOM     15  H   UNL     1      -0.299   1.231   0.740  1.00  0.00     0.166 HD
ATOM     16  O   UNL     1       0.853   0.145   2.448  1.00  0.00    -0.249 OA
BRANCH  14  17
ATOM     17  C   UNL     1       0.954   2.484  -0.314  1.00  0.00     0.124 C 
BRANCH  17  18
ATOM     18  C   UNL     1       0.346   2.038  -1.658  1.00  0.00     0.027 C 
ATOM     19  C   UNL     1       1.043   0.814  -2.239  1.00  0.00     0.006 C 
ENDBRANCH  17  18
BRANCH  17  20
ATOM     20  C   UNL     1       0.428   3.848   0.085  1.00  0.00     0.027 A 
ATOM     21  C   UNL     1      -0.572   4.175   0.986  1.00  0.00     0.017 A 
ATOM     22  S   UNL     1       1.162   5.265  -0.560  1.00  0.00    -0.147 S 
ATOM     23  C   UNL     1      -0.685   5.578   1.193  1.00  0.00     0.012 A 
ATOM     24  C   UNL     1       0.202   6.287   0.417  1.00  0.00     0.065 A 
ENDBRANCH  17  20
ENDBRANCH  14  17
ENDBRANCH   8  13
ENDBRANCH   6   7
ENDBRANCH   4   6
ENDBRANCH   3   4
ENDBRANCH   2   3
ENDBRANCH   1   2
BRANCH   1  25
ATOM     25  O   UNL     1       4.905  -3.761   0.426  1.00  0.00    -0.374 OA
BRANCH  25  26
ATOM     26  C   UNL     1       4.722  -2.457  -0.119  1.00  0.00     0.202 C 
BRANCH  26  27
ATOM     27  C   UNL     1       3.386  -2.200  -0.827  1.00  0.00     0.261 C 
BRANCH  27  28
ATOM     28  O   UNL     1       2.273  -2.251   0.081  1.00  0.00    -0.460 OA
BRANCH  28  29
ATOM     29  C   UNL     1       1.500  -3.360  -0.019  1.00  0.00     0.338 C 
ATOM     30  O   UNL     1       1.609  -4.258  -0.845  1.00  0.00    -0.246 OA
BRANCH  29  31
ATOM     31  C   UNL     1       0.583  -3.445   1.133  1.00  0.00     0.060 A 
ATOM     32  C   UNL     1       0.560  -4.631   1.877  1.00  0.00     0.016 A 
ATOM     33  C   UNL     1      -0.277  -2.398   1.459  1.00  0.00     0.016 A 
ATOM     34  C   UNL     1      -0.347  -4.781   2.928  1.00  0.00     0.010 A 
ATOM     35  C   UNL     1      -1.167  -2.538   2.529  1.00  0.00     0.010 A 
ATOM     36  C   UNL     1      -1.238  -3.746   3.244  1.00  0.00    -0.014 A 
BRANCH  36  37
ATOM     37  C   UNL     1      -2.347  -3.981   4.205  1.00  0.00     0.031 A 
ATOM     38  C   UNL     1      -3.748  -4.144   3.671  1.00  0.00     0.074 A 
ATOM     39  C   UNL     1      -2.118  -4.071   5.529  1.00  0.00     0.049 A 
ATOM     40  N   UNL     1      -4.869  -4.327   4.320  1.00  0.00    -0.248 NA
ATOM     41  C   UNL     1      -3.904  -4.085   2.208  1.00  0.00     0.031 C 
ATOM     42  C   UNL     1      -0.811  -3.943   6.172  1.00  0.00     0.029 A 
ATOM     43  N   UNL     1      -2.985  -4.286   6.573  1.00  0.00    -0.354 N 
ATOM     44  C   UNL     1      -5.862  -4.391   3.348  1.00  0.00     0.074 A 
ATOM     45  C   UNL     1      -5.217  -4.186   2.070  1.00  0.00     0.031 C 
ATOM     46  C   UNL     1      -0.961  -4.086   7.500  1.00  0.00     0.029 A 
ATOM     47  C   UNL     1      -2.378  -4.283   7.806  1.00  0.00     0.049 A 
ATOM     48  H   UNL     1      -3.951  -4.430   6.449  1.00  0.00     0.167 HD
ATOM     49  C   UNL     1      -7.188  -4.618   3.503  1.00  0.00     0.037 A 
ATOM     50  C   UNL     1      -2.906  -4.409   9.041  1.00  0.00     0.037 A 
ATOM     51  C   UNL     1      -7.826  -4.839   4.774  1.00  0.00     0.049 A 
ATOM     52  C   UNL     1      -4.392  -4.616   9.193  1.00  0.00     0.074 A 
ATOM     53  C   UNL     1      -9.158  -5.109   5.032  1.00  0.00     0.029 A 
ATOM     54  N   UNL     1      -7.178  -4.814   6.000  1.00  0.00    -0.354 N 
ATOM     55  N   UNL     1      -5.313  -4.707   8.263  1.00  0.00    -0.248 NA
ATOM     56  C   UNL     1      -4.910  -4.742  10.563  1.00  0.00     0.031 C 
ATOM     57  C   UNL     1      -9.325  -5.200   6.418  1.00  0.00     0.029 A 
ATOM     58  C   UNL     1      -8.087  -5.041   7.020  1.00  0.00     0.049 A 
ATOM     59  H   UNL     1      -6.214  -4.658   6.127  1.00  0.00     0.167 HD
ATOM     60  C   UNL     1      -6.512  -4.930   8.933  1.00  0.00     0.074 A 
ATOM     61  C   UNL     1      -6.199  -4.970  10.346  1.00  0.00     0.031 C 
ATOM     62  C   UNL     1      -7.760  -5.089   8.424  1.00  0.00     0.037 A 
BRANCH  49  63
ATOM     63  C   UNL     1      -8.041  -4.623   2.264  1.00  0.00     0.058 A 
ATOM     64  C   UNL     1      -7.968  -5.660   1.320  1.00  0.00     0.135 A 
ATOM     65  C   UNL     1      -8.963  -3.590   2.030  1.00  0.00     0.135 A 
ATOM     66  F   UNL     1      -7.092  -6.664   1.484  1.00  0.00    -0.206 F 
ATOM     67  C   UNL     1      -8.755  -5.656   0.172  1.00  0.00     0.059 A 
ATOM     68  C   UNL     1      -9.781  -3.581   0.904  1.00  0.00     0.059 A 
ATOM     69  F   UNL     1      -9.074  -2.573   2.899  1.00  0.00    -0.206 F 
ATOM     70  C   UNL     1      -9.658  -4.611  -0.027  1.00  0.00     0.060 A 
BRANCH  70  71
ATOM     71  S   UNL     1     -10.672  -4.620  -1.520  1.00  0.00     0.124 S 
ATOM     72  O   UNL     1      -9.688  -4.274  -2.542  1.00  0.00    -0.237 OA
ATOM     73  O   UNL     1     -11.165  -5.993  -1.555  1.00  0.00    -0.237 OA
ATOM     74  O   UNL     1     -11.682  -3.600  -1.253  1.00  0.00    -0.744 OA
ENDBRANCH  70  71
ENDBRANCH  49  63
BRANCH  50  75
ATOM     75  C   UNL     1      -2.025  -4.342  10.239  1.00  0.00     0.058 A 
ATOM     76  C   UNL     1      -1.787  -5.476  11.029  1.00  0.00     0.135 A 
ATOM     77  C   UNL     1      -1.407  -3.140  10.621  1.00  0.00     0.135 A 
ATOM     78  F   UNL     1      -2.365  -6.646  10.714  1.00  0.00    -0.206 F 
ATOM     79  C   UNL     1      -0.980  -5.421  12.162  1.00  0.00     0.059 A 
ATOM     80  C   UNL     1      -0.576  -3.066  11.734  1.00  0.00     0.059 A 
ATOM     81  F   UNL     1      -1.596  -2.027   9.896  1.00  0.00    -0.206 F 
ATOM     82  C   UNL     1      -0.376  -4.211  12.505  1.00  0.00     0.060 A 
BRANCH  82  83
ATOM     83  S   UNL     1       0.709  -4.161  13.948  1.00  0.00     0.124 S 
ATOM     84  O   UNL     1      -0.253  -4.243  15.042  1.00  0.00    -0.237 OA
ATOM     85  O   UNL     1       1.545  -5.339  13.743  1.00  0.00    -0.237 OA
ATOM     86  O   UNL     1       1.397  -2.881  13.807  1.00  0.00    -0.744 OA
ENDBRANCH  82  83
ENDBRANCH  50  75
BRANCH  62  87
ATOM     87  C   UNL     1      -8.880  -5.362   9.391  1.00  0.00     0.058 A 
ATOM     88  C   UNL     1      -9.392  -4.362  10.232  1.00  0.00     0.135 A 
ATOM     89  C   UNL     1      -9.491  -6.626   9.431  1.00  0.00     0.135 A 
ATOM     90  F   UNL     1      -8.842  -3.137  10.238  1.00  0.00    -0.206 F 
ATOM     91  C   UNL     1     -10.455  -4.611  11.094  1.00  0.00     0.059 A 
ATOM     92  C   UNL     1     -10.573  -6.890  10.264  1.00  0.00     0.059 A 
ATOM     93  F   UNL     1      -9.049  -7.616   8.638  1.00  0.00    -0.206 F 
ATOM     94  C   UNL     1     -11.042  -5.878  11.101  1.00  0.00     0.060 A 
BRANCH  94  95
ATOM     95  S   UNL     1     -12.446  -6.177  12.196  1.00  0.00     0.124 S 
ATOM     96  O   UNL     1     -11.793  -6.245  13.499  1.00  0.00    -0.237 OA
ATOM     97  O   UNL     1     -13.279  -5.001  11.965  1.00  0.00    -0.237 OA
ATOM     98  O   UNL     1     -12.999  -7.436  11.704  1.00  0.00    -0.744 OA
ENDBRANCH  94  95
ENDBRANCH  62  87
ENDBRANCH  36  37
ENDBRANCH  29  31
ENDBRANCH  28  29
ENDBRANCH  27  28
ENDBRANCH  26  27
ENDBRANCH  25  26
ENDBRANCH   1  25
TORSDOF 22
