REMARK SMILES Cc1ccc(S(=O)(=O)n2cc(C(=O)C(=O)N[C@H](Cc3c[nH]c4ccccc34)C(=O)NCC(=O)OCCOCCOC(=O)c3ccc(-c4c5nc(c(-c6c(F)cc(S(=O)(=O)[O-])cc6F)c6ccc([nH]6)c(-c6c(F)cc(S(=O)(=O)[O-])cc6F)c6nc(c(-c7c(F)cc(S(=O)(=O)[O-])cc7F)c7ccc4[nH]7)C=C6)C=C5)cc3)c3ccccc32)cc1
REMARK SMILES IDX 35 1 34 2 32 3 33 4 31 5 30 6 28 7 29 8 17 10 16 11 14 12
REMARK SMILES IDX 15 13 12 15 13 16 11 17 9 18 10 19 114 20 109 21 113 22
REMARK SMILES IDX 110 23 112 24 111 25 6 26 7 27 8 28 5 29 1 30 2 31 3 32
REMARK SMILES IDX 116 33 4 34 115 35 18 36 19 37 20 38 27 39 21 40 22 41 26 42
REMARK SMILES IDX 23 44 25 45 24 46 36 47 37 48 38 49 39 50 40 51 41 52 42 53
REMARK SMILES IDX 43 54 44 55 108 56 45 57 107 58 46 59 47 60 48 61 101 62
REMARK SMILES IDX 49 63 106 64 100 65 102 66 50 67 105 68 99 69 98 70 51 72
REMARK SMILES IDX 85 73 64 74 84 75 65 76 68 77 83 78 103 79 66 80 67 81 82 83
REMARK SMILES IDX 104 84 69 85 52 86 53 87 62 88 54 89 55 90 61 91 63 92 56 93
REMARK SMILES IDX 57 94 58 95 59 96 60 97 86 98 87 99 96 100 88 101 89 102
REMARK SMILES IDX 95 103 97 104 90 105 91 106 92 107 93 108 94 109 70 110
REMARK SMILES IDX 71 111 80 112 72 113 73 114 79 115 81 116 74 117 75 118
REMARK SMILES IDX 76 119 77 120 78 121
REMARK H PARENT 30 9 16 14 21 43 102 71 68 82
REMARK Flexibility Score: inf
ROOT
ATOM      1  C   UNL     1     -11.694   4.950  -2.007  1.00  0.00     0.261 C 
ENDROOT
BRANCH   1   2
ATOM      2  O   UNL     1     -12.335   3.725  -1.633  1.00  0.00    -0.462 OA
BRANCH   2   3
ATOM      3  C   UNL     1     -13.648   3.810  -1.289  1.00  0.00     0.325 C 
ATOM      4  O   UNL     1     -14.332   4.798  -1.219  1.00  0.00    -0.250 OA
BRANCH   3   5
ATOM      5  C   UNL     1     -14.174   2.450  -0.882  1.00  0.00     0.238 C 
BRANCH   5   6
ATOM      6  N   UNL     1     -13.438   1.342  -1.438  1.00  0.00    -0.343 N 
ATOM      7  C   UNL     1     -12.328   0.693  -1.031  1.00  0.00     0.243 C 
ATOM      8  O   UNL     1     -12.022  -0.279  -1.734  1.00  0.00    -0.273 OA
ATOM      9  H   UNL     1     -13.818   0.991  -2.275  1.00  0.00     0.164 HD
BRANCH   7  10
ATOM     10  C   UNL     1     -11.447   1.093   0.187  1.00  0.00     0.176 C 
BRANCH  10  11
ATOM     11  N   UNL     1     -12.146   1.390   1.503  1.00  0.00    -0.337 N 
ATOM     12  C   UNL     1     -12.688   2.432   2.252  1.00  0.00     0.293 C 
ATOM     13  O   UNL     1     -13.256   2.137   3.304  1.00  0.00    -0.265 OA
ATOM     14  H   UNL     1     -12.255   0.549   2.003  1.00  0.00     0.164 HD
BRANCH  12  15
ATOM     15  C   UNL     1     -12.634   3.903   1.850  1.00  0.00     0.252 C 
ATOM     16  O   UNL     1     -11.808   4.148   0.972  1.00  0.00    -0.283 OA
BRANCH  15  17
ATOM     17  C   UNL     1     -13.367   5.028   2.500  1.00  0.00     0.054 A 
ATOM     18  N   UNL     1     -13.549   6.612   4.117  1.00  0.00    -0.240 N 
ATOM     19  C   UNL     1     -13.842   5.243   3.811  1.00  0.00     0.117 A 
ATOM     20  C   UNL     1     -12.769   6.969   3.053  1.00  0.00     0.065 A 
ATOM     21  C   UNL     1     -13.394   6.349   1.980  1.00  0.00     0.012 A 
ATOM     22  C   UNL     1     -11.651   7.710   2.869  1.00  0.00     0.028 A 
ATOM     23  C   UNL     1     -13.431   7.031   0.762  1.00  0.00     0.011 A 
ATOM     24  C   UNL     1     -11.718   8.404   1.671  1.00  0.00     0.002 A 
ATOM     25  C   UNL     1     -12.696   8.200   0.694  1.00  0.00     0.001 A 
BRANCH  18  26
ATOM     26  S   UNL     1     -14.857   7.827   4.497  1.00  0.00     0.268 S 
ATOM     27  O   UNL     1     -15.932   7.005   5.025  1.00  0.00    -0.201 OA
ATOM     28  O   UNL     1     -15.024   8.607   3.283  1.00  0.00    -0.201 OA
BRANCH  26  29
ATOM     29  C   UNL     1     -14.407   9.017   5.790  1.00  0.00     0.088 A 
ATOM     30  C   UNL     1     -14.462  13.053   7.387  1.00  0.00     0.044 C 
ATOM     31  C   UNL     1     -14.301  11.576   7.107  1.00  0.00    -0.051 A 
ATOM     32  C   UNL     1     -13.270  11.164   6.285  1.00  0.00     0.005 A 
ATOM     33  C   UNL     1     -15.302  10.639   7.387  1.00  0.00     0.005 A 
ATOM     34  C   UNL     1     -13.439   9.969   5.547  1.00  0.00     0.022 A 
ATOM     35  C   UNL     1     -15.328   9.356   6.774  1.00  0.00     0.022 A 
ENDBRANCH  26  29
ENDBRANCH  18  26
ENDBRANCH  15  17
ENDBRANCH  12  15
ENDBRANCH  10  11
BRANCH  10  36
ATOM     36  C   UNL     1     -10.100   1.794  -0.161  1.00  0.00     0.072 C 
BRANCH  36  37
ATOM     37  C   UNL     1      -9.469   1.490  -1.521  1.00  0.00    -0.020 A 
ATOM     38  C   UNL     1      -9.230   2.441  -2.495  1.00  0.00     0.087 A 
ATOM     39  C   UNL     1      -8.937   0.260  -2.069  1.00  0.00     0.003 A 
ATOM     40  N   UNL     1      -8.721   1.853  -3.620  1.00  0.00    -0.361 N 
ATOM     41  C   UNL     1      -8.495   0.523  -3.374  1.00  0.00     0.046 A 
ATOM     42  C   UNL     1      -8.791  -1.064  -1.598  1.00  0.00     0.010 A 
ATOM     43  H   UNL     1      -8.544   2.313  -4.473  1.00  0.00     0.166 HD
ATOM     44  C   UNL     1      -7.936  -0.447  -4.218  1.00  0.00     0.026 A 
ATOM     45  C   UNL     1      -8.235  -2.051  -2.431  1.00  0.00     0.001 A 
ATOM     46  C   UNL     1      -7.815  -1.744  -3.723  1.00  0.00     0.002 A 
ENDBRANCH  36  37
ENDBRANCH  10  36
ENDBRANCH   7  10
ENDBRANCH   5   6
ENDBRANCH   3   5
ENDBRANCH   2   3
ENDBRANCH   1   2
BRANCH   1  47
ATOM     47  C   UNL     1     -11.941   5.155  -3.485  1.00  0.00     0.202 C 
BRANCH  47  48
ATOM     48  O   UNL     1     -13.166   5.880  -3.580  1.00  0.00    -0.374 OA
BRANCH  48  49
ATOM     49  C   UNL     1     -14.139   5.375  -4.474  1.00  0.00     0.202 C 
BRANCH  49  50
ATOM     50  C   UNL     1     -13.710   5.439  -5.943  1.00  0.00     0.261 C 
BRANCH  50  51
ATOM     51  O   UNL     1     -13.643   6.805  -6.403  1.00  0.00    -0.460 OA
BRANCH  51  52
ATOM     52  C   UNL     1     -12.399   7.213  -6.787  1.00  0.00     0.338 C 
ATOM     53  O   UNL     1     -11.913   6.971  -7.879  1.00  0.00    -0.246 OA
BRANCH  52  54
ATOM     54  C   UNL     1     -11.729   7.961  -5.692  1.00  0.00     0.060 A 
ATOM     55  C   UNL     1     -10.331   8.091  -5.656  1.00  0.00     0.016 A 
ATOM     56  C   UNL     1     -12.489   8.338  -4.593  1.00  0.00     0.016 A 
ATOM     57  C   UNL     1      -9.685   8.461  -4.469  1.00  0.00     0.010 A 
ATOM     58  C   UNL     1     -11.844   8.536  -3.395  1.00  0.00     0.010 A 
ATOM     59  C   UNL     1     -10.441   8.614  -3.318  1.00  0.00    -0.014 A 
BRANCH  59  60
ATOM     60  C   UNL     1      -9.922   8.850  -1.958  1.00  0.00     0.031 A 
ATOM     61  C   UNL     1     -10.483  10.100  -1.292  1.00  0.00     0.074 A 
ATOM     62  C   UNL     1      -9.504   7.696  -1.371  1.00  0.00     0.049 A 
ATOM     63  N   UNL     1     -10.275  10.548  -0.098  1.00  0.00    -0.248 NA
ATOM     64  C   UNL     1     -11.370  11.014  -2.040  1.00  0.00     0.031 C 
ATOM     65  C   UNL     1      -9.820   7.114  -0.084  1.00  0.00     0.029 A 
ATOM     66  N   UNL     1      -8.495   6.838  -1.810  1.00  0.00    -0.354 N 
ATOM     67  C   UNL     1     -11.254  11.515   0.169  1.00  0.00     0.074 A 
ATOM     68  C   UNL     1     -11.901  11.768  -1.082  1.00  0.00     0.031 C 
ATOM     69  C   UNL     1      -8.878   6.276   0.347  1.00  0.00     0.029 A 
ATOM     70  C   UNL     1      -7.871   6.283  -0.664  1.00  0.00     0.049 A 
ATOM     71  H   UNL     1      -8.259   6.650  -2.747  1.00  0.00     0.167 HD
ATOM     72  C   UNL     1     -11.554  11.917   1.439  1.00  0.00     0.037 A 
ATOM     73  C   UNL     1      -6.562   6.493  -0.386  1.00  0.00     0.037 A 
ATOM     74  C   UNL     1     -10.568  11.343   2.413  1.00  0.00     0.049 A 
ATOM     75  C   UNL     1      -6.380   7.401   0.813  1.00  0.00     0.074 A 
ATOM     76  C   UNL     1     -10.680  10.514   3.507  1.00  0.00     0.029 A 
ATOM     77  N   UNL     1      -9.178  11.287   2.141  1.00  0.00    -0.354 N 
ATOM     78  N   UNL     1      -7.105   8.457   1.116  1.00  0.00    -0.248 NA
ATOM     79  C   UNL     1      -5.422   7.041   1.857  1.00  0.00     0.031 C 
ATOM     80  C   UNL     1      -9.482   9.858   3.810  1.00  0.00     0.029 A 
ATOM     81  C   UNL     1      -8.552  10.313   2.912  1.00  0.00     0.049 A 
ATOM     82  H   UNL     1      -8.716  11.863   1.490  1.00  0.00     0.167 HD
ATOM     83  C   UNL     1      -6.661   8.952   2.333  1.00  0.00     0.074 A 
ATOM     84  C   UNL     1      -5.646   8.002   2.764  1.00  0.00     0.031 C 
ATOM     85  C   UNL     1      -7.134  10.057   2.996  1.00  0.00     0.037 A 
BRANCH  72  86
ATOM     86  C   UNL     1     -12.995  12.500   1.743  1.00  0.00     0.058 A 
ATOM     87  C   UNL     1     -13.624  12.174   2.945  1.00  0.00     0.135 A 
ATOM     88  C   UNL     1     -13.804  13.377   0.991  1.00  0.00     0.135 A 
ATOM     89  F   UNL     1     -12.807  12.003   3.973  1.00  0.00    -0.206 F 
ATOM     90  C   UNL     1     -14.978  12.372   3.284  1.00  0.00     0.059 A 
ATOM     91  C   UNL     1     -15.128  13.764   1.365  1.00  0.00     0.059 A 
ATOM     92  F   UNL     1     -13.291  14.028  -0.062  1.00  0.00    -0.206 F 
ATOM     93  C   UNL     1     -15.717  13.238   2.511  1.00  0.00     0.060 A 
BRANCH  93  94
ATOM     94  S   UNL     1     -17.241  13.932   3.223  1.00  0.00     0.124 S 
ATOM     95  O   UNL     1     -17.882  12.784   3.860  1.00  0.00    -0.237 OA
ATOM     96  O   UNL     1     -16.699  14.928   4.144  1.00  0.00    -0.237 OA
ATOM     97  O   UNL     1     -17.947  14.471   2.064  1.00  0.00    -0.744 OA
ENDBRANCH  93  94
ENDBRANCH  72  86
BRANCH  73  98
ATOM     98  C   UNL     1      -5.729   6.283  -1.612  1.00  0.00     0.058 A 
ATOM     99  C   UNL     1      -5.703   4.928  -2.026  1.00  0.00     0.135 A 
ATOM    100  C   UNL     1      -5.782   7.258  -2.621  1.00  0.00     0.135 A 
ATOM    101  F   UNL     1      -5.597   3.952  -1.108  1.00  0.00    -0.206 F 
ATOM    102  C   UNL     1      -6.081   4.560  -3.314  1.00  0.00     0.059 A 
ATOM    103  C   UNL     1      -6.161   6.908  -3.922  1.00  0.00     0.059 A 
ATOM    104  F   UNL     1      -5.771   8.559  -2.293  1.00  0.00    -0.206 F 
ATOM    105  C   UNL     1      -6.423   5.566  -4.214  1.00  0.00     0.060 A 
BRANCH 105 106
ATOM    106  S   UNL     1      -7.520   5.121  -5.586  1.00  0.00     0.124 S 
ATOM    107  O   UNL     1      -6.849   3.966  -6.172  1.00  0.00    -0.237 OA
ATOM    108  O   UNL     1      -8.756   4.810  -4.868  1.00  0.00    -0.237 OA
ATOM    109  O   UNL     1      -7.551   6.327  -6.402  1.00  0.00    -0.744 OA
ENDBRANCH 105 106
ENDBRANCH  73  98
BRANCH  85 110
ATOM    110  C   UNL     1      -6.411  10.787   4.124  1.00  0.00     0.058 A 
ATOM    111  C   UNL     1      -5.016  10.790   4.257  1.00  0.00     0.135 A 
ATOM    112  C   UNL     1      -7.102  11.655   5.021  1.00  0.00     0.135 A 
ATOM    113  F   UNL     1      -4.231  10.105   3.413  1.00  0.00    -0.206 F 
ATOM    114  C   UNL     1      -4.362  11.548   5.228  1.00  0.00     0.059 A 
ATOM    115  C   UNL     1      -6.470  12.428   5.981  1.00  0.00     0.059 A 
ATOM    116  F   UNL     1      -8.427  11.846   4.982  1.00  0.00    -0.206 F 
ATOM    117  C   UNL     1      -5.096  12.372   6.076  1.00  0.00     0.060 A 
BRANCH 117 118
ATOM    118  S   UNL     1      -4.238  13.468   7.209  1.00  0.00     0.124 S 
ATOM    119  O   UNL     1      -3.792  12.533   8.237  1.00  0.00    -0.237 OA
ATOM    120  O   UNL     1      -3.192  14.026   6.358  1.00  0.00    -0.237 OA
ATOM    121  O   UNL     1      -5.271  14.413   7.623  1.00  0.00    -0.744 OA
ENDBRANCH 117 118
ENDBRANCH  85 110
ENDBRANCH  59  60
ENDBRANCH  52  54
ENDBRANCH  51  52
ENDBRANCH  50  51
ENDBRANCH  49  50
ENDBRANCH  48  49
ENDBRANCH  47  48
ENDBRANCH   1  47
TORSDOF 26
