REMARK SMILES C[C@H](NC(=O)c1ccc(NC(N)=O)cc1)C(=O)OCCOCCOC(=O)c1ccc(-c2c3nc(c(-c4c(F)cc(S(=O)(=O)[O-])cc4F)c4ccc([nH]4)c(-c4c(F)cc(S(=O)(=O)[O-])cc4F)c4nc(c(-c5c(F)cc(S(=O)(=O)[O-])cc5F)c5ccc2[nH]5)C=C4)C=C3)cc1
REMARK SMILES IDX 21 1 20 2 19 3 18 4 16 5 17 6 2 7 1 8 3 9 4 10 5 12 6 13
REMARK SMILES IDX 7 14 15 15 8 16 14 17 9 18 10 19 11 20 12 22 13 23 22 26
REMARK SMILES IDX 23 27 24 28 25 29 26 30 27 31 28 32 92 33 29 34 91 35 30 36
REMARK SMILES IDX 31 37 32 38 85 39 33 40 90 41 84 42 86 43 34 44 89 45 83 46
REMARK SMILES IDX 82 47 35 49 69 50 48 51 68 52 49 53 52 54 67 55 87 56 50 57
REMARK SMILES IDX 51 58 66 60 88 61 53 62 36 63 37 64 46 65 38 66 39 67 45 68
REMARK SMILES IDX 47 69 40 70 41 71 42 72 43 73 44 74 70 75 71 76 80 77 72 78
REMARK SMILES IDX 73 79 79 80 81 81 74 82 75 83 76 84 77 85 78 86 54 87 55 88
REMARK SMILES IDX 64 89 56 90 57 91 63 92 65 93 58 94 59 95 60 96 61 97 62 98
REMARK H PARENT 3 11 10 21 12 24 12 25 86 48 52 59
REMARK Flexibility Score: inf
ROOT
ATOM      1  O   UNL     1      -3.089  -0.672  -1.770  1.00  0.00    -0.374 OA
ENDROOT
BRANCH   1   2
ATOM      2  C   UNL     1      -3.752  -0.785  -0.515  1.00  0.00     0.202 C 
BRANCH   2   3
ATOM      3  C   UNL     1      -3.124  -1.712   0.531  1.00  0.00     0.261 C 
BRANCH   3   4
ATOM      4  O   UNL     1      -1.699  -1.574   0.625  1.00  0.00    -0.462 OA
BRANCH   4   5
ATOM      5  C   UNL     1      -0.995  -2.681   0.259  1.00  0.00     0.328 C 
ATOM      6  O   UNL     1      -1.486  -3.767  -0.035  1.00  0.00    -0.250 OA
BRANCH   5   7
ATOM      7  C   UNL     1       0.520  -2.473   0.336  1.00  0.00     0.189 C 
ATOM      8  C   UNL     1       1.016  -3.175   1.595  1.00  0.00     0.043 C 
BRANCH   7   9
ATOM      9  N   UNL     1       0.991  -1.079   0.290  1.00  0.00    -0.339 N 
ATOM     10  C   UNL     1       2.232  -0.628  -0.110  1.00  0.00     0.251 C 
ATOM     11  H   UNL     1       0.348  -0.392   0.577  1.00  0.00     0.164 HD
ATOM     12  O   UNL     1       2.533   0.557  -0.081  1.00  0.00    -0.269 OA
BRANCH  10  13
ATOM     13  C   UNL     1       3.219  -1.635  -0.554  1.00  0.00     0.039 A 
ATOM     14  C   UNL     1       4.246  -2.002   0.315  1.00  0.00     0.016 A 
ATOM     15  C   UNL     1       3.019  -2.327  -1.750  1.00  0.00     0.016 A 
ATOM     16  C   UNL     1       4.988  -3.158   0.053  1.00  0.00     0.027 A 
ATOM     17  C   UNL     1       3.757  -3.485  -1.999  1.00  0.00     0.027 A 
ATOM     18  C   UNL     1       4.710  -3.937  -1.075  1.00  0.00     0.042 A 
BRANCH  18  19
ATOM     19  N   UNL     1       5.277  -5.204  -1.312  1.00  0.00    -0.308 N 
ATOM     20  C   UNL     1       6.183  -5.876  -0.536  1.00  0.00     0.316 C 
ATOM     21  H   UNL     1       4.987  -5.662  -2.135  1.00  0.00     0.171 HD
ATOM     22  N   UNL     1       6.385  -7.152  -0.967  1.00  0.00    -0.351 N 
ATOM     23  O   UNL     1       6.786  -5.470   0.446  1.00  0.00    -0.249 OA
ATOM     24  H   UNL     1       5.903  -7.487  -1.757  1.00  0.00     0.161 HD
ATOM     25  H   UNL     1       7.013  -7.739  -0.488  1.00  0.00     0.161 HD
ENDBRANCH  18  19
ENDBRANCH  10  13
ENDBRANCH   7   9
ENDBRANCH   5   7
ENDBRANCH   4   5
ENDBRANCH   3   4
ENDBRANCH   2   3
ENDBRANCH   1   2
BRANCH   1  26
ATOM     26  C   UNL     1      -1.872   0.076  -1.822  1.00  0.00     0.202 C 
BRANCH  26  27
ATOM     27  C   UNL     1      -1.929   1.569  -1.466  1.00  0.00     0.261 C 
BRANCH  27  28
ATOM     28  O   UNL     1      -2.230   1.802  -0.077  1.00  0.00    -0.460 OA
BRANCH  28  29
ATOM     29  C   UNL     1      -3.326   2.573   0.140  1.00  0.00     0.338 C 
ATOM     30  O   UNL     1      -4.035   3.098  -0.709  1.00  0.00    -0.246 OA
BRANCH  29  31
ATOM     31  C   UNL     1      -3.698   2.560   1.565  1.00  0.00     0.060 A 
ATOM     32  C   UNL     1      -4.973   2.087   1.897  1.00  0.00     0.016 A 
ATOM     33  C   UNL     1      -2.872   3.116   2.541  1.00  0.00     0.016 A 
ATOM     34  C   UNL     1      -5.447   2.212   3.201  1.00  0.00     0.010 A 
ATOM     35  C   UNL     1      -3.352   3.250   3.851  1.00  0.00     0.010 A 
ATOM     36  C   UNL     1      -4.655   2.833   4.178  1.00  0.00    -0.014 A 
BRANCH  36  37
ATOM     37  C   UNL     1      -5.262   3.165   5.491  1.00  0.00     0.031 A 
ATOM     38  C   UNL     1      -5.774   4.561   5.733  1.00  0.00     0.074 A 
ATOM     39  C   UNL     1      -5.415   2.217   6.434  1.00  0.00     0.049 A 
ATOM     40  N   UNL     1      -6.365   5.055   6.791  1.00  0.00    -0.248 NA
ATOM     41  C   UNL     1      -5.601   5.525   4.635  1.00  0.00     0.031 C 
ATOM     42  C   UNL     1      -4.985   0.825   6.308  1.00  0.00     0.029 A 
ATOM     43  N   UNL     1      -5.976   2.284   7.685  1.00  0.00    -0.354 N 
ATOM     44  C   UNL     1      -6.646   6.382   6.483  1.00  0.00     0.074 A 
ATOM     45  C   UNL     1      -6.123   6.627   5.156  1.00  0.00     0.031 C 
ATOM     46  C   UNL     1      -5.291   0.170   7.441  1.00  0.00     0.029 A 
ATOM     47  C   UNL     1      -5.919   1.099   8.379  1.00  0.00     0.049 A 
ATOM     48  H   UNL     1      -6.380   3.103   8.050  1.00  0.00     0.167 HD
ATOM     49  C   UNL     1      -7.295   7.307   7.230  1.00  0.00     0.037 A 
ATOM     50  C   UNL     1      -6.316   0.802   9.632  1.00  0.00     0.037 A 
ATOM     51  C   UNL     1      -7.804   7.066   8.555  1.00  0.00     0.049 A 
ATOM     52  C   UNL     1      -6.985   1.864  10.466  1.00  0.00     0.074 A 
ATOM     53  C   UNL     1      -8.464   7.943   9.399  1.00  0.00     0.029 A 
ATOM     54  N   UNL     1      -7.709   5.859   9.232  1.00  0.00    -0.354 N 
ATOM     55  N   UNL     1      -7.256   3.110  10.154  1.00  0.00    -0.248 NA
ATOM     56  C   UNL     1      -7.412   1.477  11.818  1.00  0.00     0.031 C 
ATOM     57  C   UNL     1      -8.738   7.276  10.598  1.00  0.00     0.029 A 
ATOM     58  C   UNL     1      -8.288   5.971  10.485  1.00  0.00     0.049 A 
ATOM     59  H   UNL     1      -7.292   5.042   8.873  1.00  0.00     0.167 HD
ATOM     60  C   UNL     1      -7.906   3.647  11.261  1.00  0.00     0.074 A 
ATOM     61  C   UNL     1      -8.001   2.586  12.243  1.00  0.00     0.031 C 
ATOM     62  C   UNL     1      -8.380   4.903  11.450  1.00  0.00     0.037 A 
BRANCH  49  63
ATOM     63  C   UNL     1      -7.485   8.672   6.630  1.00  0.00     0.058 A 
ATOM     64  C   UNL     1      -8.408   8.895   5.595  1.00  0.00     0.135 A 
ATOM     65  C   UNL     1      -6.765   9.776   7.114  1.00  0.00     0.135 A 
ATOM     66  F   UNL     1      -9.110   7.871   5.083  1.00  0.00    -0.206 F 
ATOM     67  C   UNL     1      -8.595  10.160   5.046  1.00  0.00     0.059 A 
ATOM     68  C   UNL     1      -6.953  11.055   6.596  1.00  0.00     0.059 A 
ATOM     69  F   UNL     1      -5.869   9.618   8.100  1.00  0.00    -0.206 F 
ATOM     70  C   UNL     1      -7.861  11.234   5.553  1.00  0.00     0.060 A 
BRANCH  70  71
ATOM     71  S   UNL     1      -8.120  12.871   4.836  1.00  0.00     0.124 S 
ATOM     72  O   UNL     1      -7.443  12.735   3.550  1.00  0.00    -0.237 OA
ATOM     73  O   UNL     1      -9.576  12.961   4.779  1.00  0.00    -0.237 OA
ATOM     74  O   UNL     1      -7.477  13.767   5.792  1.00  0.00    -0.744 OA
ENDBRANCH  70  71
ENDBRANCH  49  63
BRANCH  50  75
ATOM     75  C   UNL     1      -6.082  -0.559  10.184  1.00  0.00     0.058 A 
ATOM     76  C   UNL     1      -7.146  -1.438  10.435  1.00  0.00     0.135 A 
ATOM     77  C   UNL     1      -4.785  -0.998  10.489  1.00  0.00     0.135 A 
ATOM     78  F   UNL     1      -8.405  -1.061  10.169  1.00  0.00    -0.206 F 
ATOM     79  C   UNL     1      -6.934  -2.697  10.989  1.00  0.00     0.059 A 
ATOM     80  C   UNL     1      -4.545  -2.261  11.020  1.00  0.00     0.059 A 
ATOM     81  F   UNL     1      -3.732  -0.199  10.256  1.00  0.00    -0.206 F 
ATOM     82  C   UNL     1      -5.629  -3.099  11.280  1.00  0.00     0.060 A 
BRANCH  82  83
ATOM     83  S   UNL     1      -5.357  -4.747  11.966  1.00  0.00     0.124 S 
ATOM     84  O   UNL     1      -5.774  -4.559  13.351  1.00  0.00    -0.237 OA
ATOM     85  O   UNL     1      -6.233  -5.573  11.141  1.00  0.00    -0.237 OA
ATOM     86  O   UNL     1      -3.929  -4.963  11.759  1.00  0.00    -0.744 OA
ENDBRANCH  82  83
ENDBRANCH  50  75
BRANCH  62  87
ATOM     87  C   UNL     1      -9.073   5.191  12.753  1.00  0.00     0.058 A 
ATOM     88  C   UNL     1      -8.361   5.312  13.957  1.00  0.00     0.135 A 
ATOM     89  C   UNL     1     -10.465   5.377  12.793  1.00  0.00     0.135 A 
ATOM     90  F   UNL     1      -7.030   5.139  13.974  1.00  0.00    -0.206 F 
ATOM     91  C   UNL     1      -9.008   5.575  15.160  1.00  0.00     0.059 A 
ATOM     92  C   UNL     1     -11.129   5.666  13.981  1.00  0.00     0.059 A 
ATOM     93  F   UNL     1     -11.192   5.284  11.668  1.00  0.00    -0.206 F 
ATOM     94  C   UNL     1     -10.394   5.747  15.163  1.00  0.00     0.060 A 
BRANCH  94  95
ATOM     95  S   UNL     1     -11.223   6.099  16.728  1.00  0.00     0.124 S 
ATOM     96  O   UNL     1     -11.229   4.784  17.359  1.00  0.00    -0.237 OA
ATOM     97  O   UNL     1     -10.339   7.090  17.336  1.00  0.00    -0.237 OA
ATOM     98  O   UNL     1     -12.528   6.604  16.314  1.00  0.00    -0.744 OA
ENDBRANCH  94  95
ENDBRANCH  62  87
ENDBRANCH  36  37
ENDBRANCH  29  31
ENDBRANCH  28  29
ENDBRANCH  27  28
ENDBRANCH  26  27
ENDBRANCH   1  26
TORSDOF 20
