REMARK SMILES O=C(OCCOCCOC(=O)c1ccccc1-c1ccc(/C=C2/SC(=S)N(Cc3ccccc3)C2=O)o1)c1ccc(-c2c3nc(c(-c4c(F)cc(S(=O)(=O)[O-])cc4F)c4ccc([nH]4)c(-c4c(F)cc(S(=O)(=O)[O-])cc4F)c4nc(c(-c5c(F)cc(S(=O)(=O)[O-])cc5F)c5ccc2[nH]5)C=C4)C=C3)cc1
REMARK SMILES IDX 7 1 6 2 5 3 4 4 3 5 2 6 1 7 38 8 39 9 103 10 40 11 102 12
REMARK SMILES IDX 41 13 42 14 43 15 96 16 44 17 101 18 95 19 97 20 45 21
REMARK SMILES IDX 100 22 94 23 93 24 46 26 80 27 59 28 79 29 60 30 63 31 78 32
REMARK SMILES IDX 98 33 61 34 62 35 77 37 99 38 64 39 47 40 48 41 57 42 49 43
REMARK SMILES IDX 50 44 56 45 58 46 51 47 52 48 53 49 54 50 55 51 81 52 82 53
REMARK SMILES IDX 91 54 83 55 84 56 90 57 92 58 85 59 86 60 87 61 88 62 89 63
REMARK SMILES IDX 65 64 66 65 75 66 67 67 68 68 74 69 76 70 69 71 70 72 71 73
REMARK SMILES IDX 72 74 73 75 8 76 9 77 10 78 11 79 12 80 13 81 17 82 14 83
REMARK SMILES IDX 16 84 15 85 18 86 19 87 37 88 20 89 21 90 22 91 23 92 24 93
REMARK SMILES IDX 35 94 25 95 27 96 36 97 26 98 28 99 29 100 30 101 34 102
REMARK SMILES IDX 31 103 33 104 32 105
REMARK H PARENT 97 25 63 36
REMARK Flexibility Score: inf
ROOT
ATOM      1  C   UNL     1       2.809   1.438  -1.180  1.00  0.00     0.202 C 
ENDROOT
BRANCH   1   2
ATOM      2  O   UNL     1       4.092   0.861  -0.924  1.00  0.00    -0.374 OA
BRANCH   2   3
ATOM      3  C   UNL     1       4.273  -0.483  -1.371  1.00  0.00     0.202 C 
BRANCH   3   4
ATOM      4  C   UNL     1       3.953  -1.523  -0.293  1.00  0.00     0.261 C 
BRANCH   4   5
ATOM      5  O   UNL     1       2.583  -1.412   0.128  1.00  0.00    -0.460 OA
BRANCH   5   6
ATOM      6  C   UNL     1       2.066  -0.699   1.157  1.00  0.00     0.338 C 
ATOM      7  O   UNL     1       0.844  -0.697   1.301  1.00  0.00    -0.246 OA
BRANCH   6   8
ATOM      8  C   UNL     1       2.882   0.086   2.138  1.00  0.00     0.060 A 
ATOM      9  C   UNL     1       4.165   0.582   1.906  1.00  0.00     0.016 A 
ATOM     10  C   UNL     1       2.272   0.414   3.362  1.00  0.00     0.016 A 
ATOM     11  C   UNL     1       4.831   1.359   2.832  1.00  0.00     0.010 A 
ATOM     12  C   UNL     1       2.938   1.192   4.316  1.00  0.00     0.010 A 
ATOM     13  C   UNL     1       4.229   1.651   4.047  1.00  0.00    -0.014 A 
BRANCH  13  14
ATOM     14  C   UNL     1       5.101   2.271   5.052  1.00  0.00     0.031 A 
ATOM     15  C   UNL     1       5.761   1.360   6.040  1.00  0.00     0.074 A 
ATOM     16  C   UNL     1       5.460   3.558   4.903  1.00  0.00     0.049 A 
ATOM     17  N   UNL     1       6.620   1.642   6.979  1.00  0.00    -0.248 NA
ATOM     18  C   UNL     1       5.430  -0.074   5.935  1.00  0.00     0.031 C 
ATOM     19  C   UNL     1       4.984   4.446   3.836  1.00  0.00     0.029 A 
ATOM     20  N   UNL     1       6.348   4.325   5.603  1.00  0.00    -0.354 N 
ATOM     21  C   UNL     1       6.903   0.431   7.598  1.00  0.00     0.074 A 
ATOM     22  C   UNL     1       6.138  -0.591   6.926  1.00  0.00     0.031 C 
ATOM     23  C   UNL     1       5.611   5.629   3.939  1.00  0.00     0.029 A 
ATOM     24  C   UNL     1       6.476   5.603   5.112  1.00  0.00     0.049 A 
ATOM     25  H   UNL     1       6.848   3.994   6.384  1.00  0.00     0.167 HD
ATOM     26  C   UNL     1       7.722   0.211   8.650  1.00  0.00     0.037 A 
ATOM     27  C   UNL     1       7.199   6.634   5.588  1.00  0.00     0.037 A 
ATOM     28  C   UNL     1       8.466   1.265   9.285  1.00  0.00     0.049 A 
ATOM     29  C   UNL     1       8.021   6.386   6.824  1.00  0.00     0.074 A 
ATOM     30  C   UNL     1       9.269   1.205  10.406  1.00  0.00     0.029 A 
ATOM     31  N   UNL     1       8.490   2.582   8.838  1.00  0.00    -0.354 N 
ATOM     32  N   UNL     1       8.211   5.260   7.475  1.00  0.00    -0.248 NA
ATOM     33  C   UNL     1       8.711   7.542   7.404  1.00  0.00     0.031 C 
ATOM     34  C   UNL     1       9.740   2.498  10.665  1.00  0.00     0.029 A 
ATOM     35  C   UNL     1       9.278   3.351   9.672  1.00  0.00     0.049 A 
ATOM     36  H   UNL     1       8.015   2.916   8.043  1.00  0.00     0.167 HD
ATOM     37  C   UNL     1       9.059   5.566   8.530  1.00  0.00     0.074 A 
ATOM     38  C   UNL     1       9.356   6.982   8.419  1.00  0.00     0.031 C 
ATOM     39  C   UNL     1       9.548   4.759   9.506  1.00  0.00     0.037 A 
BRANCH  26  40
ATOM     40  C   UNL     1       7.749  -1.179   9.217  1.00  0.00     0.058 A 
ATOM     41  C   UNL     1       8.359  -2.255   8.552  1.00  0.00     0.135 A 
ATOM     42  C   UNL     1       7.092  -1.449  10.429  1.00  0.00     0.135 A 
ATOM     43  F   UNL     1       8.967  -2.063   7.370  1.00  0.00    -0.206 F 
ATOM     44  C   UNL     1       8.288  -3.553   9.051  1.00  0.00     0.059 A 
ATOM     45  C   UNL     1       7.030  -2.734  10.959  1.00  0.00     0.059 A 
ATOM     46  F   UNL     1       6.476  -0.462  11.097  1.00  0.00    -0.206 F 
ATOM     47  C   UNL     1       7.615  -3.783  10.253  1.00  0.00     0.060 A 
BRANCH  47  48
ATOM     48  S   UNL     1       7.500  -5.474  10.874  1.00  0.00     0.124 S 
ATOM     49  O   UNL     1       6.532  -6.059   9.952  1.00  0.00    -0.237 OA
ATOM     50  O   UNL     1       8.873  -5.951  10.738  1.00  0.00    -0.237 OA
ATOM     51  O   UNL     1       7.034  -5.302  12.247  1.00  0.00    -0.744 OA
ENDBRANCH  47  48
ENDBRANCH  26  40
BRANCH  27  52
ATOM     52  C   UNL     1       7.132   7.973   4.939  1.00  0.00     0.058 A 
ATOM     53  C   UNL     1       8.257   8.559   4.343  1.00  0.00     0.135 A 
ATOM     54  C   UNL     1       5.930   8.702   4.908  1.00  0.00     0.135 A 
ATOM     55  F   UNL     1       9.433   7.912   4.349  1.00  0.00    -0.206 F 
ATOM     56  C   UNL     1       8.201   9.821   3.756  1.00  0.00     0.059 A 
ATOM     57  C   UNL     1       5.841   9.951   4.301  1.00  0.00     0.059 A 
ATOM     58  F   UNL     1       4.817   8.190   5.456  1.00  0.00    -0.206 F 
ATOM     59  C   UNL     1       6.986  10.510   3.740  1.00  0.00     0.060 A 
BRANCH  59  60
ATOM     60  S   UNL     1       6.915  12.136   2.957  1.00  0.00     0.124 S 
ATOM     61  O   UNL     1       7.641  12.958   3.918  1.00  0.00    -0.237 OA
ATOM     62  O   UNL     1       7.588  11.895   1.684  1.00  0.00    -0.237 OA
ATOM     63  O   UNL     1       5.482  12.399   2.858  1.00  0.00    -0.744 OA
ENDBRANCH  59  60
ENDBRANCH  27  52
BRANCH  39  64
ATOM     64  C   UNL     1      10.487   5.389  10.492  1.00  0.00     0.058 A 
ATOM     65  C   UNL     1      10.030   6.262  11.491  1.00  0.00     0.135 A 
ATOM     66  C   UNL     1      11.853   5.068  10.464  1.00  0.00     0.135 A 
ATOM     67  F   UNL     1       8.733   6.602  11.552  1.00  0.00    -0.206 F 
ATOM     68  C   UNL     1      10.905   6.819  12.415  1.00  0.00     0.059 A 
ATOM     69  C   UNL     1      12.739   5.588  11.398  1.00  0.00     0.059 A 
ATOM     70  F   UNL     1      12.331   4.225   9.535  1.00  0.00    -0.206 F 
ATOM     71  C   UNL     1      12.258   6.474  12.361  1.00  0.00     0.060 A 
BRANCH  71  72
ATOM     72  S   UNL     1      13.379   7.178  13.586  1.00  0.00     0.124 S 
ATOM     73  O   UNL     1      13.527   8.544  13.095  1.00  0.00    -0.237 OA
ATOM     74  O   UNL     1      12.623   7.027  14.825  1.00  0.00    -0.237 OA
ATOM     75  O   UNL     1      14.568   6.338  13.478  1.00  0.00    -0.744 OA
ENDBRANCH  71  72
ENDBRANCH  39  64
ENDBRANCH  13  14
ENDBRANCH   6   8
ENDBRANCH   5   6
ENDBRANCH   4   5
ENDBRANCH   3   4
ENDBRANCH   2   3
ENDBRANCH   1   2
BRANCH   1  76
ATOM     76  C   UNL     1       2.968   2.496  -2.255  1.00  0.00     0.261 C 
BRANCH  76  77
ATOM     77  O   UNL     1       3.521   1.829  -3.390  1.00  0.00    -0.460 OA
BRANCH  77  78
ATOM     78  C   UNL     1       4.858   1.913  -3.592  1.00  0.00     0.338 C 
ATOM     79  O   UNL     1       5.672   2.591  -2.994  1.00  0.00    -0.246 OA
BRANCH  78  80
ATOM     80  C   UNL     1       5.189   0.908  -4.628  1.00  0.00     0.071 A 
ATOM     81  C   UNL     1       6.237   0.022  -4.354  1.00  0.00     0.016 A 
ATOM     82  C   UNL     1       4.402   0.771  -5.790  1.00  0.00     0.032 A 
ATOM     83  C   UNL     1       6.468  -1.051  -5.210  1.00  0.00     0.001 A 
ATOM     84  C   UNL     1       4.646  -0.314  -6.638  1.00  0.00     0.013 A 
ATOM     85  C   UNL     1       5.668  -1.224  -6.342  1.00  0.00     0.001 A 
BRANCH  82  86
ATOM     86  C   UNL     1       3.359   1.745  -6.074  1.00  0.00     0.135 A 
ATOM     87  C   UNL     1       3.332   3.118  -5.948  1.00  0.00     0.051 A 
ATOM     88  O   UNL     1       2.104   1.264  -6.306  1.00  0.00    -0.457 OA
ATOM     89  C   UNL     1       1.973   3.473  -5.950  1.00  0.00     0.051 A 
ATOM     90  C   UNL     1       1.244   2.335  -6.279  1.00  0.00     0.128 A 
BRANCH  90  91
ATOM     91  C   UNL     1      -0.133   2.292  -6.619  1.00  0.00     0.068 C 
ATOM     92  C   UNL     1      -0.520   2.934  -7.730  1.00  0.00     0.084 C 
ATOM     93  S   UNL     1      -2.111   3.472  -8.079  1.00  0.00    -0.054 SA
ATOM     94  C   UNL     1       0.413   3.501  -8.741  1.00  0.00     0.266 C 
ATOM     95  C   UNL     1      -1.503   4.762  -9.136  1.00  0.00     0.148 C 
ATOM     96  N   UNL     1      -0.144   4.622  -9.313  1.00  0.00    -0.288 N 
ATOM     97  O   UNL     1       1.482   3.000  -9.056  1.00  0.00    -0.268 OA
ATOM     98  S   UNL     1      -2.514   5.914  -9.793  1.00  0.00    -0.052 S 
BRANCH  96  99
ATOM     99  C   UNL     1       0.721   5.469 -10.132  1.00  0.00     0.163 C 
BRANCH  99 100
ATOM    100  C   UNL     1       1.501   6.497  -9.328  1.00  0.00    -0.028 A 
ATOM    101  C   UNL     1       1.321   7.867  -9.564  1.00  0.00     0.005 A 
ATOM    102  C   UNL     1       2.473   6.110  -8.390  1.00  0.00     0.005 A 
ATOM    103  C   UNL     1       2.087   8.817  -8.881  1.00  0.00     0.000 A 
ATOM    104  C   UNL     1       3.220   7.060  -7.688  1.00  0.00     0.000 A 
ATOM    105  C   UNL     1       3.031   8.415  -7.939  1.00  0.00     0.000 A 
ENDBRANCH  99 100
ENDBRANCH  96  99
ENDBRANCH  90  91
ENDBRANCH  82  86
ENDBRANCH  78  80
ENDBRANCH  77  78
ENDBRANCH  76  77
ENDBRANCH   1  76
TORSDOF 21
