REMARK SMILES COC(=O)c1ccc(C)c2c1[C@H]1C=CC[C@H]1[C@@H](c1ccc(C(=O)OCCOCCOC(=O)c3ccc(-c4c5nc(c(-c6c(F)cc(S(=O)(=O)[O-])cc6F)c6ccc([nH]6)c(-c6c(F)cc(S(=O)(=O)[O-])cc6F)c6nc(c(-c7c(F)cc(S(=O)(=O)[O-])cc7F)c7ccc4[nH]7)C=C6)C=C5)cc3)cc1)N2
REMARK SMILES IDX 27 1 26 2 25 3 24 4 22 5 23 6 21 7 18 8 19 9 100 10 20 11
REMARK SMILES IDX 99 12 17 13 5 14 6 15 11 16 7 17 10 18 12 19 8 20 101 21
REMARK SMILES IDX 13 22 16 23 9 24 14 26 15 27 3 28 4 29 2 30 1 31 28 32 29 33
REMARK SMILES IDX 30 34 31 35 32 36 33 37 34 38 98 39 35 40 97 41 36 42 37 43
REMARK SMILES IDX 38 44 91 45 39 46 96 47 90 48 92 49 40 50 95 51 89 52 88 53
REMARK SMILES IDX 41 55 75 56 54 57 74 58 55 59 58 60 73 61 93 62 56 63 57 64
REMARK SMILES IDX 72 66 94 67 59 68 42 69 43 70 52 71 44 72 45 73 51 74 53 75
REMARK SMILES IDX 46 76 47 77 48 78 49 79 50 80 76 81 77 82 86 83 78 84 79 85
REMARK SMILES IDX 85 86 87 87 80 88 81 89 82 90 83 91 84 92 60 93 61 94 70 95
REMARK SMILES IDX 62 96 63 97 69 98 71 99 64 100 65 101 66 102 67 103 68 104
REMARK H PARENT 101 25 92 54 58 65
REMARK Flexibility Score: inf
ROOT
ATOM      1  O   UNL     1       2.567  -4.152  -3.503  1.00  0.00    -0.374 OA
ENDROOT
BRANCH   1   2
ATOM      2  C   UNL     1       3.226  -5.195  -4.220  1.00  0.00     0.202 C 
BRANCH   2   3
ATOM      3  C   UNL     1       3.127  -5.159  -5.749  1.00  0.00     0.261 C 
BRANCH   3   4
ATOM      4  O   UNL     1       3.555  -3.894  -6.275  1.00  0.00    -0.460 OA
BRANCH   4   5
ATOM      5  C   UNL     1       2.663  -3.318  -7.116  1.00  0.00     0.338 C 
ATOM      6  O   UNL     1       1.705  -3.845  -7.658  1.00  0.00    -0.246 OA
BRANCH   5   7
ATOM      7  C   UNL     1       2.803  -1.858  -7.010  1.00  0.00     0.060 A 
ATOM      8  C   UNL     1       2.861   0.954  -6.638  1.00  0.00    -0.025 A 
ATOM      9  C   UNL     1       1.769   0.159  -6.241  1.00  0.00     0.007 A 
ATOM     10  C   UNL     1       3.945   0.273  -7.227  1.00  0.00     0.007 A 
ATOM     11  C   UNL     1       1.724  -1.213  -6.428  1.00  0.00     0.016 A 
ATOM     12  C   UNL     1       3.926  -1.128  -7.400  1.00  0.00     0.016 A 
BRANCH   8  13
ATOM     13  C   UNL     1       2.884   2.489  -6.456  1.00  0.00     0.114 C 
ATOM     14  C   UNL     1       0.233   2.195  -3.227  1.00  0.00     0.065 A 
ATOM     15  C   UNL     1      -1.114   1.963  -3.535  1.00  0.00     0.016 A 
ATOM     16  C   UNL     1       1.134   2.640  -4.219  1.00  0.00    -0.003 A 
ATOM     17  C   UNL     1      -1.589   2.201  -4.820  1.00  0.00     0.006 A 
ATOM     18  C   UNL     1       0.638   2.883  -5.535  1.00  0.00     0.042 A 
ATOM     19  C   UNL     1       2.623   2.789  -3.933  1.00  0.00     0.050 C 
ATOM     20  C   UNL     1      -0.732   2.669  -5.829  1.00  0.00    -0.028 A 
ATOM     21  N   UNL     1       1.545   3.060  -6.582  1.00  0.00    -0.377 N 
ATOM     22  C   UNL     1       3.371   1.577  -3.423  1.00  0.00    -0.023 C 
ATOM     23  C   UNL     1       3.479   3.121  -5.175  1.00  0.00     0.031 C 
ATOM     24  C   UNL     1      -1.301   2.721  -7.225  1.00  0.00     0.046 C 
ATOM     25  H   UNL     1       1.287   3.561  -7.390  1.00  0.00     0.161 HD
ATOM     26  C   UNL     1       4.622   1.522  -3.900  1.00  0.00    -0.030 C 
ATOM     27  C   UNL     1       4.894   2.649  -4.836  1.00  0.00     0.034 C 
BRANCH  14  28
ATOM     28  C   UNL     1       0.678   1.896  -1.849  1.00  0.00     0.338 C 
ATOM     29  O   UNL     1       1.300   2.670  -1.136  1.00  0.00    -0.246 OA
BRANCH  28  30
ATOM     30  O   UNL     1       0.342   0.615  -1.559  1.00  0.00    -0.465 OA
ATOM     31  C   UNL     1       0.816   0.152  -0.294  1.00  0.00     0.282 C 
ENDBRANCH  28  30
ENDBRANCH  14  28
ENDBRANCH   8  13
ENDBRANCH   5   7
ENDBRANCH   4   5
ENDBRANCH   3   4
ENDBRANCH   2   3
ENDBRANCH   1   2
BRANCH   1  32
ATOM     32  C   UNL     1       3.221  -2.880  -3.445  1.00  0.00     0.202 C 
BRANCH  32  33
ATOM     33  C   UNL     1       4.533  -2.794  -2.653  1.00  0.00     0.261 C 
BRANCH  33  34
ATOM     34  O   UNL     1       5.632  -3.384  -3.375  1.00  0.00    -0.460 OA
BRANCH  34  35
ATOM     35  C   UNL     1       6.219  -4.448  -2.776  1.00  0.00     0.338 C 
ATOM     36  O   UNL     1       5.966  -4.913  -1.675  1.00  0.00    -0.246 OA
BRANCH  35  37
ATOM     37  C   UNL     1       7.094  -5.122  -3.749  1.00  0.00     0.060 A 
ATOM     38  C   UNL     1       6.743  -6.409  -4.182  1.00  0.00     0.016 A 
ATOM     39  C   UNL     1       8.286  -4.529  -4.166  1.00  0.00     0.016 A 
ATOM     40  C   UNL     1       7.596  -7.117  -5.023  1.00  0.00     0.010 A 
ATOM     41  C   UNL     1       9.152  -5.252  -4.989  1.00  0.00     0.010 A 
ATOM     42  C   UNL     1       8.824  -6.558  -5.394  1.00  0.00    -0.014 A 
BRANCH  42  43
ATOM     43  C   UNL     1       9.842  -7.410  -6.048  1.00  0.00     0.031 A 
ATOM     44  C   UNL     1      10.870  -8.086  -5.186  1.00  0.00     0.074 A 
ATOM     45  C   UNL     1       9.833  -7.598  -7.378  1.00  0.00     0.049 A 
ATOM     46  N   UNL     1      11.871  -8.850  -5.535  1.00  0.00    -0.248 NA
ATOM     47  C   UNL     1      10.749  -7.873  -3.734  1.00  0.00     0.031 C 
ATOM     48  C   UNL     1       8.849  -7.038  -8.303  1.00  0.00     0.029 A 
ATOM     49  N   UNL     1      10.685  -8.313  -8.180  1.00  0.00    -0.354 N 
ATOM     50  C   UNL     1      12.495  -9.216  -4.349  1.00  0.00     0.074 A 
ATOM     51  C   UNL     1      11.786  -8.557  -3.274  1.00  0.00     0.031 C 
ATOM     52  C   UNL     1       9.159  -7.426  -9.552  1.00  0.00     0.029 A 
ATOM     53  C   UNL     1      10.378  -8.234  -9.517  1.00  0.00     0.049 A 
ATOM     54  H   UNL     1      11.444  -8.833  -7.832  1.00  0.00     0.167 HD
ATOM     55  C   UNL     1      13.557 -10.036  -4.173  1.00  0.00     0.037 A 
ATOM     56  C   UNL     1      11.019  -8.743 -10.587  1.00  0.00     0.037 A 
ATOM     57  C   UNL     1      14.271 -10.667  -5.252  1.00  0.00     0.049 A 
ATOM     58  C   UNL     1      12.263  -9.566 -10.378  1.00  0.00     0.074 A 
ATOM     59  C   UNL     1      15.364 -11.511  -5.182  1.00  0.00     0.029 A 
ATOM     60  N   UNL     1      13.969 -10.513  -6.598  1.00  0.00    -0.354 N 
ATOM     61  N   UNL     1      12.843  -9.913  -9.252  1.00  0.00    -0.248 NA
ATOM     62  C   UNL     1      12.942 -10.066 -11.581  1.00  0.00     0.031 C 
ATOM     63  C   UNL     1      15.757 -11.824  -6.488  1.00  0.00     0.029 A 
ATOM     64  C   UNL     1      14.874 -11.222  -7.371  1.00  0.00     0.049 A 
ATOM     65  H   UNL     1      13.222  -9.978  -6.951  1.00  0.00     0.167 HD
ATOM     66  C   UNL     1      13.940 -10.690  -9.610  1.00  0.00     0.074 A 
ATOM     67  C   UNL     1      13.938 -10.769 -11.057  1.00  0.00     0.031 C 
ATOM     68  C   UNL     1      14.862 -11.286  -8.813  1.00  0.00     0.037 A 
BRANCH  55  69
ATOM     69  C   UNL     1      14.021 -10.273  -2.763  1.00  0.00     0.058 A 
ATOM     70  C   UNL     1      13.264 -11.031  -1.855  1.00  0.00     0.135 A 
ATOM     71  C   UNL     1      15.243  -9.746  -2.314  1.00  0.00     0.135 A 
ATOM     72  F   UNL     1      12.078 -11.541  -2.225  1.00  0.00    -0.206 F 
ATOM     73  C   UNL     1      13.686 -11.233  -0.546  1.00  0.00     0.059 A 
ATOM     74  C   UNL     1      15.700  -9.960  -1.017  1.00  0.00     0.059 A 
ATOM     75  F   UNL     1      16.005  -9.009  -3.138  1.00  0.00    -0.206 F 
ATOM     76  C   UNL     1      14.906 -10.693  -0.136  1.00  0.00     0.060 A 
BRANCH  76  77
ATOM     77  S   UNL     1      15.433 -10.957   1.570  1.00  0.00     0.124 S 
ATOM     78  O   UNL     1      14.478 -10.130   2.302  1.00  0.00    -0.237 OA
ATOM     79  O   UNL     1      15.271 -12.399   1.725  1.00  0.00    -0.237 OA
ATOM     80  O   UNL     1      16.812 -10.479   1.580  1.00  0.00    -0.744 OA
ENDBRANCH  76  77
ENDBRANCH  55  69
BRANCH  56  81
ATOM     81  C   UNL     1      10.480  -8.495 -11.950  1.00  0.00     0.058 A 
ATOM     82  C   UNL     1       9.880  -9.527 -12.685  1.00  0.00     0.135 A 
ATOM     83  C   UNL     1      10.509  -7.214 -12.524  1.00  0.00     0.135 A 
ATOM     84  F   UNL     1       9.842 -10.771 -12.184  1.00  0.00    -0.206 F 
ATOM     85  C   UNL     1       9.317  -9.298 -13.936  1.00  0.00     0.059 A 
ATOM     86  C   UNL     1       9.933  -6.955 -13.764  1.00  0.00     0.059 A 
ATOM     87  F   UNL     1      11.067  -6.190 -11.858  1.00  0.00    -0.206 F 
ATOM     88  C   UNL     1       9.337  -8.004 -14.461  1.00  0.00     0.060 A 
BRANCH  88  89
ATOM     89  S   UNL     1       8.522  -7.705 -16.045  1.00  0.00     0.124 S 
ATOM     90  O   UNL     1       9.391  -8.428 -16.967  1.00  0.00    -0.237 OA
ATOM     91  O   UNL     1       7.203  -8.289 -15.820  1.00  0.00    -0.237 OA
ATOM     92  O   UNL     1       8.544  -6.251 -16.166  1.00  0.00    -0.744 OA
ENDBRANCH  88  89
ENDBRANCH  56  81
BRANCH  68  93
ATOM     93  C   UNL     1      15.947 -12.091  -9.477  1.00  0.00     0.058 A 
ATOM     94  C   UNL     1      16.999 -11.476 -10.172  1.00  0.00     0.135 A 
ATOM     95  C   UNL     1      15.979 -13.490  -9.343  1.00  0.00     0.135 A 
ATOM     96  F   UNL     1      17.015 -10.144 -10.334  1.00  0.00    -0.206 F 
ATOM     97  C   UNL     1      18.038 -12.220 -10.723  1.00  0.00     0.059 A 
ATOM     98  C   UNL     1      17.023 -14.250  -9.861  1.00  0.00     0.059 A 
ATOM     99  F   UNL     1      15.003 -14.128  -8.678  1.00  0.00    -0.206 F 
ATOM    100  C   UNL     1      18.046 -13.606 -10.555  1.00  0.00     0.060 A 
BRANCH 100 101
ATOM    101  S   UNL     1      19.427 -14.549 -11.235  1.00  0.00     0.124 S 
ATOM    102  O   UNL     1      19.184 -14.437 -12.669  1.00  0.00    -0.237 OA
ATOM    103  O   UNL     1      20.582 -13.815 -10.728  1.00  0.00    -0.237 OA
ATOM    104  O   UNL     1      19.242 -15.882 -10.670  1.00  0.00    -0.744 OA
ENDBRANCH 100 101
ENDBRANCH  68  93
ENDBRANCH  42  43
ENDBRANCH  35  37
ENDBRANCH  34  35
ENDBRANCH  33  34
ENDBRANCH  32  33
ENDBRANCH   1  32
TORSDOF 20
