REMARK SMILES O=C(CCc1cc2n(n1)CCCN(c1ccc(C(=O)N3CCCC3)cn1)C2)OCCOCCOC(=O)c1ccc(-c2c3nc(c(-c4c(F)cc(S(=O)(=O)[O-])cc4F)c4ccc([nH]4)c(-c4c(F)cc(S(=O)(=O)[O-])cc4F)c4nc(c(-c5c(F)cc(S(=O)(=O)[O-])cc5F)c5ccc2[nH]5)C=C4)C=C3)cc1
REMARK SMILES IDX 29 1 28 2 2 3 1 4 3 5 4 6 5 7 6 8 9 9 7 10 8 11 27 12 13 13
REMARK SMILES IDX 12 14 14 16 15 17 26 18 16 19 25 20 17 21 18 22 19 23 20 24
REMARK SMILES IDX 21 25 24 26 22 27 23 28 10 29 11 30 30 32 31 33 32 34 33 35
REMARK SMILES IDX 34 36 35 37 36 38 37 39 38 40 102 41 39 42 101 43 40 44
REMARK SMILES IDX 41 45 42 46 95 47 43 48 100 49 94 50 96 51 44 52 99 53 93 54
REMARK SMILES IDX 92 55 45 57 79 58 58 59 78 60 59 61 62 62 77 63 97 64 60 65
REMARK SMILES IDX 61 66 76 68 98 69 63 70 46 71 47 72 56 73 48 74 49 75 55 76
REMARK SMILES IDX 57 77 50 78 51 79 52 80 53 81 54 82 80 83 81 84 90 85 82 86
REMARK SMILES IDX 83 87 89 88 91 89 84 90 85 91 86 92 87 93 88 94 64 95 65 96
REMARK SMILES IDX 74 97 66 98 67 99 73 100 75 101 68 102 69 103 70 104 71 105
REMARK SMILES IDX 72 106
REMARK H PARENT 96 56 62 67
REMARK Flexibility Score: 90.00
ROOT
ATOM      1  C   UNL     1       3.945  -0.586  -0.752  1.00  0.00     0.261 C 
ENDROOT
BRANCH   1   2
ATOM      2  O   UNL     1       2.604  -0.294  -0.347  1.00  0.00    -0.463 OA
BRANCH   2   3
ATOM      3  C   UNL     1       2.321   0.287   0.838  1.00  0.00     0.306 C 
ATOM      4  O   UNL     1       1.338  -0.061   1.488  1.00  0.00    -0.252 OA
BRANCH   3   5
ATOM      5  C   UNL     1       3.173   1.451   1.271  1.00  0.00     0.129 C 
BRANCH   5   6
ATOM      6  C   UNL     1       3.825   1.213   2.631  1.00  0.00     0.070 C 
BRANCH   6   7
ATOM      7  C   UNL     1       4.811   0.092   2.588  1.00  0.00     0.063 A 
ATOM      8  C   UNL     1       4.516  -1.294   2.581  1.00  0.00     0.051 A 
ATOM      9  N   UNL     1       6.110   0.324   2.352  1.00  0.00    -0.178 NA
ATOM     10  C   UNL     1       5.653  -1.869   2.057  1.00  0.00     0.058 A 
ATOM     11  N   UNL     1       6.618  -0.901   2.110  1.00  0.00    -0.267 N 
BRANCH  10  12
ATOM     12  C   UNL     1       5.905  -3.188   1.416  1.00  0.00     0.173 C 
BRANCH  12  13
ATOM     13  N   UNL     1       7.004  -3.923   1.987  1.00  0.00    -0.351 N 
BRANCH  13  14
ATOM     14  C   UNL     1       7.894  -3.361   2.984  1.00  0.00     0.120 CG0
ATOM     15  G   UNL     1       8.745  -2.222   2.415  1.00  0.00     0.000 G0
ENDBRANCH  13  14
BRANCH  13  16
ATOM     16  C   UNL     1       7.102  -5.247   1.626  1.00  0.00     0.128 A 
ATOM     17  C   UNL     1       6.951  -6.226   2.599  1.00  0.00     0.048 A 
ATOM     18  N   UNL     1       7.379  -5.559   0.344  1.00  0.00    -0.239 NA
ATOM     19  C   UNL     1       7.177  -7.554   2.275  1.00  0.00     0.019 A 
ATOM     20  C   UNL     1       7.619  -6.867   0.046  1.00  0.00     0.127 A 
ATOM     21  C   UNL     1       7.533  -7.896   0.972  1.00  0.00     0.058 A 
BRANCH  21  22
ATOM     22  C   UNL     1       8.074  -9.239   0.660  1.00  0.00     0.255 C 
ATOM     23  O   UNL     1       9.008  -9.318  -0.134  1.00  0.00    -0.269 OA
ATOM     24  N   UNL     1       7.665 -10.309   1.430  1.00  0.00    -0.339 N 
ATOM     25  C   UNL     1       6.346 -10.608   1.956  1.00  0.00     0.120 C 
ATOM     26  C   UNL     1       8.632 -11.284   1.887  1.00  0.00     0.120 C 
ATOM     27  C   UNL     1       6.666 -11.194   3.319  1.00  0.00     0.023 C 
ATOM     28  C   UNL     1       7.959 -11.976   3.074  1.00  0.00     0.023 C 
ENDBRANCH  21  22
ENDBRANCH  13  16
ENDBRANCH  12  13
ENDBRANCH  10  12
BRANCH  11  29
ATOM     29  C   UNL     1       8.004  -1.071   1.722  1.00  0.00     0.146 C 
BRANCH  29  30
ATOM     30  C   UNL     1       8.745  -2.222   2.415  1.00  0.00     0.045 CG0
ATOM     31  G   UNL     1       7.894  -3.361   2.984  1.00  0.00     0.000 G0
ENDBRANCH  29  30
ENDBRANCH  11  29
ENDBRANCH   6   7
ENDBRANCH   5   6
ENDBRANCH   3   5
ENDBRANCH   2   3
ENDBRANCH   1   2
BRANCH   1  32
ATOM     32  C   UNL     1       4.768   0.499  -1.456  1.00  0.00     0.202 C 
BRANCH  32  33
ATOM     33  O   UNL     1       4.165   1.675  -1.979  1.00  0.00    -0.374 OA
BRANCH  33  34
ATOM     34  C   UNL     1       2.840   1.674  -2.490  1.00  0.00     0.202 C 
BRANCH  34  35
ATOM     35  C   UNL     1       2.547   0.835  -3.722  1.00  0.00     0.261 C 
BRANCH  35  36
ATOM     36  O   UNL     1       2.795  -0.539  -3.480  1.00  0.00    -0.460 OA
BRANCH  36  37
ATOM     37  C   UNL     1       3.970  -0.993  -3.970  1.00  0.00     0.338 C 
ATOM     38  O   UNL     1       4.873  -0.331  -4.446  1.00  0.00    -0.246 OA
BRANCH  37  39
ATOM     39  C   UNL     1       3.938  -2.464  -3.959  1.00  0.00     0.060 A 
ATOM     40  C   UNL     1       4.963  -3.057  -4.693  1.00  0.00     0.016 A 
ATOM     41  C   UNL     1       2.710  -3.101  -3.719  1.00  0.00     0.016 A 
ATOM     42  C   UNL     1       4.608  -4.084  -5.526  1.00  0.00     0.010 A 
ATOM     43  C   UNL     1       2.353  -4.117  -4.565  1.00  0.00     0.010 A 
ATOM     44  C   UNL     1       3.270  -4.490  -5.540  1.00  0.00    -0.014 A 
BRANCH  44  45
ATOM     45  C   UNL     1       2.853  -5.320  -6.641  1.00  0.00     0.031 A 
ATOM     46  C   UNL     1       3.278  -6.720  -6.484  1.00  0.00     0.074 A 
ATOM     47  C   UNL     1       2.116  -4.844  -7.660  1.00  0.00     0.049 A 
ATOM     48  N   UNL     1       4.208  -7.342  -7.123  1.00  0.00    -0.248 NA
ATOM     49  C   UNL     1       2.741  -7.443  -5.322  1.00  0.00     0.031 C 
ATOM     50  C   UNL     1       1.398  -3.571  -7.768  1.00  0.00     0.029 A 
ATOM     51  N   UNL     1       1.783  -5.480  -8.808  1.00  0.00    -0.354 N 
ATOM     52  C   UNL     1       4.229  -8.618  -6.577  1.00  0.00     0.074 A 
ATOM     53  C   UNL     1       3.474  -8.554  -5.353  1.00  0.00     0.031 C 
ATOM     54  C   UNL     1       0.533  -3.641  -8.809  1.00  0.00     0.029 A 
ATOM     55  C   UNL     1       0.740  -4.898  -9.509  1.00  0.00     0.049 A 
ATOM     56  H   UNL     1       2.245  -6.292  -9.120  1.00  0.00     0.167 HD
ATOM     57  C   UNL     1       4.655  -9.692  -7.292  1.00  0.00     0.037 A 
ATOM     58  C   UNL     1       0.051  -5.494 -10.516  1.00  0.00     0.037 A 
ATOM     59  C   UNL     1       5.415  -9.291  -8.447  1.00  0.00     0.049 A 
ATOM     60  C   UNL     1       0.906  -6.606 -11.027  1.00  0.00     0.074 A 
ATOM     61  C   UNL     1       6.600  -8.604  -8.626  1.00  0.00     0.029 A 
ATOM     62  N   UNL     1       4.769  -9.250  -9.660  1.00  0.00    -0.354 N 
ATOM     63  N   UNL     1       2.050  -6.427 -11.634  1.00  0.00    -0.248 NA
ATOM     64  C   UNL     1       0.721  -7.927 -10.439  1.00  0.00     0.031 C 
ATOM     65  C   UNL     1       6.392  -7.796  -9.781  1.00  0.00     0.029 A 
ATOM     66  C   UNL     1       5.114  -8.070 -10.272  1.00  0.00     0.049 A 
ATOM     67  H   UNL     1       4.168  -9.940 -10.024  1.00  0.00     0.167 HD
ATOM     68  C   UNL     1       2.874  -7.447 -11.172  1.00  0.00     0.074 A 
ATOM     69  C   UNL     1       1.977  -8.379 -10.493  1.00  0.00     0.031 C 
ATOM     70  C   UNL     1       4.232  -7.308 -11.135  1.00  0.00     0.037 A 
BRANCH  57  71
ATOM     71  C   UNL     1       4.088 -11.073  -7.117  1.00  0.00     0.058 A 
ATOM     72  C   UNL     1       4.737 -12.171  -7.708  1.00  0.00     0.135 A 
ATOM     73  C   UNL     1       2.796 -11.329  -6.601  1.00  0.00     0.135 A 
ATOM     74  F   UNL     1       5.959 -12.033  -8.248  1.00  0.00    -0.206 F 
ATOM     75  C   UNL     1       4.125 -13.419  -7.827  1.00  0.00     0.059 A 
ATOM     76  C   UNL     1       2.195 -12.577  -6.650  1.00  0.00     0.059 A 
ATOM     77  F   UNL     1       2.009 -10.359  -6.117  1.00  0.00    -0.206 F 
ATOM     78  C   UNL     1       2.848 -13.606  -7.304  1.00  0.00     0.060 A 
BRANCH  78  79
ATOM     79  S   UNL     1       2.004 -15.175  -7.556  1.00  0.00     0.124 S 
ATOM     80  O   UNL     1       1.739 -15.134  -8.989  1.00  0.00    -0.237 OA
ATOM     81  O   UNL     1       3.012 -16.135  -7.116  1.00  0.00    -0.237 OA
ATOM     82  O   UNL     1       0.831 -15.068  -6.693  1.00  0.00    -0.744 OA
ENDBRANCH  78  79
ENDBRANCH  57  71
BRANCH  58  83
ATOM     83  C   UNL     1      -1.421  -5.441 -10.736  1.00  0.00     0.058 A 
ATOM     84  C   UNL     1      -1.995  -5.893 -11.937  1.00  0.00     0.135 A 
ATOM     85  C   UNL     1      -2.317  -5.203  -9.672  1.00  0.00     0.135 A 
ATOM     86  F   UNL     1      -1.215  -6.172 -12.993  1.00  0.00    -0.206 F 
ATOM     87  C   UNL     1      -3.369  -6.130 -12.065  1.00  0.00     0.059 A 
ATOM     88  C   UNL     1      -3.689  -5.423  -9.779  1.00  0.00     0.059 A 
ATOM     89  F   UNL     1      -1.874  -4.837  -8.461  1.00  0.00    -0.206 F 
ATOM     90  C   UNL     1      -4.207  -5.909 -10.972  1.00  0.00     0.060 A 
BRANCH  90  91
ATOM     91  S   UNL     1      -5.953  -6.368 -11.075  1.00  0.00     0.124 S 
ATOM     92  O   UNL     1      -6.472  -5.374 -12.009  1.00  0.00    -0.237 OA
ATOM     93  O   UNL     1      -5.882  -7.737 -11.575  1.00  0.00    -0.237 OA
ATOM     94  O   UNL     1      -6.422  -6.235  -9.698  1.00  0.00    -0.744 OA
ENDBRANCH  90  91
ENDBRANCH  58  83
BRANCH  70  95
ATOM     95  C   UNL     1       4.854  -6.132 -11.847  1.00  0.00     0.058 A 
ATOM     96  C   UNL     1       4.681  -4.792 -11.456  1.00  0.00     0.135 A 
ATOM     97  C   UNL     1       5.814  -6.390 -12.837  1.00  0.00     0.135 A 
ATOM     98  F   UNL     1       3.854  -4.471 -10.451  1.00  0.00    -0.206 F 
ATOM     99  C   UNL     1       5.415  -3.755 -12.036  1.00  0.00     0.059 A 
ATOM    100  C   UNL     1       6.578  -5.376 -13.408  1.00  0.00     0.059 A 
ATOM    101  F   UNL     1       6.069  -7.654 -13.211  1.00  0.00    -0.206 F 
ATOM    102  C   UNL     1       6.370  -4.058 -13.007  1.00  0.00     0.060 A 
BRANCH 102 103
ATOM    103  S   UNL     1       7.399  -2.732 -13.678  1.00  0.00     0.124 S 
ATOM    104  O   UNL     1       6.457  -2.011 -14.527  1.00  0.00    -0.237 OA
ATOM    105  O   UNL     1       7.836  -2.029 -12.475  1.00  0.00    -0.237 OA
ATOM    106  O   UNL     1       8.457  -3.448 -14.388  1.00  0.00    -0.744 OA
ENDBRANCH 102 103
ENDBRANCH  70  95
ENDBRANCH  44  45
ENDBRANCH  37  39
ENDBRANCH  36  37
ENDBRANCH  35  36
ENDBRANCH  34  35
ENDBRANCH  33  34
ENDBRANCH  32  33
ENDBRANCH   1  32
TORSDOF 21
