REMARK SMILES CC(C)(C)[C@@H]1CC(C(=O)OCCOCCOC(=O)c2ccc(-c3c4nc(c(-c5c(F)cc(S(=O)(=O)[O-])cc5F)c5ccc([nH]5)c(-c5c(F)cc(S(=O)(=O)[O-])cc5F)c5nc(c(-c6c(F)cc(S(=O)(=O)[O-])cc6F)c6ccc3[nH]6)C=C5)C=C4)cc2)C[C@@H](C(C)(C)C)C1
REMARK SMILES IDX 14 1 13 2 12 3 11 4 10 5 8 6 9 7 7 8 5 9 6 10 91 11 86 12
REMARK SMILES IDX 85 13 2 14 1 15 3 16 4 17 87 18 88 19 89 20 90 21 15 22
REMARK SMILES IDX 16 23 17 24 18 25 19 26 20 27 84 28 21 29 83 30 22 31 23 32
REMARK SMILES IDX 24 33 77 34 25 35 82 36 76 37 78 38 26 39 81 40 75 41 74 42
REMARK SMILES IDX 27 44 61 45 40 46 60 47 41 48 44 49 59 50 79 51 42 52 43 53
REMARK SMILES IDX 58 55 80 56 45 57 28 58 29 59 38 60 30 61 31 62 37 63 39 64
REMARK SMILES IDX 32 65 33 66 34 67 35 68 36 69 62 70 63 71 72 72 64 73 65 74
REMARK SMILES IDX 71 75 73 76 66 77 67 78 68 79 69 80 70 81 46 82 47 83 56 84
REMARK SMILES IDX 48 85 49 86 55 87 57 88 50 89 51 90 52 91 53 92 54 93
REMARK H PARENT 78 43 44 54
REMARK Flexibility Score: inf
ROOT
ATOM      1  C   UNL     1      -0.224  -6.676  -2.398  1.00  0.00     0.202 C 
ENDROOT
BRANCH   1   2
ATOM      2  O   UNL     1       0.464  -7.833  -2.872  1.00  0.00    -0.374 OA
BRANCH   2   3
ATOM      3  C   UNL     1       1.724  -8.152  -2.284  1.00  0.00     0.202 C 
BRANCH   3   4
ATOM      4  C   UNL     1       2.918  -7.272  -2.661  1.00  0.00     0.261 C 
BRANCH   4   5
ATOM      5  O   UNL     1       2.687  -5.886  -2.359  1.00  0.00    -0.463 OA
BRANCH   5   6
ATOM      6  C   UNL     1       2.634  -5.075  -3.443  1.00  0.00     0.309 C 
ATOM      7  O   UNL     1       2.872  -5.426  -4.596  1.00  0.00    -0.252 OA
BRANCH   6   8
ATOM      8  C   UNL     1       2.167  -3.663  -3.133  1.00  0.00     0.100 C 
ATOM      9  C   UNL     1       1.237  -1.852  -1.598  1.00  0.00    -0.005 C 
ATOM     10  C   UNL     1       1.722  -3.327  -1.702  1.00  0.00     0.019 C 
ATOM     11  C   UNL     1       2.375  -0.933  -2.075  1.00  0.00     0.008 C 
ATOM     12  C   UNL     1       2.854  -1.215  -3.517  1.00  0.00    -0.005 C 
ATOM     13  C   UNL     1       3.248  -2.696  -3.631  1.00  0.00     0.019 C 
BRANCH   9  14
ATOM     14  C   UNL     1       0.617  -1.459  -0.192  1.00  0.00    -0.035 C 
ATOM     15  C   UNL     1       0.843   0.025   0.177  1.00  0.00     0.011 C 
ATOM     16  C   UNL     1       1.159  -2.309   0.973  1.00  0.00     0.011 C 
ATOM     17  C   UNL     1      -0.914  -1.670  -0.261  1.00  0.00     0.011 C 
ENDBRANCH   9  14
BRANCH  12  18
ATOM     18  C   UNL     1       1.961  -0.670  -4.714  1.00  0.00    -0.035 C 
ATOM     19  C   UNL     1       2.912  -0.310  -5.884  1.00  0.00     0.011 C 
ATOM     20  C   UNL     1       0.928  -1.659  -5.289  1.00  0.00     0.011 C 
ATOM     21  C   UNL     1       1.195   0.611  -4.332  1.00  0.00     0.011 C 
ENDBRANCH  12  18
ENDBRANCH   6   8
ENDBRANCH   5   6
ENDBRANCH   4   5
ENDBRANCH   3   4
ENDBRANCH   2   3
ENDBRANCH   1   2
BRANCH   1  22
ATOM     22  C   UNL     1      -0.747  -6.701  -0.955  1.00  0.00     0.261 C 
BRANCH  22  23
ATOM     23  O   UNL     1       0.312  -6.715   0.021  1.00  0.00    -0.460 OA
BRANCH  23  24
ATOM     24  C   UNL     1       0.307  -7.794   0.841  1.00  0.00     0.338 C 
ATOM     25  O   UNL     1      -0.531  -8.684   0.881  1.00  0.00    -0.246 OA
BRANCH  24  26
ATOM     26  C   UNL     1       1.576  -7.884   1.585  1.00  0.00     0.060 A 
ATOM     27  C   UNL     1       2.339  -9.048   1.419  1.00  0.00     0.016 A 
ATOM     28  C   UNL     1       1.959  -6.909   2.508  1.00  0.00     0.016 A 
ATOM     29  C   UNL     1       3.462  -9.265   2.214  1.00  0.00     0.010 A 
ATOM     30  C   UNL     1       3.082  -7.136   3.314  1.00  0.00     0.010 A 
ATOM     31  C   UNL     1       3.814  -8.332   3.197  1.00  0.00    -0.014 A 
BRANCH  31  32
ATOM     32  C   UNL     1       4.850  -8.697   4.195  1.00  0.00     0.031 A 
ATOM     33  C   UNL     1       4.418  -9.226   5.536  1.00  0.00     0.074 A 
ATOM     34  C   UNL     1       6.157  -8.614   3.890  1.00  0.00     0.049 A 
ATOM     35  N   UNL     1       5.149  -9.626   6.545  1.00  0.00    -0.248 NA
ATOM     36  C   UNL     1       2.967  -9.319   5.770  1.00  0.00     0.031 C 
ATOM     37  C   UNL     1       6.698  -8.152   2.613  1.00  0.00     0.029 A 
ATOM     38  N   UNL     1       7.268  -8.920   4.636  1.00  0.00    -0.354 N 
ATOM     39  C   UNL     1       4.251 -10.016   7.532  1.00  0.00     0.074 A 
ATOM     40  C   UNL     1       2.922  -9.776   7.013  1.00  0.00     0.031 C 
ATOM     41  C   UNL     1       8.041  -8.198   2.667  1.00  0.00     0.029 A 
ATOM     42  C   UNL     1       8.453  -8.671   3.988  1.00  0.00     0.049 A 
ATOM     43  H   UNL     1       7.220  -9.284   5.550  1.00  0.00     0.167 HD
ATOM     44  C   UNL     1       4.510 -10.535   8.757  1.00  0.00     0.037 A 
ATOM     45  C   UNL     1       9.725  -8.798   4.416  1.00  0.00     0.037 A 
ATOM     46  C   UNL     1       5.834 -10.774   9.270  1.00  0.00     0.049 A 
ATOM     47  C   UNL     1       9.990  -9.328   5.800  1.00  0.00     0.074 A 
ATOM     48  C   UNL     1       6.200 -11.315  10.490  1.00  0.00     0.029 A 
ATOM     49  N   UNL     1       7.010 -10.478   8.595  1.00  0.00    -0.354 N 
ATOM     50  N   UNL     1       9.131  -9.716   6.714  1.00  0.00    -0.248 NA
ATOM     51  C   UNL     1      11.396  -9.444   6.210  1.00  0.00     0.031 C 
ATOM     52  C   UNL     1       7.598 -11.306  10.571  1.00  0.00     0.029 A 
ATOM     53  C   UNL     1       8.103 -10.803   9.382  1.00  0.00     0.049 A 
ATOM     54  H   UNL     1       7.060 -10.095   7.690  1.00  0.00     0.167 HD
ATOM     55  C   UNL     1       9.893 -10.142   7.797  1.00  0.00     0.074 A 
ATOM     56  C   UNL     1      11.282  -9.975   7.420  1.00  0.00     0.031 C 
ATOM     57  C   UNL     1       9.481 -10.629   8.994  1.00  0.00     0.037 A 
BRANCH  44  58
ATOM     58  C   UNL     1       3.333 -10.855   9.636  1.00  0.00     0.058 A 
ATOM     59  C   UNL     1       2.492 -11.949   9.377  1.00  0.00     0.135 A 
ATOM     60  C   UNL     1       3.055 -10.067  10.764  1.00  0.00     0.135 A 
ATOM     61  F   UNL     1       2.703 -12.724   8.302  1.00  0.00    -0.206 F 
ATOM     62  C   UNL     1       1.399 -12.233  10.189  1.00  0.00     0.059 A 
ATOM     63  C   UNL     1       1.981 -10.347  11.604  1.00  0.00     0.059 A 
ATOM     64  F   UNL     1       3.826  -9.008  11.056  1.00  0.00    -0.206 F 
ATOM     65  C   UNL     1       1.149 -11.423  11.299  1.00  0.00     0.060 A 
BRANCH  65  66
ATOM     66  S   UNL     1      -0.278 -11.797  12.339  1.00  0.00     0.124 S 
ATOM     67  O   UNL     1      -1.379 -11.333  11.501  1.00  0.00    -0.237 OA
ATOM     68  O   UNL     1      -0.175 -13.244  12.505  1.00  0.00    -0.237 OA
ATOM     69  O   UNL     1      -0.034 -11.013  13.546  1.00  0.00    -0.744 OA
ENDBRANCH  65  66
ENDBRANCH  44  58
BRANCH  45  70
ATOM     70  C   UNL     1      10.846  -8.407   3.522  1.00  0.00     0.058 A 
ATOM     71  C   UNL     1      11.693  -9.370   2.954  1.00  0.00     0.135 A 
ATOM     72  C   UNL     1      11.083  -7.060   3.208  1.00  0.00     0.135 A 
ATOM     73  F   UNL     1      11.514 -10.669   3.234  1.00  0.00    -0.206 F 
ATOM     74  C   UNL     1      12.741  -9.011   2.112  1.00  0.00     0.059 A 
ATOM     75  C   UNL     1      12.110  -6.678   2.350  1.00  0.00     0.059 A 
ATOM     76  F   UNL     1      10.295  -6.101   3.719  1.00  0.00    -0.206 F 
ATOM     77  C   UNL     1      12.938  -7.662   1.812  1.00  0.00     0.060 A 
BRANCH  77  78
ATOM     78  S   UNL     1      14.261  -7.210   0.668  1.00  0.00     0.124 S 
ATOM     79  O   UNL     1      15.444  -7.385   1.502  1.00  0.00    -0.237 OA
ATOM     80  O   UNL     1      14.084  -8.184  -0.405  1.00  0.00    -0.237 OA
ATOM     81  O   UNL     1      13.937  -5.832   0.311  1.00  0.00    -0.744 OA
ENDBRANCH  77  78
ENDBRANCH  45  70
BRANCH  57  82
ATOM     82  C   UNL     1      10.543 -11.041   9.976  1.00  0.00     0.058 A 
ATOM     83  C   UNL     1      11.313 -10.094  10.670  1.00  0.00     0.135 A 
ATOM     84  C   UNL     1      10.765 -12.399  10.258  1.00  0.00     0.135 A 
ATOM     85  F   UNL     1      11.144  -8.783  10.435  1.00  0.00    -0.206 F 
ATOM     86  C   UNL     1      12.284 -10.480  11.588  1.00  0.00     0.059 A 
ATOM     87  C   UNL     1      11.713 -12.806  11.191  1.00  0.00     0.059 A 
ATOM     88  F   UNL     1      10.047 -13.345   9.631  1.00  0.00    -0.206 F 
ATOM     89  C   UNL     1      12.479 -11.839  11.841  1.00  0.00     0.060 A 
BRANCH  89  90
ATOM     90  S   UNL     1      13.728 -12.328  13.050  1.00  0.00     0.124 S 
ATOM     91  O   UNL     1      14.960 -12.126  12.296  1.00  0.00    -0.237 OA
ATOM     92  O   UNL     1      13.492 -11.390  14.143  1.00  0.00    -0.237 OA
ATOM     93  O   UNL     1      13.391 -13.718  13.342  1.00  0.00    -0.744 OA
ENDBRANCH  89  90
ENDBRANCH  57  82
ENDBRANCH  31  32
ENDBRANCH  24  26
ENDBRANCH  23  24
ENDBRANCH  22  23
ENDBRANCH   1  22
TORSDOF 19
