REMARK SMILES Cc1ccc(-c2cc(C(=O)OCCOCCOC(=O)c3ccc(-c4c5nc(c(-c6c(F)cc(S(=O)(=O)[O-])cc6F)c6ccc([nH]6)c(-c6c(F)cc(S(=O)(=O)[O-])cc6F)c6nc(c(-c7c(F)cc(S(=O)(=O)[O-])cc7F)c7ccc4[nH]7)C=C6)C=C5)cc3)c3c(-c4cccc([N+](=O)[O-])c4)[nH]nc3n2)cc1
REMARK SMILES IDX 15 1 14 2 13 3 12 4 11 5 9 6 10 7 8 8 6 9 7 10 100 11 99 12
REMARK SMILES IDX 86 13 98 14 87 15 97 16 5 18 1 19 2 20 3 21 102 22 4 23
REMARK SMILES IDX 101 24 88 25 89 26 96 27 90 28 92 29 91 30 93 31 94 32 95 33
REMARK SMILES IDX 16 34 17 35 18 36 19 37 20 38 21 39 85 40 22 41 84 42 23 43
REMARK SMILES IDX 24 44 25 45 78 46 26 47 83 48 77 49 79 50 27 51 82 52 76 53
REMARK SMILES IDX 75 54 28 56 62 57 41 58 61 59 42 60 45 61 60 62 80 63 43 64
REMARK SMILES IDX 44 65 59 67 81 68 46 69 29 70 30 71 39 72 31 73 32 74 38 75
REMARK SMILES IDX 40 76 33 77 34 78 35 79 36 80 37 81 63 82 64 83 73 84 65 85
REMARK SMILES IDX 66 86 72 87 74 88 67 89 68 90 69 91 70 92 71 93 47 94 48 95
REMARK SMILES IDX 57 96 49 97 50 98 56 99 58 100 51 101 52 102 53 103 54 104
REMARK SMILES IDX 55 105
REMARK H PARENT 97 17 79 55 45 66
REMARK Flexibility Score: inf
ROOT
ATOM      1  C   UNL     1      -6.724  -1.632  -4.296  1.00  0.00     0.202 C 
ENDROOT
BRANCH   1   2
ATOM      2  O   UNL     1      -6.327  -0.296  -4.337  1.00  0.00    -0.374 OA
BRANCH   2   3
ATOM      3  C   UNL     1      -5.049  -0.060  -4.886  1.00  0.00     0.202 C 
BRANCH   3   4
ATOM      4  C   UNL     1      -4.605   1.144  -4.140  1.00  0.00     0.261 C 
BRANCH   4   5
ATOM      5  O   UNL     1      -4.653   0.915  -2.707  1.00  0.00    -0.460 OA
BRANCH   5   6
ATOM      6  C   UNL     1      -5.771   0.809  -1.928  1.00  0.00     0.339 C 
ATOM      7  O   UNL     1      -6.909   1.080  -2.181  1.00  0.00    -0.246 OA
BRANCH   6   8
ATOM      8  C   UNL     1      -5.308   0.267  -0.657  1.00  0.00     0.075 A 
ATOM      9  C   UNL     1      -3.371  -0.399   0.714  1.00  0.00     0.074 A 
ATOM     10  C   UNL     1      -3.938   0.254  -0.387  1.00  0.00     0.045 A 
ATOM     11  N   UNL     1      -4.069  -1.074   1.672  1.00  0.00    -0.226 NA
ATOM     12  C   UNL     1      -5.426  -1.001   1.494  1.00  0.00     0.182 A 
ATOM     13  C   UNL     1      -6.035  -0.347   0.361  1.00  0.00     0.061 A 
ATOM     14  N   UNL     1      -6.356  -1.529   2.292  1.00  0.00    -0.154 NA
ATOM     15  C   UNL     1      -7.406  -0.491   0.525  1.00  0.00     0.076 A 
ATOM     16  N   UNL     1      -7.521  -1.170   1.717  1.00  0.00    -0.275 N 
ATOM     17  H   UNL     1      -8.394  -1.378   2.122  1.00  0.00     0.190 HD
BRANCH   9  18
ATOM     18  C   UNL     1      -1.895  -0.370   0.744  1.00  0.00     0.000 A 
ATOM     19  C   UNL     1       2.365  -0.119  -0.033  1.00  0.00     0.044 C 
ATOM     20  C   UNL     1       0.892  -0.203   0.239  1.00  0.00    -0.051 A 
ATOM     21  C   UNL     1       0.247  -1.446   0.308  1.00  0.00     0.004 A 
ATOM     22  C   UNL     1       0.141   0.958   0.423  1.00  0.00     0.004 A 
ATOM     23  C   UNL     1      -1.132  -1.529   0.557  1.00  0.00     0.010 A 
ATOM     24  C   UNL     1      -1.228   0.873   0.681  1.00  0.00     0.010 A 
ENDBRANCH   9  18
BRANCH  15  25
ATOM     25  C   UNL     1      -8.596  -0.069  -0.221  1.00  0.00     0.007 A 
ATOM     26  C   UNL     1      -9.234   1.147   0.070  1.00  0.00     0.011 A 
ATOM     27  C   UNL     1      -9.098  -0.857  -1.267  1.00  0.00     0.096 A 
ATOM     28  C   UNL     1     -10.325   1.589  -0.691  1.00  0.00     0.008 A 
ATOM     29  C   UNL     1     -10.176  -0.395  -2.045  1.00  0.00     0.270 A 
ATOM     30  C   UNL     1     -10.794   0.828  -1.760  1.00  0.00     0.085 A 
BRANCH  29  31
ATOM     31  N   UNL     1     -10.629  -1.177  -3.204  1.00  0.00     0.062 N 
ATOM     32  O   UNL     1     -11.534  -0.705  -3.908  1.00  0.00    -0.258 OA
ATOM     33  O   UNL     1     -10.081  -2.270  -3.416  1.00  0.00    -0.258 OA
ENDBRANCH  29  31
ENDBRANCH  15  25
ENDBRANCH   6   8
ENDBRANCH   5   6
ENDBRANCH   4   5
ENDBRANCH   3   4
ENDBRANCH   2   3
ENDBRANCH   1   2
BRANCH   1  34
ATOM     34  C   UNL     1      -7.038  -2.086  -5.711  1.00  0.00     0.261 C 
BRANCH  34  35
ATOM     35  O   UNL     1      -8.053  -1.240  -6.323  1.00  0.00    -0.460 OA
BRANCH  35  36
ATOM     36  C   UNL     1      -7.651  -0.179  -7.100  1.00  0.00     0.338 C 
ATOM     37  O   UNL     1      -7.272  -0.291  -8.253  1.00  0.00    -0.246 OA
BRANCH  36  38
ATOM     38  C   UNL     1      -7.837   1.130  -6.387  1.00  0.00     0.060 A 
ATOM     39  C   UNL     1      -7.107   2.296  -6.700  1.00  0.00     0.016 A 
ATOM     40  C   UNL     1      -8.610   1.116  -5.240  1.00  0.00     0.016 A 
ATOM     41  C   UNL     1      -7.007   3.360  -5.770  1.00  0.00     0.010 A 
ATOM     42  C   UNL     1      -8.441   2.115  -4.307  1.00  0.00     0.010 A 
ATOM     43  C   UNL     1      -7.606   3.223  -4.524  1.00  0.00    -0.014 A 
BRANCH  43  44
ATOM     44  C   UNL     1      -7.477   4.078  -3.327  1.00  0.00     0.031 A 
ATOM     45  C   UNL     1      -8.737   4.656  -2.796  1.00  0.00     0.074 A 
ATOM     46  C   UNL     1      -6.390   3.996  -2.513  1.00  0.00     0.049 A 
ATOM     47  N   UNL     1      -8.806   5.351  -1.721  1.00  0.00    -0.248 NA
ATOM     48  C   UNL     1     -10.044   4.519  -3.444  1.00  0.00     0.031 C 
ATOM     49  C   UNL     1      -6.321   4.105  -1.049  1.00  0.00     0.029 A 
ATOM     50  N   UNL     1      -5.066   3.704  -2.837  1.00  0.00    -0.354 N 
ATOM     51  C   UNL     1     -10.126   5.456  -1.358  1.00  0.00     0.074 A 
ATOM     52  C   UNL     1     -10.860   5.051  -2.526  1.00  0.00     0.031 C 
ATOM     53  C   UNL     1      -5.035   4.141  -0.646  1.00  0.00     0.029 A 
ATOM     54  C   UNL     1      -4.209   4.183  -1.842  1.00  0.00     0.049 A 
ATOM     55  H   UNL     1      -4.777   3.228  -3.649  1.00  0.00     0.167 HD
ATOM     56  C   UNL     1     -10.394   5.753  -0.054  1.00  0.00     0.037 A 
ATOM     57  C   UNL     1      -3.244   5.083  -2.170  1.00  0.00     0.037 A 
ATOM     58  C   UNL     1      -9.143   6.114   0.635  1.00  0.00     0.049 A 
ATOM     59  C   UNL     1      -3.659   6.385  -1.542  1.00  0.00     0.074 A 
ATOM     60  C   UNL     1      -8.358   5.500   1.594  1.00  0.00     0.029 A 
ATOM     61  N   UNL     1      -8.364   7.144   0.101  1.00  0.00    -0.354 N 
ATOM     62  N   UNL     1      -4.906   6.651  -1.249  1.00  0.00    -0.248 NA
ATOM     63  C   UNL     1      -2.733   7.379  -1.017  1.00  0.00     0.031 C 
ATOM     64  C   UNL     1      -7.066   6.114   1.554  1.00  0.00     0.029 A 
ATOM     65  C   UNL     1      -7.075   7.122   0.597  1.00  0.00     0.049 A 
ATOM     66  H   UNL     1      -8.694   7.806  -0.549  1.00  0.00     0.167 HD
ATOM     67  C   UNL     1      -4.955   7.720  -0.413  1.00  0.00     0.074 A 
ATOM     68  C   UNL     1      -3.576   8.177  -0.336  1.00  0.00     0.031 C 
ATOM     69  C   UNL     1      -6.105   8.140   0.188  1.00  0.00     0.037 A 
BRANCH  56  70
ATOM     70  C   UNL     1     -11.728   5.584   0.657  1.00  0.00     0.058 A 
ATOM     71  C   UNL     1     -11.858   5.982   2.007  1.00  0.00     0.135 A 
ATOM     72  C   UNL     1     -12.887   4.976   0.122  1.00  0.00     0.135 A 
ATOM     73  F   UNL     1     -10.834   6.543   2.667  1.00  0.00    -0.206 F 
ATOM     74  C   UNL     1     -13.029   5.804   2.752  1.00  0.00     0.059 A 
ATOM     75  C   UNL     1     -14.083   4.826   0.833  1.00  0.00     0.059 A 
ATOM     76  F   UNL     1     -12.909   4.431  -1.099  1.00  0.00    -0.206 F 
ATOM     77  C   UNL     1     -14.144   5.234   2.154  1.00  0.00     0.060 A 
BRANCH  77  78
ATOM     78  S   UNL     1     -15.650   5.023   3.123  1.00  0.00     0.124 S 
ATOM     79  O   UNL     1     -15.226   4.055   4.129  1.00  0.00    -0.237 OA
ATOM     80  O   UNL     1     -15.899   6.377   3.604  1.00  0.00    -0.237 OA
ATOM     81  O   UNL     1     -16.615   4.522   2.147  1.00  0.00    -0.744 OA
ENDBRANCH  77  78
ENDBRANCH  56  70
BRANCH  57  82
ATOM     82  C   UNL     1      -2.632   4.783  -3.511  1.00  0.00     0.058 A 
ATOM     83  C   UNL     1      -1.738   3.687  -3.577  1.00  0.00     0.135 A 
ATOM     84  C   UNL     1      -3.268   5.137  -4.714  1.00  0.00     0.135 A 
ATOM     85  F   UNL     1      -1.130   3.256  -2.457  1.00  0.00    -0.206 F 
ATOM     86  C   UNL     1      -1.582   2.905  -4.729  1.00  0.00     0.059 A 
ATOM     87  C   UNL     1      -3.163   4.339  -5.866  1.00  0.00     0.059 A 
ATOM     88  F   UNL     1      -4.141   6.155  -4.737  1.00  0.00    -0.206 F 
ATOM     89  C   UNL     1      -2.354   3.199  -5.853  1.00  0.00     0.060 A 
BRANCH  89  90
ATOM     90  S   UNL     1      -2.575   1.910  -7.133  1.00  0.00     0.124 S 
ATOM     91  O   UNL     1      -1.488   2.201  -8.057  1.00  0.00    -0.237 OA
ATOM     92  O   UNL     1      -2.441   0.668  -6.372  1.00  0.00    -0.237 OA
ATOM     93  O   UNL     1      -3.925   2.173  -7.618  1.00  0.00    -0.744 OA
ENDBRANCH  89  90
ENDBRANCH  57  82
BRANCH  69  94
ATOM     94  C   UNL     1      -6.362   9.595   0.474  1.00  0.00     0.058 A 
ATOM     95  C   UNL     1      -5.617  10.636  -0.111  1.00  0.00     0.135 A 
ATOM     96  C   UNL     1      -7.496  10.002   1.216  1.00  0.00     0.135 A 
ATOM     97  F   UNL     1      -4.618  10.402  -0.975  1.00  0.00    -0.206 F 
ATOM     98  C   UNL     1      -5.891  11.973   0.127  1.00  0.00     0.059 A 
ATOM     99  C   UNL     1      -7.841  11.335   1.391  1.00  0.00     0.059 A 
ATOM    100  F   UNL     1      -8.332   9.120   1.781  1.00  0.00    -0.206 F 
ATOM    101  C   UNL     1      -7.002  12.313   0.885  1.00  0.00     0.060 A 
BRANCH 101 102
ATOM    102  S   UNL     1      -7.336  14.048   1.188  1.00  0.00     0.124 S 
ATOM    103  O   UNL     1      -6.373  14.339   2.246  1.00  0.00    -0.237 OA
ATOM    104  O   UNL     1      -7.053  14.654  -0.110  1.00  0.00    -0.237 OA
ATOM    105  O   UNL     1      -8.739  14.059   1.587  1.00  0.00    -0.744 OA
ENDBRANCH 101 102
ENDBRANCH  69  94
ENDBRANCH  43  44
ENDBRANCH  36  38
ENDBRANCH  35  36
ENDBRANCH  34  35
ENDBRANCH   1  34
TORSDOF 20
