REMARK SMILES COc1cccc(Cn2c(=O)c(=O)n(CC(=O)OCCOCCOC(=O)c3ccc(-c4c5nc(c(-c6c(F)cc(S(=O)(=O)[O-])cc6F)c6ccc([nH]6)c(-c6c(F)cc(S(=O)(=O)[O-])cc6F)c6nc(c(-c7c(F)cc(S(=O)(=O)[O-])cc7F)c7ccc4[nH]7)C=C6)C=C5)cc3)c3ccccc32)c1
REMARK SMILES IDX 20 1 19 2 18 3 16 4 17 5 15 6 14 7 9 8 10 9 98 10 11 11
REMARK SMILES IDX 12 12 93 13 97 14 13 15 94 16 96 17 95 18 8 19 7 20 3 21
REMARK SMILES IDX 4 22 99 23 5 24 6 25 2 26 1 27 21 28 22 29 23 30 24 31 25 32
REMARK SMILES IDX 26 33 27 34 28 35 92 36 29 37 91 38 30 39 31 40 32 41 85 42
REMARK SMILES IDX 33 43 90 44 84 45 86 46 34 47 89 48 83 49 82 50 35 52 69 53
REMARK SMILES IDX 48 54 68 55 49 56 52 57 67 58 87 59 50 60 51 61 66 63 88 64
REMARK SMILES IDX 53 65 36 66 37 67 46 68 38 69 39 70 45 71 47 72 40 73 41 74
REMARK SMILES IDX 42 75 43 76 44 77 70 78 71 79 80 80 72 81 73 82 79 83 81 84
REMARK SMILES IDX 74 85 75 86 76 87 77 88 78 89 54 90 55 91 64 92 56 93 57 94
REMARK SMILES IDX 63 95 65 96 58 97 59 98 60 99 61 100 62 101
REMARK H PARENT 86 51 52 62
REMARK Flexibility Score: inf
ROOT
ATOM      1  C   UNL     1       0.847   8.439  -3.187  1.00  0.00     0.202 C 
ENDROOT
BRANCH   1   2
ATOM      2  C   UNL     1       0.906   6.919  -3.023  1.00  0.00     0.261 C 
BRANCH   2   3
ATOM      3  O   UNL     1       2.099   6.542  -2.317  1.00  0.00    -0.462 OA
BRANCH   3   4
ATOM      4  C   UNL     1       3.080   5.978  -3.069  1.00  0.00     0.326 C 
ATOM      5  O   UNL     1       3.016   5.766  -4.277  1.00  0.00    -0.250 OA
BRANCH   4   6
ATOM      6  C   UNL     1       4.399   5.851  -2.306  1.00  0.00     0.248 C 
BRANCH   6   7
ATOM      7  N   UNL     1       4.355   5.702  -0.863  1.00  0.00    -0.291 N 
ATOM      8  N   UNL     1       5.025   4.412   1.556  1.00  0.00    -0.298 N 
ATOM      9  C   UNL     1       4.520   3.699   0.484  1.00  0.00     0.317 A 
ATOM     10  C   UNL     1       5.588   5.691   1.278  1.00  0.00     0.068 A 
ATOM     11  O   UNL     1       4.693   2.506   0.262  1.00  0.00    -0.263 OA
ATOM     12  C   UNL     1       3.718   4.532  -0.485  1.00  0.00     0.317 A 
ATOM     13  C   UNL     1       5.304   6.310   0.025  1.00  0.00     0.069 A 
ATOM     14  C   UNL     1       6.534   6.272   2.135  1.00  0.00     0.028 A 
ATOM     15  O   UNL     1       2.704   4.069  -0.995  1.00  0.00    -0.263 OA
ATOM     16  C   UNL     1       5.937   7.519  -0.297  1.00  0.00     0.028 A 
ATOM     17  C   UNL     1       7.197   7.446   1.765  1.00  0.00     0.002 A 
ATOM     18  C   UNL     1       6.890   8.074   0.561  1.00  0.00     0.002 A 
BRANCH   8  19
ATOM     19  C   UNL     1       5.004   3.735   2.847  1.00  0.00     0.162 C 
BRANCH  19  20
ATOM     20  C   UNL     1       3.555   3.355   3.161  1.00  0.00    -0.024 A 
ATOM     21  C   UNL     1       1.620   2.051   2.445  1.00  0.00     0.119 A 
ATOM     22  C   UNL     1       0.786   3.009   3.021  1.00  0.00     0.046 A 
ATOM     23  C   UNL     1       3.000   2.189   2.587  1.00  0.00     0.052 A 
ATOM     24  C   UNL     1       1.321   4.100   3.709  1.00  0.00     0.004 A 
ATOM     25  C   UNL     1       2.701   4.288   3.761  1.00  0.00     0.006 A 
BRANCH  21  26
ATOM     26  O   UNL     1       0.973   1.087   1.724  1.00  0.00    -0.497 OA
ATOM     27  C   UNL     1       1.758   0.145   1.003  1.00  0.00     0.278 C 
ENDBRANCH  21  26
ENDBRANCH  19  20
ENDBRANCH   8  19
ENDBRANCH   6   7
ENDBRANCH   4   6
ENDBRANCH   3   4
ENDBRANCH   2   3
ENDBRANCH   1   2
BRANCH   1  28
ATOM     28  O   UNL     1       1.819   8.962  -4.099  1.00  0.00    -0.374 OA
BRANCH  28  29
ATOM     29  C   UNL     1       3.127   9.203  -3.576  1.00  0.00     0.202 C 
BRANCH  29  30
ATOM     30  C   UNL     1       3.248  10.501  -2.789  1.00  0.00     0.261 C 
BRANCH  30  31
ATOM     31  O   UNL     1       2.656  10.309  -1.494  1.00  0.00    -0.460 OA
BRANCH  31  32
ATOM     32  C   UNL     1       2.099  11.428  -0.984  1.00  0.00     0.338 C 
ATOM     33  O   UNL     1       2.230  12.568  -1.392  1.00  0.00    -0.246 OA
BRANCH  32  34
ATOM     34  C   UNL     1       1.149  11.047   0.070  1.00  0.00     0.060 A 
ATOM     35  C   UNL     1      -0.213  11.116  -0.235  1.00  0.00     0.016 A 
ATOM     36  C   UNL     1       1.586  10.756   1.364  1.00  0.00     0.016 A 
ATOM     37  C   UNL     1      -1.151  10.973   0.783  1.00  0.00     0.010 A 
ATOM     38  C   UNL     1       0.640  10.612   2.385  1.00  0.00     0.010 A 
ATOM     39  C   UNL     1      -0.728  10.775   2.106  1.00  0.00    -0.014 A 
BRANCH  39  40
ATOM     40  C   UNL     1      -1.721  10.938   3.196  1.00  0.00     0.031 A 
ATOM     41  C   UNL     1      -1.847  12.280   3.868  1.00  0.00     0.074 A 
ATOM     42  C   UNL     1      -2.558   9.938   3.522  1.00  0.00     0.049 A 
ATOM     43  N   UNL     1      -2.725  12.686   4.747  1.00  0.00    -0.248 NA
ATOM     44  C   UNL     1      -0.853  13.301   3.495  1.00  0.00     0.031 C 
ATOM     45  C   UNL     1      -2.545   8.598   2.936  1.00  0.00     0.029 A 
ATOM     46  N   UNL     1      -3.596   9.905   4.418  1.00  0.00    -0.354 N 
ATOM     47  C   UNL     1      -2.403  14.010   5.020  1.00  0.00     0.074 A 
ATOM     48  C   UNL     1      -1.222  14.328   4.246  1.00  0.00     0.031 C 
ATOM     49  C   UNL     1      -3.538   7.875   3.483  1.00  0.00     0.029 A 
ATOM     50  C   UNL     1      -4.253   8.699   4.457  1.00  0.00     0.049 A 
ATOM     51  H   UNL     1      -3.847  10.674   4.980  1.00  0.00     0.167 HD
ATOM     52  C   UNL     1      -3.042  14.891   5.826  1.00  0.00     0.037 A 
ATOM     53  C   UNL     1      -5.315   8.310   5.188  1.00  0.00     0.037 A 
ATOM     54  C   UNL     1      -4.216  14.581   6.597  1.00  0.00     0.049 A 
ATOM     55  C   UNL     1      -5.988   9.295   6.107  1.00  0.00     0.074 A 
ATOM     56  C   UNL     1      -4.947  15.413   7.427  1.00  0.00     0.029 A 
ATOM     57  N   UNL     1      -4.827  13.337   6.637  1.00  0.00    -0.354 N 
ATOM     58  N   UNL     1      -5.699  10.557   6.318  1.00  0.00    -0.248 NA
ATOM     59  C   UNL     1      -7.138   8.804   6.881  1.00  0.00     0.031 C 
ATOM     60  C   UNL     1      -5.983  14.662   7.995  1.00  0.00     0.029 A 
ATOM     61  C   UNL     1      -5.914  13.372   7.494  1.00  0.00     0.049 A 
ATOM     62  H   UNL     1      -4.531  12.546   6.131  1.00  0.00     0.167 HD
ATOM     63  C   UNL     1      -6.641  11.016   7.232  1.00  0.00     0.074 A 
ATOM     64  C   UNL     1      -7.516   9.899   7.528  1.00  0.00     0.031 C 
ATOM     65  C   UNL     1      -6.773  12.251   7.777  1.00  0.00     0.037 A 
BRANCH  52  66
ATOM     66  C   UNL     1      -2.475  16.277   5.915  1.00  0.00     0.058 A 
ATOM     67  C   UNL     1      -2.653  17.207   4.878  1.00  0.00     0.135 A 
ATOM     68  C   UNL     1      -1.759  16.685   7.050  1.00  0.00     0.135 A 
ATOM     69  F   UNL     1      -3.314  16.858   3.763  1.00  0.00    -0.206 F 
ATOM     70  C   UNL     1      -2.120  18.490   4.955  1.00  0.00     0.059 A 
ATOM     71  C   UNL     1      -1.233  17.969   7.156  1.00  0.00     0.059 A 
ATOM     72  F   UNL     1      -1.557  15.831   8.065  1.00  0.00    -0.206 F 
ATOM     73  C   UNL     1      -1.406  18.860   6.096  1.00  0.00     0.060 A 
BRANCH  73  74
ATOM     74  S   UNL     1      -0.712  20.524   6.185  1.00  0.00     0.124 S 
ATOM     75  O   UNL     1       0.467  20.391   5.335  1.00  0.00    -0.237 OA
ATOM     76  O   UNL     1      -1.791  21.346   5.647  1.00  0.00    -0.237 OA
ATOM     77  O   UNL     1      -0.443  20.703   7.608  1.00  0.00    -0.744 OA
ENDBRANCH  73  74
ENDBRANCH  52  66
BRANCH  53  78
ATOM     78  C   UNL     1      -5.823   6.920   5.068  1.00  0.00     0.058 A 
ATOM     79  C   UNL     1      -7.021   6.642   4.397  1.00  0.00     0.135 A 
ATOM     80  C   UNL     1      -5.113   5.844   5.622  1.00  0.00     0.135 A 
ATOM     81  F   UNL     1      -7.737   7.642   3.859  1.00  0.00    -0.206 F 
ATOM     82  C   UNL     1      -7.508   5.344   4.287  1.00  0.00     0.059 A 
ATOM     83  C   UNL     1      -5.571   4.535   5.510  1.00  0.00     0.059 A 
ATOM     84  F   UNL     1      -3.956   6.061   6.265  1.00  0.00    -0.206 F 
ATOM     85  C   UNL     1      -6.775   4.296   4.849  1.00  0.00     0.060 A 
BRANCH  85  86
ATOM     86  S   UNL     1      -7.387   2.607   4.666  1.00  0.00     0.124 S 
ATOM     87  O   UNL     1      -8.421   2.558   5.693  1.00  0.00    -0.237 OA
ATOM     88  O   UNL     1      -7.858   2.595   3.284  1.00  0.00    -0.237 OA
ATOM     89  O   UNL     1      -6.201   1.795   4.922  1.00  0.00    -0.744 OA
ENDBRANCH  85  86
ENDBRANCH  53  78
BRANCH  65  90
ATOM     90  C   UNL     1      -7.908  12.465   8.737  1.00  0.00     0.058 A 
ATOM     91  C   UNL     1      -7.849  11.990  10.056  1.00  0.00     0.135 A 
ATOM     92  C   UNL     1      -9.043  13.195   8.350  1.00  0.00     0.135 A 
ATOM     93  F   UNL     1      -6.786  11.284  10.472  1.00  0.00    -0.206 F 
ATOM     94  C   UNL     1      -8.886  12.216  10.955  1.00  0.00     0.059 A 
ATOM     95  C   UNL     1     -10.084  13.448   9.238  1.00  0.00     0.059 A 
ATOM     96  F   UNL     1      -9.142  13.679   7.102  1.00  0.00    -0.206 F 
ATOM     97  C   UNL     1     -10.001  12.944  10.536  1.00  0.00     0.060 A 
BRANCH  97  98
ATOM     98  S   UNL     1     -11.329  13.262  11.718  1.00  0.00     0.124 S 
ATOM     99  O   UNL     1     -12.051  11.995  11.695  1.00  0.00    -0.237 OA
ATOM    100  O   UNL     1     -10.597  13.552  12.947  1.00  0.00    -0.237 OA
ATOM    101  O   UNL     1     -12.034  14.400  11.134  1.00  0.00    -0.744 OA
ENDBRANCH  97  98
ENDBRANCH  65  90
ENDBRANCH  39  40
ENDBRANCH  32  34
ENDBRANCH  31  32
ENDBRANCH  30  31
ENDBRANCH  29  30
ENDBRANCH  28  29
ENDBRANCH   1  28
TORSDOF 21
