REMARK SMILES Cc1cc(C)c2c(c1)C=C(C(=O)OCCOCCOC(=O)c1ccc(-c3c4nc(c(-c5c(F)cc(S(=O)(=O)[O-])cc5F)c5ccc([nH]5)c(-c5c(F)cc(S(=O)(=O)[O-])cc5F)c5nc(c(-c6c(F)cc(S(=O)(=O)[O-])cc6F)c6ccc3[nH]6)C=C5)C=C4)cc1)[C@@H](C(F)(F)F)O2
REMARK SMILES IDX 17 1 16 2 15 3 14 4 13 5 11 6 12 7 10 8 1 9 2 10 3 11 8 12
REMARK SMILES IDX 4 13 7 14 5 15 6 16 9 17 93 18 88 19 89 20 90 21 91 22 92 23
REMARK SMILES IDX 18 24 19 25 20 26 21 27 22 28 23 29 87 30 24 31 86 32 25 33
REMARK SMILES IDX 26 34 27 35 80 36 28 37 85 38 79 39 81 40 29 41 84 42 78 43
REMARK SMILES IDX 77 44 30 46 64 47 43 48 63 49 44 50 47 51 62 52 82 53 45 54
REMARK SMILES IDX 46 55 61 57 83 58 48 59 31 60 32 61 41 62 33 63 34 64 40 65
REMARK SMILES IDX 42 66 35 67 36 68 37 69 38 70 39 71 65 72 66 73 75 74 67 75
REMARK SMILES IDX 68 76 74 77 76 78 69 79 70 80 71 81 72 82 73 83 49 84 50 85
REMARK SMILES IDX 59 86 51 87 52 88 58 89 60 90 53 91 54 92 55 93 56 94 57 95
REMARK H PARENT 81 45 47 56
REMARK Flexibility Score: inf
ROOT
ATOM      1  C   UNL     1       1.762   5.697   5.593  1.00  0.00     0.202 C 
ENDROOT
BRANCH   1   2
ATOM      2  O   UNL     1       1.109   6.964   5.693  1.00  0.00    -0.374 OA
BRANCH   2   3
ATOM      3  C   UNL     1       0.119   7.122   6.708  1.00  0.00     0.202 C 
BRANCH   3   4
ATOM      4  C   UNL     1      -1.263   6.527   6.421  1.00  0.00     0.261 C 
BRANCH   4   5
ATOM      5  O   UNL     1      -1.188   5.119   6.150  1.00  0.00    -0.460 OA
BRANCH   5   6
ATOM      6  C   UNL     1      -1.484   4.774   4.876  1.00  0.00     0.338 C 
ATOM      7  O   UNL     1      -1.908   5.510   3.997  1.00  0.00    -0.246 OA
BRANCH   6   8
ATOM      8  C   UNL     1      -1.093   3.374   4.630  1.00  0.00     0.087 C 
ATOM      9  C   UNL     1       0.975  -0.152   0.039  1.00  0.00     0.044 C 
ATOM     10  C   UNL     1       0.446   0.149   1.409  1.00  0.00    -0.050 A 
ATOM     11  C   UNL     1       0.143  -0.881   2.307  1.00  0.00     0.010 A 
ATOM     12  C   UNL     1       0.275   1.475   1.817  1.00  0.00     0.015 A 
ATOM     13  C   UNL     1      -0.340  -0.599   3.596  1.00  0.00    -0.008 A 
ATOM     14  C   UNL     1      -0.224   1.768   3.090  1.00  0.00     0.018 A 
ATOM     15  C   UNL     1      -0.696  -1.725   4.526  1.00  0.00     0.048 C 
ATOM     16  C   UNL     1      -0.509   0.738   3.988  1.00  0.00     0.130 A 
ATOM     17  C   UNL     1      -0.511   3.143   3.448  1.00  0.00     0.027 C 
ATOM     18  O   UNL     1      -0.947   0.965   5.264  1.00  0.00    -0.475 OA
ATOM     19  C   UNL     1      -1.372   2.304   5.648  1.00  0.00     0.316 C 
BRANCH  19  20
ATOM     20  C   UNL     1      -2.853   2.240   6.050  1.00  0.00     0.430 C 
ATOM     21  F   UNL     1      -3.077   1.234   6.930  1.00  0.00    -0.167 F 
ATOM     22  F   UNL     1      -3.260   3.382   6.649  1.00  0.00    -0.167 F 
ATOM     23  F   UNL     1      -3.656   2.032   4.982  1.00  0.00    -0.167 F 
ENDBRANCH  19  20
ENDBRANCH   6   8
ENDBRANCH   5   6
ENDBRANCH   4   5
ENDBRANCH   3   4
ENDBRANCH   2   3
ENDBRANCH   1   2
BRANCH   1  24
ATOM     24  C   UNL     1       2.783   5.341   6.682  1.00  0.00     0.261 C 
BRANCH  24  25
ATOM     25  O   UNL     1       2.166   5.136   7.965  1.00  0.00    -0.460 OA
BRANCH  25  26
ATOM     26  C   UNL     1       2.504   6.048   8.908  1.00  0.00     0.338 C 
ATOM     27  O   UNL     1       3.308   6.965   8.793  1.00  0.00    -0.246 OA
BRANCH  26  28
ATOM     28  C   UNL     1       1.621   5.916  10.079  1.00  0.00     0.060 A 
ATOM     29  C   UNL     1       0.878   7.040  10.463  1.00  0.00     0.016 A 
ATOM     30  C   UNL     1       1.586   4.745  10.840  1.00  0.00     0.016 A 
ATOM     31  C   UNL     1       0.131   7.013  11.637  1.00  0.00     0.010 A 
ATOM     32  C   UNL     1       0.845   4.725  12.026  1.00  0.00     0.010 A 
ATOM     33  C   UNL     1       0.143   5.869  12.447  1.00  0.00    -0.014 A 
BRANCH  33  34
ATOM     34  C   UNL     1      -0.450   5.935  13.804  1.00  0.00     0.031 A 
ATOM     35  C   UNL     1       0.453   6.196  14.979  1.00  0.00     0.074 A 
ATOM     36  C   UNL     1      -1.778   5.816  13.981  1.00  0.00     0.049 A 
ATOM     37  N   UNL     1       0.154   6.286  16.249  1.00  0.00    -0.248 NA
ATOM     38  C   UNL     1       1.882   6.387  14.682  1.00  0.00     0.031 C 
ATOM     39  C   UNL     1      -2.756   5.616  12.913  1.00  0.00     0.029 A 
ATOM     40  N   UNL     1      -2.532   5.854  15.126  1.00  0.00    -0.354 N 
ATOM     41  C   UNL     1       1.353   6.550  16.901  1.00  0.00     0.074 A 
ATOM     42  C   UNL     1       2.390   6.570  15.893  1.00  0.00     0.031 C 
ATOM     43  C   UNL     1      -3.985   5.548  13.454  1.00  0.00     0.029 A 
ATOM     44  C   UNL     1      -3.877   5.671  14.907  1.00  0.00     0.049 A 
ATOM     45  H   UNL     1      -2.147   5.998  16.020  1.00  0.00     0.167 HD
ATOM     46  C   UNL     1       1.567   6.771  18.220  1.00  0.00     0.037 A 
ATOM     47  C   UNL     1      -4.900   5.597  15.782  1.00  0.00     0.037 A 
ATOM     48  C   UNL     1       0.532   6.745  19.220  1.00  0.00     0.049 A 
ATOM     49  C   UNL     1      -4.624   5.752  17.255  1.00  0.00     0.074 A 
ATOM     50  C   UNL     1       0.649   6.952  20.583  1.00  0.00     0.029 A 
ATOM     51  N   UNL     1      -0.808   6.495  18.966  1.00  0.00    -0.354 N 
ATOM     52  N   UNL     1      -3.485   6.000  17.859  1.00  0.00    -0.248 NA
ATOM     53  C   UNL     1      -5.769   5.614  18.166  1.00  0.00     0.031 C 
ATOM     54  C   UNL     1      -0.614   6.783  21.160  1.00  0.00     0.029 A 
ATOM     55  C   UNL     1      -1.526   6.518  20.150  1.00  0.00     0.049 A 
ATOM     56  H   UNL     1      -1.193   6.325  18.076  1.00  0.00     0.167 HD
ATOM     57  C   UNL     1      -3.780   6.068  19.217  1.00  0.00     0.074 A 
ATOM     58  C   UNL     1      -5.206   5.846  19.345  1.00  0.00     0.031 C 
ATOM     59  C   UNL     1      -2.946   6.295  20.262  1.00  0.00     0.037 A 
BRANCH  46  60
ATOM     60  C   UNL     1       2.976   7.049  18.661  1.00  0.00     0.058 A 
ATOM     61  C   UNL     1       3.602   8.275  18.388  1.00  0.00     0.135 A 
ATOM     62  C   UNL     1       3.694   6.097  19.403  1.00  0.00     0.135 A 
ATOM     63  F   UNL     1       2.968   9.212  17.665  1.00  0.00    -0.206 F 
ATOM     64  C   UNL     1       4.896   8.543  18.823  1.00  0.00     0.059 A 
ATOM     65  C   UNL     1       4.980   6.353  19.869  1.00  0.00     0.059 A 
ATOM     66  F   UNL     1       3.143   4.906  19.686  1.00  0.00    -0.206 F 
ATOM     67  C   UNL     1       5.576   7.576  19.565  1.00  0.00     0.060 A 
BRANCH  67  68
ATOM     68  S   UNL     1       7.249   7.947  20.134  1.00  0.00     0.124 S 
ATOM     69  O   UNL     1       7.996   7.918  18.880  1.00  0.00    -0.237 OA
ATOM     70  O   UNL     1       7.085   9.263  20.743  1.00  0.00    -0.237 OA
ATOM     71  O   UNL     1       7.543   6.861  21.063  1.00  0.00    -0.744 OA
ENDBRANCH  67  68
ENDBRANCH  46  60
BRANCH  47  72
ATOM     72  C   UNL     1      -6.282   5.364  15.287  1.00  0.00     0.058 A 
ATOM     73  C   UNL     1      -7.251   6.376  15.347  1.00  0.00     0.135 A 
ATOM     74  C   UNL     1      -6.659   4.131  14.732  1.00  0.00     0.135 A 
ATOM     75  F   UNL     1      -6.943   7.568  15.881  1.00  0.00    -0.206 F 
ATOM     76  C   UNL     1      -8.545   6.175  14.878  1.00  0.00     0.059 A 
ATOM     77  C   UNL     1      -7.940   3.913  14.235  1.00  0.00     0.059 A 
ATOM     78  F   UNL     1      -5.767   3.132  14.646  1.00  0.00    -0.206 F 
ATOM     79  C   UNL     1      -8.878   4.940  14.318  1.00  0.00     0.060 A 
BRANCH  79  80
ATOM     80  S   UNL     1     -10.545   4.712  13.660  1.00  0.00     0.124 S 
ATOM     81  O   UNL     1     -11.341   4.675  14.881  1.00  0.00    -0.237 OA
ATOM     82  O   UNL     1     -10.707   5.899  12.826  1.00  0.00    -0.237 OA
ATOM     83  O   UNL     1     -10.448   3.451  12.930  1.00  0.00    -0.744 OA
ENDBRANCH  79  80
ENDBRANCH  47  72
BRANCH  59  84
ATOM     84  C   UNL     1      -3.547   6.332  21.640  1.00  0.00     0.058 A 
ATOM     85  C   UNL     1      -3.953   5.159  22.294  1.00  0.00     0.135 A 
ATOM     86  C   UNL     1      -3.640   7.543  22.345  1.00  0.00     0.135 A 
ATOM     87  F   UNL     1      -3.890   3.976  21.663  1.00  0.00    -0.206 F 
ATOM     88  C   UNL     1      -4.442   5.186  23.596  1.00  0.00     0.059 A 
ATOM     89  C   UNL     1      -4.102   7.590  23.657  1.00  0.00     0.059 A 
ATOM     90  F   UNL     1      -3.254   8.692  21.769  1.00  0.00    -0.206 F 
ATOM     91  C   UNL     1      -4.507   6.407  24.272  1.00  0.00     0.060 A 
BRANCH  91  92
ATOM     92  S   UNL     1      -5.096   6.417  25.979  1.00  0.00     0.124 S 
ATOM     93  O   UNL     1      -6.520   6.156  25.801  1.00  0.00    -0.237 OA
ATOM     94  O   UNL     1      -4.323   5.335  26.581  1.00  0.00    -0.237 OA
ATOM     95  O   UNL     1      -4.757   7.758  26.448  1.00  0.00    -0.744 OA
ENDBRANCH  91  92
ENDBRANCH  59  84
ENDBRANCH  33  34
ENDBRANCH  26  28
ENDBRANCH  25  26
ENDBRANCH  24  25
ENDBRANCH   1  24
TORSDOF 18
