REMARK SMILES [NH3+]C1CC[NH+](CC(=O)N2CCO[C@H](CC(=O)OCCOCCOC(=O)c3ccc(-c4c5nc(c(-c6c(F)cc(S(=O)(=O)[O-])cc6F)c6ccc([nH]6)c(-c6c(F)cc(S(=O)(=O)[O-])cc6F)c6nc(c(-c7c(F)cc(S(=O)(=O)[O-])cc7F)c7ccc4[nH]7)C=C6)C=C5)cc3)C2)CC1
REMARK SMILES IDX 19 1 18 2 17 3 15 4 16 5 14 6 13 7 9 8 10 9 92 10 11 11
REMARK SMILES IDX 12 12 7 13 8 14 6 15 5 16 2 17 3 18 94 19 4 20 93 21 1 23
REMARK SMILES IDX 20 27 21 28 22 29 23 30 24 31 25 32 26 33 27 34 91 35 28 36
REMARK SMILES IDX 90 37 29 38 30 39 31 40 84 41 32 42 89 43 83 44 85 45 33 46
REMARK SMILES IDX 88 47 82 48 81 49 34 51 68 52 47 53 67 54 48 55 51 56 66 57
REMARK SMILES IDX 86 58 49 59 50 60 65 62 87 63 52 64 35 65 36 66 45 67 37 68
REMARK SMILES IDX 38 69 44 70 46 71 39 72 40 73 41 74 42 75 43 76 69 77 70 78
REMARK SMILES IDX 79 79 71 80 72 81 78 82 80 83 73 84 74 85 75 86 76 87 77 88
REMARK SMILES IDX 53 89 54 90 63 91 55 92 56 93 62 94 64 95 57 96 58 97 59 98
REMARK SMILES IDX 60 99 61 100
REMARK H PARENT 5 22 1 24 1 25 1 26 85 50 51 61
REMARK Flexibility Score: inf
ROOT
ATOM      1  C   UNL     1       3.954  -6.641  -4.133  1.00  0.00     0.202 C 
ENDROOT
BRANCH   1   2
ATOM      2  C   UNL     1       5.011  -6.308  -3.080  1.00  0.00     0.261 C 
BRANCH   2   3
ATOM      3  O   UNL     1       4.394  -5.982  -1.823  1.00  0.00    -0.463 OA
BRANCH   3   4
ATOM      4  C   UNL     1       4.593  -4.721  -1.379  1.00  0.00     0.308 C 
ATOM      5  O   UNL     1       5.304  -3.883  -1.924  1.00  0.00    -0.252 OA
BRANCH   4   6
ATOM      6  C   UNL     1       3.828  -4.404  -0.125  1.00  0.00     0.156 C 
BRANCH   6   7
ATOM      7  C   UNL     1       2.516  -5.181   0.127  1.00  0.00     0.148 C 
ATOM      8  N   UNL     1       0.121  -4.515   0.794  1.00  0.00    -0.333 N 
ATOM      9  C   UNL     1       0.327  -5.269   2.031  1.00  0.00     0.148 C 
ATOM     10  C   UNL     1       1.358  -4.165   0.117  1.00  0.00     0.152 C 
ATOM     11  C   UNL     1       1.379  -6.366   1.843  1.00  0.00     0.182 C 
ATOM     12  O   UNL     1       2.628  -5.798   1.422  1.00  0.00    -0.374 OA
BRANCH   8  13
ATOM     13  C   UNL     1      -0.991  -3.652   0.727  1.00  0.00     0.277 C 
ATOM     14  O   UNL     1      -1.647  -3.376   1.736  1.00  0.00    -0.268 OA
BRANCH  13  15
ATOM     15  C   UNL     1      -1.459  -3.187  -0.667  1.00  0.00     0.363 C 
BRANCH  15  16
ATOM     16  N   UNL     1      -1.237  -1.791  -1.075  1.00  0.00    -0.327 N 
ATOM     17  C   UNL     1       0.263   0.242   0.498  1.00  0.00     0.192 C 
ATOM     18  C   UNL     1      -1.210  -0.084   0.788  1.00  0.00     0.126 C 
ATOM     19  C   UNL     1       0.915  -0.901  -0.263  1.00  0.00     0.126 C 
ATOM     20  C   UNL     1      -1.961  -0.727  -0.384  1.00  0.00     0.268 C 
ATOM     21  C   UNL     1       0.102  -1.382  -1.457  1.00  0.00     0.268 C 
ATOM     22  H   UNL     1      -1.737  -1.901  -1.957  1.00  0.00     0.348 HD
BRANCH  17  23
ATOM     23  N   UNL     1       0.457   1.497  -0.229  1.00  0.00    -0.355 N 
ATOM     24  H   UNL     1       0.017   2.260   0.286  1.00  0.00     0.344 HD
ATOM     25  H   UNL     1       0.033   1.423  -1.154  1.00  0.00     0.344 HD
ATOM     26  H   UNL     1       1.455   1.683  -0.326  1.00  0.00     0.344 HD
ENDBRANCH  17  23
ENDBRANCH  15  16
ENDBRANCH  13  15
ENDBRANCH   8  13
ENDBRANCH   6   7
ENDBRANCH   4   6
ENDBRANCH   3   4
ENDBRANCH   2   3
ENDBRANCH   1   2
BRANCH   1  27
ATOM     27  O   UNL     1       3.164  -5.549  -4.603  1.00  0.00    -0.374 OA
BRANCH  27  28
ATOM     28  C   UNL     1       2.136  -5.044  -3.753  1.00  0.00     0.202 C 
BRANCH  28  29
ATOM     29  C   UNL     1       0.901  -5.934  -3.557  1.00  0.00     0.261 C 
BRANCH  29  30
ATOM     30  O   UNL     1       1.191  -7.098  -2.759  1.00  0.00    -0.460 OA
BRANCH  30  31
ATOM     31  C   UNL     1       1.008  -8.281  -3.392  1.00  0.00     0.338 C 
ATOM     32  O   UNL     1       0.551  -8.447  -4.520  1.00  0.00    -0.246 OA
BRANCH  31  33
ATOM     33  C   UNL     1       1.623  -9.379  -2.628  1.00  0.00     0.060 A 
ATOM     34  C   UNL     1       2.613 -10.133  -3.271  1.00  0.00     0.016 A 
ATOM     35  C   UNL     1       1.187  -9.728  -1.348  1.00  0.00     0.016 A 
ATOM     36  C   UNL     1       3.141 -11.264  -2.655  1.00  0.00     0.010 A 
ATOM     37  C   UNL     1       1.716 -10.871  -0.732  1.00  0.00     0.010 A 
ATOM     38  C   UNL     1       2.671 -11.664  -1.396  1.00  0.00    -0.014 A 
BRANCH  38  39
ATOM     39  C   UNL     1       3.113 -12.973  -0.850  1.00  0.00     0.031 A 
ATOM     40  C   UNL     1       2.197 -14.164  -0.944  1.00  0.00     0.074 A 
ATOM     41  C   UNL     1       4.352 -13.114  -0.344  1.00  0.00     0.049 A 
ATOM     42  N   UNL     1       2.411 -15.403  -0.581  1.00  0.00    -0.248 NA
ATOM     43  C   UNL     1       0.866 -13.930  -1.525  1.00  0.00     0.031 C 
ATOM     44  C   UNL     1       5.341 -12.043  -0.227  1.00  0.00     0.029 A 
ATOM     45  N   UNL     1       4.993 -14.219   0.158  1.00  0.00    -0.354 N 
ATOM     46  C   UNL     1       1.246 -16.097  -0.890  1.00  0.00     0.074 A 
ATOM     47  C   UNL     1       0.315 -15.132  -1.436  1.00  0.00     0.031 C 
ATOM     48  C   UNL     1       6.467 -12.544   0.308  1.00  0.00     0.029 A 
ATOM     49  C   UNL     1       6.271 -13.964   0.597  1.00  0.00     0.049 A 
ATOM     50  H   UNL     1       4.577 -15.110   0.200  1.00  0.00     0.167 HD
ATOM     51  C   UNL     1       0.982 -17.418  -0.746  1.00  0.00     0.037 A 
ATOM     52  C   UNL     1       7.176 -14.778   1.175  1.00  0.00     0.037 A 
ATOM     53  C   UNL     1       1.912 -18.375  -0.203  1.00  0.00     0.049 A 
ATOM     54  C   UNL     1       6.836 -16.232   1.379  1.00  0.00     0.074 A 
ATOM     55  C   UNL     1       1.745 -19.740  -0.038  1.00  0.00     0.029 A 
ATOM     56  N   UNL     1       3.180 -18.071   0.273  1.00  0.00    -0.354 N 
ATOM     57  N   UNL     1       5.743 -16.879   1.051  1.00  0.00    -0.248 NA
ATOM     58  C   UNL     1       7.857 -17.068   2.027  1.00  0.00     0.031 C 
ATOM     59  C   UNL     1       2.888 -20.250   0.587  1.00  0.00     0.029 A 
ATOM     60  C   UNL     1       3.793 -19.215   0.759  1.00  0.00     0.049 A 
ATOM     61  H   UNL     1       3.584 -17.173   0.265  1.00  0.00     0.167 HD
ATOM     62  C   UNL     1       5.952 -18.200   1.433  1.00  0.00     0.074 A 
ATOM     63  C   UNL     1       7.285 -18.264   1.998  1.00  0.00     0.031 C 
ATOM     64  C   UNL     1       5.118 -19.265   1.327  1.00  0.00     0.037 A 
BRANCH  51  65
ATOM     65  C   UNL     1      -0.380 -17.908  -1.161  1.00  0.00     0.058 A 
ATOM     66  C   UNL     1      -0.760 -17.986  -2.510  1.00  0.00     0.135 A 
ATOM     67  C   UNL     1      -1.304 -18.343  -0.196  1.00  0.00     0.135 A 
ATOM     68  F   UNL     1       0.076 -17.569  -3.474  1.00  0.00    -0.206 F 
ATOM     69  C   UNL     1      -2.015 -18.455  -2.887  1.00  0.00     0.059 A 
ATOM     70  C   UNL     1      -2.554 -18.842  -0.551  1.00  0.00     0.059 A 
ATOM     71  F   UNL     1      -0.994 -18.290   1.109  1.00  0.00    -0.206 F 
ATOM     72  C   UNL     1      -2.906 -18.881  -1.899  1.00  0.00     0.060 A 
BRANCH  72  73
ATOM     73  S   UNL     1      -4.528 -19.491  -2.405  1.00  0.00     0.124 S 
ATOM     74  O   UNL     1      -5.186 -18.257  -2.823  1.00  0.00    -0.237 OA
ATOM     75  O   UNL     1      -4.191 -20.423  -3.476  1.00  0.00    -0.237 OA
ATOM     76  O   UNL     1      -5.056 -20.102  -1.189  1.00  0.00    -0.744 OA
ENDBRANCH  72  73
ENDBRANCH  51  65
BRANCH  52  77
ATOM     77  C   UNL     1       8.491 -14.236   1.611  1.00  0.00     0.058 A 
ATOM     78  C   UNL     1       9.681 -14.607   0.970  1.00  0.00     0.135 A 
ATOM     79  C   UNL     1       8.580 -13.329   2.680  1.00  0.00     0.135 A 
ATOM     80  F   UNL     1       9.651 -15.480  -0.049  1.00  0.00    -0.206 F 
ATOM     81  C   UNL     1      10.915 -14.111   1.379  1.00  0.00     0.059 A 
ATOM     82  C   UNL     1       9.798 -12.798   3.089  1.00  0.00     0.059 A 
ATOM     83  F   UNL     1       7.469 -12.934   3.321  1.00  0.00    -0.206 F 
ATOM     84  C   UNL     1      10.962 -13.202   2.438  1.00  0.00     0.060 A 
BRANCH  84  85
ATOM     85  S   UNL     1      12.562 -12.521   2.927  1.00  0.00     0.124 S 
ATOM     86  O   UNL     1      13.178 -13.665   3.588  1.00  0.00    -0.237 OA
ATOM     87  O   UNL     1      13.136 -12.139   1.640  1.00  0.00    -0.237 OA
ATOM     88  O   UNL     1      12.199 -11.406   3.797  1.00  0.00    -0.744 OA
ENDBRANCH  84  85
ENDBRANCH  52  77
BRANCH  64  89
ATOM     89  C   UNL     1       5.628 -20.595   1.814  1.00  0.00     0.058 A 
ATOM     90  C   UNL     1       5.803 -20.864   3.181  1.00  0.00     0.135 A 
ATOM     91  C   UNL     1       5.919 -21.625   0.904  1.00  0.00     0.135 A 
ATOM     92  F   UNL     1       5.544 -19.914   4.094  1.00  0.00    -0.206 F 
ATOM     93  C   UNL     1       6.281 -22.092   3.626  1.00  0.00     0.059 A 
ATOM     94  C   UNL     1       6.370 -22.872   1.329  1.00  0.00     0.059 A 
ATOM     95  F   UNL     1       5.758 -21.428  -0.414  1.00  0.00    -0.206 F 
ATOM     96  C   UNL     1       6.564 -23.090   2.692  1.00  0.00     0.060 A 
BRANCH  96  97
ATOM     97  S   UNL     1       7.174 -24.683   3.283  1.00  0.00     0.124 S 
ATOM     98  O   UNL     1       8.545 -24.351   3.658  1.00  0.00    -0.237 OA
ATOM     99  O   UNL     1       6.267 -24.974   4.389  1.00  0.00    -0.237 OA
ATOM    100  O   UNL     1       7.035 -25.554   2.120  1.00  0.00    -0.744 OA
ENDBRANCH  96  97
ENDBRANCH  64  89
ENDBRANCH  38  39
ENDBRANCH  31  33
ENDBRANCH  30  31
ENDBRANCH  29  30
ENDBRANCH  28  29
ENDBRANCH  27  28
ENDBRANCH   1  27
TORSDOF 22
