REMARK SMILES C[C@@H](Oc1ccc(C=C(C#N)C#N)cc1)C(=O)OCCOCCOC(=O)c1ccc(-c2c3nc(c(-c4c(F)cc(S(=O)(=O)[O-])cc4F)c4ccc([nH]4)c(-c4c(F)cc(S(=O)(=O)[O-])cc4F)c4nc(c(-c5c(F)cc(S(=O)(=O)[O-])cc5F)c5ccc2[nH]5)C=C4)C=C3)cc1
REMARK SMILES IDX 20 1 19 2 18 3 16 4 17 5 2 6 1 7 3 8 4 9 5 10 15 11 6 12
REMARK SMILES IDX 14 13 7 14 8 15 9 16 10 17 11 18 12 19 13 20 21 21 22 22
REMARK SMILES IDX 23 23 24 24 25 25 26 26 27 27 28 28 92 29 29 30 91 31 30 32
REMARK SMILES IDX 31 33 32 34 85 35 33 36 90 37 84 38 86 39 34 40 89 41 83 42
REMARK SMILES IDX 82 43 35 45 69 46 48 47 68 48 49 49 52 50 67 51 87 52 50 53
REMARK SMILES IDX 51 54 66 56 88 57 53 58 36 59 37 60 46 61 38 62 39 63 45 64
REMARK SMILES IDX 47 65 40 66 41 67 42 68 43 69 44 70 70 71 71 72 80 73 72 74
REMARK SMILES IDX 73 75 79 76 81 77 74 78 75 79 76 80 77 81 78 82 54 83 55 84
REMARK SMILES IDX 64 85 56 86 57 87 63 88 65 89 58 90 59 91 60 92 61 93 62 94
REMARK H PARENT 86 44 52 55
REMARK Flexibility Score: inf
ROOT
ATOM      1  C   UNL     1      -3.711   0.196  -0.792  1.00  0.00     0.202 C 
ENDROOT
BRANCH   1   2
ATOM      2  C   UNL     1      -2.917  -0.660  -1.783  1.00  0.00     0.261 C 
BRANCH   2   3
ATOM      3  O   UNL     1      -1.530  -0.757  -1.429  1.00  0.00    -0.461 OA
BRANCH   3   4
ATOM      4  C   UNL     1      -0.663  -0.074  -2.229  1.00  0.00     0.347 C 
ATOM      5  O   UNL     1      -0.982   0.574  -3.221  1.00  0.00    -0.248 OA
BRANCH   4   6
ATOM      6  C   UNL     1       0.775  -0.178  -1.732  1.00  0.00     0.279 C 
ATOM      7  C   UNL     1       0.875  -0.149  -0.205  1.00  0.00     0.066 C 
BRANCH   6   8
ATOM      8  O   UNL     1       1.277  -1.397  -2.297  1.00  0.00    -0.479 OA
BRANCH   8   9
ATOM      9  C   UNL     1       2.636  -1.412  -2.419  1.00  0.00     0.120 A 
ATOM     10  C   UNL     1       3.190  -1.510  -3.691  1.00  0.00     0.047 A 
ATOM     11  C   UNL     1       3.456  -1.453  -1.300  1.00  0.00     0.047 A 
ATOM     12  C   UNL     1       4.575  -1.662  -3.833  1.00  0.00     0.012 A 
ATOM     13  C   UNL     1       4.833  -1.525  -1.441  1.00  0.00     0.012 A 
ATOM     14  C   UNL     1       5.402  -1.708  -2.702  1.00  0.00    -0.023 A 
BRANCH  14  15
ATOM     15  C   UNL     1       6.844  -1.966  -2.841  1.00  0.00     0.039 C 
ATOM     16  C   UNL     1       7.575  -2.804  -2.072  1.00  0.00     0.130 C 
BRANCH  16  17
ATOM     17  C   UNL     1       7.027  -3.575  -1.006  1.00  0.00     0.111 C 
ATOM     18  N   UNL     1       6.585  -4.169  -0.110  1.00  0.00    -0.192 NA
ENDBRANCH  16  17
BRANCH  16  19
ATOM     19  C   UNL     1       8.973  -2.925  -2.311  1.00  0.00     0.111 C 
ATOM     20  N   UNL     1      10.113  -3.004  -2.503  1.00  0.00    -0.192 NA
ENDBRANCH  16  19
ENDBRANCH  14  15
ENDBRANCH   8   9
ENDBRANCH   6   8
ENDBRANCH   4   6
ENDBRANCH   3   4
ENDBRANCH   2   3
ENDBRANCH   1   2
BRANCH   1  21
ATOM     21  O   UNL     1      -3.379   1.575  -0.650  1.00  0.00    -0.374 OA
BRANCH  21  22
ATOM     22  C   UNL     1      -2.169   1.919   0.015  1.00  0.00     0.202 C 
BRANCH  22  23
ATOM     23  C   UNL     1      -2.041   1.656   1.528  1.00  0.00     0.261 C 
BRANCH  23  24
ATOM     24  O   UNL     1      -2.209   0.277   1.902  1.00  0.00    -0.460 OA
BRANCH  24  25
ATOM     25  C   UNL     1      -3.393   0.022   2.516  1.00  0.00     0.338 C 
ATOM     26  O   UNL     1      -4.258   0.836   2.797  1.00  0.00    -0.246 OA
BRANCH  25  27
ATOM     27  C   UNL     1      -3.631  -1.428   2.639  1.00  0.00     0.060 A 
ATOM     28  C   UNL     1      -4.820  -1.923   2.086  1.00  0.00     0.016 A 
ATOM     29  C   UNL     1      -2.803  -2.254   3.399  1.00  0.00     0.016 A 
ATOM     30  C   UNL     1      -5.236  -3.218   2.371  1.00  0.00     0.010 A 
ATOM     31  C   UNL     1      -3.224  -3.560   3.683  1.00  0.00     0.010 A 
ATOM     32  C   UNL     1      -4.472  -4.023   3.224  1.00  0.00    -0.014 A 
BRANCH  32  33
ATOM     33  C   UNL     1      -5.083  -5.257   3.783  1.00  0.00     0.031 A 
ATOM     34  C   UNL     1      -5.557  -5.253   5.215  1.00  0.00     0.074 A 
ATOM     35  C   UNL     1      -5.279  -6.341   3.011  1.00  0.00     0.049 A 
ATOM     36  N   UNL     1      -6.127  -6.206   5.905  1.00  0.00    -0.248 NA
ATOM     37  C   UNL     1      -5.355  -4.006   5.971  1.00  0.00     0.031 C 
ATOM     38  C   UNL     1      -4.915  -6.448   1.599  1.00  0.00     0.029 A 
ATOM     39  N   UNL     1      -5.841  -7.557   3.307  1.00  0.00    -0.354 N 
ATOM     40  C   UNL     1      -6.330  -5.684   7.179  1.00  0.00     0.074 A 
ATOM     41  C   UNL     1      -5.788  -4.344   7.175  1.00  0.00     0.031 C 
ATOM     42  C   UNL     1      -5.270  -7.663   1.149  1.00  0.00     0.029 A 
ATOM     43  C   UNL     1      -5.849  -8.432   2.248  1.00  0.00     0.049 A 
ATOM     44  H   UNL     1      -6.204  -7.781   4.195  1.00  0.00     0.167 HD
ATOM     45  C   UNL     1      -6.921  -6.266   8.251  1.00  0.00     0.037 A 
ATOM     46  C   UNL     1      -6.264  -9.713   2.178  1.00  0.00     0.037 A 
ATOM     47  C   UNL     1      -7.462  -7.602   8.242  1.00  0.00     0.049 A 
ATOM     48  C   UNL     1      -6.858 -10.363   3.401  1.00  0.00     0.074 A 
ATOM     49  C   UNL     1      -8.106  -8.276   9.264  1.00  0.00     0.029 A 
ATOM     50  N   UNL     1      -7.409  -8.474   7.162  1.00  0.00    -0.354 N 
ATOM     51  N   UNL     1      -7.062  -9.853   4.593  1.00  0.00    -0.248 NA
ATOM     52  C   UNL     1      -7.287 -11.761   3.265  1.00  0.00     0.031 C 
ATOM     53  C   UNL     1      -8.370  -9.579   8.831  1.00  0.00     0.029 A 
ATOM     54  C   UNL     1      -7.976  -9.691   7.507  1.00  0.00     0.049 A 
ATOM     55  H   UNL     1      -7.025  -8.259   6.282  1.00  0.00     0.167 HD
ATOM     56  C   UNL     1      -7.688 -10.853   5.334  1.00  0.00     0.074 A 
ATOM     57  C   UNL     1      -7.827 -11.994   4.453  1.00  0.00     0.031 C 
ATOM     58  C   UNL     1      -8.118 -10.822   6.621  1.00  0.00     0.037 A 
BRANCH  45  59
ATOM     59  C   UNL     1      -6.966  -5.481   9.538  1.00  0.00     0.058 A 
ATOM     60  C   UNL     1      -7.730  -4.311   9.681  1.00  0.00     0.135 A 
ATOM     61  C   UNL     1      -6.233  -5.917  10.655  1.00  0.00     0.135 A 
ATOM     62  F   UNL     1      -8.442  -3.836   8.647  1.00  0.00    -0.206 F 
ATOM     63  C   UNL     1      -7.729  -3.579  10.866  1.00  0.00     0.059 A 
ATOM     64  C   UNL     1      -6.248  -5.224  11.861  1.00  0.00     0.059 A 
ATOM     65  F   UNL     1      -5.484  -7.029  10.581  1.00  0.00    -0.206 F 
ATOM     66  C   UNL     1      -6.983  -4.043  11.950  1.00  0.00     0.060 A 
BRANCH  66  67
ATOM     67  S   UNL     1      -6.976  -3.073  13.473  1.00  0.00     0.124 S 
ATOM     68  O   UNL     1      -6.210  -1.899  13.066  1.00  0.00    -0.237 OA
ATOM     69  O   UNL     1      -8.399  -2.852  13.706  1.00  0.00    -0.237 OA
ATOM     70  O   UNL     1      -6.313  -3.950  14.433  1.00  0.00    -0.744 OA
ENDBRANCH  66  67
ENDBRANCH  45  59
BRANCH  46  71
ATOM     71  C   UNL     1      -6.149 -10.460   0.896  1.00  0.00     0.058 A 
ATOM     72  C   UNL     1      -7.291 -10.840   0.176  1.00  0.00     0.135 A 
ATOM     73  C   UNL     1      -4.896 -10.795   0.358  1.00  0.00     0.135 A 
ATOM     74  F   UNL     1      -8.512 -10.555   0.654  1.00  0.00    -0.206 F 
ATOM     75  C   UNL     1      -7.198 -11.534  -1.026  1.00  0.00     0.059 A 
ATOM     76  C   UNL     1      -4.776 -11.460  -0.858  1.00  0.00     0.059 A 
ATOM     77  F   UNL     1      -3.772 -10.446   1.002  1.00  0.00    -0.206 F 
ATOM     78  C   UNL     1      -5.934 -11.831  -1.540  1.00  0.00     0.060 A 
BRANCH  78  79
ATOM     79  S   UNL     1      -5.828 -12.669  -3.135  1.00  0.00     0.124 S 
ATOM     80  O   UNL     1      -6.344 -13.994  -2.808  1.00  0.00    -0.237 OA
ATOM     81  O   UNL     1      -6.687 -11.837  -3.972  1.00  0.00    -0.237 OA
ATOM     82  O   UNL     1      -4.405 -12.608  -3.454  1.00  0.00    -0.744 OA
ENDBRANCH  78  79
ENDBRANCH  46  71
BRANCH  58  83
ATOM     83  C   UNL     1      -8.850 -12.034   7.141  1.00  0.00     0.058 A 
ATOM     84  C   UNL     1      -8.215 -13.269   7.348  1.00  0.00     0.135 A 
ATOM     85  C   UNL     1     -10.214 -11.941   7.470  1.00  0.00     0.135 A 
ATOM     86  F   UNL     1      -6.914 -13.419   7.052  1.00  0.00    -0.206 F 
ATOM     87  C   UNL     1      -8.914 -14.378   7.818  1.00  0.00     0.059 A 
ATOM     88  C   UNL     1     -10.922 -13.025   7.980  1.00  0.00     0.059 A 
ATOM     89  F   UNL     1     -10.873 -10.783   7.308  1.00  0.00    -0.206 F 
ATOM     90  C   UNL     1     -10.268 -14.245   8.132  1.00  0.00     0.060 A 
BRANCH  90  91
ATOM     91  S   UNL     1     -11.161 -15.688   8.749  1.00  0.00     0.124 S 
ATOM     92  O   UNL     1     -11.238 -16.520   7.552  1.00  0.00    -0.237 OA
ATOM     93  O   UNL     1     -10.276 -16.173   9.803  1.00  0.00    -0.237 OA
ATOM     94  O   UNL     1     -12.430 -15.133   9.209  1.00  0.00    -0.744 OA
ENDBRANCH  90  91
ENDBRANCH  58  83
ENDBRANCH  32  33
ENDBRANCH  25  27
ENDBRANCH  24  25
ENDBRANCH  23  24
ENDBRANCH  22  23
ENDBRANCH  21  22
ENDBRANCH   1  21
TORSDOF 22
