REMARK SMILES Cc1sc(-c2ccco2)nc1C(=O)N[C@@H](C(=O)OCCOCCOC(=O)c1ccc(-c2c3nc(c(-c4c(F)cc(S(=O)(=O)[O-])cc4F)c4ccc([nH]4)c(-c4c(F)cc(S(=O)(=O)[O-])cc4F)c4nc(c(-c5c(F)cc(S(=O)(=O)[O-])cc5F)c5ccc2[nH]5)C=C4)C=C3)cc1)C(C)C
REMARK SMILES IDX 21 1 20 2 19 3 18 4 16 5 17 6 15 7 14 8 12 9 13 10 11 12
REMARK SMILES IDX 1 13 2 14 3 15 4 16 10 17 5 18 6 19 9 20 7 21 8 22 93 23
REMARK SMILES IDX 94 24 95 25 22 26 23 27 24 28 25 29 26 30 27 31 28 32 92 33
REMARK SMILES IDX 29 34 91 35 30 36 31 37 32 38 85 39 33 40 90 41 84 42 86 43
REMARK SMILES IDX 34 44 89 45 83 46 82 47 35 49 69 50 48 51 68 52 49 53 52 54
REMARK SMILES IDX 67 55 87 56 50 57 51 58 66 60 88 61 53 62 36 63 37 64 46 65
REMARK SMILES IDX 38 66 39 67 45 68 47 69 40 70 41 71 42 72 43 73 44 74 70 75
REMARK SMILES IDX 71 76 80 77 72 78 73 79 79 80 81 81 74 82 75 83 76 84 77 85
REMARK SMILES IDX 78 86 54 87 55 88 64 89 56 90 57 91 63 92 65 93 58 94 59 95
REMARK SMILES IDX 60 96 61 97 62 98
REMARK H PARENT 14 11 86 48 52 59
REMARK Flexibility Score: inf
ROOT
ATOM      1  O   UNL     1       5.579  -4.125   2.368  1.00  0.00    -0.374 OA
ENDROOT
BRANCH   1   2
ATOM      2  C   UNL     1       4.969  -3.397   3.429  1.00  0.00     0.202 C 
BRANCH   2   3
ATOM      3  C   UNL     1       4.242  -2.093   3.076  1.00  0.00     0.261 C 
BRANCH   3   4
ATOM      4  O   UNL     1       3.411  -2.193   1.912  1.00  0.00    -0.462 OA
BRANCH   4   5
ATOM      5  C   UNL     1       3.881  -1.578   0.785  1.00  0.00     0.328 C 
ATOM      6  O   UNL     1       4.919  -0.930   0.734  1.00  0.00    -0.250 OA
BRANCH   5   7
ATOM      7  C   UNL     1       2.945  -1.792  -0.442  1.00  0.00     0.195 C 
BRANCH   7   8
ATOM      8  N   UNL     1       1.719  -2.451  -0.004  1.00  0.00    -0.337 N 
ATOM      9  C   UNL     1       0.495  -1.979   0.396  1.00  0.00     0.271 C 
ATOM     10  O   UNL     1      -0.241  -2.846   0.880  1.00  0.00    -0.267 OA
ATOM     11  H   UNL     1       1.784  -3.433   0.008  1.00  0.00     0.164 HD
BRANCH   9  12
ATOM     12  C   UNL     1      -0.002  -0.600   0.180  1.00  0.00     0.142 A 
ATOM     13  C   UNL     1       1.934   1.206   0.611  1.00  0.00     0.059 C 
ATOM     14  C   UNL     1       0.612   0.656   0.207  1.00  0.00     0.035 A 
ATOM     15  S   UNL     1      -0.532   1.874  -0.263  1.00  0.00    -0.115 S 
ATOM     16  C   UNL     1      -1.793   0.747  -0.120  1.00  0.00     0.160 A 
ATOM     17  N   UNL     1      -1.408  -0.495   0.039  1.00  0.00    -0.227 NA
BRANCH  16  18
ATOM     18  C   UNL     1      -3.157   1.179  -0.089  1.00  0.00     0.162 A 
ATOM     19  C   UNL     1      -4.154   0.798   0.796  1.00  0.00     0.053 A 
ATOM     20  O   UNL     1      -3.660   2.153  -0.918  1.00  0.00    -0.462 OA
ATOM     21  C   UNL     1      -5.290   1.595   0.517  1.00  0.00     0.043 A 
ATOM     22  C   UNL     1      -4.942   2.390  -0.547  1.00  0.00     0.196 A 
ENDBRANCH  16  18
ENDBRANCH   9  12
ENDBRANCH   7   8
BRANCH   7  23
ATOM     23  C   UNL     1       3.651  -2.586  -1.573  1.00  0.00     0.017 C 
ATOM     24  C   UNL     1       2.742  -2.696  -2.804  1.00  0.00     0.010 C 
ATOM     25  C   UNL     1       4.970  -1.924  -1.998  1.00  0.00     0.010 C 
ENDBRANCH   7  23
ENDBRANCH   5   7
ENDBRANCH   4   5
ENDBRANCH   3   4
ENDBRANCH   2   3
ENDBRANCH   1   2
BRANCH   1  26
ATOM     26  C   UNL     1       4.731  -4.826   1.460  1.00  0.00     0.202 C 
BRANCH  26  27
ATOM     27  C   UNL     1       3.900  -5.999   1.990  1.00  0.00     0.261 C 
BRANCH  27  28
ATOM     28  O   UNL     1       2.919  -5.590   2.958  1.00  0.00    -0.460 OA
BRANCH  28  29
ATOM     29  C   UNL     1       3.042  -6.204   4.163  1.00  0.00     0.338 C 
ATOM     30  O   UNL     1       3.842  -7.073   4.464  1.00  0.00    -0.246 OA
BRANCH  29  31
ATOM     31  C   UNL     1       2.178  -5.560   5.168  1.00  0.00     0.060 A 
ATOM     32  C   UNL     1       2.798  -5.065   6.323  1.00  0.00     0.016 A 
ATOM     33  C   UNL     1       0.787  -5.561   5.052  1.00  0.00     0.016 A 
ATOM     34  C   UNL     1       2.025  -4.625   7.394  1.00  0.00     0.010 A 
ATOM     35  C   UNL     1       0.012  -5.127   6.135  1.00  0.00     0.010 A 
ATOM     36  C   UNL     1       0.628  -4.697   7.324  1.00  0.00    -0.014 A 
BRANCH  36  37
ATOM     37  C   UNL     1      -0.169  -4.465   8.554  1.00  0.00     0.031 A 
ATOM     38  C   UNL     1      -0.617  -5.648   9.369  1.00  0.00     0.074 A 
ATOM     39  C   UNL     1      -0.445  -3.215   8.966  1.00  0.00     0.049 A 
ATOM     40  N   UNL     1      -1.314  -5.676  10.475  1.00  0.00    -0.248 NA
ATOM     41  C   UNL     1      -0.224  -6.977   8.871  1.00  0.00     0.031 C 
ATOM     42  C   UNL     1      -0.031  -1.991   8.281  1.00  0.00     0.029 A 
ATOM     43  N   UNL     1      -1.141  -2.770  10.061  1.00  0.00    -0.354 N 
ATOM     44  C   UNL     1      -1.445  -7.020  10.807  1.00  0.00     0.074 A 
ATOM     45  C   UNL     1      -0.778  -7.778   9.770  1.00  0.00     0.031 C 
ATOM     46  C   UNL     1      -0.492  -0.931   8.967  1.00  0.00     0.029 A 
ATOM     47  C   UNL     1      -1.253  -1.402  10.124  1.00  0.00     0.049 A 
ATOM     48  H   UNL     1      -1.524  -3.374  10.737  1.00  0.00     0.167 HD
ATOM     49  C   UNL     1      -2.057  -7.571  11.882  1.00  0.00     0.037 A 
ATOM     50  C   UNL     1      -1.909  -0.621  11.004  1.00  0.00     0.037 A 
ATOM     51  C   UNL     1      -2.723  -6.814  12.909  1.00  0.00     0.049 A 
ATOM     52  C   UNL     1      -2.635  -1.259  12.159  1.00  0.00     0.074 A 
ATOM     53  C   UNL     1      -3.364  -7.279  14.045  1.00  0.00     0.029 A 
ATOM     54  N   UNL     1      -2.840  -5.431  12.922  1.00  0.00    -0.354 N 
ATOM     55  N   UNL     1      -2.732  -2.530  12.472  1.00  0.00    -0.248 NA
ATOM     56  C   UNL     1      -3.337  -0.358  13.084  1.00  0.00     0.031 C 
ATOM     57  C   UNL     1      -3.904  -6.180  14.723  1.00  0.00     0.029 A 
ATOM     58  C   UNL     1      -3.561  -5.027  14.034  1.00  0.00     0.049 A 
ATOM     59  H   UNL     1      -2.466  -4.827  12.241  1.00  0.00     0.167 HD
ATOM     60  C   UNL     1      -3.486  -2.579  13.640  1.00  0.00     0.074 A 
ATOM     61  C   UNL     1      -3.810  -1.209  13.984  1.00  0.00     0.031 C 
ATOM     62  C   UNL     1      -3.872  -3.659  14.364  1.00  0.00     0.037 A 
BRANCH  49  63
ATOM     63  C   UNL     1      -2.055  -9.071  11.988  1.00  0.00     0.058 A 
ATOM     64  C   UNL     1      -0.895  -9.784  12.329  1.00  0.00     0.135 A 
ATOM     65  C   UNL     1      -3.234  -9.802  11.771  1.00  0.00     0.135 A 
ATOM     66  F   UNL     1       0.263  -9.136  12.531  1.00  0.00    -0.206 F 
ATOM     67  C   UNL     1      -0.898 -11.172  12.427  1.00  0.00     0.059 A 
ATOM     68  C   UNL     1      -3.266 -11.189  11.885  1.00  0.00     0.059 A 
ATOM     69  F   UNL     1      -4.370  -9.169  11.439  1.00  0.00    -0.206 F 
ATOM     70  C   UNL     1      -2.088 -11.866  12.200  1.00  0.00     0.060 A 
BRANCH  70  71
ATOM     71  S   UNL     1      -2.078 -13.667  12.330  1.00  0.00     0.124 S 
ATOM     72  O   UNL     1      -1.393 -14.043  11.097  1.00  0.00    -0.237 OA
ATOM     73  O   UNL     1      -1.330 -13.889  13.563  1.00  0.00    -0.237 OA
ATOM     74  O   UNL     1      -3.495 -14.012  12.390  1.00  0.00    -0.744 OA
ENDBRANCH  70  71
ENDBRANCH  49  63
BRANCH  50  75
ATOM     75  C   UNL     1      -1.920   0.854  10.819  1.00  0.00     0.058 A 
ATOM     76  C   UNL     1      -1.213   1.700  11.685  1.00  0.00     0.135 A 
ATOM     77  C   UNL     1      -2.633   1.444   9.765  1.00  0.00     0.135 A 
ATOM     78  F   UNL     1      -0.524   1.183  12.714  1.00  0.00    -0.206 F 
ATOM     79  C   UNL     1      -1.219   3.081  11.519  1.00  0.00     0.059 A 
ATOM     80  C   UNL     1      -2.636   2.820   9.564  1.00  0.00     0.059 A 
ATOM     81  F   UNL     1      -3.318   0.676   8.903  1.00  0.00    -0.206 F 
ATOM     82  C   UNL     1      -1.932   3.632  10.452  1.00  0.00     0.060 A 
BRANCH  82  83
ATOM     83  S   UNL     1      -1.888   5.421  10.208  1.00  0.00     0.124 S 
ATOM     84  O   UNL     1      -2.781   5.883  11.264  1.00  0.00    -0.237 OA
ATOM     85  O   UNL     1      -0.472   5.722  10.391  1.00  0.00    -0.237 OA
ATOM     86  O   UNL     1      -2.384   5.584   8.845  1.00  0.00    -0.744 OA
ENDBRANCH  82  83
ENDBRANCH  50  75
BRANCH  62  87
ATOM     87  C   UNL     1      -4.665  -3.405  15.616  1.00  0.00     0.058 A 
ATOM     88  C   UNL     1      -6.014  -3.024  15.570  1.00  0.00     0.135 A 
ATOM     89  C   UNL     1      -4.079  -3.597  16.879  1.00  0.00     0.135 A 
ATOM     90  F   UNL     1      -6.619  -2.822  14.389  1.00  0.00    -0.206 F 
ATOM     91  C   UNL     1      -6.751  -2.819  16.732  1.00  0.00     0.059 A 
ATOM     92  C   UNL     1      -4.804  -3.421  18.053  1.00  0.00     0.059 A 
ATOM     93  F   UNL     1      -2.794  -3.972  16.978  1.00  0.00    -0.206 F 
ATOM     94  C   UNL     1      -6.137  -3.021  17.970  1.00  0.00     0.060 A 
BRANCH  94  95
ATOM     95  S   UNL     1      -7.110  -2.782  19.472  1.00  0.00     0.124 S 
ATOM     96  O   UNL     1      -7.164  -1.327  19.559  1.00  0.00    -0.237 OA
ATOM     97  O   UNL     1      -8.368  -3.444  19.140  1.00  0.00    -0.237 OA
ATOM     98  O   UNL     1      -6.314  -3.445  20.501  1.00  0.00    -0.744 OA
ENDBRANCH  94  95
ENDBRANCH  62  87
ENDBRANCH  36  37
ENDBRANCH  29  31
ENDBRANCH  28  29
ENDBRANCH  27  28
ENDBRANCH  26  27
ENDBRANCH   1  26
TORSDOF 21
