REMARK SMILES O=C(OCCOCCOC(=O)c1ccn(-c2cc(-c3ccncc3)nc(-c3ccccc3F)n2)n1)c1ccc(-c2c3nc(c(-c4c(F)cc(S(=O)(=O)[O-])cc4F)c4ccc([nH]4)c(-c4c(F)cc(S(=O)(=O)[O-])cc4F)c4nc(c(-c5c(F)cc(S(=O)(=O)[O-])cc5F)c5ccc2[nH]5)C=C4)C=C3)cc1
REMARK SMILES IDX 5 1 4 2 3 3 2 4 1 5 36 6 37 7 101 8 38 9 100 10 39 11 40 12
REMARK SMILES IDX 41 13 94 14 42 15 99 16 93 17 95 18 43 19 98 20 92 21 91 22
REMARK SMILES IDX 44 24 78 25 57 26 77 27 58 28 61 29 76 30 96 31 59 32 60 33
REMARK SMILES IDX 75 35 97 36 62 37 45 38 46 39 55 40 47 41 48 42 54 43 56 44
REMARK SMILES IDX 49 45 50 46 51 47 52 48 53 49 79 50 80 51 89 52 81 53 82 54
REMARK SMILES IDX 88 55 90 56 83 57 84 58 85 59 86 60 87 61 63 62 64 63 73 64
REMARK SMILES IDX 65 65 66 66 72 67 74 68 67 69 68 70 69 71 70 72 71 73 6 74
REMARK SMILES IDX 7 75 8 76 9 77 10 78 11 79 12 80 13 81 35 82 14 83 15 84
REMARK SMILES IDX 16 85 17 86 34 87 18 88 26 89 25 90 19 91 20 92 24 93 21 94
REMARK SMILES IDX 23 95 22 96 27 97 28 98 32 99 29 100 31 101 33 102 30 103
REMARK H PARENT 95 23 61 34
REMARK Flexibility Score: inf
ROOT
ATOM      1  C   UNL     1       4.631   0.364   0.947  1.00  0.00     0.202 C 
ENDROOT
BRANCH   1   2
ATOM      2  C   UNL     1       4.523   1.279  -0.268  1.00  0.00     0.261 C 
BRANCH   2   3
ATOM      3  O   UNL     1       3.183   1.700  -0.603  1.00  0.00    -0.460 OA
BRANCH   3   4
ATOM      4  C   UNL     1       2.131   0.850  -0.652  1.00  0.00     0.338 C 
ATOM      5  O   UNL     1       1.148   1.009   0.065  1.00  0.00    -0.246 OA
BRANCH   4   6
ATOM      6  C   UNL     1       2.074  -0.064  -1.823  1.00  0.00     0.060 A 
ATOM      7  C   UNL     1       3.196  -0.466  -2.545  1.00  0.00     0.016 A 
ATOM      8  C   UNL     1       0.800  -0.451  -2.268  1.00  0.00     0.016 A 
ATOM      9  C   UNL     1       3.048  -1.050  -3.788  1.00  0.00     0.010 A 
ATOM     10  C   UNL     1       0.649  -1.088  -3.494  1.00  0.00     0.010 A 
ATOM     11  C   UNL     1       1.772  -1.299  -4.289  1.00  0.00    -0.014 A 
BRANCH  11  12
ATOM     12  C   UNL     1       1.699  -1.761  -5.669  1.00  0.00     0.031 A 
ATOM     13  C   UNL     1       2.452  -3.010  -5.985  1.00  0.00     0.074 A 
ATOM     14  C   UNL     1       0.990  -1.115  -6.613  1.00  0.00     0.049 A 
ATOM     15  N   UNL     1       3.444  -3.177  -6.801  1.00  0.00    -0.248 NA
ATOM     16  C   UNL     1       2.104  -4.208  -5.208  1.00  0.00     0.031 C 
ATOM     17  C   UNL     1       0.005  -0.042  -6.452  1.00  0.00     0.029 A 
ATOM     18  N   UNL     1       0.955  -1.369  -7.948  1.00  0.00    -0.354 N 
ATOM     19  C   UNL     1       3.751  -4.536  -6.763  1.00  0.00     0.074 A 
ATOM     20  C   UNL     1       2.965  -5.102  -5.694  1.00  0.00     0.031 C 
ATOM     21  C   UNL     1      -0.691   0.095  -7.603  1.00  0.00     0.029 A 
ATOM     22  C   UNL     1      -0.099  -0.766  -8.612  1.00  0.00     0.049 A 
ATOM     23  H   UNL     1       1.621  -1.933  -8.403  1.00  0.00     0.167 HD
ATOM     24  C   UNL     1       4.527  -5.154  -7.697  1.00  0.00     0.037 A 
ATOM     25  C   UNL     1      -0.499  -1.030  -9.878  1.00  0.00     0.037 A 
ATOM     26  C   UNL     1       5.314  -4.223  -8.454  1.00  0.00     0.049 A 
ATOM     27  C   UNL     1       0.658  -1.636 -10.589  1.00  0.00     0.074 A 
ATOM     28  C   UNL     1       6.342  -3.353  -8.146  1.00  0.00     0.029 A 
ATOM     29  N   UNL     1       4.865  -3.838  -9.693  1.00  0.00    -0.354 N 
ATOM     30  N   UNL     1       1.764  -1.001 -10.868  1.00  0.00    -0.248 NA
ATOM     31  C   UNL     1       0.750  -3.088 -10.625  1.00  0.00     0.031 C 
ATOM     32  C   UNL     1       6.125  -2.213  -8.974  1.00  0.00     0.029 A 
ATOM     33  C   UNL     1       5.000  -2.473  -9.758  1.00  0.00     0.049 A 
ATOM     34  H   UNL     1       4.514  -4.428 -10.399  1.00  0.00     0.167 HD
ATOM     35  C   UNL     1       2.770  -1.945 -10.722  1.00  0.00     0.074 A 
ATOM     36  C   UNL     1       2.077  -3.229 -10.663  1.00  0.00     0.031 C 
ATOM     37  C   UNL     1       4.049  -1.589 -10.399  1.00  0.00     0.037 A 
BRANCH  24  38
ATOM     38  C   UNL     1       4.390  -6.605  -8.070  1.00  0.00     0.058 A 
ATOM     39  C   UNL     1       3.162  -7.296  -7.974  1.00  0.00     0.135 A 
ATOM     40  C   UNL     1       5.419  -7.277  -8.758  1.00  0.00     0.135 A 
ATOM     41  F   UNL     1       2.070  -6.720  -7.452  1.00  0.00    -0.206 F 
ATOM     42  C   UNL     1       2.974  -8.573  -8.487  1.00  0.00     0.059 A 
ATOM     43  C   UNL     1       5.236  -8.541  -9.328  1.00  0.00     0.059 A 
ATOM     44  F   UNL     1       6.614  -6.693  -8.938  1.00  0.00    -0.206 F 
ATOM     45  C   UNL     1       4.008  -9.180  -9.185  1.00  0.00     0.060 A 
BRANCH  45  46
ATOM     46  S   UNL     1       3.667 -10.760  -9.984  1.00  0.00     0.124 S 
ATOM     47  O   UNL     1       3.540 -11.648  -8.833  1.00  0.00    -0.237 OA
ATOM     48  O   UNL     1       2.431 -10.473 -10.705  1.00  0.00    -0.237 OA
ATOM     49  O   UNL     1       4.842 -10.976 -10.820  1.00  0.00    -0.744 OA
ENDBRANCH  45  46
ENDBRANCH  24  38
BRANCH  25  50
ATOM     50  C   UNL     1      -1.903  -1.185 -10.340  1.00  0.00     0.058 A 
ATOM     51  C   UNL     1      -2.932  -1.566  -9.454  1.00  0.00     0.135 A 
ATOM     52  C   UNL     1      -2.209  -1.239 -11.710  1.00  0.00     0.135 A 
ATOM     53  F   UNL     1      -2.731  -1.608  -8.128  1.00  0.00    -0.206 F 
ATOM     54  C   UNL     1      -4.172  -2.012  -9.897  1.00  0.00     0.059 A 
ATOM     55  C   UNL     1      -3.446  -1.694 -12.180  1.00  0.00     0.059 A 
ATOM     56  F   UNL     1      -1.278  -0.916 -12.621  1.00  0.00    -0.206 F 
ATOM     57  C   UNL     1      -4.411  -2.104 -11.263  1.00  0.00     0.060 A 
BRANCH  57  58
ATOM     58  S   UNL     1      -5.963  -2.859 -11.796  1.00  0.00     0.124 S 
ATOM     59  O   UNL     1      -5.845  -4.204 -11.241  1.00  0.00    -0.237 OA
ATOM     60  O   UNL     1      -6.954  -1.998 -11.159  1.00  0.00    -0.237 OA
ATOM     61  O   UNL     1      -5.902  -2.773 -13.251  1.00  0.00    -0.744 OA
ENDBRANCH  57  58
ENDBRANCH  25  50
BRANCH  37  62
ATOM     62  C   UNL     1       4.423  -0.127 -10.453  1.00  0.00     0.058 A 
ATOM     63  C   UNL     1       5.503   0.261 -11.259  1.00  0.00     0.135 A 
ATOM     64  C   UNL     1       3.877   0.851  -9.601  1.00  0.00     0.135 A 
ATOM     65  F   UNL     1       6.107  -0.639 -12.054  1.00  0.00    -0.206 F 
ATOM     66  C   UNL     1       6.028   1.551 -11.220  1.00  0.00     0.059 A 
ATOM     67  C   UNL     1       4.365   2.160  -9.568  1.00  0.00     0.059 A 
ATOM     68  F   UNL     1       2.909   0.540  -8.728  1.00  0.00    -0.206 F 
ATOM     69  C   UNL     1       5.455   2.494 -10.367  1.00  0.00     0.060 A 
BRANCH  69  70
ATOM     70  S   UNL     1       6.189   4.143 -10.296  1.00  0.00     0.124 S 
ATOM     71  O   UNL     1       7.478   3.871  -9.665  1.00  0.00    -0.237 OA
ATOM     72  O   UNL     1       6.247   4.521 -11.705  1.00  0.00    -0.237 OA
ATOM     73  O   UNL     1       5.248   4.910  -9.485  1.00  0.00    -0.744 OA
ENDBRANCH  69  70
ENDBRANCH  37  62
ENDBRANCH  11  12
ENDBRANCH   4   6
ENDBRANCH   3   4
ENDBRANCH   2   3
ENDBRANCH   1   2
BRANCH   1  74
ATOM     74  O   UNL     1       4.148  -0.965   0.757  1.00  0.00    -0.374 OA
BRANCH  74  75
ATOM     75  C   UNL     1       2.980  -1.313   1.510  1.00  0.00     0.202 C 
BRANCH  75  76
ATOM     76  C   UNL     1       3.159  -1.563   3.013  1.00  0.00     0.261 C 
BRANCH  76  77
ATOM     77  O   UNL     1       3.414  -0.340   3.729  1.00  0.00    -0.458 OA
BRANCH  77  78
ATOM     78  C   UNL     1       4.733  -0.083   3.985  1.00  0.00     0.358 C 
ATOM     79  O   UNL     1       5.637  -0.888   3.849  1.00  0.00    -0.244 OA
BRANCH  78  80
ATOM     80  C   UNL     1       4.952   1.324   4.351  1.00  0.00     0.170 A 
ATOM     81  C   UNL     1       4.320   2.052   5.389  1.00  0.00     0.058 A 
ATOM     82  N   UNL     1       5.831   2.102   3.681  1.00  0.00    -0.159 NA
ATOM     83  C   UNL     1       5.025   3.227   5.470  1.00  0.00     0.118 A 
ATOM     84  N   UNL     1       5.931   3.218   4.436  1.00  0.00    -0.222 N 
BRANCH  84  85
ATOM     85  C   UNL     1       6.986   4.145   4.258  1.00  0.00     0.158 A 
ATOM     86  C   UNL     1       7.140   4.777   3.040  1.00  0.00     0.078 A 
ATOM     87  N   UNL     1       7.767   4.380   5.332  1.00  0.00    -0.209 NA
ATOM     88  C   UNL     1       8.137   5.734   2.995  1.00  0.00     0.077 A 
ATOM     89  C   UNL     1       8.783   5.229   5.140  1.00  0.00     0.165 A 
ATOM     90  N   UNL     1       8.998   5.930   4.018  1.00  0.00    -0.228 NA
BRANCH  88  91
ATOM     91  C   UNL     1       8.287   6.691   1.890  1.00  0.00     0.003 A 
ATOM     92  C   UNL     1       7.231   7.533   1.514  1.00  0.00     0.030 A 
ATOM     93  C   UNL     1       9.517   6.864   1.244  1.00  0.00     0.030 A 
ATOM     94  C   UNL     1       7.450   8.496   0.540  1.00  0.00     0.111 A 
ATOM     95  C   UNL     1       9.636   7.848   0.275  1.00  0.00     0.111 A 
ATOM     96  N   UNL     1       8.631   8.673  -0.085  1.00  0.00    -0.265 NA
ENDBRANCH  88  91
BRANCH  89  97
ATOM     97  C   UNL     1       9.768   5.316   6.205  1.00  0.00     0.055 A 
ATOM     98  C   UNL     1      10.587   4.214   6.519  1.00  0.00     0.015 A 
ATOM     99  C   UNL     1       9.908   6.477   6.966  1.00  0.00     0.134 A 
ATOM    100  C   UNL     1      11.515   4.284   7.561  1.00  0.00     0.001 A 
ATOM    101  C   UNL     1      10.827   6.551   8.012  1.00  0.00     0.040 A 
ATOM    102  F   UNL     1       9.130   7.544   6.726  1.00  0.00    -0.206 F 
ATOM    103  C   UNL     1      11.633   5.453   8.310  1.00  0.00     0.003 A 
ENDBRANCH  89  97
ENDBRANCH  84  85
ENDBRANCH  78  80
ENDBRANCH  77  78
ENDBRANCH  76  77
ENDBRANCH  75  76
ENDBRANCH  74  75
ENDBRANCH   1  74
TORSDOF 20
