REMARK SMILES COC(=O)[C@@H]1CN(C(=O)OC(C)(C)C)C[C@@H]1C(=O)OCCOCCOC(=O)c1ccc(-c2c3nc(c(-c4c(F)cc(S(=O)(=O)[O-])cc4F)c4ccc([nH]4)c(-c4c(F)cc(S(=O)(=O)[O-])cc4F)c4nc(c(-c5c(F)cc(S(=O)(=O)[O-])cc5F)c5ccc2[nH]5)C=C4)C=C3)cc1
REMARK SMILES IDX 22 1 21 2 20 3 19 4 17 5 18 6 16 7 5 8 6 9 7 10 15 11 3 12
REMARK SMILES IDX 4 13 2 14 1 15 8 16 9 17 10 18 11 19 12 20 13 21 14 22 23 23
REMARK SMILES IDX 24 24 25 25 26 26 27 27 28 28 29 29 93 30 30 31 92 32 31 33
REMARK SMILES IDX 32 34 33 35 86 36 34 37 91 38 85 39 87 40 35 41 90 42 84 43
REMARK SMILES IDX 83 44 36 46 70 47 49 48 69 49 50 50 53 51 68 52 88 53 51 54
REMARK SMILES IDX 52 55 67 57 89 58 54 59 37 60 38 61 47 62 39 63 40 64 46 65
REMARK SMILES IDX 48 66 41 67 42 68 43 69 44 70 45 71 71 72 72 73 81 74 73 75
REMARK SMILES IDX 74 76 80 77 82 78 75 79 76 80 77 81 78 82 79 83 55 84 56 85
REMARK SMILES IDX 65 86 57 87 58 88 64 89 66 90 59 91 60 92 61 93 62 94 63 95
REMARK H PARENT 87 45 53 56
REMARK Flexibility Score: inf
ROOT
ATOM      1  O   UNL     1       3.301   4.750   0.080  1.00  0.00    -0.374 OA
ENDROOT
BRANCH   1   2
ATOM      2  C   UNL     1       4.086   5.455  -0.881  1.00  0.00     0.202 C 
BRANCH   2   3
ATOM      3  C   UNL     1       4.235   4.872  -2.290  1.00  0.00     0.261 C 
BRANCH   3   4
ATOM      4  O   UNL     1       2.954   4.724  -2.911  1.00  0.00    -0.463 OA
BRANCH   4   5
ATOM      5  C   UNL     1       2.659   3.464  -3.329  1.00  0.00     0.311 C 
ATOM      6  O   UNL     1       3.463   2.558  -3.493  1.00  0.00    -0.252 OA
BRANCH   5   7
ATOM      7  C   UNL     1       1.163   3.335  -3.531  1.00  0.00     0.135 C 
ATOM      8  C   UNL     1       0.614   1.940  -3.186  1.00  0.00     0.135 C 
ATOM      9  C   UNL     1       0.952   1.133  -4.430  1.00  0.00     0.139 C 
ATOM     10  N   UNL     1       0.854   2.118  -5.500  1.00  0.00    -0.306 N 
ATOM     11  C   UNL     1       0.862   3.478  -5.006  1.00  0.00     0.139 C 
BRANCH   8  12
ATOM     12  C   UNL     1       1.125   1.343  -1.899  1.00  0.00     0.311 C 
ATOM     13  O   UNL     1       1.857   1.916  -1.107  1.00  0.00    -0.252 OA
BRANCH  12  14
ATOM     14  O   UNL     1       0.532   0.142  -1.646  1.00  0.00    -0.469 OA
ATOM     15  C   UNL     1       0.820  -0.350  -0.332  1.00  0.00     0.282 C 
ENDBRANCH  12  14
ENDBRANCH   8  12
BRANCH  10  16
ATOM     16  C   UNL     1       0.785   1.873  -6.843  1.00  0.00     0.410 C 
ATOM     17  O   UNL     1       0.644   2.759  -7.670  1.00  0.00    -0.224 OA
BRANCH  16  18
ATOM     18  O   UNL     1       0.871   0.548  -7.114  1.00  0.00    -0.444 OA
BRANCH  18  19
ATOM     19  C   UNL     1       0.767   0.100  -8.486  1.00  0.00     0.106 C 
ATOM     20  C   UNL     1      -0.620   0.422  -9.056  1.00  0.00     0.056 C 
ATOM     21  C   UNL     1       1.900   0.661  -9.355  1.00  0.00     0.056 C 
ATOM     22  C   UNL     1       0.924  -1.425  -8.406  1.00  0.00     0.056 C 
ENDBRANCH  18  19
ENDBRANCH  16  18
ENDBRANCH  10  16
ENDBRANCH   5   7
ENDBRANCH   4   5
ENDBRANCH   3   4
ENDBRANCH   2   3
ENDBRANCH   1   2
BRANCH   1  23
ATOM     23  C   UNL     1       1.889   4.692  -0.106  1.00  0.00     0.202 C 
BRANCH  23  24
ATOM     24  C   UNL     1       1.037   5.931   0.188  1.00  0.00     0.261 C 
BRANCH  24  25
ATOM     25  O   UNL     1       1.439   7.088  -0.551  1.00  0.00    -0.460 OA
BRANCH  25  26
ATOM     26  C   UNL     1       2.183   7.962   0.171  1.00  0.00     0.338 C 
ATOM     27  O   UNL     1       2.485   7.881   1.349  1.00  0.00    -0.246 OA
BRANCH  26  28
ATOM     28  C   UNL     1       2.760   8.965  -0.736  1.00  0.00     0.060 A 
ATOM     29  C   UNL     1       4.154   9.101  -0.749  1.00  0.00     0.016 A 
ATOM     30  C   UNL     1       1.947   9.789  -1.514  1.00  0.00     0.016 A 
ATOM     31  C   UNL     1       4.744  10.100  -1.512  1.00  0.00     0.010 A 
ATOM     32  C   UNL     1       2.540  10.802  -2.268  1.00  0.00     0.010 A 
ATOM     33  C   UNL     1       3.935  10.982  -2.236  1.00  0.00    -0.014 A 
BRANCH  33  34
ATOM     34  C   UNL     1       4.537  12.198  -2.823  1.00  0.00     0.031 A 
ATOM     35  C   UNL     1       4.367  13.503  -2.101  1.00  0.00     0.074 A 
ATOM     36  C   UNL     1       5.230  12.127  -3.970  1.00  0.00     0.049 A 
ATOM     37  N   UNL     1       4.755  14.700  -2.450  1.00  0.00    -0.248 NA
ATOM     38  C   UNL     1       3.652  13.450  -0.815  1.00  0.00     0.031 C 
ATOM     39  C   UNL     1       5.479  10.903  -4.729  1.00  0.00     0.029 A 
ATOM     40  N   UNL     1       5.838  13.112  -4.702  1.00  0.00    -0.354 N 
ATOM     41  C   UNL     1       4.316  15.547  -1.439  1.00  0.00     0.074 A 
ATOM     42  C   UNL     1       3.605  14.730  -0.481  1.00  0.00     0.031 C 
ATOM     43  C   UNL     1       6.172  11.214  -5.837  1.00  0.00     0.029 A 
ATOM     44  C   UNL     1       6.381  12.660  -5.880  1.00  0.00     0.049 A 
ATOM     45  H   UNL     1       5.882  14.052  -4.413  1.00  0.00     0.167 HD
ATOM     46  C   UNL     1       4.497  16.884  -1.324  1.00  0.00     0.037 A 
ATOM     47  C   UNL     1       6.952  13.343  -6.890  1.00  0.00     0.037 A 
ATOM     48  C   UNL     1       5.204  17.677  -2.296  1.00  0.00     0.049 A 
ATOM     49  C   UNL     1       7.100  14.835  -6.770  1.00  0.00     0.074 A 
ATOM     50  C   UNL     1       5.478  19.033  -2.266  1.00  0.00     0.029 A 
ATOM     51  N   UNL     1       5.733  17.189  -3.483  1.00  0.00    -0.354 N 
ATOM     52  N   UNL     1       6.717  15.626  -5.795  1.00  0.00    -0.248 NA
ATOM     53  C   UNL     1       7.765  15.529  -7.880  1.00  0.00     0.031 C 
ATOM     54  C   UNL     1       6.111  19.375  -3.465  1.00  0.00     0.029 A 
ATOM     55  C   UNL     1       6.299  18.221  -4.212  1.00  0.00     0.049 A 
ATOM     56  H   UNL     1       5.709  16.246  -3.766  1.00  0.00     0.167 HD
ATOM     57  C   UNL     1       7.112  16.908  -6.162  1.00  0.00     0.074 A 
ATOM     58  C   UNL     1       7.774  16.782  -7.446  1.00  0.00     0.031 C 
ATOM     59  C   UNL     1       6.949  18.079  -5.495  1.00  0.00     0.037 A 
BRANCH  46  60
ATOM     60  C   UNL     1       3.874  17.566  -0.135  1.00  0.00     0.058 A 
ATOM     61  C   UNL     1       4.314  17.334   1.179  1.00  0.00     0.135 A 
ATOM     62  C   UNL     1       2.802  18.456  -0.313  1.00  0.00     0.135 A 
ATOM     63  F   UNL     1       5.325  16.482   1.414  1.00  0.00    -0.206 F 
ATOM     64  C   UNL     1       3.682  17.917   2.274  1.00  0.00     0.059 A 
ATOM     65  C   UNL     1       2.177  19.078   0.764  1.00  0.00     0.059 A 
ATOM     66  F   UNL     1       2.337  18.718  -1.545  1.00  0.00    -0.206 F 
ATOM     67  C   UNL     1       2.609  18.782   2.055  1.00  0.00     0.060 A 
BRANCH  67  68
ATOM     68  S   UNL     1       1.773  19.500   3.486  1.00  0.00     0.124 S 
ATOM     69  O   UNL     1       1.064  18.341   4.020  1.00  0.00    -0.237 OA
ATOM     70  O   UNL     1       2.891  19.984   4.289  1.00  0.00    -0.237 OA
ATOM     71  O   UNL     1       0.928  20.537   2.902  1.00  0.00    -0.744 OA
ENDBRANCH  67  68
ENDBRANCH  46  60
BRANCH  47  72
ATOM     72  C   UNL     1       7.410  12.604  -8.095  1.00  0.00     0.058 A 
ATOM     73  C   UNL     1       8.773  12.417  -8.358  1.00  0.00     0.135 A 
ATOM     74  C   UNL     1       6.486  12.005  -8.967  1.00  0.00     0.135 A 
ATOM     75  F   UNL     1       9.694  12.979  -7.560  1.00  0.00    -0.206 F 
ATOM     76  C   UNL     1       9.207  11.653  -9.437  1.00  0.00     0.059 A 
ATOM     77  C   UNL     1       6.894  11.216 -10.036  1.00  0.00     0.059 A 
ATOM     78  F   UNL     1       5.168  12.145  -8.750  1.00  0.00    -0.206 F 
ATOM     79  C   UNL     1       8.259  11.044 -10.262  1.00  0.00     0.060 A 
BRANCH  79  80
ATOM     80  S   UNL     1       8.836   9.972 -11.595  1.00  0.00     0.124 S 
ATOM     81  O   UNL     1       9.420  10.937 -12.519  1.00  0.00    -0.237 OA
ATOM     82  O   UNL     1       9.779   9.103 -10.898  1.00  0.00    -0.237 OA
ATOM     83  O   UNL     1       7.614   9.318 -12.055  1.00  0.00    -0.744 OA
ENDBRANCH  79  80
ENDBRANCH  47  72
BRANCH  59  84
ATOM     84  C   UNL     1       7.519  19.322  -6.125  1.00  0.00     0.058 A 
ATOM     85  C   UNL     1       6.950  19.904  -7.268  1.00  0.00     0.135 A 
ATOM     86  C   UNL     1       8.615  19.975  -5.535  1.00  0.00     0.135 A 
ATOM     87  F   UNL     1       5.905  19.320  -7.876  1.00  0.00    -0.206 F 
ATOM     88  C   UNL     1       7.460  21.077  -7.817  1.00  0.00     0.059 A 
ATOM     89  C   UNL     1       9.120  21.165  -6.048  1.00  0.00     0.059 A 
ATOM     90  F   UNL     1       9.192  19.468  -4.434  1.00  0.00    -0.206 F 
ATOM     91  C   UNL     1       8.543  21.703  -7.197  1.00  0.00     0.060 A 
BRANCH  91  92
ATOM     92  S   UNL     1       9.170  23.243  -7.898  1.00  0.00     0.124 S 
ATOM     93  O   UNL     1       9.816  22.770  -9.117  1.00  0.00    -0.237 OA
ATOM     94  O   UNL     1       7.948  24.019  -8.087  1.00  0.00    -0.237 OA
ATOM     95  O   UNL     1      10.070  23.746  -6.865  1.00  0.00    -0.744 OA
ENDBRANCH  91  92
ENDBRANCH  59  84
ENDBRANCH  33  34
ENDBRANCH  26  28
ENDBRANCH  25  26
ENDBRANCH  24  25
ENDBRANCH  23  24
ENDBRANCH   1  23
TORSDOF 22
