REMARK SMILES COc1cccc([C@@]([NH3+])(C(=O)OCCOCCOC(=O)c2ccc(-c3c4nc(c(-c5c(F)cc(S(=O)(=O)[O-])cc5F)c5ccc([nH]5)c(-c5c(F)cc(S(=O)(=O)[O-])cc5F)c5nc(c(-c6c(F)cc(S(=O)(=O)[O-])cc6F)c6ccc3[nH]6)C=C5)C=C4)cc2)C(F)(F)F)c1
REMARK SMILES IDX 16 1 15 2 14 3 13 4 12 5 10 6 11 7 8 8 7 9 3 10 4 11 91 12
REMARK SMILES IDX 5 13 6 14 2 15 1 16 9 17 87 21 88 22 89 23 90 24 17 25 18 26
REMARK SMILES IDX 19 27 20 28 21 29 22 30 86 31 23 32 85 33 24 34 25 35 26 36
REMARK SMILES IDX 79 37 27 38 84 39 78 40 80 41 28 42 83 43 77 44 76 45 29 47
REMARK SMILES IDX 63 48 42 49 62 50 43 51 46 52 61 53 81 54 44 55 45 56 60 58
REMARK SMILES IDX 82 59 47 60 30 61 31 62 40 63 32 64 33 65 39 66 41 67 34 68
REMARK SMILES IDX 35 69 36 70 37 71 38 72 64 73 65 74 74 75 66 76 67 77 73 78
REMARK SMILES IDX 75 79 68 80 69 81 70 82 71 83 72 84 48 85 49 86 58 87 50 88
REMARK SMILES IDX 51 89 57 90 59 91 52 92 53 93 54 94 55 95 56 96
REMARK H PARENT 9 18 9 19 9 20 80 46 46 57
REMARK Flexibility Score: inf
ROOT
ATOM      1  C   UNL     1       3.036   4.775   1.798  1.00  0.00     0.202 C 
ENDROOT
BRANCH   1   2
ATOM      2  O   UNL     1       3.830   5.902   2.176  1.00  0.00    -0.374 OA
BRANCH   2   3
ATOM      3  C   UNL     1       3.702   7.092   1.399  1.00  0.00     0.202 C 
BRANCH   3   4
ATOM      4  C   UNL     1       4.370   7.078   0.023  1.00  0.00     0.261 C 
BRANCH   4   5
ATOM      5  O   UNL     1       3.897   5.978  -0.771  1.00  0.00    -0.458 OA
BRANCH   5   6
ATOM      6  C   UNL     1       4.850   5.148  -1.273  1.00  0.00     0.382 C 
ATOM      7  O   UNL     1       6.053   5.390  -1.195  1.00  0.00    -0.244 OA
BRANCH   6   8
ATOM      8  C   UNL     1       4.299   3.902  -2.011  1.00  0.00     0.314 C 
BRANCH   8   9
ATOM      9  C   UNL     1       2.769   3.646  -1.881  1.00  0.00     0.037 A 
ATOM     10  C   UNL     1       0.849   2.177  -1.417  1.00  0.00     0.119 A 
ATOM     11  C   UNL     1      -0.020   3.149  -1.901  1.00  0.00     0.046 A 
ATOM     12  C   UNL     1       2.228   2.427  -1.402  1.00  0.00     0.057 A 
ATOM     13  C   UNL     1       0.476   4.369  -2.350  1.00  0.00     0.004 A 
ATOM     14  C   UNL     1       1.853   4.609  -2.351  1.00  0.00     0.011 A 
BRANCH  10  15
ATOM     15  O   UNL     1       0.256   0.995  -1.064  1.00  0.00    -0.497 OA
ATOM     16  C   UNL     1       0.902   0.239  -0.048  1.00  0.00     0.278 C 
ENDBRANCH  10  15
ENDBRANCH   8   9
BRANCH   8  17
ATOM     17  N   UNL     1       4.590   4.112  -3.483  1.00  0.00    -0.332 N 
ATOM     18  H   UNL     1       4.003   4.864  -3.842  1.00  0.00     0.346 HD
ATOM     19  H   UNL     1       4.393   3.252  -3.995  1.00  0.00     0.346 HD
ATOM     20  H   UNL     1       5.572   4.361  -3.603  1.00  0.00     0.346 HD
ENDBRANCH   8  17
BRANCH   8  21
ATOM     21  C   UNL     1       5.167   2.758  -1.388  1.00  0.00     0.460 C 
ATOM     22  F   UNL     1       4.943   2.595  -0.062  1.00  0.00    -0.164 F 
ATOM     23  F   UNL     1       4.891   1.563  -1.984  1.00  0.00    -0.164 F 
ATOM     24  F   UNL     1       6.498   2.930  -1.565  1.00  0.00    -0.164 F 
ENDBRANCH   8  21
ENDBRANCH   6   8
ENDBRANCH   5   6
ENDBRANCH   4   5
ENDBRANCH   3   4
ENDBRANCH   2   3
ENDBRANCH   1   2
BRANCH   1  25
ATOM     25  C   UNL     1       1.528   4.847   2.069  1.00  0.00     0.261 C 
BRANCH  25  26
ATOM     26  O   UNL     1       0.870   5.883   1.319  1.00  0.00    -0.460 OA
BRANCH  26  27
ATOM     27  C   UNL     1       0.344   6.882   2.068  1.00  0.00     0.338 C 
ATOM     28  O   UNL     1       0.323   6.954   3.291  1.00  0.00    -0.246 OA
BRANCH  27  29
ATOM     29  C   UNL     1      -0.054   8.010   1.207  1.00  0.00     0.060 A 
ATOM     30  C   UNL     1       0.494   9.268   1.489  1.00  0.00     0.016 A 
ATOM     31  C   UNL     1      -0.995   7.860   0.186  1.00  0.00     0.016 A 
ATOM     32  C   UNL     1       0.080  10.389   0.773  1.00  0.00     0.010 A 
ATOM     33  C   UNL     1      -1.420   8.990  -0.524  1.00  0.00     0.010 A 
ATOM     34  C   UNL     1      -0.903  10.262  -0.218  1.00  0.00    -0.014 A 
BRANCH  34  35
ATOM     35  C   UNL     1      -1.458  11.479  -0.860  1.00  0.00     0.031 A 
ATOM     36  C   UNL     1      -2.766  12.039  -0.374  1.00  0.00     0.074 A 
ATOM     37  C   UNL     1      -0.787  12.090  -1.853  1.00  0.00     0.049 A 
ATOM     38  N   UNL     1      -3.440  13.069  -0.815  1.00  0.00    -0.248 NA
ATOM     39  C   UNL     1      -3.397  11.348   0.762  1.00  0.00     0.031 C 
ATOM     40  C   UNL     1       0.507  11.662  -2.384  1.00  0.00     0.029 A 
ATOM     41  N   UNL     1      -1.106  13.197  -2.598  1.00  0.00    -0.354 N 
ATOM     42  C   UNL     1      -4.574  13.151  -0.016  1.00  0.00     0.074 A 
ATOM     43  C   UNL     1      -4.510  12.050   0.921  1.00  0.00     0.031 C 
ATOM     44  C   UNL     1       0.865  12.490  -3.380  1.00  0.00     0.029 A 
ATOM     45  C   UNL     1      -0.187  13.485  -3.578  1.00  0.00     0.049 A 
ATOM     46  H   UNL     1      -1.917  13.735  -2.444  1.00  0.00     0.167 HD
ATOM     47  C   UNL     1      -5.573  14.065  -0.057  1.00  0.00     0.037 A 
ATOM     48  C   UNL     1      -0.206  14.426  -4.543  1.00  0.00     0.037 A 
ATOM     49  C   UNL     1      -5.631  15.158  -0.993  1.00  0.00     0.049 A 
ATOM     50  C   UNL     1      -1.369  15.380  -4.621  1.00  0.00     0.074 A 
ATOM     51  C   UNL     1      -6.584  16.157  -1.091  1.00  0.00     0.029 A 
ATOM     52  N   UNL     1      -4.708  15.387  -2.003  1.00  0.00    -0.354 N 
ATOM     53  N   UNL     1      -2.417  15.468  -3.838  1.00  0.00    -0.248 NA
ATOM     54  C   UNL     1      -1.354  16.360  -5.717  1.00  0.00     0.031 C 
ATOM     55  C   UNL     1      -6.264  16.959  -2.193  1.00  0.00     0.029 A 
ATOM     56  C   UNL     1      -5.088  16.488  -2.752  1.00  0.00     0.049 A 
ATOM     57  H   UNL     1      -3.901  14.846  -2.163  1.00  0.00     0.167 HD
ATOM     58  C   UNL     1      -3.181  16.516  -4.339  1.00  0.00     0.074 A 
ATOM     59  C   UNL     1      -2.465  17.045  -5.481  1.00  0.00     0.031 C 
ATOM     60  C   UNL     1      -4.370  16.996  -3.895  1.00  0.00     0.037 A 
BRANCH  47  61
ATOM     61  C   UNL     1      -6.700  13.910   0.926  1.00  0.00     0.058 A 
ATOM     62  C   UNL     1      -6.536  14.201   2.290  1.00  0.00     0.135 A 
ATOM     63  C   UNL     1      -7.971  13.502   0.492  1.00  0.00     0.135 A 
ATOM     64  F   UNL     1      -5.338  14.580   2.761  1.00  0.00    -0.206 F 
ATOM     65  C   UNL     1      -7.587  14.070   3.192  1.00  0.00     0.059 A 
ATOM     66  C   UNL     1      -9.043  13.387   1.372  1.00  0.00     0.059 A 
ATOM     67  F   UNL     1      -8.182  13.210  -0.801  1.00  0.00    -0.206 F 
ATOM     68  C   UNL     1      -8.837  13.661   2.724  1.00  0.00     0.060 A 
BRANCH  68  69
ATOM     69  S   UNL     1     -10.192  13.499   3.906  1.00  0.00     0.124 S 
ATOM     70  O   UNL     1      -9.810  12.286   4.621  1.00  0.00    -0.237 OA
ATOM     71  O   UNL     1     -10.093  14.741   4.667  1.00  0.00    -0.237 OA
ATOM     72  O   UNL     1     -11.373  13.381   3.057  1.00  0.00    -0.744 OA
ENDBRANCH  68  69
ENDBRANCH  47  61
BRANCH  48  73
ATOM     73  C   UNL     1       0.901  14.493  -5.534  1.00  0.00     0.058 A 
ATOM     74  C   UNL     1       1.814  15.557  -5.533  1.00  0.00     0.135 A 
ATOM     75  C   UNL     1       1.070  13.486  -6.498  1.00  0.00     0.135 A 
ATOM     76  F   UNL     1       1.685  16.550  -4.640  1.00  0.00    -0.206 F 
ATOM     77  C   UNL     1       2.853  15.625  -6.456  1.00  0.00     0.059 A 
ATOM     78  C   UNL     1       2.115  13.520  -7.415  1.00  0.00     0.059 A 
ATOM     79  F   UNL     1       0.227  12.442  -6.536  1.00  0.00    -0.206 F 
ATOM     80  C   UNL     1       2.997  14.599  -7.391  1.00  0.00     0.060 A 
BRANCH  80  81
ATOM     81  S   UNL     1       4.383  14.666  -8.547  1.00  0.00     0.124 S 
ATOM     82  O   UNL     1       3.946  15.708  -9.469  1.00  0.00    -0.237 OA
ATOM     83  O   UNL     1       5.497  15.014  -7.670  1.00  0.00    -0.237 OA
ATOM     84  O   UNL     1       4.427  13.314  -9.096  1.00  0.00    -0.744 OA
ENDBRANCH  80  81
ENDBRANCH  48  73
BRANCH  60  85
ATOM     85  C   UNL     1      -4.974  18.151  -4.644  1.00  0.00     0.058 A 
ATOM     86  C   UNL     1      -5.567  17.976  -5.904  1.00  0.00     0.135 A 
ATOM     87  C   UNL     1      -5.015  19.434  -4.074  1.00  0.00     0.135 A 
ATOM     88  F   UNL     1      -5.548  16.772  -6.498  1.00  0.00    -0.206 F 
ATOM     89  C   UNL     1      -6.165  19.035  -6.580  1.00  0.00     0.059 A 
ATOM     90  C   UNL     1      -5.629  20.502  -4.720  1.00  0.00     0.059 A 
ATOM     91  F   UNL     1      -4.470  19.654  -2.866  1.00  0.00    -0.206 F 
ATOM     92  C   UNL     1      -6.194  20.294  -5.978  1.00  0.00     0.060 A 
BRANCH  92  93
ATOM     93  S   UNL     1      -7.010  21.650  -6.848  1.00  0.00     0.124 S 
ATOM     94  O   UNL     1      -6.041  21.953  -7.896  1.00  0.00    -0.237 OA
ATOM     95  O   UNL     1      -8.255  21.032  -7.294  1.00  0.00    -0.237 OA
ATOM     96  O   UNL     1      -7.160  22.673  -5.817  1.00  0.00    -0.744 OA
ENDBRANCH  92  93
ENDBRANCH  60  85
ENDBRANCH  34  35
ENDBRANCH  27  29
ENDBRANCH  26  27
ENDBRANCH  25  26
ENDBRANCH   1  25
TORSDOF 21
