REMARK SMILES O=C1NC(=O)/C(=C/c2ccc(OCc3cn(-c4ccc(C(=O)OCCOCCOC(=O)c5ccc(-c6c7nc(c(-c8c(F)cc(S(=O)(=O)[O-])cc8F)c8ccc([nH]8)c(-c8c(F)cc(S(=O)(=O)[O-])cc8F)c8nc(c(-c9c(F)cc(S(=O)(=O)[O-])cc9F)c9ccc6[nH]9)C=C8)C=C7)cc5)cc4)nn3)cc2)S1
REMARK SMILES IDX 25 1 24 2 23 3 21 4 22 5 20 6 17 7 18 8 99 9 19 10 98 11
REMARK SMILES IDX 16 12 14 13 15 14 101 15 100 16 13 17 12 18 11 19 8 20 9 21
REMARK SMILES IDX 103 22 10 23 102 24 7 25 1 26 2 27 3 28 104 29 4 30 6 32
REMARK SMILES IDX 5 33 26 34 27 35 28 36 29 37 30 38 31 39 32 40 33 41 97 42
REMARK SMILES IDX 34 43 96 44 35 45 36 46 37 47 90 48 38 49 95 50 89 51 91 52
REMARK SMILES IDX 39 53 94 54 88 55 87 56 40 58 74 59 53 60 73 61 54 62 57 63
REMARK SMILES IDX 72 64 92 65 55 66 56 67 71 69 93 70 58 71 41 72 42 73 51 74
REMARK SMILES IDX 43 75 44 76 50 77 52 78 45 79 46 80 47 81 48 82 49 83 75 84
REMARK SMILES IDX 76 85 85 86 77 87 78 88 84 89 86 90 79 91 80 92 81 93 82 94
REMARK SMILES IDX 83 95 59 96 60 97 69 98 61 99 62 100 68 101 70 102 63 103
REMARK SMILES IDX 64 104 65 105 66 106 67 107
REMARK H PARENT 3 31 91 57 57 68
REMARK Flexibility Score: inf
ROOT
ATOM      1  C   UNL     1     -10.651   9.284   0.275  1.00  0.00     0.202 C 
ENDROOT
BRANCH   1   2
ATOM      2  C   UNL     1      -9.594  10.365   0.499  1.00  0.00     0.261 C 
BRANCH   2   3
ATOM      3  O   UNL     1      -8.257   9.894   0.276  1.00  0.00    -0.460 OA
BRANCH   3   4
ATOM      4  C   UNL     1      -7.538   9.732   1.411  1.00  0.00     0.338 C 
ATOM      5  O   UNL     1      -7.889   9.987   2.552  1.00  0.00    -0.246 OA
BRANCH   4   6
ATOM      6  C   UNL     1      -6.277   9.028   1.121  1.00  0.00     0.060 A 
ATOM      7  C   UNL     1      -3.762   7.875   0.917  1.00  0.00     0.066 A 
ATOM      8  C   UNL     1      -4.672   7.386   1.865  1.00  0.00     0.029 A 
ATOM      9  C   UNL     1      -4.150   8.862  -0.001  1.00  0.00     0.029 A 
ATOM     10  C   UNL     1      -5.916   7.990   1.989  1.00  0.00     0.018 A 
ATOM     11  C   UNL     1      -5.427   9.423   0.086  1.00  0.00     0.018 A 
BRANCH   7  12
ATOM     12  N   UNL     1      -2.422   7.438   0.997  1.00  0.00    -0.220 N 
ATOM     13  C   UNL     1      -0.248   7.380   1.169  1.00  0.00     0.120 A 
ATOM     14  C   UNL     1      -1.282   8.129   0.647  1.00  0.00     0.144 A 
ATOM     15  N   UNL     1      -0.774   6.273   1.777  1.00  0.00    -0.131 NA
ATOM     16  N   UNL     1      -2.088   6.316   1.670  1.00  0.00    -0.062 NA
BRANCH  13  17
ATOM     17  C   UNL     1       1.214   7.669   1.267  1.00  0.00     0.289 C 
BRANCH  17  18
ATOM     18  O   UNL     1       2.042   7.006   0.299  1.00  0.00    -0.487 OA
BRANCH  18  19
ATOM     19  C   UNL     1       2.143   5.643   0.361  1.00  0.00     0.119 A 
ATOM     20  C   UNL     1       2.180   2.843   0.128  1.00  0.00    -0.024 A 
ATOM     21  C   UNL     1       2.680   3.640  -0.903  1.00  0.00     0.012 A 
ATOM     22  C   UNL     1       1.749   3.452   1.309  1.00  0.00     0.012 A 
ATOM     23  C   UNL     1       2.656   5.034  -0.786  1.00  0.00     0.047 A 
ATOM     24  C   UNL     1       1.757   4.842   1.434  1.00  0.00     0.047 A 
BRANCH  20  25
ATOM     25  C   UNL     1       2.120   1.386  -0.013  1.00  0.00     0.029 C 
ATOM     26  O   UNL     1      -2.446  -0.736   0.124  1.00  0.00    -0.261 OA
ATOM     27  C   UNL     1      -1.264  -0.443   0.007  1.00  0.00     0.290 C 
ATOM     28  N   UNL     1      -0.239  -1.323  -0.095  1.00  0.00    -0.282 N 
ATOM     29  S   UNL     1      -0.641   1.192   0.028  1.00  0.00    -0.022 SA
ATOM     30  C   UNL     1       1.032  -0.832  -0.094  1.00  0.00     0.265 C 
ATOM     31  H   UNL     1      -0.408  -2.290  -0.168  1.00  0.00     0.174 HD
ATOM     32  C   UNL     1       0.997   0.653  -0.036  1.00  0.00     0.083 C 
ATOM     33  O   UNL     1       2.043  -1.516  -0.082  1.00  0.00    -0.268 OA
ENDBRANCH  20  25
ENDBRANCH  18  19
ENDBRANCH  17  18
ENDBRANCH  13  17
ENDBRANCH   7  12
ENDBRANCH   4   6
ENDBRANCH   3   4
ENDBRANCH   2   3
ENDBRANCH   1   2
BRANCH   1  34
ATOM     34  O   UNL     1     -10.634   8.115   1.095  1.00  0.00    -0.374 OA
BRANCH  34  35
ATOM     35  C   UNL     1      -9.582   7.162   0.979  1.00  0.00     0.202 C 
BRANCH  35  36
ATOM     36  C   UNL     1      -9.470   6.321  -0.284  1.00  0.00     0.261 C 
BRANCH  36  37
ATOM     37  O   UNL     1      -9.358   7.127  -1.442  1.00  0.00    -0.460 OA
BRANCH  37  38
ATOM     38  C   UNL     1     -10.527   7.266  -2.111  1.00  0.00     0.338 C 
ATOM     39  O   UNL     1     -11.643   6.999  -1.710  1.00  0.00    -0.246 OA
BRANCH  38  40
ATOM     40  C   UNL     1     -10.220   7.663  -3.488  1.00  0.00     0.060 A 
ATOM     41  C   UNL     1     -11.306   7.627  -4.362  1.00  0.00     0.016 A 
ATOM     42  C   UNL     1      -8.890   7.611  -3.926  1.00  0.00     0.016 A 
ATOM     43  C   UNL     1     -11.068   7.206  -5.645  1.00  0.00     0.010 A 
ATOM     44  C   UNL     1      -8.657   7.166  -5.198  1.00  0.00     0.010 A 
ATOM     45  C   UNL     1      -9.757   6.869  -5.998  1.00  0.00    -0.014 A 
BRANCH  45  46
ATOM     46  C   UNL     1      -9.531   6.325  -7.314  1.00  0.00     0.031 A 
ATOM     47  C   UNL     1      -9.636   7.389  -8.334  1.00  0.00     0.074 A 
ATOM     48  C   UNL     1      -9.164   5.045  -7.506  1.00  0.00     0.049 A 
ATOM     49  N   UNL     1     -10.605   7.588  -9.164  1.00  0.00    -0.248 NA
ATOM     50  C   UNL     1      -8.709   8.531  -8.215  1.00  0.00     0.031 C 
ATOM     51  C   UNL     1      -8.811   4.039  -6.499  1.00  0.00     0.029 A 
ATOM     52  N   UNL     1      -8.925   4.396  -8.676  1.00  0.00    -0.354 N 
ATOM     53  C   UNL     1     -10.233   8.725  -9.872  1.00  0.00     0.074 A 
ATOM     54  C   UNL     1      -9.266   9.401  -9.056  1.00  0.00     0.031 C 
ATOM     55  C   UNL     1      -8.184   3.002  -7.103  1.00  0.00     0.029 A 
ATOM     56  C   UNL     1      -8.204   3.210  -8.540  1.00  0.00     0.049 A 
ATOM     57  H   UNL     1      -9.235   4.736  -9.547  1.00  0.00     0.167 HD
ATOM     58  C   UNL     1     -10.463   8.802 -11.210  1.00  0.00     0.037 A 
ATOM     59  C   UNL     1      -7.604   2.536  -9.558  1.00  0.00     0.037 A 
ATOM     60  C   UNL     1     -11.496   7.868 -11.597  1.00  0.00     0.049 A 
ATOM     61  C   UNL     1      -8.256   3.001 -10.816  1.00  0.00     0.074 A 
ATOM     62  C   UNL     1     -12.813   7.670 -11.225  1.00  0.00     0.029 A 
ATOM     63  N   UNL     1     -11.095   6.699 -12.200  1.00  0.00    -0.354 N 
ATOM     64  N   UNL     1      -9.511   2.770 -11.104  1.00  0.00    -0.248 NA
ATOM     65  C   UNL     1      -7.665   4.146 -11.493  1.00  0.00     0.031 C 
ATOM     66  C   UNL     1     -12.987   6.255 -11.207  1.00  0.00     0.029 A 
ATOM     67  C   UNL     1     -11.802   5.663 -11.646  1.00  0.00     0.049 A 
ATOM     68  H   UNL     1     -10.416   6.619 -12.908  1.00  0.00     0.167 HD
ATOM     69  C   UNL     1      -9.979   3.962 -11.643  1.00  0.00     0.074 A 
ATOM     70  C   UNL     1      -8.780   4.754 -11.911  1.00  0.00     0.031 C 
ATOM     71  C   UNL     1     -11.297   4.311 -11.542  1.00  0.00     0.037 A 
BRANCH  58  72
ATOM     72  C   UNL     1      -9.448   9.351 -12.198  1.00  0.00     0.058 A 
ATOM     73  C   UNL     1      -9.795   9.373 -13.564  1.00  0.00     0.135 A 
ATOM     74  C   UNL     1      -8.076   9.573 -11.925  1.00  0.00     0.135 A 
ATOM     75  F   UNL     1     -11.070   9.202 -13.948  1.00  0.00    -0.206 F 
ATOM     76  C   UNL     1      -8.842   9.483 -14.576  1.00  0.00     0.059 A 
ATOM     77  C   UNL     1      -7.119   9.731 -12.916  1.00  0.00     0.059 A 
ATOM     78  F   UNL     1      -7.557   9.572 -10.694  1.00  0.00    -0.206 F 
ATOM     79  C   UNL     1      -7.502   9.638 -14.239  1.00  0.00     0.060 A 
BRANCH  79  80
ATOM     80  S   UNL     1      -6.255   9.672 -15.533  1.00  0.00     0.124 S 
ATOM     81  O   UNL     1      -6.325   8.306 -16.037  1.00  0.00    -0.237 OA
ATOM     82  O   UNL     1      -6.772  10.712 -16.416  1.00  0.00    -0.237 OA
ATOM     83  O   UNL     1      -5.034  10.019 -14.812  1.00  0.00    -0.744 OA
ENDBRANCH  79  80
ENDBRANCH  58  72
BRANCH  59  84
ATOM     84  C   UNL     1      -6.274   1.861  -9.552  1.00  0.00     0.058 A 
ATOM     85  C   UNL     1      -5.861   1.040 -10.619  1.00  0.00     0.135 A 
ATOM     86  C   UNL     1      -5.265   2.235  -8.641  1.00  0.00     0.135 A 
ATOM     87  F   UNL     1      -6.746   0.651 -11.550  1.00  0.00    -0.206 F 
ATOM     88  C   UNL     1      -4.525   0.653 -10.797  1.00  0.00     0.059 A 
ATOM     89  C   UNL     1      -3.931   1.856  -8.792  1.00  0.00     0.059 A 
ATOM     90  F   UNL     1      -5.527   3.064  -7.620  1.00  0.00    -0.206 F 
ATOM     91  C   UNL     1      -3.561   1.085  -9.887  1.00  0.00     0.060 A 
BRANCH  91  92
ATOM     92  S   UNL     1      -1.811   0.739 -10.196  1.00  0.00     0.124 S 
ATOM     93  O   UNL     1      -1.744  -0.703  -9.982  1.00  0.00    -0.237 OA
ATOM     94  O   UNL     1      -1.644   1.186 -11.574  1.00  0.00    -0.237 OA
ATOM     95  O   UNL     1      -1.122   1.549  -9.194  1.00  0.00    -0.744 OA
ENDBRANCH  91  92
ENDBRANCH  59  84
BRANCH  71  96
ATOM     96  C   UNL     1     -12.283   3.257 -11.106  1.00  0.00     0.058 A 
ATOM     97  C   UNL     1     -12.310   2.655  -9.834  1.00  0.00     0.135 A 
ATOM     98  C   UNL     1     -13.346   2.967 -11.973  1.00  0.00     0.135 A 
ATOM     99  F   UNL     1     -11.386   2.957  -8.911  1.00  0.00    -0.206 F 
ATOM    100  C   UNL     1     -13.329   1.775  -9.459  1.00  0.00     0.059 A 
ATOM    101  C   UNL     1     -14.387   2.119 -11.610  1.00  0.00     0.059 A 
ATOM    102  F   UNL     1     -13.411   3.559 -13.177  1.00  0.00    -0.206 F 
ATOM    103  C   UNL     1     -14.366   1.515 -10.356  1.00  0.00     0.060 A 
BRANCH 103 104
ATOM    104  S   UNL     1     -15.721   0.429  -9.857  1.00  0.00     0.124 S 
ATOM    105  O   UNL     1     -15.071  -0.877  -9.821  1.00  0.00    -0.237 OA
ATOM    106  O   UNL     1     -16.110   0.981  -8.563  1.00  0.00    -0.237 OA
ATOM    107  O   UNL     1     -16.709   0.604 -10.920  1.00  0.00    -0.744 OA
ENDBRANCH 103 104
ENDBRANCH  71  96
ENDBRANCH  45  46
ENDBRANCH  38  40
ENDBRANCH  37  38
ENDBRANCH  36  37
ENDBRANCH  35  36
ENDBRANCH  34  35
ENDBRANCH   1  34
TORSDOF 22
