REMARK SMILES O=C(/C=C/c1ccc(O)c(O)c1)OCCOCCOC(=O)c1ccc(-c2c3nc(c(-c4c(F)cc(S(=O)(=O)[O-])cc4F)c4ccc([nH]4)c(-c4c(F)cc(S(=O)(=O)[O-])cc4F)c4nc(c(-c5c(F)cc(S(=O)(=O)[O-])cc5F)c5ccc2[nH]5)C=C4)C=C3)cc1
REMARK SMILES IDX 17 1 16 2 15 3 14 4 13 5 2 6 1 7 3 8 4 9 5 10 6 11 12 12
REMARK SMILES IDX 7 13 10 14 8 15 11 16 9 18 18 20 19 21 20 22 21 23 22 24
REMARK SMILES IDX 23 25 87 26 24 27 86 28 25 29 26 30 27 31 80 32 28 33 85 34
REMARK SMILES IDX 79 35 81 36 29 37 84 38 78 39 77 40 30 42 64 43 43 44 63 45
REMARK SMILES IDX 44 46 47 47 62 48 82 49 45 50 46 51 61 53 83 54 48 55 31 56
REMARK SMILES IDX 32 57 41 58 33 59 34 60 40 61 42 62 35 63 36 64 37 65 38 66
REMARK SMILES IDX 39 67 65 68 66 69 75 70 67 71 68 72 74 73 76 74 69 75 70 76
REMARK SMILES IDX 71 77 72 78 73 79 49 80 50 81 59 82 51 83 52 84 58 85 60 86
REMARK SMILES IDX 53 87 54 88 55 89 56 90 57 91
REMARK H PARENT 11 17 9 19 81 41 47 52
REMARK Flexibility Score: inf
ROOT
ATOM      1  C   UNL     1       2.918  -1.733   1.032  1.00  0.00     0.202 C 
ENDROOT
BRANCH   1   2
ATOM      2  O   UNL     1       4.215  -1.234   0.683  1.00  0.00    -0.374 OA
BRANCH   2   3
ATOM      3  C   UNL     1       4.564   0.001   1.304  1.00  0.00     0.202 C 
BRANCH   3   4
ATOM      4  C   UNL     1       4.304   1.270   0.498  1.00  0.00     0.261 C 
BRANCH   4   5
ATOM      5  O   UNL     1       2.973   1.394  -0.039  1.00  0.00    -0.460 OA
BRANCH   5   6
ATOM      6  C   UNL     1       2.450   0.778  -1.119  1.00  0.00     0.330 C 
ATOM      7  O   UNL     1       1.268   0.952  -1.415  1.00  0.00    -0.247 OA
BRANCH   6   8
ATOM      8  C   UNL     1       3.210  -0.217  -1.893  1.00  0.00     0.094 C 
ATOM      9  C   UNL     1       4.505  -0.182  -2.226  1.00  0.00     0.016 C 
BRANCH   9  10
ATOM     10  C   UNL     1       5.185  -1.278  -2.913  1.00  0.00    -0.021 A 
ATOM     11  C   UNL     1       4.858  -1.609  -4.233  1.00  0.00     0.012 A 
ATOM     12  C   UNL     1       6.243  -1.931  -2.267  1.00  0.00     0.058 A 
ATOM     13  C   UNL     1       5.619  -2.549  -4.932  1.00  0.00     0.051 A 
ATOM     14  C   UNL     1       6.995  -2.860  -2.970  1.00  0.00     0.157 A 
ATOM     15  C   UNL     1       6.700  -3.153  -4.298  1.00  0.00     0.157 A 
BRANCH  14  16
ATOM     16  O   UNL     1       8.055  -3.462  -2.356  1.00  0.00    -0.504 OA
ATOM     17  H   UNL     1       8.570  -4.091  -2.821  1.00  0.00     0.293 HD
ENDBRANCH  14  16
BRANCH  15  18
ATOM     18  O   UNL     1       7.520  -4.027  -4.956  1.00  0.00    -0.504 OA
ATOM     19  H   UNL     1       7.350  -4.246  -5.851  1.00  0.00     0.293 HD
ENDBRANCH  15  18
ENDBRANCH   9  10
ENDBRANCH   6   8
ENDBRANCH   5   6
ENDBRANCH   4   5
ENDBRANCH   3   4
ENDBRANCH   2   3
ENDBRANCH   1   2
BRANCH   1  20
ATOM     20  C   UNL     1       2.877  -2.584   2.307  1.00  0.00     0.261 C 
BRANCH  20  21
ATOM     21  O   UNL     1       3.287  -1.824   3.453  1.00  0.00    -0.460 OA
BRANCH  21  22
ATOM     22  C   UNL     1       4.592  -1.975   3.784  1.00  0.00     0.338 C 
ATOM     23  O   UNL     1       5.374  -2.800   3.337  1.00  0.00    -0.246 OA
BRANCH  22  24
ATOM     24  C   UNL     1       5.015  -0.840   4.630  1.00  0.00     0.060 A 
ATOM     25  C   UNL     1       6.282  -0.294   4.384  1.00  0.00     0.016 A 
ATOM     26  C   UNL     1       4.203  -0.321   5.642  1.00  0.00     0.016 A 
ATOM     27  C   UNL     1       6.778   0.712   5.204  1.00  0.00     0.010 A 
ATOM     28  C   UNL     1       4.703   0.687   6.470  1.00  0.00     0.010 A 
ATOM     29  C   UNL     1       6.016   1.159   6.290  1.00  0.00    -0.014 A 
BRANCH  29  30
ATOM     30  C   UNL     1       6.694   1.911   7.370  1.00  0.00     0.031 A 
ATOM     31  C   UNL     1       7.129   1.146   8.593  1.00  0.00     0.074 A 
ATOM     32  C   UNL     1       6.980   3.217   7.236  1.00  0.00     0.049 A 
ATOM     33  N   UNL     1       7.758   1.567   9.657  1.00  0.00    -0.248 NA
ATOM     34  C   UNL     1       6.805  -0.292   8.618  1.00  0.00     0.031 C 
ATOM     35  C   UNL     1       6.644   4.043   6.077  1.00  0.00     0.029 A 
ATOM     36  N   UNL     1       7.626   4.076   8.087  1.00  0.00    -0.354 N 
ATOM     37  C   UNL     1       7.892   0.455  10.481  1.00  0.00     0.074 A 
ATOM     38  C   UNL     1       7.246  -0.651   9.813  1.00  0.00     0.031 C 
ATOM     39  C   UNL     1       7.091   5.293   6.290  1.00  0.00     0.029 A 
ATOM     40  C   UNL     1       7.719   5.360   7.608  1.00  0.00     0.049 A 
ATOM     41  H   UNL     1       7.989   3.799   8.959  1.00  0.00     0.167 HD
ATOM     42  C   UNL     1       8.509   0.362  11.682  1.00  0.00     0.037 A 
ATOM     43  C   UNL     1       8.244   6.462   8.179  1.00  0.00     0.037 A 
ATOM     44  C   UNL     1       9.159   1.470  12.330  1.00  0.00     0.049 A 
ATOM     45  C   UNL     1       8.884   6.344   9.540  1.00  0.00     0.074 A 
ATOM     46  C   UNL     1       9.836   1.484  13.536  1.00  0.00     0.029 A 
ATOM     47  N   UNL     1       9.206   2.763  11.828  1.00  0.00    -0.354 N 
ATOM     48  N   UNL     1       9.026   5.282  10.299  1.00  0.00    -0.248 NA
ATOM     49  C   UNL     1       9.446   7.573  10.116  1.00  0.00     0.031 C 
ATOM     50  C   UNL     1      10.239   2.799  13.792  1.00  0.00     0.029 A 
ATOM     51  C   UNL     1       9.877   3.589  12.713  1.00  0.00     0.049 A 
ATOM     52  H   UNL     1       8.818   3.050  10.970  1.00  0.00     0.167 HD
ATOM     53  C   UNL     1       9.730   5.707  11.422  1.00  0.00     0.074 A 
ATOM     54  C   UNL     1       9.989   7.120  11.237  1.00  0.00     0.031 C 
ATOM     55  C   UNL     1      10.133   4.994  12.504  1.00  0.00     0.037 A 
BRANCH  42  56
ATOM     56  C   UNL     1       8.478  -0.970  12.383  1.00  0.00     0.058 A 
ATOM     57  C   UNL     1       9.190  -2.083  11.908  1.00  0.00     0.135 A 
ATOM     58  C   UNL     1       7.734  -1.127  13.564  1.00  0.00     0.135 A 
ATOM     59  F   UNL     1       9.899  -1.999  10.770  1.00  0.00    -0.206 F 
ATOM     60  C   UNL     1       9.143  -3.311  12.562  1.00  0.00     0.059 A 
ATOM     61  C   UNL     1       7.700  -2.336  14.253  1.00  0.00     0.059 A 
ATOM     62  F   UNL     1       7.028  -0.099  14.060  1.00  0.00    -0.206 F 
ATOM     63  C   UNL     1       8.397  -3.426  13.736  1.00  0.00     0.060 A 
BRANCH  63  64
ATOM     64  S   UNL     1       8.354  -5.022  14.579  1.00  0.00     0.124 S 
ATOM     65  O   UNL     1       7.534  -5.812  13.666  1.00  0.00    -0.237 OA
ATOM     66  O   UNL     1       9.767  -5.381  14.636  1.00  0.00    -0.237 OA
ATOM     67  O   UNL     1       7.737  -4.711  15.865  1.00  0.00    -0.744 OA
ENDBRANCH  63  64
ENDBRANCH  42  56
BRANCH  43  68
ATOM     68  C   UNL     1       8.201   7.767   7.465  1.00  0.00     0.058 A 
ATOM     69  C   UNL     1       9.373   8.379   6.997  1.00  0.00     0.135 A 
ATOM     70  C   UNL     1       6.985   8.431   7.238  1.00  0.00     0.135 A 
ATOM     71  F   UNL     1      10.562   7.790   7.196  1.00  0.00    -0.206 F 
ATOM     72  C   UNL     1       9.346   9.609   6.347  1.00  0.00     0.059 A 
ATOM     73  C   UNL     1       6.928   9.648   6.565  1.00  0.00     0.059 A 
ATOM     74  F   UNL     1       5.832   7.885   7.655  1.00  0.00    -0.206 F 
ATOM     75  C   UNL     1       8.117  10.235   6.133  1.00  0.00     0.060 A 
BRANCH  75  76
ATOM     76  S   UNL     1       8.089  11.809   5.249  1.00  0.00     0.124 S 
ATOM     77  O   UNL     1       8.674  12.710   6.235  1.00  0.00    -0.237 OA
ATOM     78  O   UNL     1       8.915  11.516   4.081  1.00  0.00    -0.237 OA
ATOM     79  O   UNL     1       6.671  12.012   4.969  1.00  0.00    -0.744 OA
ENDBRANCH  75  76
ENDBRANCH  43  68
BRANCH  55  80
ATOM     80  C   UNL     1      10.949   5.715  13.544  1.00  0.00     0.058 A 
ATOM     81  C   UNL     1      10.395   6.696  14.381  1.00  0.00     0.135 A 
ATOM     82  C   UNL     1      12.304   5.390  13.725  1.00  0.00     0.135 A 
ATOM     83  F   UNL     1       9.105   7.045  14.252  1.00  0.00    -0.206 F 
ATOM     84  C   UNL     1      11.166   7.361  15.329  1.00  0.00     0.059 A 
ATOM     85  C   UNL     1      13.084   6.016  14.692  1.00  0.00     0.059 A 
ATOM     86  F   UNL     1      12.882   4.446  12.965  1.00  0.00    -0.206 F 
ATOM     87  C   UNL     1      12.511   7.016  15.475  1.00  0.00     0.060 A 
BRANCH  87  88
ATOM     88  S   UNL     1      13.499   7.884  16.710  1.00  0.00     0.124 S 
ATOM     89  O   UNL     1      13.668   9.191  16.084  1.00  0.00    -0.237 OA
ATOM     90  O   UNL     1      12.633   7.851  17.884  1.00  0.00    -0.237 OA
ATOM     91  O   UNL     1      14.710   7.074  16.809  1.00  0.00    -0.744 OA
ENDBRANCH  87  88
ENDBRANCH  55  80
ENDBRANCH  29  30
ENDBRANCH  22  24
ENDBRANCH  21  22
ENDBRANCH  20  21
ENDBRANCH   1  20
TORSDOF 20
