REMARK SMILES C=CCN(CC(=O)OCCOCCOC(=O)c1ccc(-c2c3nc(c(-c4c(F)cc(S(=O)(=O)[O-])cc4F)c4ccc([nH]4)c(-c4c(F)cc(S(=O)(=O)[O-])cc4F)c4nc(c(-c5c(F)cc(S(=O)(=O)[O-])cc5F)c5ccc2[nH]5)C=C4)C=C3)cc1)C(=O)N1CC[C@@H](C(=O)OC)C1
REMARK SMILES IDX 10 1 9 2 8 3 6 4 7 5 5 6 4 7 3 8 2 9 1 10 83 11 84 12 85 13
REMARK SMILES IDX 86 14 93 15 87 16 88 17 89 18 90 19 91 20 92 21 11 22 12 23
REMARK SMILES IDX 13 24 14 25 15 26 16 27 17 28 18 29 82 30 19 31 81 32 20 33
REMARK SMILES IDX 21 34 22 35 75 36 23 37 80 38 74 39 76 40 24 41 79 42 73 43
REMARK SMILES IDX 72 44 25 46 59 47 38 48 58 49 39 50 42 51 57 52 77 53 40 54
REMARK SMILES IDX 41 55 56 57 78 58 43 59 26 60 27 61 36 62 28 63 29 64 35 65
REMARK SMILES IDX 37 66 30 67 31 68 32 69 33 70 34 71 60 72 61 73 70 74 62 75
REMARK SMILES IDX 63 76 69 77 71 78 64 79 65 80 66 81 67 82 68 83 44 84 45 85
REMARK SMILES IDX 54 86 46 87 47 88 53 89 55 90 48 91 49 92 50 93 51 94 52 95
REMARK H PARENT 76 45 42 56
REMARK Flexibility Score: inf
ROOT
ATOM      1  C   UNL     1      -6.484  -0.124   2.587  1.00  0.00     0.202 C 
ENDROOT
BRANCH   1   2
ATOM      2  C   UNL     1      -5.830   1.250   2.428  1.00  0.00     0.261 C 
BRANCH   2   3
ATOM      3  O   UNL     1      -4.384   1.161   2.453  1.00  0.00    -0.462 OA
BRANCH   3   4
ATOM      4  C   UNL     1      -3.752   2.304   2.833  1.00  0.00     0.325 C 
ATOM      5  O   UNL     1      -4.335   3.332   3.168  1.00  0.00    -0.250 OA
BRANCH   4   6
ATOM      6  C   UNL     1      -2.224   2.256   2.720  1.00  0.00     0.244 C 
BRANCH   6   7
ATOM      7  N   UNL     1      -1.541   0.973   2.541  1.00  0.00    -0.310 N 
BRANCH   7   8
ATOM      8  C   UNL     1      -1.323   0.583   1.143  1.00  0.00     0.149 C 
BRANCH   8   9
ATOM      9  C   UNL     1       0.067   0.985   0.718  1.00  0.00    -0.013 C 
ATOM     10  C   UNL     1       0.910   0.172   0.064  1.00  0.00     0.006 C 
ENDBRANCH   8   9
ENDBRANCH   7   8
BRANCH   7  11
ATOM     11  C   UNL     1      -0.954   0.171   3.496  1.00  0.00     0.320 C 
ATOM     12  O   UNL     1      -0.210  -0.754   3.144  1.00  0.00    -0.248 OA
BRANCH  11  13
ATOM     13  N   UNL     1      -1.169   0.342   4.844  1.00  0.00    -0.324 N 
ATOM     14  C   UNL     1      -2.143   1.094   5.614  1.00  0.00     0.122 C 
ATOM     15  C   UNL     1      -0.430  -0.550   5.744  1.00  0.00     0.136 C 
ATOM     16  C   UNL     1      -1.658   1.022   7.053  1.00  0.00     0.039 C 
ATOM     17  C   UNL     1      -1.003  -0.354   7.144  1.00  0.00     0.120 C 
BRANCH  17  18
ATOM     18  C   UNL     1      -1.998  -1.397   7.624  1.00  0.00     0.310 C 
ATOM     19  O   UNL     1      -2.664  -1.249   8.644  1.00  0.00    -0.252 OA
BRANCH  18  20
ATOM     20  O   UNL     1      -2.038  -2.502   6.842  1.00  0.00    -0.469 OA
ATOM     21  C   UNL     1      -2.956  -3.513   7.275  1.00  0.00     0.282 C 
ENDBRANCH  18  20
ENDBRANCH  17  18
ENDBRANCH  11  13
ENDBRANCH   7  11
ENDBRANCH   6   7
ENDBRANCH   4   6
ENDBRANCH   3   4
ENDBRANCH   2   3
ENDBRANCH   1   2
BRANCH   1  22
ATOM     22  O   UNL     1      -6.475  -0.693   3.897  1.00  0.00    -0.374 OA
BRANCH  22  23
ATOM     23  C   UNL     1      -5.241  -0.721   4.598  1.00  0.00     0.202 C 
BRANCH  23  24
ATOM     24  C   UNL     1      -4.090  -1.558   4.018  1.00  0.00     0.261 C 
BRANCH  24  25
ATOM     25  O   UNL     1      -4.401  -2.261   2.830  1.00  0.00    -0.460 OA
BRANCH  25  26
ATOM     26  C   UNL     1      -5.185  -3.347   3.008  1.00  0.00     0.338 C 
ATOM     27  O   UNL     1      -5.521  -3.871   4.046  1.00  0.00    -0.246 OA
BRANCH  26  28
ATOM     28  C   UNL     1      -5.712  -3.625   1.666  1.00  0.00     0.060 A 
ATOM     29  C   UNL     1      -7.094  -3.538   1.474  1.00  0.00     0.016 A 
ATOM     30  C   UNL     1      -4.834  -3.833   0.597  1.00  0.00     0.016 A 
ATOM     31  C   UNL     1      -7.611  -3.698   0.195  1.00  0.00     0.010 A 
ATOM     32  C   UNL     1      -5.353  -3.991  -0.681  1.00  0.00     0.010 A 
ATOM     33  C   UNL     1      -6.743  -3.956  -0.875  1.00  0.00    -0.014 A 
BRANCH  33  34
ATOM     34  C   UNL     1      -7.291  -4.403  -2.167  1.00  0.00     0.031 A 
ATOM     35  C   UNL     1      -7.326  -5.881  -2.423  1.00  0.00     0.074 A 
ATOM     36  C   UNL     1      -7.726  -3.513  -3.073  1.00  0.00     0.049 A 
ATOM     37  N   UNL     1      -7.705  -6.528  -3.490  1.00  0.00    -0.248 NA
ATOM     38  C   UNL     1      -6.856  -6.746  -1.326  1.00  0.00     0.031 C 
ATOM     39  C   UNL     1      -7.751  -2.062  -2.888  1.00  0.00     0.029 A 
ATOM     40  N   UNL     1      -8.224  -3.700  -4.334  1.00  0.00    -0.354 N 
ATOM     41  C   UNL     1      -7.510  -7.873  -3.197  1.00  0.00     0.074 A 
ATOM     42  C   UNL     1      -6.946  -7.948  -1.870  1.00  0.00     0.031 C 
ATOM     43  C   UNL     1      -8.242  -1.489  -4.000  1.00  0.00     0.029 A 
ATOM     44  C   UNL     1      -8.533  -2.530  -4.984  1.00  0.00     0.049 A 
ATOM     45  H   UNL     1      -8.350  -4.590  -4.737  1.00  0.00     0.167 HD
ATOM     46  C   UNL     1      -7.788  -8.946  -3.971  1.00  0.00     0.037 A 
ATOM     47  C   UNL     1      -8.984  -2.336  -6.238  1.00  0.00     0.037 A 
ATOM     48  C   UNL     1      -8.343  -8.836  -5.292  1.00  0.00     0.049 A 
ATOM     49  C   UNL     1      -9.226  -3.543  -7.107  1.00  0.00     0.074 A 
ATOM     50  C   UNL     1      -8.687  -9.846  -6.169  1.00  0.00     0.029 A 
ATOM     51  N   UNL     1      -8.622  -7.633  -5.928  1.00  0.00    -0.354 N 
ATOM     52  N   UNL     1      -9.074  -4.814  -6.811  1.00  0.00    -0.248 NA
ATOM     53  C   UNL     1      -9.695  -3.297  -8.476  1.00  0.00     0.031 C 
ATOM     54  C   UNL     1      -9.124  -9.252  -7.358  1.00  0.00     0.029 A 
ATOM     55  C   UNL     1      -9.108  -7.873  -7.200  1.00  0.00     0.049 A 
ATOM     56  H   UNL     1      -8.492  -6.741  -5.532  1.00  0.00     0.167 HD
ATOM     57  C   UNL     1      -9.465  -5.520  -7.943  1.00  0.00     0.074 A 
ATOM     58  C   UNL     1      -9.856  -4.534  -8.931  1.00  0.00     0.031 C 
ATOM     59  C   UNL     1      -9.506  -6.861  -8.148  1.00  0.00     0.037 A 
BRANCH  46  60
ATOM     60  C   UNL     1      -7.455 -10.303  -3.417  1.00  0.00     0.058 A 
ATOM     61  C   UNL     1      -8.157 -10.857  -2.333  1.00  0.00     0.135 A 
ATOM     62  C   UNL     1      -6.404 -11.055  -3.966  1.00  0.00     0.135 A 
ATOM     63  F   UNL     1      -9.156 -10.172  -1.753  1.00  0.00    -0.206 F 
ATOM     64  C   UNL     1      -7.803 -12.087  -1.788  1.00  0.00     0.059 A 
ATOM     65  C   UNL     1      -6.053 -12.302  -3.457  1.00  0.00     0.059 A 
ATOM     66  F   UNL     1      -5.694 -10.572  -4.998  1.00  0.00    -0.206 F 
ATOM     67  C   UNL     1      -6.745 -12.800  -2.355  1.00  0.00     0.060 A 
BRANCH  67  68
ATOM     68  S   UNL     1      -6.285 -14.386  -1.626  1.00  0.00     0.124 S 
ATOM     69  O   UNL     1      -5.641 -13.961  -0.387  1.00  0.00    -0.237 OA
ATOM     70  O   UNL     1      -7.577 -15.047  -1.474  1.00  0.00    -0.237 OA
ATOM     71  O   UNL     1      -5.397 -14.974  -2.624  1.00  0.00    -0.744 OA
ENDBRANCH  67  68
ENDBRANCH  46  60
BRANCH  47  72
ATOM     72  C   UNL     1      -9.250  -0.958  -6.731  1.00  0.00     0.058 A 
ATOM     73  C   UNL     1     -10.561  -0.519  -6.970  1.00  0.00     0.135 A 
ATOM     74  C   UNL     1      -8.208  -0.043  -6.950  1.00  0.00     0.135 A 
ATOM     75  F   UNL     1     -11.592  -1.356  -6.783  1.00  0.00    -0.206 F 
ATOM     76  C   UNL     1     -10.830   0.773  -7.413  1.00  0.00     0.059 A 
ATOM     77  C   UNL     1      -8.452   1.261  -7.370  1.00  0.00     0.059 A 
ATOM     78  F   UNL     1      -6.935  -0.407  -6.725  1.00  0.00    -0.206 F 
ATOM     79  C   UNL     1      -9.768   1.658  -7.606  1.00  0.00     0.060 A 
BRANCH  79  80
ATOM     80  S   UNL     1     -10.134   3.349  -8.126  1.00  0.00     0.124 S 
ATOM     81  O   UNL     1     -10.555   3.148  -9.507  1.00  0.00    -0.237 OA
ATOM     82  O   UNL     1     -11.184   3.735  -7.188  1.00  0.00    -0.237 OA
ATOM     83  O   UNL     1      -8.860   4.039  -7.947  1.00  0.00    -0.744 OA
ENDBRANCH  79  80
ENDBRANCH  47  72
BRANCH  59  84
ATOM     84  C   UNL     1     -10.034  -7.346  -9.468  1.00  0.00     0.058 A 
ATOM     85  C   UNL     1      -9.270  -7.271 -10.641  1.00  0.00     0.135 A 
ATOM     86  C   UNL     1     -11.279  -7.993  -9.530  1.00  0.00     0.135 A 
ATOM     87  F   UNL     1      -8.077  -6.655 -10.633  1.00  0.00    -0.206 F 
ATOM     88  C   UNL     1      -9.723  -7.822 -11.834  1.00  0.00     0.059 A 
ATOM     89  C   UNL     1     -11.739  -8.575 -10.705  1.00  0.00     0.059 A 
ATOM     90  F   UNL     1     -12.042  -8.099  -8.430  1.00  0.00    -0.206 F 
ATOM     91  C   UNL     1     -10.954  -8.482 -11.853  1.00  0.00     0.060 A 
BRANCH  91  92
ATOM     92  S   UNL     1     -11.492  -9.262 -13.389  1.00  0.00     0.124 S 
ATOM     93  O   UNL     1     -11.852  -8.102 -14.197  1.00  0.00    -0.237 OA
ATOM     94  O   UNL     1     -10.293  -9.981 -13.809  1.00  0.00    -0.237 OA
ATOM     95  O   UNL     1     -12.607 -10.106 -12.969  1.00  0.00    -0.744 OA
ENDBRANCH  91  92
ENDBRANCH  59  84
ENDBRANCH  33  34
ENDBRANCH  26  28
ENDBRANCH  25  26
ENDBRANCH  24  25
ENDBRANCH  23  24
ENDBRANCH  22  23
ENDBRANCH   1  22
TORSDOF 24
