REMARK SMILES O=C(Cc1c(C(=O)c2cc3c(cn2)CCCC3)[nH]c2cc(Cl)ccc12)OCCOCCOC(=O)c1ccc(-c2c3nc(c(-c4c(F)cc(S(=O)(=O)[O-])cc4F)c4ccc([nH]4)c(-c4c(F)cc(S(=O)(=O)[O-])cc4F)c4nc(c(-c5c(F)cc(S(=O)(=O)[O-])cc5F)c5ccc2[nH]5)C=C4)C=C3)cc1
REMARK SMILES IDX 29 1 28 2 27 3 26 4 2 5 1 6 3 7 4 8 5 9 25 10 18 11 19 12
REMARK SMILES IDX 24 13 20 15 23 16 21 17 22 18 6 19 7 20 8 21 9 22 13 23
REMARK SMILES IDX 10 24 12 25 11 26 17 27 14 28 16 29 15 30 30 31 31 32 32 33
REMARK SMILES IDX 33 34 34 35 35 36 36 37 100 38 37 39 99 40 38 41 39 42 40 43
REMARK SMILES IDX 93 44 41 45 98 46 92 47 94 48 42 49 97 50 91 51 90 52 43 54
REMARK SMILES IDX 77 55 56 56 76 57 57 58 60 59 75 60 95 61 58 62 59 63 74 65
REMARK SMILES IDX 96 66 61 67 44 68 45 69 54 70 46 71 47 72 53 73 55 74 48 75
REMARK SMILES IDX 49 76 50 77 51 78 52 79 78 80 79 81 88 82 80 83 81 84 87 85
REMARK SMILES IDX 89 86 82 87 83 88 84 89 85 90 86 91 62 92 63 93 72 94 64 95
REMARK SMILES IDX 65 96 71 97 73 98 66 99 67 100 68 101 69 102 70 103
REMARK H PARENT 18 14 94 53 60 64
REMARK Flexibility Score: inf
ROOT
ATOM      1  O   UNL     1       4.189   1.014  -2.164  1.00  0.00    -0.374 OA
ENDROOT
BRANCH   1   2
ATOM      2  C   UNL     1       5.000   0.040  -1.529  1.00  0.00     0.202 C 
BRANCH   2   3
ATOM      3  C   UNL     1       4.534  -0.515  -0.187  1.00  0.00     0.261 C 
BRANCH   3   4
ATOM      4  O   UNL     1       3.140  -0.842  -0.077  1.00  0.00    -0.463 OA
BRANCH   4   5
ATOM      5  C   UNL     1       2.240  -0.095   0.618  1.00  0.00     0.310 C 
ATOM      6  O   UNL     1       1.161  -0.587   0.948  1.00  0.00    -0.252 OA
BRANCH   5   7
ATOM      7  C   UNL     1       2.539   1.361   0.865  1.00  0.00     0.161 C 
BRANCH   7   8
ATOM      8  C   UNL     1       3.516   1.705   1.955  1.00  0.00     0.000 A 
ATOM      9  C   UNL     1       4.045   2.988   2.135  1.00  0.00     0.093 A 
ATOM     10  C   UNL     1       4.178   0.828   2.882  1.00  0.00     0.004 A 
ATOM     11  N   UNL     1       4.965   2.891   3.155  1.00  0.00    -0.351 N 
ATOM     12  C   UNL     1       5.179   1.577   3.496  1.00  0.00     0.048 A 
ATOM     13  C   UNL     1       4.119  -0.558   3.160  1.00  0.00     0.012 A 
ATOM     14  H   UNL     1       5.410   3.658   3.581  1.00  0.00     0.167 HD
ATOM     15  C   UNL     1       6.181   1.002   4.287  1.00  0.00     0.047 A 
ATOM     16  C   UNL     1       5.131  -1.157   3.918  1.00  0.00     0.021 A 
ATOM     17  C   UNL     1       6.159  -0.386   4.447  1.00  0.00     0.043 A 
ATOM     18  Cl  UNL     1       7.449  -1.153   5.292  1.00  0.00    -0.084 Cl
BRANCH   9  19
ATOM     19  C   UNL     1       3.708   4.200   1.384  1.00  0.00     0.227 C 
ATOM     20  O   UNL     1       2.960   4.205   0.408  1.00  0.00    -0.285 OA
BRANCH  19  21
ATOM     21  C   UNL     1       4.278   5.506   1.807  1.00  0.00     0.113 A 
ATOM     22  C   UNL     1       5.652   5.720   1.795  1.00  0.00     0.036 A 
ATOM     23  N   UNL     1       3.371   6.436   2.195  1.00  0.00    -0.252 NA
ATOM     24  C   UNL     1       6.134   6.954   2.244  1.00  0.00    -0.041 A 
ATOM     25  C   UNL     1       3.857   7.623   2.599  1.00  0.00     0.115 A 
ATOM     26  C   UNL     1       5.214   7.925   2.672  1.00  0.00    -0.026 A 
ATOM     27  C   UNL     1       7.621   7.191   2.324  1.00  0.00     0.036 C 
ATOM     28  C   UNL     1       5.649   9.284   3.146  1.00  0.00     0.037 C 
ATOM     29  C   UNL     1       7.990   8.663   2.512  1.00  0.00     0.005 C 
ATOM     30  C   UNL     1       7.113   9.309   3.578  1.00  0.00     0.005 C 
ENDBRANCH  19  21
ENDBRANCH   9  19
ENDBRANCH   7   8
ENDBRANCH   5   7
ENDBRANCH   4   5
ENDBRANCH   3   4
ENDBRANCH   2   3
ENDBRANCH   1   2
BRANCH   1  31
ATOM     31  C   UNL     1       2.932   0.603  -2.705  1.00  0.00     0.202 C 
BRANCH  31  32
ATOM     32  C   UNL     1       2.927  -0.500  -3.768  1.00  0.00     0.261 C 
BRANCH  32  33
ATOM     33  O   UNL     1       3.241  -1.791  -3.218  1.00  0.00    -0.460 OA
BRANCH  33  34
ATOM     34  C   UNL     1       4.381  -2.364  -3.670  1.00  0.00     0.338 C 
ATOM     35  O   UNL     1       5.172  -1.905  -4.482  1.00  0.00    -0.246 OA
BRANCH  34  36
ATOM     36  C   UNL     1       4.649  -3.576  -2.881  1.00  0.00     0.060 A 
ATOM     37  C   UNL     1       3.738  -4.630  -2.904  1.00  0.00     0.016 A 
ATOM     38  C   UNL     1       5.859  -3.686  -2.180  1.00  0.00     0.016 A 
ATOM     39  C   UNL     1       4.061  -5.819  -2.254  1.00  0.00     0.010 A 
ATOM     40  C   UNL     1       6.180  -4.879  -1.530  1.00  0.00     0.010 A 
ATOM     41  C   UNL     1       5.297  -5.964  -1.594  1.00  0.00    -0.014 A 
BRANCH  41  42
ATOM     42  C   UNL     1       5.713  -7.318  -1.156  1.00  0.00     0.031 A 
ATOM     43  C   UNL     1       5.684  -7.728   0.282  1.00  0.00     0.074 A 
ATOM     44  C   UNL     1       6.073  -8.194  -2.115  1.00  0.00     0.049 A 
ATOM     45  N   UNL     1       5.840  -8.923   0.790  1.00  0.00    -0.248 NA
ATOM     46  C   UNL     1       5.461  -6.672   1.280  1.00  0.00     0.031 C 
ATOM     47  C   UNL     1       6.182  -7.874  -3.541  1.00  0.00     0.029 A 
ATOM     48  N   UNL     1       6.379  -9.529  -2.051  1.00  0.00    -0.354 N 
ATOM     49  C   UNL     1       5.700  -8.774   2.163  1.00  0.00     0.074 A 
ATOM     50  C   UNL     1       5.505  -7.361   2.415  1.00  0.00     0.031 C 
ATOM     51  C   UNL     1       6.472  -8.992  -4.222  1.00  0.00     0.029 A 
ATOM     52  C   UNL     1       6.597 -10.101  -3.283  1.00  0.00     0.049 A 
ATOM     53  H   UNL     1       6.437 -10.030  -1.205  1.00  0.00     0.167 HD
ATOM     54  C   UNL     1       5.709  -9.739   3.114  1.00  0.00     0.037 A 
ATOM     55  C   UNL     1       6.850 -11.380  -3.621  1.00  0.00     0.037 A 
ATOM     56  C   UNL     1       5.916 -11.140   2.840  1.00  0.00     0.049 A 
ATOM     57  C   UNL     1       6.884 -12.423  -2.539  1.00  0.00     0.074 A 
ATOM     58  C   UNL     1       5.906 -12.198   3.732  1.00  0.00     0.029 A 
ATOM     59  N   UNL     1       6.180 -11.677   1.588  1.00  0.00    -0.354 N 
ATOM     60  N   UNL     1       6.658 -12.281  -1.254  1.00  0.00    -0.248 NA
ATOM     61  C   UNL     1       7.200 -13.798  -2.946  1.00  0.00     0.031 C 
ATOM     62  C   UNL     1       6.220 -13.366   3.030  1.00  0.00     0.029 A 
ATOM     63  C   UNL     1       6.366 -13.047   1.690  1.00  0.00     0.049 A 
ATOM     64  H   UNL     1       6.229 -11.162   0.750  1.00  0.00     0.167 HD
ATOM     65  C   UNL     1       6.783 -13.551  -0.704  1.00  0.00     0.074 A 
ATOM     66  C   UNL     1       7.087 -14.451  -1.797  1.00  0.00     0.031 C 
ATOM     67  C   UNL     1       6.660 -13.934   0.590  1.00  0.00     0.037 A 
BRANCH  54  68
ATOM     68  C   UNL     1       5.468  -9.336   4.543  1.00  0.00     0.058 A 
ATOM     69  C   UNL     1       4.193  -8.947   4.983  1.00  0.00     0.135 A 
ATOM     70  C   UNL     1       6.484  -9.455   5.506  1.00  0.00     0.135 A 
ATOM     71  F   UNL     1       3.187  -8.808   4.105  1.00  0.00    -0.206 F 
ATOM     72  C   UNL     1       3.934  -8.688   6.326  1.00  0.00     0.059 A 
ATOM     73  C   UNL     1       6.241  -9.225   6.858  1.00  0.00     0.059 A 
ATOM     74  F   UNL     1       7.721  -9.825   5.140  1.00  0.00    -0.206 F 
ATOM     75  C   UNL     1       4.962  -8.840   7.257  1.00  0.00     0.060 A 
BRANCH  75  76
ATOM     76  S   UNL     1       4.591  -8.546   9.000  1.00  0.00     0.124 S 
ATOM     77  O   UNL     1       4.332  -7.109   9.005  1.00  0.00    -0.237 OA
ATOM     78  O   UNL     1       3.428  -9.400   9.216  1.00  0.00    -0.237 OA
ATOM     79  O   UNL     1       5.811  -8.963   9.685  1.00  0.00    -0.744 OA
ENDBRANCH  75  76
ENDBRANCH  54  68
BRANCH  55  80
ATOM     80  C   UNL     1       7.061 -11.742  -5.048  1.00  0.00     0.058 A 
ATOM     81  C   UNL     1       6.138 -12.540  -5.740  1.00  0.00     0.135 A 
ATOM     82  C   UNL     1       8.184 -11.282  -5.755  1.00  0.00     0.135 A 
ATOM     83  F   UNL     1       5.048 -13.004  -5.111  1.00  0.00    -0.206 F 
ATOM     84  C   UNL     1       6.332 -12.889  -7.073  1.00  0.00     0.059 A 
ATOM     85  C   UNL     1       8.384 -11.592  -7.096  1.00  0.00     0.059 A 
ATOM     86  F   UNL     1       9.088 -10.498  -5.146  1.00  0.00    -0.206 F 
ATOM     87  C   UNL     1       7.459 -12.409  -7.742  1.00  0.00     0.060 A 
BRANCH  87  88
ATOM     88  S   UNL     1       7.689 -12.852  -9.477  1.00  0.00     0.124 S 
ATOM     89  O   UNL     1       7.979 -14.278  -9.380  1.00  0.00    -0.237 OA
ATOM     90  O   UNL     1       6.395 -12.501 -10.055  1.00  0.00    -0.237 OA
ATOM     91  O   UNL     1       8.804 -12.008  -9.896  1.00  0.00    -0.744 OA
ENDBRANCH  87  88
ENDBRANCH  55  80
BRANCH  67  92
ATOM     92  C   UNL     1       6.840 -15.392   0.910  1.00  0.00     0.058 A 
ATOM     93  C   UNL     1       8.106 -15.996   0.891  1.00  0.00     0.135 A 
ATOM     94  C   UNL     1       5.750 -16.167   1.341  1.00  0.00     0.135 A 
ATOM     95  F   UNL     1       9.180 -15.304   0.478  1.00  0.00    -0.206 F 
ATOM     96  C   UNL     1       8.286 -17.318   1.285  1.00  0.00     0.059 A 
ATOM     97  C   UNL     1       5.911 -17.481   1.768  1.00  0.00     0.059 A 
ATOM     98  F   UNL     1       4.518 -15.635   1.384  1.00  0.00    -0.206 F 
ATOM     99  C   UNL     1       7.184 -18.048   1.735  1.00  0.00     0.060 A 
BRANCH  99 100
ATOM    100  S   UNL     1       7.450 -19.737   2.315  1.00  0.00     0.124 S 
ATOM    101  O   UNL     1       7.790 -20.426   1.074  1.00  0.00    -0.237 OA
ATOM    102  O   UNL     1       8.545 -19.568   3.265  1.00  0.00    -0.237 OA
ATOM    103  O   UNL     1       6.166 -20.104   2.904  1.00  0.00    -0.744 OA
ENDBRANCH  99 100
ENDBRANCH  67  92
ENDBRANCH  41  42
ENDBRANCH  34  36
ENDBRANCH  33  34
ENDBRANCH  32  33
ENDBRANCH  31  32
ENDBRANCH   1  31
TORSDOF 20
