REMARK SMILES COCCCOc1cccc(F)c1C(=O)OCCOCCOC(=O)c1ccc(-c2c3nc(c(-c4c(F)cc(S(=O)(=O)[O-])cc4F)c4ccc([nH]4)c(-c4c(F)cc(S(=O)(=O)[O-])cc4F)c4nc(c(-c5c(F)cc(S(=O)(=O)[O-])cc5F)c5ccc2[nH]5)C=C4)C=C3)cc1
REMARK SMILES IDX 18 1 17 2 16 3 14 4 15 5 13 6 7 7 8 8 9 9 11 10 10 11 12 12
REMARK SMILES IDX 6 13 5 14 4 15 3 16 2 17 1 18 19 19 20 20 21 21 22 22 23 23
REMARK SMILES IDX 24 24 25 25 26 26 90 27 27 28 89 29 28 30 29 31 30 32 83 33
REMARK SMILES IDX 31 34 88 35 82 36 84 37 32 38 87 39 81 40 80 41 33 43 67 44
REMARK SMILES IDX 46 45 66 46 47 47 50 48 65 49 85 50 48 51 49 52 64 54 86 55
REMARK SMILES IDX 51 56 34 57 35 58 44 59 36 60 37 61 43 62 45 63 38 64 39 65
REMARK SMILES IDX 40 66 41 67 42 68 68 69 69 70 78 71 70 72 71 73 77 74 79 75
REMARK SMILES IDX 72 76 73 77 74 78 75 79 76 80 52 81 53 82 62 83 54 84 55 85
REMARK SMILES IDX 61 86 63 87 56 88 57 89 58 90 59 91 60 92
REMARK H PARENT 84 42 50 53
REMARK Flexibility Score: inf
ROOT
ATOM      1  C   UNL     1       5.942   0.410  -4.325  1.00  0.00     0.202 C 
ENDROOT
BRANCH   1   2
ATOM      2  C   UNL     1       5.154   1.361  -3.417  1.00  0.00     0.261 C 
BRANCH   2   3
ATOM      3  O   UNL     1       5.054   0.834  -2.084  1.00  0.00    -0.459 OA
BRANCH   3   4
ATOM      4  C   UNL     1       3.799   0.626  -1.615  1.00  0.00     0.345 C 
ATOM      5  O   UNL     1       2.749   0.955  -2.140  1.00  0.00    -0.246 OA
BRANCH   4   6
ATOM      6  C   UNL     1       3.885  -0.195  -0.399  1.00  0.00     0.137 A 
ATOM      7  C   UNL     1       3.306  -1.469  -0.311  1.00  0.00     0.136 A 
ATOM      8  C   UNL     1       3.504  -2.243   0.839  1.00  0.00     0.047 A 
ATOM      9  C   UNL     1       4.200  -1.725   1.929  1.00  0.00     0.007 A 
ATOM     10  C   UNL     1       4.602   0.304   0.689  1.00  0.00     0.141 A 
ATOM     11  C   UNL     1       4.751  -0.448   1.853  1.00  0.00     0.040 A 
ATOM     12  F   UNL     1       5.163   1.520   0.641  1.00  0.00    -0.206 F 
BRANCH   7  13
ATOM     13  O   UNL     1       2.696  -2.112  -1.353  1.00  0.00    -0.492 OA
BRANCH  13  14
ATOM     14  C   UNL     1       1.309  -1.796  -1.544  1.00  0.00     0.232 C 
BRANCH  14  15
ATOM     15  C   UNL     1       0.365  -2.448  -0.530  1.00  0.00     0.070 C 
BRANCH  15  16
ATOM     16  C   UNL     1       0.129  -1.680   0.773  1.00  0.00     0.163 C 
BRANCH  16  17
ATOM     17  O   UNL     1      -0.602  -0.470   0.593  1.00  0.00    -0.385 OA
ATOM     18  C   UNL     1       0.203   0.678   0.351  1.00  0.00     0.194 C 
ENDBRANCH  16  17
ENDBRANCH  15  16
ENDBRANCH  14  15
ENDBRANCH  13  14
ENDBRANCH   7  13
ENDBRANCH   4   6
ENDBRANCH   3   4
ENDBRANCH   2   3
ENDBRANCH   1   2
BRANCH   1  19
ATOM     19  O   UNL     1       5.368  -0.869  -4.601  1.00  0.00    -0.374 OA
BRANCH  19  20
ATOM     20  C   UNL     1       5.304  -1.812  -3.534  1.00  0.00     0.202 C 
BRANCH  20  21
ATOM     21  C   UNL     1       6.590  -2.539  -3.119  1.00  0.00     0.261 C 
BRANCH  21  22
ATOM     22  O   UNL     1       7.675  -1.662  -2.785  1.00  0.00    -0.460 OA
BRANCH  22  23
ATOM     23  C   UNL     1       8.613  -1.550  -3.758  1.00  0.00     0.338 C 
ATOM     24  O   UNL     1       8.635  -2.129  -4.831  1.00  0.00    -0.246 OA
BRANCH  23  25
ATOM     25  C   UNL     1       9.570  -0.483  -3.416  1.00  0.00     0.060 A 
ATOM     26  C   UNL     1       9.737   0.560  -4.335  1.00  0.00     0.016 A 
ATOM     27  C   UNL     1      10.354  -0.548  -2.263  1.00  0.00     0.016 A 
ATOM     28  C   UNL     1      10.723   1.521  -4.127  1.00  0.00     0.010 A 
ATOM     29  C   UNL     1      11.349   0.414  -2.060  1.00  0.00     0.010 A 
ATOM     30  C   UNL     1      11.560   1.433  -3.006  1.00  0.00    -0.014 A 
BRANCH  30  31
ATOM     31  C   UNL     1      12.738   2.328  -2.894  1.00  0.00     0.031 A 
ATOM     32  C   UNL     1      14.103   1.784  -3.220  1.00  0.00     0.074 A 
ATOM     33  C   UNL     1      12.586   3.618  -2.544  1.00  0.00     0.049 A 
ATOM     34  N   UNL     1      15.268   2.372  -3.140  1.00  0.00    -0.248 NA
ATOM     35  C   UNL     1      14.163   0.394  -3.700  1.00  0.00     0.031 C 
ATOM     36  C   UNL     1      11.308   4.270  -2.261  1.00  0.00     0.029 A 
ATOM     37  N   UNL     1      13.516   4.612  -2.368  1.00  0.00    -0.354 N 
ATOM     38  C   UNL     1      16.198   1.428  -3.561  1.00  0.00     0.074 A 
ATOM     39  C   UNL     1      15.467   0.215  -3.856  1.00  0.00     0.031 C 
ATOM     40  C   UNL     1      11.534   5.558  -1.952  1.00  0.00     0.029 A 
ATOM     41  C   UNL     1      12.974   5.811  -1.973  1.00  0.00     0.049 A 
ATOM     42  H   UNL     1      14.481   4.478  -2.511  1.00  0.00     0.167 HD
ATOM     43  C   UNL     1      17.537   1.568  -3.705  1.00  0.00     0.037 A 
ATOM     44  C   UNL     1      13.572   6.975  -1.648  1.00  0.00     0.037 A 
ATOM     45  C   UNL     1      18.256   2.780  -3.411  1.00  0.00     0.049 A 
ATOM     46  C   UNL     1      15.074   7.075  -1.719  1.00  0.00     0.074 A 
ATOM     47  C   UNL     1      19.615   3.019  -3.515  1.00  0.00     0.029 A 
ATOM     48  N   UNL     1      17.677   3.957  -2.958  1.00  0.00    -0.354 N 
ATOM     49  N   UNL     1      15.944   6.172  -2.108  1.00  0.00    -0.248 NA
ATOM     50  C   UNL     1      15.679   8.349  -1.306  1.00  0.00     0.031 C 
ATOM     51  C   UNL     1      19.865   4.323  -3.078  1.00  0.00     0.029 A 
ATOM     52  C   UNL     1      18.655   4.918  -2.758  1.00  0.00     0.049 A 
ATOM     53  H   UNL     1      16.715   4.090  -2.801  1.00  0.00     0.167 HD
ATOM     54  C   UNL     1      17.192   6.779  -2.015  1.00  0.00     0.074 A 
ATOM     55  C   UNL     1      16.965   8.128  -1.542  1.00  0.00     0.031 C 
ATOM     56  C   UNL     1      18.415   6.264  -2.298  1.00  0.00     0.037 A 
BRANCH  43  57
ATOM     57  C   UNL     1      18.322   0.384  -4.200  1.00  0.00     0.058 A 
ATOM     58  C   UNL     1      19.224  -0.281  -3.354  1.00  0.00     0.135 A 
ATOM     59  C   UNL     1      18.241  -0.045  -5.535  1.00  0.00     0.135 A 
ATOM     60  F   UNL     1      19.337   0.082  -2.066  1.00  0.00    -0.206 F 
ATOM     61  C   UNL     1      20.034  -1.312  -3.818  1.00  0.00     0.059 A 
ATOM     62  C   UNL     1      19.021  -1.093  -6.014  1.00  0.00     0.059 A 
ATOM     63  F   UNL     1      17.378   0.540  -6.381  1.00  0.00    -0.206 F 
ATOM     64  C   UNL     1      19.928  -1.709  -5.152  1.00  0.00     0.060 A 
BRANCH  64  65
ATOM     65  S   UNL     1      20.977  -3.058  -5.734  1.00  0.00     0.124 S 
ATOM     66  O   UNL     1      22.304  -2.455  -5.675  1.00  0.00    -0.237 OA
ATOM     67  O   UNL     1      20.707  -4.100  -4.748  1.00  0.00    -0.237 OA
ATOM     68  O   UNL     1      20.469  -3.329  -7.075  1.00  0.00    -0.744 OA
ENDBRANCH  64  65
ENDBRANCH  43  57
BRANCH  44  69
ATOM     69  C   UNL     1      12.749   8.143  -1.232  1.00  0.00     0.058 A 
ATOM     70  C   UNL     1      12.029   8.139  -0.026  1.00  0.00     0.135 A 
ATOM     71  C   UNL     1      12.657   9.285  -2.042  1.00  0.00     0.135 A 
ATOM     72  F   UNL     1      12.079   7.071   0.785  1.00  0.00    -0.206 F 
ATOM     73  C   UNL     1      11.229   9.212   0.348  1.00  0.00     0.059 A 
ATOM     74  C   UNL     1      11.885  10.384  -1.675  1.00  0.00     0.059 A 
ATOM     75  F   UNL     1      13.340   9.344  -3.195  1.00  0.00    -0.206 F 
ATOM     76  C   UNL     1      11.162  10.331  -0.484  1.00  0.00     0.060 A 
BRANCH  76  77
ATOM     77  S   UNL     1      10.113  11.711   0.021  1.00  0.00     0.124 S 
ATOM     78  O   UNL     1       8.782  11.124  -0.097  1.00  0.00    -0.237 OA
ATOM     79  O   UNL     1      10.578  11.965   1.380  1.00  0.00    -0.237 OA
ATOM     80  O   UNL     1      10.430  12.750  -0.954  1.00  0.00    -0.744 OA
ENDBRANCH  76  77
ENDBRANCH  44  69
BRANCH  56  81
ATOM     81  C   UNL     1      19.612   7.163  -2.140  1.00  0.00     0.058 A 
ATOM     82  C   UNL     1      20.336   7.586  -3.268  1.00  0.00     0.135 A 
ATOM     83  C   UNL     1      20.099   7.528  -0.876  1.00  0.00     0.135 A 
ATOM     84  F   UNL     1      19.920   7.260  -4.502  1.00  0.00    -0.206 F 
ATOM     85  C   UNL     1      21.511   8.319  -3.146  1.00  0.00     0.059 A 
ATOM     86  C   UNL     1      21.257   8.288  -0.731  1.00  0.00     0.059 A 
ATOM     87  F   UNL     1      19.440   7.158   0.234  1.00  0.00    -0.206 F 
ATOM     88  C   UNL     1      21.966   8.662  -1.872  1.00  0.00     0.060 A 
BRANCH  88  89
ATOM     89  S   UNL     1      23.494   9.614  -1.734  1.00  0.00     0.124 S 
ATOM     90  O   UNL     1      24.493   8.644  -2.168  1.00  0.00    -0.237 OA
ATOM     91  O   UNL     1      23.248  10.725  -2.649  1.00  0.00    -0.237 OA
ATOM     92  O   UNL     1      23.543   9.975  -0.320  1.00  0.00    -0.744 OA
ENDBRANCH  88  89
ENDBRANCH  56  81
ENDBRANCH  30  31
ENDBRANCH  23  25
ENDBRANCH  22  23
ENDBRANCH  21  22
ENDBRANCH  20  21
ENDBRANCH  19  20
ENDBRANCH   1  19
TORSDOF 22
