REMARK SMILES Cc1ccc(Nc2c(Cl)cc(Cl)cc2Cl)c(CC(=O)OCCOCCOC(=O)c2ccc(-c3c4nc(c(-c5c(F)cc(S(=O)(=O)[O-])cc5F)c5ccc([nH]5)c(-c5c(F)cc(S(=O)(=O)[O-])cc5F)c5nc(c(-c6c(F)cc(S(=O)(=O)[O-])cc6F)c6ccc3[nH]6)C=C5)C=C4)cc2)c1
REMARK SMILES IDX 23 1 22 2 21 3 20 4 18 5 19 6 17 7 16 8 1 9 2 10 3 11 95 12
REMARK SMILES IDX 4 13 5 14 6 15 7 17 8 18 14 19 9 20 10 21 13 22 15 23 11 24
REMARK SMILES IDX 12 25 24 26 25 27 26 28 27 29 28 30 29 31 30 32 94 33 31 34
REMARK SMILES IDX 93 35 32 36 33 37 34 38 87 39 35 40 92 41 86 42 88 43 36 44
REMARK SMILES IDX 91 45 85 46 84 47 37 49 71 50 50 51 70 52 51 53 54 54 69 55
REMARK SMILES IDX 89 56 52 57 53 58 68 60 90 61 55 62 38 63 39 64 48 65 40 66
REMARK SMILES IDX 41 67 47 68 49 69 42 70 43 71 44 72 45 73 46 74 72 75 73 76
REMARK SMILES IDX 82 77 74 78 75 79 81 80 83 81 76 82 77 83 78 84 79 85 80 86
REMARK SMILES IDX 56 87 57 88 66 89 58 90 59 91 65 92 67 93 60 94 61 95 62 96
REMARK SMILES IDX 63 97 64 98
REMARK H PARENT 6 16 88 48 54 59
REMARK Flexibility Score: inf
ROOT
ATOM      1  O   UNL     1      -3.072   0.818  -2.958  1.00  0.00    -0.374 OA
ENDROOT
BRANCH   1   2
ATOM      2  C   UNL     1      -1.694   0.962  -3.222  1.00  0.00     0.202 C 
BRANCH   2   3
ATOM      3  C   UNL     1      -1.213   2.132  -2.393  1.00  0.00     0.261 C 
BRANCH   3   4
ATOM      4  O   UNL     1      -1.180   1.855  -1.004  1.00  0.00    -0.463 OA
BRANCH   4   5
ATOM      5  C   UNL     1      -2.057   2.522  -0.186  1.00  0.00     0.310 C 
ATOM      6  O   UNL     1      -2.889   3.342  -0.510  1.00  0.00    -0.252 OA
BRANCH   5   7
ATOM      7  C   UNL     1      -1.828   2.107   1.262  1.00  0.00     0.160 C 
BRANCH   7   8
ATOM      8  C   UNL     1      -1.137   0.753   1.300  1.00  0.00    -0.013 A 
ATOM      9  C   UNL     1       2.373  -0.190   0.107  1.00  0.00     0.044 C 
ATOM     10  C   UNL     1       0.950  -0.308   0.565  1.00  0.00    -0.051 A 
ATOM     11  C   UNL     1       0.249  -1.499   0.411  1.00  0.00     0.005 A 
ATOM     12  C   UNL     1       0.267   0.794   1.072  1.00  0.00     0.009 A 
ATOM     13  C   UNL     1      -1.119  -1.566   0.709  1.00  0.00     0.026 A 
ATOM     14  C   UNL     1      -1.858  -0.449   1.143  1.00  0.00     0.042 A 
BRANCH  14  15
ATOM     15  N   UNL     1      -3.264  -0.523   1.363  1.00  0.00    -0.353 N 
ATOM     16  H   UNL     1      -3.712   0.336   1.540  1.00  0.00     0.167 HD
BRANCH  15  17
ATOM     17  C   UNL     1      -4.110  -1.669   1.362  1.00  0.00     0.076 A 
ATOM     18  C   UNL     1      -3.747  -2.884   1.972  1.00  0.00     0.067 A 
ATOM     19  C   UNL     1      -5.284  -1.692   0.577  1.00  0.00     0.067 A 
ATOM     20  Cl  UNL     1      -2.607  -2.941   3.279  1.00  0.00    -0.082 Cl
ATOM     21  C   UNL     1      -4.357  -4.088   1.614  1.00  0.00     0.043 A 
ATOM     22  C   UNL     1      -5.869  -2.896   0.170  1.00  0.00     0.043 A 
ATOM     23  Cl  UNL     1      -6.122  -0.232   0.179  1.00  0.00    -0.082 Cl
ATOM     24  C   UNL     1      -5.369  -4.094   0.662  1.00  0.00     0.044 A 
ATOM     25  Cl  UNL     1      -6.047  -5.589   0.152  1.00  0.00    -0.084 Cl
ENDBRANCH  15  17
ENDBRANCH  14  15
ENDBRANCH   7   8
ENDBRANCH   5   7
ENDBRANCH   4   5
ENDBRANCH   3   4
ENDBRANCH   2   3
ENDBRANCH   1   2
BRANCH   1  26
ATOM     26  C   UNL     1      -3.412  -0.232  -2.088  1.00  0.00     0.202 C 
BRANCH  26  27
ATOM     27  C   UNL     1      -3.925  -1.402  -2.913  1.00  0.00     0.261 C 
BRANCH  27  28
ATOM     28  O   UNL     1      -5.277  -1.195  -3.395  1.00  0.00    -0.460 OA
BRANCH  28  29
ATOM     29  C   UNL     1      -5.410  -0.634  -4.637  1.00  0.00     0.338 C 
ATOM     30  O   UNL     1      -5.721  -1.272  -5.631  1.00  0.00    -0.246 OA
BRANCH  29  31
ATOM     31  C   UNL     1      -5.350   0.849  -4.595  1.00  0.00     0.060 A 
ATOM     32  C   UNL     1      -4.741   1.579  -5.629  1.00  0.00     0.016 A 
ATOM     33  C   UNL     1      -5.746   1.491  -3.424  1.00  0.00     0.016 A 
ATOM     34  C   UNL     1      -4.371   2.916  -5.422  1.00  0.00     0.010 A 
ATOM     35  C   UNL     1      -5.288   2.770  -3.187  1.00  0.00     0.010 A 
ATOM     36  C   UNL     1      -4.580   3.486  -4.170  1.00  0.00    -0.014 A 
BRANCH  36  37
ATOM     37  C   UNL     1      -4.119   4.798  -3.714  1.00  0.00     0.031 A 
ATOM     38  C   UNL     1      -5.143   5.760  -3.247  1.00  0.00     0.074 A 
ATOM     39  C   UNL     1      -2.816   5.035  -3.442  1.00  0.00     0.049 A 
ATOM     40  N   UNL     1      -4.866   6.904  -2.737  1.00  0.00    -0.248 NA
ATOM     41  C   UNL     1      -6.586   5.530  -3.345  1.00  0.00     0.031 C 
ATOM     42  C   UNL     1      -2.245   5.936  -2.437  1.00  0.00     0.029 A 
ATOM     43  N   UNL     1      -1.686   4.500  -4.015  1.00  0.00    -0.354 N 
ATOM     44  C   UNL     1      -5.998   7.385  -2.135  1.00  0.00     0.074 A 
ATOM     45  C   UNL     1      -7.066   6.561  -2.640  1.00  0.00     0.031 C 
ATOM     46  C   UNL     1      -0.919   6.059  -2.637  1.00  0.00     0.029 A 
ATOM     47  C   UNL     1      -0.601   5.358  -3.869  1.00  0.00     0.049 A 
ATOM     48  H   UNL     1      -1.649   3.626  -4.468  1.00  0.00     0.167 HD
ATOM     49  C   UNL     1      -5.841   8.356  -1.195  1.00  0.00     0.037 A 
ATOM     50  C   UNL     1      -0.029   5.893  -4.990  1.00  0.00     0.037 A 
ATOM     51  C   UNL     1      -4.479   8.913  -1.265  1.00  0.00     0.049 A 
ATOM     52  C   UNL     1      -0.419   7.360  -5.126  1.00  0.00     0.074 A 
ATOM     53  C   UNL     1      -3.335   8.849  -0.492  1.00  0.00     0.029 A 
ATOM     54  N   UNL     1      -4.076   9.446  -2.481  1.00  0.00    -0.354 N 
ATOM     55  N   UNL     1      -1.176   7.967  -4.250  1.00  0.00    -0.248 NA
ATOM     56  C   UNL     1      -0.032   8.262  -6.208  1.00  0.00     0.031 C 
ATOM     57  C   UNL     1      -2.229   9.265  -1.313  1.00  0.00     0.029 A 
ATOM     58  C   UNL     1      -2.710   9.621  -2.564  1.00  0.00     0.049 A 
ATOM     59  H   UNL     1      -4.699   9.675  -3.208  1.00  0.00     0.167 HD
ATOM     60  C   UNL     1      -1.399   9.256  -4.600  1.00  0.00     0.074 A 
ATOM     61  C   UNL     1      -0.684   9.392  -5.863  1.00  0.00     0.031 C 
ATOM     62  C   UNL     1      -2.144  10.103  -3.826  1.00  0.00     0.037 A 
BRANCH  49  63
ATOM     63  C   UNL     1      -6.864   8.747  -0.153  1.00  0.00     0.058 A 
ATOM     64  C   UNL     1      -6.627   9.867   0.671  1.00  0.00     0.135 A 
ATOM     65  C   UNL     1      -8.034   8.017   0.167  1.00  0.00     0.135 A 
ATOM     66  F   UNL     1      -5.546  10.641   0.492  1.00  0.00    -0.206 F 
ATOM     67  C   UNL     1      -7.470  10.229   1.726  1.00  0.00     0.059 A 
ATOM     68  C   UNL     1      -8.915   8.387   1.188  1.00  0.00     0.059 A 
ATOM     69  F   UNL     1      -8.354   6.874  -0.450  1.00  0.00    -0.206 F 
ATOM     70  C   UNL     1      -8.615   9.485   1.978  1.00  0.00     0.060 A 
BRANCH  70  71
ATOM     71  S   UNL     1      -9.677   9.949   3.357  1.00  0.00     0.124 S 
ATOM     72  O   UNL     1      -8.817   9.676   4.505  1.00  0.00    -0.237 OA
ATOM     73  O   UNL     1      -9.944  11.357   3.083  1.00  0.00    -0.237 OA
ATOM     74  O   UNL     1     -10.828   9.061   3.217  1.00  0.00    -0.744 OA
ENDBRANCH  70  71
ENDBRANCH  49  63
BRANCH  50  75
ATOM     75  C   UNL     1       0.110   4.826  -6.042  1.00  0.00     0.058 A 
ATOM     76  C   UNL     1       1.000   3.768  -5.728  1.00  0.00     0.135 A 
ATOM     77  C   UNL     1      -0.945   4.519  -6.919  1.00  0.00     0.135 A 
ATOM     78  F   UNL     1       2.014   3.982  -4.873  1.00  0.00    -0.206 F 
ATOM     79  C   UNL     1       0.759   2.448  -6.116  1.00  0.00     0.059 A 
ATOM     80  C   UNL     1      -1.199   3.197  -7.323  1.00  0.00     0.059 A 
ATOM     81  F   UNL     1      -1.853   5.456  -7.231  1.00  0.00    -0.206 F 
ATOM     82  C   UNL     1      -0.367   2.163  -6.882  1.00  0.00     0.060 A 
BRANCH  82  83
ATOM     83  S   UNL     1      -0.819   0.418  -7.138  1.00  0.00     0.124 S 
ATOM     84  O   UNL     1       0.066   0.040  -8.231  1.00  0.00    -0.237 OA
ATOM     85  O   UNL     1      -0.511  -0.185  -5.843  1.00  0.00    -0.237 OA
ATOM     86  O   UNL     1      -2.238   0.494  -7.462  1.00  0.00    -0.744 OA
ENDBRANCH  82  83
ENDBRANCH  50  75
BRANCH  62  87
ATOM     87  C   UNL     1      -2.409  11.505  -4.266  1.00  0.00     0.058 A 
ATOM     88  C   UNL     1      -1.381  12.337  -4.728  1.00  0.00     0.135 A 
ATOM     89  C   UNL     1      -3.700  12.070  -4.197  1.00  0.00     0.135 A 
ATOM     90  F   UNL     1      -0.105  11.916  -4.732  1.00  0.00    -0.206 F 
ATOM     91  C   UNL     1      -1.637  13.611  -5.217  1.00  0.00     0.059 A 
ATOM     92  C   UNL     1      -3.965  13.367  -4.604  1.00  0.00     0.059 A 
ATOM     93  F   UNL     1      -4.763  11.363  -3.787  1.00  0.00    -0.206 F 
ATOM     94  C   UNL     1      -2.936  14.110  -5.163  1.00  0.00     0.060 A 
BRANCH  94  95
ATOM     95  S   UNL     1      -3.284  15.732  -5.850  1.00  0.00     0.124 S 
ATOM     96  O   UNL     1      -2.099  16.496  -5.470  1.00  0.00    -0.237 OA
ATOM     97  O   UNL     1      -3.406  15.419  -7.270  1.00  0.00    -0.237 OA
ATOM     98  O   UNL     1      -4.519  16.126  -5.181  1.00  0.00    -0.744 OA
ENDBRANCH  94  95
ENDBRANCH  62  87
ENDBRANCH  36  37
ENDBRANCH  29  31
ENDBRANCH  28  29
ENDBRANCH  27  28
ENDBRANCH  26  27
ENDBRANCH   1  26
TORSDOF 20
