REMARK SMILES Cc1ccc(-c2csc(NC(=O)[C@H]3[C@@H](C(=O)OCCOCCOC(=O)c4ccc(-c5c6nc(c(-c7c(F)cc(S(=O)(=O)[O-])cc7F)c7ccc([nH]7)c(-c7c(F)cc(S(=O)(=O)[O-])cc7F)c7nc(c(-c8c(F)cc(S(=O)(=O)[O-])cc8F)c8ccc5[nH]8)C=C7)C=C6)cc4)[C@H]4C=C[C@@H]3C4)c2C(=O)NC2CC2)cc1
REMARK SMILES IDX 19 1 18 2 17 3 15 4 16 5 14 6 13 7 95 8 92 9 94 10 96 11
REMARK SMILES IDX 93 12 11 13 10 14 12 16 9 17 6 18 7 19 97 20 8 21 5 22 1 23
REMARK SMILES IDX 2 24 3 25 105 26 4 27 104 28 98 29 99 30 100 31 101 33
REMARK SMILES IDX 102 34 103 35 20 36 21 37 22 38 23 39 24 40 25 41 26 42
REMARK SMILES IDX 27 43 91 44 28 45 90 46 29 47 30 48 31 49 84 50 32 51 89 52
REMARK SMILES IDX 83 53 85 54 33 55 88 56 82 57 81 58 34 60 68 61 47 62 67 63
REMARK SMILES IDX 48 64 51 65 66 66 86 67 49 68 50 69 65 71 87 72 52 73 35 74
REMARK SMILES IDX 36 75 45 76 37 77 38 78 44 79 46 80 39 81 40 82 41 83 42 84
REMARK SMILES IDX 43 85 69 86 70 87 79 88 71 89 72 90 78 91 80 92 73 93 74 94
REMARK SMILES IDX 75 95 76 96 77 97 53 98 54 99 63 100 55 101 56 102 62 103
REMARK SMILES IDX 64 104 57 105 58 106 59 107 60 108 61 109
REMARK H PARENT 10 15 100 32 85 59 51 70
REMARK Flexibility Score: inf
ROOT
ATOM      1  C   UNL     1      -4.716  -1.124  -1.431  1.00  0.00     0.202 C 
ENDROOT
BRANCH   1   2
ATOM      2  C   UNL     1      -4.750   0.317  -1.057  1.00  0.00     0.261 C 
BRANCH   2   3
ATOM      3  O   UNL     1      -5.829   0.672  -0.158  1.00  0.00    -0.463 OA
BRANCH   3   4
ATOM      4  C   UNL     1      -7.100   0.828  -0.646  1.00  0.00     0.310 C 
ATOM      5  O   UNL     1      -7.444   0.724  -1.802  1.00  0.00    -0.252 OA
BRANCH   4   6
ATOM      6  C   UNL     1      -8.023   1.250   0.486  1.00  0.00     0.119 C 
ATOM      7  C   UNL     1      -9.185   0.244   0.771  1.00  0.00     0.100 C 
ATOM      8  C   UNL     1     -10.435   1.133   0.512  1.00  0.00     0.025 C 
ATOM      9  C   UNL     1      -8.777   2.581   0.203  1.00  0.00     0.027 C 
ATOM     10  C   UNL     1     -10.521   1.595  -0.918  1.00  0.00    -0.027 C 
ATOM     11  C   UNL     1      -9.964   2.444   1.153  1.00  0.00     0.017 C 
ATOM     12  C   UNL     1      -9.551   2.501  -1.092  1.00  0.00    -0.027 C 
BRANCH   7  13
ATOM     13  C   UNL     1      -8.971  -1.102   0.074  1.00  0.00     0.229 C 
ATOM     14  N   UNL     1      -9.937  -1.619  -0.734  1.00  0.00    -0.317 N 
ATOM     15  H   UNL     1      -9.670  -1.913  -1.634  1.00  0.00     0.170 HD
ATOM     16  O   UNL     1      -7.918  -1.722   0.235  1.00  0.00    -0.274 OA
BRANCH  14  17
ATOM     17  C   UNL     1     -11.260  -1.761  -0.383  1.00  0.00     0.108 A 
ATOM     18  C   UNL     1     -13.559  -1.798  -0.366  1.00  0.00     0.007 A 
ATOM     19  C   UNL     1     -13.231  -1.439   0.935  1.00  0.00     0.076 A 
ATOM     20  C   UNL     1     -12.365  -2.033  -1.194  1.00  0.00     0.082 A 
ATOM     21  S   UNL     1     -11.624  -1.814   1.281  1.00  0.00    -0.125 S 
BRANCH  18  22
ATOM     22  C   UNL     1     -14.985  -2.012  -0.542  1.00  0.00    -0.017 A 
ATOM     23  C   UNL     1     -18.910  -3.428  -1.441  1.00  0.00     0.044 C 
ATOM     24  C   UNL     1     -17.631  -2.808  -0.964  1.00  0.00    -0.051 A 
ATOM     25  C   UNL     1     -16.823  -3.541  -0.097  1.00  0.00     0.004 A 
ATOM     26  C   UNL     1     -17.156  -1.594  -1.492  1.00  0.00     0.004 A 
ATOM     27  C   UNL     1     -15.522  -3.127   0.132  1.00  0.00     0.009 A 
ATOM     28  C   UNL     1     -15.829  -1.186  -1.278  1.00  0.00     0.009 A 
ENDBRANCH  18  22
BRANCH  20  29
ATOM     29  C   UNL     1     -12.090  -2.317  -2.622  1.00  0.00     0.255 C 
ATOM     30  O   UNL     1     -11.189  -1.688  -3.197  1.00  0.00    -0.269 OA
ATOM     31  N   UNL     1     -12.602  -3.326  -3.407  1.00  0.00    -0.349 N 
ATOM     32  H   UNL     1     -12.232  -3.287  -4.319  1.00  0.00     0.164 HD
BRANCH  31  33
ATOM     33  C   UNL     1     -13.512  -4.404  -3.273  1.00  0.00     0.082 C 
ATOM     34  C   UNL     1     -14.049  -4.913  -1.988  1.00  0.00     0.027 C 
ATOM     35  C   UNL     1     -14.934  -4.133  -2.934  1.00  0.00     0.027 C 
ENDBRANCH  31  33
ENDBRANCH  20  29
ENDBRANCH  14  17
ENDBRANCH   7  13
ENDBRANCH   4   6
ENDBRANCH   3   4
ENDBRANCH   2   3
ENDBRANCH   1   2
BRANCH   1  36
ATOM     36  O   UNL     1      -5.764  -1.214  -2.380  1.00  0.00    -0.374 OA
BRANCH  36  37
ATOM     37  C   UNL     1      -6.360  -2.469  -2.526  1.00  0.00     0.202 C 
BRANCH  37  38
ATOM     38  C   UNL     1      -5.374  -3.456  -3.131  1.00  0.00     0.261 C 
BRANCH  38  39
ATOM     39  O   UNL     1      -5.062  -3.134  -4.511  1.00  0.00    -0.460 OA
BRANCH  39  40
ATOM     40  C   UNL     1      -3.951  -2.362  -4.725  1.00  0.00     0.338 C 
ATOM     41  O   UNL     1      -2.821  -2.812  -4.832  1.00  0.00    -0.246 OA
BRANCH  40  42
ATOM     42  C   UNL     1      -4.301  -0.921  -4.890  1.00  0.00     0.060 A 
ATOM     43  C   UNL     1      -3.364   0.095  -4.612  1.00  0.00     0.016 A 
ATOM     44  C   UNL     1      -5.638  -0.595  -5.083  1.00  0.00     0.016 A 
ATOM     45  C   UNL     1      -3.799   1.412  -4.376  1.00  0.00     0.010 A 
ATOM     46  C   UNL     1      -6.069   0.654  -4.692  1.00  0.00     0.010 A 
ATOM     47  C   UNL     1      -5.170   1.673  -4.345  1.00  0.00    -0.014 A 
BRANCH  47  48
ATOM     48  C   UNL     1      -5.806   2.947  -3.999  1.00  0.00     0.031 A 
ATOM     49  C   UNL     1      -6.471   3.660  -5.116  1.00  0.00     0.074 A 
ATOM     50  C   UNL     1      -5.912   3.462  -2.748  1.00  0.00     0.049 A 
ATOM     51  N   UNL     1      -6.460   4.944  -5.240  1.00  0.00    -0.248 NA
ATOM     52  C   UNL     1      -7.136   2.988  -6.237  1.00  0.00     0.031 C 
ATOM     53  C   UNL     1      -6.853   4.488  -2.311  1.00  0.00     0.029 A 
ATOM     54  N   UNL     1      -5.219   3.156  -1.575  1.00  0.00    -0.354 N 
ATOM     55  C   UNL     1      -7.377   5.244  -6.219  1.00  0.00     0.074 A 
ATOM     56  C   UNL     1      -7.622   4.018  -6.929  1.00  0.00     0.031 C 
ATOM     57  C   UNL     1      -6.575   4.856  -1.048  1.00  0.00     0.029 A 
ATOM     58  C   UNL     1      -5.383   4.147  -0.611  1.00  0.00     0.049 A 
ATOM     59  H   UNL     1      -4.682   2.341  -1.446  1.00  0.00     0.167 HD
ATOM     60  C   UNL     1      -8.057   6.422  -6.191  1.00  0.00     0.037 A 
ATOM     61  C   UNL     1      -4.326   4.655   0.077  1.00  0.00     0.037 A 
ATOM     62  C   UNL     1      -7.785   7.137  -4.941  1.00  0.00     0.049 A 
ATOM     63  C   UNL     1      -4.123   6.051  -0.445  1.00  0.00     0.074 A 
ATOM     64  C   UNL     1      -8.520   7.267  -3.771  1.00  0.00     0.029 A 
ATOM     65  N   UNL     1      -6.480   7.508  -4.611  1.00  0.00    -0.354 N 
ATOM     66  N   UNL     1      -4.641   6.429  -1.583  1.00  0.00    -0.248 NA
ATOM     67  C   UNL     1      -3.481   7.151   0.263  1.00  0.00     0.031 C 
ATOM     68  C   UNL     1      -7.651   7.718  -2.743  1.00  0.00     0.029 A 
ATOM     69  C   UNL     1      -6.379   7.861  -3.276  1.00  0.00     0.049 A 
ATOM     70  H   UNL     1      -5.728   7.516  -5.247  1.00  0.00     0.167 HD
ATOM     71  C   UNL     1      -4.545   7.773  -1.712  1.00  0.00     0.074 A 
ATOM     72  C   UNL     1      -3.753   8.181  -0.562  1.00  0.00     0.031 C 
ATOM     73  C   UNL     1      -5.152   8.438  -2.735  1.00  0.00     0.037 A 
BRANCH  60  74
ATOM     74  C   UNL     1      -9.214   6.677  -7.135  1.00  0.00     0.058 A 
ATOM     75  C   UNL     1     -10.365   7.381  -6.734  1.00  0.00     0.135 A 
ATOM     76  C   UNL     1      -9.229   6.233  -8.479  1.00  0.00     0.135 A 
ATOM     77  F   UNL     1     -10.470   7.917  -5.512  1.00  0.00    -0.206 F 
ATOM     78  C   UNL     1     -11.467   7.571  -7.571  1.00  0.00     0.059 A 
ATOM     79  C   UNL     1     -10.342   6.358  -9.316  1.00  0.00     0.059 A 
ATOM     80  F   UNL     1      -8.140   5.675  -9.033  1.00  0.00    -0.206 F 
ATOM     81  C   UNL     1     -11.456   7.045  -8.856  1.00  0.00     0.060 A 
BRANCH  81  82
ATOM     82  S   UNL     1     -12.887   7.318  -9.919  1.00  0.00     0.124 S 
ATOM     83  O   UNL     1     -13.995   6.892  -9.069  1.00  0.00    -0.237 OA
ATOM     84  O   UNL     1     -12.799   8.752 -10.174  1.00  0.00    -0.237 OA
ATOM     85  O   UNL     1     -12.627   6.459 -11.070  1.00  0.00    -0.744 OA
ENDBRANCH  81  82
ENDBRANCH  60  74
BRANCH  61  86
ATOM     86  C   UNL     1      -3.343   3.640   0.571  1.00  0.00     0.058 A 
ATOM     87  C   UNL     1      -3.772   2.780   1.613  1.00  0.00     0.135 A 
ATOM     88  C   UNL     1      -2.206   3.229  -0.139  1.00  0.00     0.135 A 
ATOM     89  F   UNL     1      -4.867   3.098   2.327  1.00  0.00    -0.206 F 
ATOM     90  C   UNL     1      -3.191   1.530   1.859  1.00  0.00     0.059 A 
ATOM     91  C   UNL     1      -1.607   1.973   0.084  1.00  0.00     0.059 A 
ATOM     92  F   UNL     1      -1.735   3.979  -1.145  1.00  0.00    -0.206 F 
ATOM     93  C   UNL     1      -2.136   1.107   1.051  1.00  0.00     0.060 A 
BRANCH  93  94
ATOM     94  S   UNL     1      -1.789  -0.692   0.934  1.00  0.00     0.124 S 
ATOM     95  O   UNL     1      -0.674  -0.858   1.855  1.00  0.00    -0.237 OA
ATOM     96  O   UNL     1      -3.052  -1.295   1.351  1.00  0.00    -0.237 OA
ATOM     97  O   UNL     1      -1.486  -0.864  -0.484  1.00  0.00    -0.744 OA
ENDBRANCH  93  94
ENDBRANCH  61  86
BRANCH  73  98
ATOM     98  C   UNL     1      -4.696   9.769  -3.244  1.00  0.00     0.058 A 
ATOM     99  C   UNL     1      -3.383  10.235  -3.075  1.00  0.00     0.135 A 
ATOM    100  C   UNL     1      -5.525  10.538  -4.096  1.00  0.00     0.135 A 
ATOM    101  F   UNL     1      -2.463   9.530  -2.400  1.00  0.00    -0.206 F 
ATOM    102  C   UNL     1      -2.948  11.428  -3.632  1.00  0.00     0.059 A 
ATOM    103  C   UNL     1      -5.084  11.688  -4.728  1.00  0.00     0.059 A 
ATOM    104  F   UNL     1      -6.791  10.188  -4.364  1.00  0.00    -0.206 F 
ATOM    105  C   UNL     1      -3.807  12.147  -4.455  1.00  0.00     0.060 A 
BRANCH 105 106
ATOM    106  S   UNL     1      -3.231  13.683  -5.179  1.00  0.00     0.124 S 
ATOM    107  O   UNL     1      -3.418  14.606  -4.064  1.00  0.00    -0.237 OA
ATOM    108  O   UNL     1      -1.845  13.372  -5.517  1.00  0.00    -0.237 OA
ATOM    109  O   UNL     1      -4.121  13.876  -6.318  1.00  0.00    -0.744 OA
ENDBRANCH 105 106
ENDBRANCH  73  98
ENDBRANCH  47  48
ENDBRANCH  40  42
ENDBRANCH  39  40
ENDBRANCH  38  39
ENDBRANCH  37  38
ENDBRANCH  36  37
ENDBRANCH   1  36
TORSDOF 22
