REMARK SMILES C[C@H](O)[C@@H](NS(=O)(=O)c1ccc(F)cc1)C(=O)OCCOCCOC(=O)c1ccc(-c2c3nc(c(-c4c(F)cc(S(=O)(=O)[O-])cc4F)c4ccc([nH]4)c(-c4c(F)cc(S(=O)(=O)[O-])cc4F)c4nc(c(-c5c(F)cc(S(=O)(=O)[O-])cc5F)c5ccc2[nH]5)C=C4)C=C3)cc1
REMARK SMILES IDX 21 1 20 2 19 3 18 4 16 5 17 6 4 7 2 8 1 9 3 10 5 12 6 14
REMARK SMILES IDX 7 15 8 16 9 17 10 18 15 19 11 20 14 21 12 22 13 23 22 24
REMARK SMILES IDX 23 25 24 26 25 27 26 28 27 29 28 30 92 31 29 32 91 33 30 34
REMARK SMILES IDX 31 35 32 36 85 37 33 38 90 39 84 40 86 41 34 42 89 43 83 44
REMARK SMILES IDX 82 45 35 47 69 48 48 49 68 50 49 51 52 52 67 53 87 54 50 55
REMARK SMILES IDX 51 56 66 58 88 59 53 60 36 61 37 62 46 63 38 64 39 65 45 66
REMARK SMILES IDX 47 67 40 68 41 69 42 70 43 71 44 72 70 73 71 74 80 75 72 76
REMARK SMILES IDX 73 77 79 78 81 79 74 80 75 81 76 82 77 83 78 84 54 85 55 86
REMARK SMILES IDX 64 87 56 88 57 89 63 90 65 91 58 92 59 93 60 94 61 95 62 96
REMARK H PARENT 3 11 5 13 86 46 52 57
REMARK Flexibility Score: inf
ROOT
ATOM      1  O   UNL     1      -1.481  -4.861  -3.084  1.00  0.00    -0.374 OA
ENDROOT
BRANCH   1   2
ATOM      2  C   UNL     1      -1.547  -4.026  -4.225  1.00  0.00     0.202 C 
BRANCH   2   3
ATOM      3  C   UNL     1      -1.569  -2.498  -4.099  1.00  0.00     0.261 C 
BRANCH   3   4
ATOM      4  O   UNL     1      -0.858  -1.869  -3.034  1.00  0.00    -0.462 OA
BRANCH   4   5
ATOM      5  C   UNL     1      -1.529  -1.817  -1.848  1.00  0.00     0.326 C 
ATOM      6  O   UNL     1      -2.398  -2.606  -1.500  1.00  0.00    -0.250 OA
BRANCH   5   7
ATOM      7  C   UNL     1      -1.150  -0.606  -1.027  1.00  0.00     0.208 C 
BRANCH   7   8
ATOM      8  C   UNL     1       0.375  -0.355  -1.075  1.00  0.00     0.140 C 
ATOM      9  C   UNL     1       1.181  -1.521  -0.485  1.00  0.00     0.040 C 
BRANCH   8  10
ATOM     10  O   UNL     1       0.676   0.830  -0.321  1.00  0.00    -0.391 OA
ATOM     11  H   UNL     1       0.414   0.700   0.604  1.00  0.00     0.211 HD
ENDBRANCH   8  10
ENDBRANCH   7   8
BRANCH   7  12
ATOM     12  N   UNL     1      -1.909   0.579  -1.537  1.00  0.00    -0.194 NA
ATOM     13  H   UNL     1      -1.780   0.609  -2.549  1.00  0.00     0.142 HD
BRANCH  12  14
ATOM     14  S   UNL     1      -3.575   0.643  -1.238  1.00  0.00     0.241 S 
ATOM     15  O   UNL     1      -3.826  -0.004   0.028  1.00  0.00    -0.207 OA
ATOM     16  O   UNL     1      -3.965   2.021  -1.462  1.00  0.00    -0.207 OA
BRANCH  14  17
ATOM     17  C   UNL     1      -4.324  -0.320  -2.540  1.00  0.00     0.082 A 
ATOM     18  C   UNL     1      -4.844  -1.591  -2.253  1.00  0.00     0.025 A 
ATOM     19  C   UNL     1      -4.394   0.190  -3.841  1.00  0.00     0.025 A 
ATOM     20  C   UNL     1      -5.308  -2.405  -3.289  1.00  0.00     0.040 A 
ATOM     21  C   UNL     1      -4.903  -0.614  -4.868  1.00  0.00     0.040 A 
ATOM     22  C   UNL     1      -5.328  -1.912  -4.588  1.00  0.00     0.123 A 
ATOM     23  F   UNL     1      -5.721  -2.711  -5.589  1.00  0.00    -0.207 F 
ENDBRANCH  14  17
ENDBRANCH  12  14
ENDBRANCH   7  12
ENDBRANCH   5   7
ENDBRANCH   4   5
ENDBRANCH   3   4
ENDBRANCH   2   3
ENDBRANCH   1   2
BRANCH   1  24
ATOM     24  C   UNL     1      -0.363  -4.790  -2.211  1.00  0.00     0.202 C 
BRANCH  24  25
ATOM     25  C   UNL     1       1.045  -5.051  -2.745  1.00  0.00     0.261 C 
BRANCH  25  26
ATOM     26  O   UNL     1       1.425  -4.159  -3.802  1.00  0.00    -0.460 OA
BRANCH  26  27
ATOM     27  C   UNL     1       1.541  -4.763  -5.010  1.00  0.00     0.338 C 
ATOM     28  O   UNL     1       1.365  -5.943  -5.265  1.00  0.00    -0.246 OA
BRANCH  27  29
ATOM     29  C   UNL     1       1.742  -3.752  -6.059  1.00  0.00     0.060 A 
ATOM     30  C   UNL     1       0.876  -3.774  -7.162  1.00  0.00     0.016 A 
ATOM     31  C   UNL     1       2.831  -2.882  -6.014  1.00  0.00     0.016 A 
ATOM     32  C   UNL     1       1.138  -2.966  -8.262  1.00  0.00     0.010 A 
ATOM     33  C   UNL     1       3.098  -2.083  -7.124  1.00  0.00     0.010 A 
ATOM     34  C   UNL     1       2.281  -2.159  -8.267  1.00  0.00    -0.014 A 
BRANCH  34  35
ATOM     35  C   UNL     1       2.741  -1.543  -9.529  1.00  0.00     0.031 A 
ATOM     36  C   UNL     1       3.859  -2.211 -10.280  1.00  0.00     0.074 A 
ATOM     37  C   UNL     1       2.173  -0.417  -9.991  1.00  0.00     0.049 A 
ATOM     38  N   UNL     1       4.519  -1.792 -11.325  1.00  0.00    -0.248 NA
ATOM     39  C   UNL     1       4.295  -3.528  -9.780  1.00  0.00     0.031 C 
ATOM     40  C   UNL     1       1.037   0.267  -9.376  1.00  0.00     0.029 A 
ATOM     41  N   UNL     1       2.485   0.355 -11.079  1.00  0.00    -0.354 N 
ATOM     42  C   UNL     1       5.455  -2.782 -11.600  1.00  0.00     0.074 A 
ATOM     43  C   UNL     1       5.299  -3.811 -10.597  1.00  0.00     0.031 C 
ATOM     44  C   UNL     1       0.757   1.371 -10.088  1.00  0.00     0.029 A 
ATOM     45  C   UNL     1       1.724   1.495 -11.178  1.00  0.00     0.049 A 
ATOM     46  H   UNL     1       3.187   0.117 -11.727  1.00  0.00     0.167 HD
ATOM     47  C   UNL     1       6.357  -2.826 -12.607  1.00  0.00     0.037 A 
ATOM     48  C   UNL     1       1.824   2.534 -12.031  1.00  0.00     0.037 A 
ATOM     49  C   UNL     1       6.490  -1.793 -13.600  1.00  0.00     0.049 A 
ATOM     50  C   UNL     1       2.898   2.510 -13.087  1.00  0.00     0.074 A 
ATOM     51  C   UNL     1       7.369  -1.736 -14.666  1.00  0.00     0.029 A 
ATOM     52  N   UNL     1       5.724  -0.637 -13.647  1.00  0.00    -0.354 N 
ATOM     53  N   UNL     1       3.788   1.577 -13.334  1.00  0.00    -0.248 NA
ATOM     54  C   UNL     1       2.991   3.677 -13.976  1.00  0.00     0.031 C 
ATOM     55  C   UNL     1       7.175  -0.519 -15.323  1.00  0.00     0.029 A 
ATOM     56  C   UNL     1       6.129   0.153 -14.708  1.00  0.00     0.049 A 
ATOM     57  H   UNL     1       5.001  -0.412 -13.018  1.00  0.00     0.167 HD
ATOM     58  C   UNL     1       4.523   2.029 -14.425  1.00  0.00     0.074 A 
ATOM     59  C   UNL     1       3.976   3.319 -14.790  1.00  0.00     0.031 C 
ATOM     60  C   UNL     1       5.554   1.427 -15.068  1.00  0.00     0.037 A 
BRANCH  47  61
ATOM     61  C   UNL     1       7.281  -4.010 -12.682  1.00  0.00     0.058 A 
ATOM     62  C   UNL     1       8.656  -3.853 -12.443  1.00  0.00     0.135 A 
ATOM     63  C   UNL     1       6.823  -5.284 -13.055  1.00  0.00     0.135 A 
ATOM     64  F   UNL     1       9.148  -2.660 -12.073  1.00  0.00    -0.206 F 
ATOM     65  C   UNL     1       9.547  -4.911 -12.593  1.00  0.00     0.059 A 
ATOM     66  C   UNL     1       7.693  -6.364 -13.183  1.00  0.00     0.059 A 
ATOM     67  F   UNL     1       5.515  -5.494 -13.271  1.00  0.00    -0.206 F 
ATOM     68  C   UNL     1       9.055  -6.163 -12.965  1.00  0.00     0.060 A 
BRANCH  68  69
ATOM     69  S   UNL     1      10.224  -7.529 -13.133  1.00  0.00     0.124 S 
ATOM     70  O   UNL     1      10.996  -7.123 -14.301  1.00  0.00    -0.237 OA
ATOM     71  O   UNL     1      10.929  -7.483 -11.855  1.00  0.00    -0.237 OA
ATOM     72  O   UNL     1       9.361  -8.691 -13.320  1.00  0.00    -0.744 OA
ENDBRANCH  68  69
ENDBRANCH  47  61
BRANCH  48  73
ATOM     73  C   UNL     1       0.881   3.677 -11.910  1.00  0.00     0.058 A 
ATOM     74  C   UNL     1       0.908   4.531 -10.796  1.00  0.00     0.135 A 
ATOM     75  C   UNL     1      -0.096   3.912 -12.888  1.00  0.00     0.135 A 
ATOM     76  F   UNL     1       1.818   4.347  -9.826  1.00  0.00    -0.206 F 
ATOM     77  C   UNL     1      -0.020   5.555 -10.639  1.00  0.00     0.059 A 
ATOM     78  C   UNL     1      -1.019   4.947 -12.768  1.00  0.00     0.059 A 
ATOM     79  F   UNL     1      -0.153   3.131 -13.978  1.00  0.00    -0.206 F 
ATOM     80  C   UNL     1      -0.983   5.752 -11.630  1.00  0.00     0.060 A 
BRANCH  80  81
ATOM     81  S   UNL     1      -2.194   7.070 -11.394  1.00  0.00     0.124 S 
ATOM     82  O   UNL     1      -2.952   6.567 -10.253  1.00  0.00    -0.237 OA
ATOM     83  O   UNL     1      -1.339   8.223 -11.130  1.00  0.00    -0.237 OA
ATOM     84  O   UNL     1      -2.913   7.100 -12.663  1.00  0.00    -0.744 OA
ENDBRANCH  80  81
ENDBRANCH  48  73
BRANCH  60  85
ATOM     85  C   UNL     1       6.151   2.119 -16.262  1.00  0.00     0.058 A 
ATOM     86  C   UNL     1       5.984   1.575 -17.546  1.00  0.00     0.135 A 
ATOM     87  C   UNL     1       7.006   3.221 -16.120  1.00  0.00     0.135 A 
ATOM     88  F   UNL     1       5.181   0.515 -17.733  1.00  0.00    -0.206 F 
ATOM     89  C   UNL     1       6.680   2.072 -18.641  1.00  0.00     0.059 A 
ATOM     90  C   UNL     1       7.691   3.754 -17.209  1.00  0.00     0.059 A 
ATOM     91  F   UNL     1       7.189   3.784 -14.915  1.00  0.00    -0.206 F 
ATOM     92  C   UNL     1       7.542   3.154 -18.460  1.00  0.00     0.060 A 
BRANCH  92  93
ATOM     93  S   UNL     1       8.476   3.752 -19.884  1.00  0.00     0.124 S 
ATOM     94  O   UNL     1       9.373   2.631 -20.145  1.00  0.00    -0.237 OA
ATOM     95  O   UNL     1       7.423   3.966 -20.872  1.00  0.00    -0.237 OA
ATOM     96  O   UNL     1       9.116   4.965 -19.385  1.00  0.00    -0.744 OA
ENDBRANCH  92  93
ENDBRANCH  60  85
ENDBRANCH  34  35
ENDBRANCH  27  29
ENDBRANCH  26  27
ENDBRANCH  25  26
ENDBRANCH  24  25
ENDBRANCH   1  24
TORSDOF 22
