REMARK SMILES [NH3+][C@@H](Cc1c[nH]c2ccccc12)C(=O)N[C@@H](CS)C(=O)N[C@@H](CO)C(=O)OCCOCCOC(=O)c1ccc(-c2c3nc(c(-c4c(F)cc(S(=O)(=O)[O-])cc4F)c4ccc([nH]4)c(-c4c(F)cc(S(=O)(=O)[O-])cc4F)c4nc(c(-c5c(F)cc(S(=O)(=O)[O-])cc5F)c5ccc2[nH]5)C=C4)C=C3)cc1
REMARK SMILES IDX 28 1 27 2 25 3 26 4 22 5 21 6 19 7 20 8 16 10 15 11 13 12
REMARK SMILES IDX 14 13 2 15 1 16 3 20 4 21 5 22 12 23 6 24 7 25 11 26 8 28
REMARK SMILES IDX 10 29 9 30 17 31 18 32 23 34 24 35 29 37 30 38 31 39 32 40
REMARK SMILES IDX 33 41 34 42 35 43 36 44 37 45 101 46 38 47 100 48 39 49
REMARK SMILES IDX 40 50 41 51 94 52 42 53 99 54 93 55 95 56 43 57 98 58 92 59
REMARK SMILES IDX 91 60 44 62 78 63 57 64 77 65 58 66 61 67 76 68 96 69 59 70
REMARK SMILES IDX 60 71 75 73 97 74 62 75 45 76 46 77 55 78 47 79 48 80 54 81
REMARK SMILES IDX 56 82 49 83 50 84 51 85 52 86 53 87 79 88 80 89 89 90 81 91
REMARK SMILES IDX 82 92 88 93 90 94 83 95 84 96 85 97 86 98 87 99 63 100
REMARK SMILES IDX 64 101 73 102 65 103 66 104 72 105 74 106 67 107 68 108
REMARK SMILES IDX 69 109 70 110 71 111
REMARK H PARENT 21 9 15 14 1 17 1 18 1 19 6 27 18 33 24 36 95 61 61 72
REMARK Flexibility Score: inf
ROOT
ATOM      1  C   UNL     1      -6.306  -3.502  -4.441  1.00  0.00     0.261 C 
ENDROOT
BRANCH   1   2
ATOM      2  O   UNL     1      -5.559  -2.311  -4.157  1.00  0.00    -0.462 OA
BRANCH   2   3
ATOM      3  C   UNL     1      -5.910  -1.659  -3.014  1.00  0.00     0.331 C 
ATOM      4  O   UNL     1      -6.905  -1.900  -2.341  1.00  0.00    -0.250 OA
BRANCH   3   5
ATOM      5  C   UNL     1      -4.927  -0.540  -2.673  1.00  0.00     0.218 C 
BRANCH   5   6
ATOM      6  N   UNL     1      -3.622  -0.650  -3.347  1.00  0.00    -0.339 N 
ATOM      7  C   UNL     1      -2.591   0.103  -2.872  1.00  0.00     0.244 C 
ATOM      8  O   UNL     1      -2.480   1.255  -3.294  1.00  0.00    -0.273 OA
ATOM      9  H   UNL     1      -3.498  -1.251  -4.117  1.00  0.00     0.164 HD
BRANCH   7  10
ATOM     10  C   UNL     1      -1.720  -0.436  -1.712  1.00  0.00     0.181 C 
BRANCH  10  11
ATOM     11  N   UNL     1      -1.807   0.496  -0.600  1.00  0.00    -0.338 N 
ATOM     12  C   UNL     1      -0.882   1.426  -0.215  1.00  0.00     0.279 C 
ATOM     13  O   UNL     1      -1.315   2.406   0.403  1.00  0.00    -0.268 OA
ATOM     14  H   UNL     1      -2.629   0.453  -0.060  1.00  0.00     0.164 HD
BRANCH  12  15
ATOM     15  C   UNL     1       0.649   1.255  -0.438  1.00  0.00     0.275 C 
BRANCH  15  16
ATOM     16  N   UNL     1       1.117  -0.046   0.097  1.00  0.00    -0.347 N 
ATOM     17  H   UNL     1       2.120  -0.137  -0.060  1.00  0.00     0.345 HD
ATOM     18  H   UNL     1       0.628  -0.804  -0.379  1.00  0.00     0.345 HD
ATOM     19  H   UNL     1       0.923  -0.091   1.097  1.00  0.00     0.345 HD
ENDBRANCH  15  16
BRANCH  15  20
ATOM     20  C   UNL     1       1.237   1.696  -1.804  1.00  0.00     0.113 C 
BRANCH  20  21
ATOM     21  C   UNL     1       1.189   0.731  -2.963  1.00  0.00    -0.016 A 
ATOM     22  C   UNL     1       1.708  -0.553  -3.032  1.00  0.00     0.087 A 
ATOM     23  C   UNL     1       0.576   0.979  -4.241  1.00  0.00     0.003 A 
ATOM     24  N   UNL     1       1.299  -1.125  -4.209  1.00  0.00    -0.361 N 
ATOM     25  C   UNL     1       0.568  -0.226  -4.946  1.00  0.00     0.046 A 
ATOM     26  C   UNL     1      -0.037   2.101  -4.836  1.00  0.00     0.010 A 
ATOM     27  H   UNL     1       1.502  -2.048  -4.487  1.00  0.00     0.166 HD
ATOM     28  C   UNL     1      -0.091  -0.386  -6.171  1.00  0.00     0.026 A 
ATOM     29  C   UNL     1      -0.680   1.966  -6.073  1.00  0.00     0.001 A 
ATOM     30  C   UNL     1      -0.725   0.734  -6.718  1.00  0.00     0.002 A 
ENDBRANCH  20  21
ENDBRANCH  15  20
ENDBRANCH  12  15
ENDBRANCH  10  11
BRANCH  10  31
ATOM     31  C   UNL     1      -1.770  -1.917  -1.331  1.00  0.00     0.101 C 
BRANCH  31  32
ATOM     32  S   UNL     1      -3.195  -2.498  -0.368  1.00  0.00    -0.177 SA
ATOM     33  H   UNL     1      -3.193  -1.898   0.852  1.00  0.00     0.102 HD
ENDBRANCH  31  32
ENDBRANCH  10  31
ENDBRANCH   7  10
ENDBRANCH   5   6
BRANCH   5  34
ATOM     34  C   UNL     1      -5.596   0.803  -2.996  1.00  0.00     0.193 C 
BRANCH  34  35
ATOM     35  O   UNL     1      -5.581   1.042  -4.404  1.00  0.00    -0.394 OA
ATOM     36  H   UNL     1      -4.664   1.069  -4.717  1.00  0.00     0.210 HD
ENDBRANCH  34  35
ENDBRANCH   5  34
ENDBRANCH   3   5
ENDBRANCH   2   3
ENDBRANCH   1   2
BRANCH   1  37
ATOM     37  C   UNL     1      -5.388  -4.592  -4.999  1.00  0.00     0.202 C 
BRANCH  37  38
ATOM     38  O   UNL     1      -4.322  -5.043  -4.164  1.00  0.00    -0.374 OA
BRANCH  38  39
ATOM     39  C   UNL     1      -3.248  -4.141  -3.922  1.00  0.00     0.202 C 
BRANCH  39  40
ATOM     40  C   UNL     1      -2.242  -3.888  -5.056  1.00  0.00     0.261 C 
BRANCH  40  41
ATOM     41  O   UNL     1      -2.837  -3.393  -6.265  1.00  0.00    -0.460 OA
BRANCH  41  42
ATOM     42  C   UNL     1      -2.884  -4.296  -7.275  1.00  0.00     0.338 C 
ATOM     43  O   UNL     1      -2.421  -5.431  -7.274  1.00  0.00    -0.246 OA
BRANCH  42  44
ATOM     44  C   UNL     1      -3.735  -3.789  -8.362  1.00  0.00     0.060 A 
ATOM     45  C   UNL     1      -4.905  -4.499  -8.664  1.00  0.00     0.016 A 
ATOM     46  C   UNL     1      -3.354  -2.684  -9.123  1.00  0.00     0.016 A 
ATOM     47  C   UNL     1      -5.692  -4.116  -9.746  1.00  0.00     0.010 A 
ATOM     48  C   UNL     1      -4.137  -2.313 -10.220  1.00  0.00     0.010 A 
ATOM     49  C   UNL     1      -5.293  -3.042 -10.551  1.00  0.00    -0.014 A 
BRANCH  49  50
ATOM     50  C   UNL     1      -6.012  -2.772 -11.819  1.00  0.00     0.031 A 
ATOM     51  C   UNL     1      -5.413  -3.256 -13.110  1.00  0.00     0.074 A 
ATOM     52  C   UNL     1      -7.193  -2.128 -11.811  1.00  0.00     0.049 A 
ATOM     53  N   UNL     1      -5.830  -3.077 -14.335  1.00  0.00    -0.248 NA
ATOM     54  C   UNL     1      -4.177  -4.049 -13.004  1.00  0.00     0.031 C 
ATOM     55  C   UNL     1      -7.892  -1.661 -10.614  1.00  0.00     0.029 A 
ATOM     56  N   UNL     1      -8.010  -1.750 -12.847  1.00  0.00    -0.354 N 
ATOM     57  C   UNL     1      -4.909  -3.728 -15.148  1.00  0.00     0.074 A 
ATOM     58  C   UNL     1      -3.893  -4.280 -14.278  1.00  0.00     0.031 C 
ATOM     59  C   UNL     1      -9.029  -1.046 -10.985  1.00  0.00     0.029 A 
ATOM     60  C   UNL     1      -9.117  -1.042 -12.444  1.00  0.00     0.049 A 
ATOM     61  H   UNL     1      -7.820  -1.965 -13.789  1.00  0.00     0.167 HD
ATOM     62  C   UNL     1      -4.918  -3.862 -16.495  1.00  0.00     0.037 A 
ATOM     63  C   UNL     1     -10.075  -0.437 -13.174  1.00  0.00     0.037 A 
ATOM     64  C   UNL     1      -5.935  -3.307 -17.349  1.00  0.00     0.049 A 
ATOM     65  C   UNL     1     -10.014  -0.523 -14.678  1.00  0.00     0.074 A 
ATOM     66  C   UNL     1      -6.039  -3.386 -18.727  1.00  0.00     0.029 A 
ATOM     67  N   UNL     1      -7.022  -2.565 -16.908  1.00  0.00    -0.354 N 
ATOM     68  N   UNL     1      -9.143  -1.149 -15.434  1.00  0.00    -0.248 NA
ATOM     69  C   UNL     1     -11.063   0.181 -15.429  1.00  0.00     0.031 C 
ATOM     70  C   UNL     1      -7.160  -2.649 -19.123  1.00  0.00     0.029 A 
ATOM     71  C   UNL     1      -7.788  -2.160 -17.988  1.00  0.00     0.049 A 
ATOM     72  H   UNL     1      -7.220  -2.358 -15.966  1.00  0.00     0.167 HD
ATOM     73  C   UNL     1      -9.558  -0.941 -16.746  1.00  0.00     0.074 A 
ATOM     74  C   UNL     1     -10.763  -0.141 -16.680  1.00  0.00     0.031 C 
ATOM     75  C   UNL     1      -8.995  -1.375 -17.901  1.00  0.00     0.037 A 
BRANCH  62  76
ATOM     76  C   UNL     1      -3.785  -4.620 -17.132  1.00  0.00     0.058 A 
ATOM     77  C   UNL     1      -3.662  -6.012 -17.001  1.00  0.00     0.135 A 
ATOM     78  C   UNL     1      -2.836  -3.951 -17.921  1.00  0.00     0.135 A 
ATOM     79  F   UNL     1      -4.530  -6.700 -16.242  1.00  0.00    -0.206 F 
ATOM     80  C   UNL     1      -2.627  -6.712 -17.614  1.00  0.00     0.059 A 
ATOM     81  C   UNL     1      -1.808  -4.634 -18.566  1.00  0.00     0.059 A 
ATOM     82  F   UNL     1      -2.903  -2.619 -18.077  1.00  0.00    -0.206 F 
ATOM     83  C   UNL     1      -1.706  -6.014 -18.397  1.00  0.00     0.060 A 
BRANCH  83  84
ATOM     84  S   UNL     1      -0.379  -6.940 -19.196  1.00  0.00     0.124 S 
ATOM     85  O   UNL     1       0.455  -7.299 -18.053  1.00  0.00    -0.237 OA
ATOM     86  O   UNL     1      -1.102  -8.041 -19.824  1.00  0.00    -0.237 OA
ATOM     87  O   UNL     1       0.206  -5.971 -20.118  1.00  0.00    -0.744 OA
ENDBRANCH  83  84
ENDBRANCH  62  76
BRANCH  63  88
ATOM     88  C   UNL     1     -11.165   0.321 -12.500  1.00  0.00     0.058 A 
ATOM     89  C   UNL     1     -12.496  -0.118 -12.556  1.00  0.00     0.135 A 
ATOM     90  C   UNL     1     -10.900   1.511 -11.803  1.00  0.00     0.135 A 
ATOM     91  F   UNL     1     -12.803  -1.243 -13.219  1.00  0.00    -0.206 F 
ATOM     92  C   UNL     1     -13.528   0.605 -11.966  1.00  0.00     0.059 A 
ATOM     93  C   UNL     1     -11.910   2.236 -11.179  1.00  0.00     0.059 A 
ATOM     94  F   UNL     1      -9.642   1.971 -11.710  1.00  0.00    -0.206 F 
ATOM     95  C   UNL     1     -13.224   1.782 -11.279  1.00  0.00     0.060 A 
BRANCH  95  96
ATOM     96  S   UNL     1     -14.569   2.698 -10.496  1.00  0.00     0.124 S 
ATOM     97  O   UNL     1     -15.253   3.261 -11.654  1.00  0.00    -0.237 OA
ATOM     98  O   UNL     1     -15.283   1.643  -9.783  1.00  0.00    -0.237 OA
ATOM     99  O   UNL     1     -13.871   3.658  -9.646  1.00  0.00    -0.744 OA
ENDBRANCH  95  96
ENDBRANCH  63  88
BRANCH  75 100
ATOM    100  C   UNL     1      -9.694  -1.032 -19.189  1.00  0.00     0.058 A 
ATOM    101  C   UNL     1      -9.688   0.271 -19.711  1.00  0.00     0.135 A 
ATOM    102  C   UNL     1     -10.320  -2.038 -19.945  1.00  0.00     0.135 A 
ATOM    103  F   UNL     1      -9.109   1.270 -19.026  1.00  0.00    -0.206 F 
ATOM    104  C   UNL     1     -10.293   0.568 -20.927  1.00  0.00     0.059 A 
ATOM    105  C   UNL     1     -10.905  -1.768 -21.178  1.00  0.00     0.059 A 
ATOM    106  F   UNL     1     -10.345  -3.303 -19.497  1.00  0.00    -0.206 F 
ATOM    107  C   UNL     1     -10.895  -0.460 -21.657  1.00  0.00     0.060 A 
BRANCH 107 108
ATOM    108  S   UNL     1     -11.633  -0.067 -23.256  1.00  0.00     0.124 S 
ATOM    109  O   UNL     1     -12.828   0.669 -22.857  1.00  0.00    -0.237 OA
ATOM    110  O   UNL     1     -10.586   0.724 -23.897  1.00  0.00    -0.237 OA
ATOM    111  O   UNL     1     -11.873  -1.378 -23.852  1.00  0.00    -0.744 OA
ENDBRANCH 107 108
ENDBRANCH  75 100
ENDBRANCH  49  50
ENDBRANCH  42  44
ENDBRANCH  41  42
ENDBRANCH  40  41
ENDBRANCH  39  40
ENDBRANCH  38  39
ENDBRANCH  37  38
ENDBRANCH   1  37
TORSDOF 28
