REMARK SMILES CC[C@@]1(CC(=O)OCCOCCOC(=O)c2ccc(-c3c4nc(c(-c5c(F)cc(S(=O)(=O)[O-])cc5F)c5ccc([nH]5)c(-c5c(F)cc(S(=O)(=O)[O-])cc5F)c5nc(c(-c6c(F)cc(S(=O)(=O)[O-])cc6F)c6ccc3[nH]6)C=C5)C=C4)cc2)OC[C@H](Cc2ccccc2)c2c1[nH]c1ccccc21
REMARK SMILES IDX 10 1 9 2 8 3 7 4 5 5 6 6 4 7 3 8 82 9 93 10 83 11 92 12
REMARK SMILES IDX 94 13 84 14 100 15 95 16 99 18 96 19 98 20 97 21 2 22 1 23
REMARK SMILES IDX 85 24 86 25 87 26 91 27 88 28 90 29 89 30 11 31 12 32 13 33
REMARK SMILES IDX 14 34 15 35 16 36 17 37 81 38 18 39 80 40 19 41 20 42 21 43
REMARK SMILES IDX 74 44 22 45 79 46 73 47 75 48 23 49 78 50 72 51 71 52 24 54
REMARK SMILES IDX 58 55 37 56 57 57 38 58 41 59 56 60 76 61 39 62 40 63 55 65
REMARK SMILES IDX 77 66 42 67 25 68 26 69 35 70 27 71 28 72 34 73 36 74 29 75
REMARK SMILES IDX 30 76 31 77 32 78 33 79 59 80 60 81 69 82 61 83 62 84 68 85
REMARK SMILES IDX 70 86 63 87 64 88 65 89 66 90 67 91 43 92 44 93 53 94 45 95
REMARK SMILES IDX 46 96 52 97 54 98 47 99 48 100 49 101 50 102 51 103
REMARK H PARENT 94 17 75 53 41 64
REMARK Flexibility Score: inf
ROOT
ATOM      1  O   UNL     1      -0.333  -2.906   1.779  1.00  0.00    -0.374 OA
ENDROOT
BRANCH   1   2
ATOM      2  C   UNL     1      -1.761  -3.128   2.300  1.00  0.00     0.202 C 
BRANCH   2   3
ATOM      3  C   UNL     1      -2.948  -3.272   1.107  1.00  0.00     0.261 C 
BRANCH   3   4
ATOM      4  O   UNL     1      -2.557  -2.831  -0.218  1.00  0.00    -0.463 OA
BRANCH   4   5
ATOM      5  C   UNL     1      -2.081  -1.556  -0.332  1.00  0.00     0.309 C 
ATOM      6  O   UNL     1      -2.374  -0.671   0.405  1.00  0.00    -0.252 OA
BRANCH   5   7
ATOM      7  C   UNL     1      -1.008  -1.495  -1.415  1.00  0.00     0.164 C 
BRANCH   7   8
ATOM      8  C   UNL     1       0.290  -2.175  -0.916  1.00  0.00     0.118 C 
ATOM      9  O   UNL     1       1.370  -2.097  -1.857  1.00  0.00    -0.368 OA
ATOM     10  C   UNL     1       0.106  -3.731  -0.698  1.00  0.00     0.053 A 
ATOM     11  C   UNL     1       1.309  -2.852  -3.037  1.00  0.00     0.170 C 
ATOM     12  C   UNL     1       0.380  -4.787  -1.518  1.00  0.00    -0.011 A 
ATOM     13  N   UNL     1      -0.729  -4.466   0.124  1.00  0.00    -0.356 N 
ATOM     14  C   UNL     1       0.661  -4.260  -2.956  1.00  0.00     0.052 C 
ATOM     15  C   UNL     1       0.578  -5.979  -0.376  1.00  0.00     0.003 A 
ATOM     16  C   UNL     1      -0.331  -5.692   0.585  1.00  0.00     0.046 A 
ATOM     17  H   UNL     1      -1.609  -4.107   0.378  1.00  0.00     0.166 HD
ATOM     18  C   UNL     1       1.463  -7.101   0.100  1.00  0.00     0.010 A 
ATOM     19  C   UNL     1      -0.512  -6.421   1.803  1.00  0.00     0.026 A 
ATOM     20  C   UNL     1       1.304  -7.876   1.249  1.00  0.00     0.001 A 
ATOM     21  C   UNL     1       0.308  -7.522   2.109  1.00  0.00     0.002 A 
BRANCH   8  22
ATOM     22  C   UNL     1       0.884  -1.138   0.141  1.00  0.00     0.039 C 
ATOM     23  C   UNL     1       2.382  -1.039   0.475  1.00  0.00     0.007 C 
ENDBRANCH   8  22
BRANCH  14  24
ATOM     24  C   UNL     1      -0.649  -4.173  -3.802  1.00  0.00     0.046 C 
BRANCH  24  25
ATOM     25  C   UNL     1      -0.530  -3.946  -5.303  1.00  0.00    -0.047 A 
ATOM     26  C   UNL     1       0.637  -4.191  -6.044  1.00  0.00     0.004 A 
ATOM     27  C   UNL     1      -1.675  -3.537  -6.003  1.00  0.00     0.004 A 
ATOM     28  C   UNL     1       0.637  -4.115  -7.438  1.00  0.00     0.000 A 
ATOM     29  C   UNL     1      -1.663  -3.421  -7.394  1.00  0.00     0.000 A 
ATOM     30  C   UNL     1      -0.516  -3.736  -8.114  1.00  0.00     0.000 A 
ENDBRANCH  24  25
ENDBRANCH  14  24
ENDBRANCH   7   8
ENDBRANCH   5   7
ENDBRANCH   4   5
ENDBRANCH   3   4
ENDBRANCH   2   3
ENDBRANCH   1   2
BRANCH   1  31
ATOM     31  C   UNL     1       0.969  -3.733   1.996  1.00  0.00     0.202 C 
BRANCH  31  32
ATOM     32  C   UNL     1       2.341  -4.330   0.850  1.00  0.00     0.261 C 
BRANCH  32  33
ATOM     33  O   UNL     1       2.766  -5.100  -0.699  1.00  0.00    -0.460 OA
BRANCH  33  34
ATOM     34  C   UNL     1       2.770  -5.965  -1.938  1.00  0.00     0.338 C 
ATOM     35  O   UNL     1       3.804  -5.868  -2.617  1.00  0.00    -0.246 OA
BRANCH  34  36
ATOM     36  C   UNL     1       1.579  -7.051  -2.729  1.00  0.00     0.060 A 
ATOM     37  C   UNL     1       1.431  -6.963  -4.113  1.00  0.00     0.016 A 
ATOM     38  C   UNL     1       0.507  -7.847  -2.203  1.00  0.00     0.016 A 
ATOM     39  C   UNL     1       0.142  -7.151  -4.722  1.00  0.00     0.010 A 
ATOM     40  C   UNL     1      -0.806  -7.907  -2.720  1.00  0.00     0.010 A 
ATOM     41  C   UNL     1      -1.036  -7.453  -3.982  1.00  0.00    -0.014 A 
BRANCH  41  42
ATOM     42  C   UNL     1      -2.378  -7.609  -4.615  1.00  0.00     0.031 A 
ATOM     43  C   UNL     1      -2.219  -8.497  -5.776  1.00  0.00     0.074 A 
ATOM     44  C   UNL     1      -3.666  -7.339  -4.255  1.00  0.00     0.049 A 
ATOM     45  N   UNL     1      -2.158  -8.159  -7.017  1.00  0.00    -0.248 NA
ATOM     46  C   UNL     1      -1.806  -9.877  -5.478  1.00  0.00     0.031 C 
ATOM     47  C   UNL     1      -4.187  -6.831  -2.982  1.00  0.00     0.029 A 
ATOM     48  N   UNL     1      -4.835  -7.550  -4.974  1.00  0.00    -0.354 N 
ATOM     49  C   UNL     1      -1.890  -9.341  -7.678  1.00  0.00     0.074 A 
ATOM     50  C   UNL     1      -1.436 -10.287  -6.689  1.00  0.00     0.031 C 
ATOM     51  C   UNL     1      -5.541  -6.956  -2.952  1.00  0.00     0.029 A 
ATOM     52  C   UNL     1      -6.025  -7.419  -4.247  1.00  0.00     0.049 A 
ATOM     53  H   UNL     1      -4.827  -7.776  -5.932  1.00  0.00     0.167 HD
ATOM     54  C   UNL     1      -2.354  -9.560  -8.932  1.00  0.00     0.037 A 
ATOM     55  C   UNL     1      -7.299  -7.678  -4.673  1.00  0.00     0.037 A 
ATOM     56  C   UNL     1      -2.893  -8.368  -9.530  1.00  0.00     0.049 A 
ATOM     57  C   UNL     1      -7.296  -7.614  -6.157  1.00  0.00     0.074 A 
ATOM     58  C   UNL     1      -2.389  -7.229 -10.117  1.00  0.00     0.029 A 
ATOM     59  N   UNL     1      -4.192  -8.104  -9.184  1.00  0.00    -0.354 N 
ATOM     60  N   UNL     1      -7.134  -6.517  -6.840  1.00  0.00    -0.248 NA
ATOM     61  C   UNL     1      -7.270  -8.847  -6.940  1.00  0.00     0.031 C 
ATOM     62  C   UNL     1      -3.397  -6.226  -9.997  1.00  0.00     0.029 A 
ATOM     63  C   UNL     1      -4.494  -6.773  -9.338  1.00  0.00     0.049 A 
ATOM     64  H   UNL     1      -4.830  -8.783  -8.864  1.00  0.00     0.167 HD
ATOM     65  C   UNL     1      -6.571  -6.937  -8.024  1.00  0.00     0.074 A 
ATOM     66  C   UNL     1      -6.854  -8.360  -8.110  1.00  0.00     0.031 C 
ATOM     67  C   UNL     1      -5.626  -6.184  -8.650  1.00  0.00     0.037 A 
BRANCH  54  68
ATOM     68  C   UNL     1      -2.718 -10.933  -9.404  1.00  0.00     0.058 A 
ATOM     69  C   UNL     1      -2.768 -11.209 -10.777  1.00  0.00     0.135 A 
ATOM     70  C   UNL     1      -3.238 -11.930  -8.544  1.00  0.00     0.135 A 
ATOM     71  F   UNL     1      -2.344 -10.300 -11.669  1.00  0.00    -0.206 F 
ATOM     72  C   UNL     1      -3.300 -12.401 -11.265  1.00  0.00     0.059 A 
ATOM     73  C   UNL     1      -3.703 -13.150  -9.001  1.00  0.00     0.059 A 
ATOM     74  F   UNL     1      -3.400 -11.719  -7.230  1.00  0.00    -0.206 F 
ATOM     75  C   UNL     1      -3.763 -13.364 -10.367  1.00  0.00     0.060 A 
BRANCH  75  76
ATOM     76  S   UNL     1      -4.506 -14.878 -10.992  1.00  0.00     0.124 S 
ATOM     77  O   UNL     1      -5.801 -14.393 -11.454  1.00  0.00    -0.237 OA
ATOM     78  O   UNL     1      -3.562 -15.277 -12.030  1.00  0.00    -0.237 OA
ATOM     79  O   UNL     1      -4.536 -15.744  -9.816  1.00  0.00    -0.744 OA
ENDBRANCH  75  76
ENDBRANCH  54  68
BRANCH  55  80
ATOM     80  C   UNL     1      -8.561  -8.105  -3.978  1.00  0.00     0.058 A 
ATOM     81  C   UNL     1      -9.788  -8.175  -4.685  1.00  0.00     0.135 A 
ATOM     82  C   UNL     1      -8.545  -8.765  -2.737  1.00  0.00     0.135 A 
ATOM     83  F   UNL     1      -9.934  -7.552  -5.865  1.00  0.00    -0.206 F 
ATOM     84  C   UNL     1     -10.868  -8.958  -4.261  1.00  0.00     0.059 A 
ATOM     85  C   UNL     1      -9.621  -9.540  -2.282  1.00  0.00     0.059 A 
ATOM     86  F   UNL     1      -7.446  -8.758  -1.971  1.00  0.00    -0.206 F 
ATOM     87  C   UNL     1     -10.757  -9.675  -3.076  1.00  0.00     0.060 A 
BRANCH  87  88
ATOM     88  S   UNL     1     -12.029 -10.900  -2.669  1.00  0.00     0.124 S 
ATOM     89  O   UNL     1     -13.190 -10.059  -2.401  1.00  0.00    -0.237 OA
ATOM     90  O   UNL     1     -12.087 -11.695  -3.891  1.00  0.00    -0.237 OA
ATOM     91  O   UNL     1     -11.474 -11.589  -1.507  1.00  0.00    -0.744 OA
ENDBRANCH  87  88
ENDBRANCH  55  80
BRANCH  67  92
ATOM     92  C   UNL     1      -5.693  -4.695  -8.468  1.00  0.00     0.058 A 
ATOM     93  C   UNL     1      -5.538  -4.018  -7.246  1.00  0.00     0.135 A 
ATOM     94  C   UNL     1      -5.896  -3.909  -9.614  1.00  0.00     0.135 A 
ATOM     95  F   UNL     1      -5.265  -4.683  -6.113  1.00  0.00    -0.206 F 
ATOM     96  C   UNL     1      -5.612  -2.625  -7.167  1.00  0.00     0.059 A 
ATOM     97  C   UNL     1      -5.935  -2.520  -9.564  1.00  0.00     0.059 A 
ATOM     98  F   UNL     1      -6.029  -4.494 -10.817  1.00  0.00    -0.206 F 
ATOM     99  C   UNL     1      -5.804  -1.884  -8.333  1.00  0.00     0.060 A 
BRANCH  99 100
ATOM    100  S   UNL     1      -5.792  -0.081  -8.244  1.00  0.00     0.124 S 
ATOM    101  O   UNL     1      -7.089   0.206  -7.641  1.00  0.00    -0.237 OA
ATOM    102  O   UNL     1      -4.628   0.184  -7.404  1.00  0.00    -0.237 OA
ATOM    103  O   UNL     1      -5.648   0.327  -9.640  1.00  0.00    -0.744 OA
ENDBRANCH  99 100
ENDBRANCH  67  92
ENDBRANCH  41  42
ENDBRANCH  34  36
ENDBRANCH  33  34
ENDBRANCH  32  33
ENDBRANCH  31  32
ENDBRANCH   1  31
TORSDOF 21
