REMARK SMILES CCCCCCNC(=O)Oc1cccc(-c2ccc([C@@H](C)C(=O)OCCOCCOC(=O)c3ccc(-c4c5nc(c(-c6c(F)cc(S(=O)(=O)[O-])cc6F)c6ccc([nH]6)c(-c6c(F)cc(S(=O)(=O)[O-])cc6F)c6nc(c(-c7c(F)cc(S(=O)(=O)[O-])cc7F)c7ccc4[nH]7)C=C6)C=C5)cc3)cc2O)c1
REMARK SMILES IDX 24 1 22 2 23 3 20 4 21 5 19 6 16 7 17 8 100 9 18 10 99 11
REMARK SMILES IDX 15 12 11 13 12 14 102 15 13 16 14 17 10 18 8 19 7 20 9 22
REMARK SMILES IDX 6 23 5 24 4 25 3 26 2 27 1 28 101 29 25 31 26 32 27 33 28 34
REMARK SMILES IDX 29 35 30 36 31 37 32 38 33 39 34 40 98 41 35 42 97 43 36 44
REMARK SMILES IDX 37 45 38 46 91 47 39 48 96 49 90 50 92 51 40 52 95 53 89 54
REMARK SMILES IDX 88 55 41 57 75 58 54 59 74 60 55 61 58 62 73 63 93 64 56 65
REMARK SMILES IDX 57 66 72 68 94 69 59 70 42 71 43 72 52 73 44 74 45 75 51 76
REMARK SMILES IDX 53 77 46 78 47 79 48 80 49 81 50 82 76 83 77 84 86 85 78 86
REMARK SMILES IDX 79 87 85 88 87 89 80 90 81 91 82 92 83 93 84 94 60 95 61 96
REMARK SMILES IDX 70 97 62 98 63 99 69 100 71 101 64 102 65 103 66 104 67 105
REMARK SMILES IDX 68 106
REMARK H PARENT 7 21 101 30 92 56 58 67
REMARK Flexibility Score: inf
ROOT
ATOM      1  O   UNL     1      -3.332   5.706 -13.844  1.00  0.00    -0.463 OA
ENDROOT
BRANCH   1   2
ATOM      2  C   UNL     1      -3.975   4.603 -14.304  1.00  0.00     0.313 C 
ATOM      3  O   UNL     1      -3.684   4.009 -15.339  1.00  0.00    -0.252 OA
BRANCH   2   4
ATOM      4  C   UNL     1      -5.141   4.162 -13.432  1.00  0.00     0.126 C 
ATOM      5  C   UNL     1      -6.439   4.711 -14.015  1.00  0.00     0.025 C 
BRANCH   4   6
ATOM      6  C   UNL     1      -5.042   4.402 -11.928  1.00  0.00    -0.030 A 
ATOM      7  C   UNL     1      -5.067   4.753  -9.089  1.00  0.00     0.024 A 
ATOM      8  C   UNL     1      -5.051   5.852  -9.967  1.00  0.00     0.013 A 
ATOM      9  C   UNL     1      -5.045   3.475  -9.670  1.00  0.00     0.123 A 
ATOM     10  C   UNL     1      -5.045   5.682 -11.360  1.00  0.00     0.005 A 
ATOM     11  C   UNL     1      -5.020   3.300 -11.057  1.00  0.00     0.051 A 
BRANCH   7  12
ATOM     12  C   UNL     1      -5.150   4.973  -7.632  1.00  0.00    -0.011 A 
ATOM     13  C   UNL     1      -4.301   4.660  -5.377  1.00  0.00     0.133 A 
ATOM     14  C   UNL     1      -5.400   5.326  -4.840  1.00  0.00     0.047 A 
ATOM     15  C   UNL     1      -4.171   4.474  -6.756  1.00  0.00     0.056 A 
ATOM     16  C   UNL     1      -6.370   5.838  -5.696  1.00  0.00     0.004 A 
ATOM     17  C   UNL     1      -6.246   5.661  -7.077  1.00  0.00     0.009 A 
BRANCH  13  18
ATOM     18  O   UNL     1      -3.401   4.089  -4.460  1.00  0.00    -0.410 OA
BRANCH  18  19
ATOM     19  C   UNL     1      -2.054   4.373  -4.605  1.00  0.00     0.412 C 
ATOM     20  N   UNL     1      -1.268   3.790  -3.653  1.00  0.00    -0.321 N 
ATOM     21  H   UNL     1      -0.300   3.959  -3.722  1.00  0.00     0.167 HD
ATOM     22  O   UNL     1      -1.557   5.077  -5.486  1.00  0.00    -0.224 OA
BRANCH  20  23
ATOM     23  C   UNL     1      -1.699   2.951  -2.552  1.00  0.00     0.119 C 
BRANCH  23  24
ATOM     24  C   UNL     1      -1.101   1.546  -2.634  1.00  0.00     0.021 C 
BRANCH  24  25
ATOM     25  C   UNL     1       0.429   1.487  -2.523  1.00  0.00     0.002 C 
BRANCH  25  26
ATOM     26  C   UNL     1       1.020   2.040  -1.222  1.00  0.00    -0.000 C 
BRANCH  26  27
ATOM     27  C   UNL     1       0.549   1.350   0.061  1.00  0.00    -0.003 C 
ATOM     28  C   UNL     1       0.939  -0.118   0.135  1.00  0.00     0.004 C 
ENDBRANCH  26  27
ENDBRANCH  25  26
ENDBRANCH  24  25
ENDBRANCH  23  24
ENDBRANCH  20  23
ENDBRANCH  18  19
ENDBRANCH  13  18
ENDBRANCH   7  12
BRANCH   9  29
ATOM     29  O   UNL     1      -5.097   2.320  -8.932  1.00  0.00    -0.507 OA
ATOM     30  H   UNL     1      -5.116   2.362  -7.996  1.00  0.00     0.293 HD
ENDBRANCH   9  29
ENDBRANCH   4   6
ENDBRANCH   2   4
ENDBRANCH   1   2
BRANCH   1  31
ATOM     31  C   UNL     1      -2.144   6.090 -14.560  1.00  0.00     0.261 C 
BRANCH  31  32
ATOM     32  C   UNL     1      -0.893   5.936 -13.691  1.00  0.00     0.202 C 
BRANCH  32  33
ATOM     33  O   UNL     1      -0.539   4.607 -13.311  1.00  0.00    -0.374 OA
BRANCH  33  34
ATOM     34  C   UNL     1      -1.301   3.994 -12.271  1.00  0.00     0.202 C 
BRANCH  34  35
ATOM     35  C   UNL     1      -1.027   4.453 -10.833  1.00  0.00     0.261 C 
BRANCH  35  36
ATOM     36  O   UNL     1      -1.375   5.830 -10.610  1.00  0.00    -0.460 OA
BRANCH  36  37
ATOM     37  C   UNL     1      -0.315   6.656 -10.430  1.00  0.00     0.338 C 
ATOM     38  O   UNL     1       0.864   6.344 -10.401  1.00  0.00    -0.246 OA
BRANCH  37  39
ATOM     39  C   UNL     1      -0.756   8.064 -10.471  1.00  0.00     0.060 A 
ATOM     40  C   UNL     1      -0.073   8.921 -11.344  1.00  0.00     0.016 A 
ATOM     41  C   UNL     1      -1.750   8.560  -9.625  1.00  0.00     0.016 A 
ATOM     42  C   UNL     1      -0.339  10.288 -11.331  1.00  0.00     0.010 A 
ATOM     43  C   UNL     1      -2.013   9.936  -9.612  1.00  0.00     0.010 A 
ATOM     44  C   UNL     1      -1.281  10.811 -10.436  1.00  0.00    -0.014 A 
BRANCH  44  45
ATOM     45  C   UNL     1      -1.378  12.284 -10.271  1.00  0.00     0.031 A 
ATOM     46  C   UNL     1      -0.711  12.934  -9.087  1.00  0.00     0.074 A 
ATOM     47  C   UNL     1      -1.999  13.040 -11.194  1.00  0.00     0.049 A 
ATOM     48  N   UNL     1      -0.655  14.199  -8.759  1.00  0.00    -0.248 NA
ATOM     49  C   UNL     1      -0.013  12.039  -8.150  1.00  0.00     0.031 C 
ATOM     50  C   UNL     1      -2.649  12.532 -12.402  1.00  0.00     0.029 A 
ATOM     51  N   UNL     1      -2.182  14.399 -11.260  1.00  0.00    -0.354 N 
ATOM     52  C   UNL     1       0.078  14.253  -7.578  1.00  0.00     0.074 A 
ATOM     53  C   UNL     1       0.417  12.890  -7.230  1.00  0.00     0.031 C 
ATOM     54  C   UNL     1      -3.163  13.567 -13.088  1.00  0.00     0.029 A 
ATOM     55  C   UNL     1      -2.904  14.806 -12.357  1.00  0.00     0.049 A 
ATOM     56  H   UNL     1      -1.829  15.023 -10.586  1.00  0.00     0.167 HD
ATOM     57  C   UNL     1       0.446  15.339  -6.857  1.00  0.00     0.037 A 
ATOM     58  C   UNL     1      -3.321  16.035 -12.721  1.00  0.00     0.037 A 
ATOM     59  C   UNL     1       0.111  16.695  -7.210  1.00  0.00     0.049 A 
ATOM     60  C   UNL     1      -2.950  17.224 -11.872  1.00  0.00     0.074 A 
ATOM     61  C   UNL     1       0.454  17.864  -6.554  1.00  0.00     0.029 A 
ATOM     62  N   UNL     1      -0.650  17.063  -8.310  1.00  0.00    -0.354 N 
ATOM     63  N   UNL     1      -2.235  17.261 -10.772  1.00  0.00    -0.248 NA
ATOM     64  C   UNL     1      -3.437  18.538 -12.315  1.00  0.00     0.031 C 
ATOM     65  C   UNL     1      -0.142  18.935  -7.229  1.00  0.00     0.029 A 
ATOM     66  C   UNL     1      -0.809  18.439  -8.337  1.00  0.00     0.049 A 
ATOM     67  H   UNL     1      -1.022  16.438  -8.974  1.00  0.00     0.167 HD
ATOM     68  C   UNL     1      -2.163  18.603 -10.409  1.00  0.00     0.074 A 
ATOM     69  C   UNL     1      -2.899  19.345 -11.411  1.00  0.00     0.031 C 
ATOM     70  C   UNL     1      -1.541  19.168  -9.344  1.00  0.00     0.037 A 
BRANCH  57  71
ATOM     71  C   UNL     1       1.233  15.105  -5.596  1.00  0.00     0.058 A 
ATOM     72  C   UNL     1       2.573  14.685  -5.626  1.00  0.00     0.135 A 
ATOM     73  C   UNL     1       0.648  15.335  -4.340  1.00  0.00     0.135 A 
ATOM     74  F   UNL     1       3.177  14.435  -6.799  1.00  0.00    -0.206 F 
ATOM     75  C   UNL     1       3.296  14.476  -4.456  1.00  0.00     0.059 A 
ATOM     76  C   UNL     1       1.361  15.159  -3.158  1.00  0.00     0.059 A 
ATOM     77  F   UNL     1      -0.629  15.736  -4.253  1.00  0.00    -0.206 F 
ATOM     78  C   UNL     1       2.681  14.714  -3.226  1.00  0.00     0.060 A 
BRANCH  78  79
ATOM     79  S   UNL     1       3.633  14.442  -1.716  1.00  0.00     0.124 S 
ATOM     80  O   UNL     1       3.692  12.984  -1.667  1.00  0.00    -0.237 OA
ATOM     81  O   UNL     1       4.892  15.117  -2.013  1.00  0.00    -0.237 OA
ATOM     82  O   UNL     1       2.817  15.070  -0.681  1.00  0.00    -0.744 OA
ENDBRANCH  78  79
ENDBRANCH  57  71
BRANCH  58  83
ATOM     83  C   UNL     1      -4.143  16.205 -13.949  1.00  0.00     0.058 A 
ATOM     84  C   UNL     1      -3.632  16.848 -15.086  1.00  0.00     0.135 A 
ATOM     85  C   UNL     1      -5.460  15.721 -14.010  1.00  0.00     0.135 A 
ATOM     86  F   UNL     1      -2.383  17.339 -15.073  1.00  0.00    -0.206 F 
ATOM     87  C   UNL     1      -4.398  17.016 -16.235  1.00  0.00     0.059 A 
ATOM     88  C   UNL     1      -6.237  15.853 -15.156  1.00  0.00     0.059 A 
ATOM     89  F   UNL     1      -5.994  15.090 -12.952  1.00  0.00    -0.206 F 
ATOM     90  C   UNL     1      -5.700  16.511 -16.261  1.00  0.00     0.060 A 
BRANCH  90  91
ATOM     91  S   UNL     1      -6.668  16.685 -17.776  1.00  0.00     0.124 S 
ATOM     92  O   UNL     1      -6.990  18.107 -17.757  1.00  0.00    -0.237 OA
ATOM     93  O   UNL     1      -5.717  16.258 -18.798  1.00  0.00    -0.237 OA
ATOM     94  O   UNL     1      -7.793  15.780 -17.560  1.00  0.00    -0.744 OA
ENDBRANCH  90  91
ENDBRANCH  58  83
BRANCH  70  95
ATOM     95  C   UNL     1      -1.595  20.667  -9.221  1.00  0.00     0.058 A 
ATOM     96  C   UNL     1      -2.770  21.337  -8.850  1.00  0.00     0.135 A 
ATOM     97  C   UNL     1      -0.438  21.438  -9.424  1.00  0.00     0.135 A 
ATOM     98  F   UNL     1      -3.906  20.650  -8.649  1.00  0.00    -0.206 F 
ATOM     99  C   UNL     1      -2.803  22.721  -8.707  1.00  0.00     0.059 A 
ATOM    100  C   UNL     1      -0.441  22.820  -9.258  1.00  0.00     0.059 A 
ATOM    101  F   UNL     1       0.717  20.847  -9.769  1.00  0.00    -0.206 F 
ATOM    102  C   UNL     1      -1.633  23.454  -8.911  1.00  0.00     0.060 A 
BRANCH 102 103
ATOM    103  S   UNL     1      -1.681  25.245  -8.689  1.00  0.00     0.124 S 
ATOM    104  O   UNL     1      -2.399  25.671  -9.886  1.00  0.00    -0.237 OA
ATOM    105  O   UNL     1      -2.408  25.385  -7.431  1.00  0.00    -0.237 OA
ATOM    106  O   UNL     1      -0.271  25.620  -8.636  1.00  0.00    -0.744 OA
ENDBRANCH 102 103
ENDBRANCH  70  95
ENDBRANCH  44  45
ENDBRANCH  37  39
ENDBRANCH  36  37
ENDBRANCH  35  36
ENDBRANCH  34  35
ENDBRANCH  33  34
ENDBRANCH  32  33
ENDBRANCH  31  32
ENDBRANCH   1  31
TORSDOF 27
