REMARK SMILES O=C(OCCOCCOC(=O)c1ccc(-c2c3nc(c(-c4c(F)cc(S(=O)(=O)[O-])cc4F)c4ccc([nH]4)c(-c4c(F)cc(S(=O)(=O)[O-])cc4F)c4nc(c(-c5c(F)cc(S(=O)(=O)[O-])cc5F)c5ccc2[nH]5)C=C4)C=C3)cc1)C1=Cc2cc(Cl)cc(Cl)c2O[C@@H]1C(F)(F)F
REMARK SMILES IDX 7 1 6 2 5 3 4 4 3 5 2 6 1 7 78 8 79 9 89 10 80 11 88 12
REMARK SMILES IDX 81 13 87 14 82 15 85 16 83 17 84 18 86 19 90 20 91 21 92 22
REMARK SMILES IDX 93 23 8 24 9 25 10 26 11 27 12 28 13 29 77 30 14 31 76 32
REMARK SMILES IDX 15 33 16 34 17 35 70 36 18 37 75 38 69 39 71 40 19 41 74 42
REMARK SMILES IDX 68 43 67 44 20 46 54 47 33 48 53 49 34 50 37 51 52 52 72 53
REMARK SMILES IDX 35 54 36 55 51 57 73 58 38 59 21 60 22 61 31 62 23 63 24 64
REMARK SMILES IDX 30 65 32 66 25 67 26 68 27 69 28 70 29 71 55 72 56 73 65 74
REMARK SMILES IDX 57 75 58 76 64 77 66 78 59 79 60 80 61 81 62 82 63 83 39 84
REMARK SMILES IDX 40 85 49 86 41 87 42 88 48 89 50 90 43 91 44 92 45 93 46 94
REMARK SMILES IDX 47 95
REMARK H PARENT 71 45 37 56
REMARK Flexibility Score: inf
ROOT
ATOM      1  C   UNL     1       2.776  -1.725  -2.379  1.00  0.00     0.202 C 
ENDROOT
BRANCH   1   2
ATOM      2  O   UNL     1       3.958  -0.930  -2.195  1.00  0.00    -0.374 OA
BRANCH   2   3
ATOM      3  C   UNL     1       4.380   0.221  -1.162  1.00  0.00     0.202 C 
BRANCH   3   4
ATOM      4  C   UNL     1       3.553   0.864   0.739  1.00  0.00     0.261 C 
BRANCH   4   5
ATOM      5  O   UNL     1       2.592   2.045   0.972  1.00  0.00    -0.460 OA
BRANCH   5   6
ATOM      6  C   UNL     1       2.738   3.015   0.065  1.00  0.00     0.338 C 
ATOM      7  O   UNL     1       2.080   4.010  -0.109  1.00  0.00    -0.246 OA
BRANCH   6   8
ATOM      8  C   UNL     1       3.616   2.266  -0.806  1.00  0.00     0.087 C 
ATOM      9  C   UNL     1       5.011   2.229  -0.295  1.00  0.00     0.027 C 
ATOM     10  C   UNL     1       2.461   0.721  -0.968  1.00  0.00     0.316 C 
ATOM     11  C   UNL     1       5.766   0.756   0.454  1.00  0.00     0.020 A 
ATOM     12  O   UNL     1       3.213  -0.829  -0.100  1.00  0.00    -0.474 OA
ATOM     13  C   UNL     1       7.014   0.843   1.009  1.00  0.00     0.032 A 
ATOM     14  C   UNL     1       4.869  -0.715   0.662  1.00  0.00     0.146 A 
ATOM     15  C   UNL     1       7.412  -0.282   1.756  1.00  0.00     0.043 A 
ATOM     16  C   UNL     1       5.271  -1.657   1.567  1.00  0.00     0.085 A 
ATOM     17  Cl  UNL     1       9.017  -0.247   2.414  1.00  0.00    -0.084 Cl
ATOM     18  C   UNL     1       6.577  -1.433   2.066  1.00  0.00     0.045 A 
ATOM     19  Cl  UNL     1       4.199  -2.746   2.318  1.00  0.00    -0.080 Cl
BRANCH  10  20
ATOM     20  C   UNL     1       1.990   0.963  -2.468  1.00  0.00     0.430 C 
ATOM     21  F   UNL     1       1.095   0.086  -2.955  1.00  0.00    -0.167 F 
ATOM     22  F   UNL     1       1.338   2.166  -2.492  1.00  0.00    -0.167 F 
ATOM     23  F   UNL     1       2.993   1.107  -3.364  1.00  0.00    -0.167 F 
ENDBRANCH  10  20
ENDBRANCH   6   8
ENDBRANCH   5   6
ENDBRANCH   4   5
ENDBRANCH   3   4
ENDBRANCH   2   3
ENDBRANCH   1   2
BRANCH   1  24
ATOM     24  C   UNL     1       2.921  -3.241  -2.371  1.00  0.00     0.261 C 
BRANCH  24  25
ATOM     25  O   UNL     1       3.539  -3.731  -1.198  1.00  0.00    -0.460 OA
BRANCH  25  26
ATOM     26  C   UNL     1       4.872  -3.904  -1.333  1.00  0.00     0.338 C 
ATOM     27  O   UNL     1       5.584  -3.529  -2.248  1.00  0.00    -0.246 OA
BRANCH  26  28
ATOM     28  C   UNL     1       5.359  -4.638  -0.159  1.00  0.00     0.060 A 
ATOM     29  C   UNL     1       6.677  -4.408   0.239  1.00  0.00     0.016 A 
ATOM     30  C   UNL     1       4.522  -5.507   0.560  1.00  0.00     0.016 A 
ATOM     31  C   UNL     1       7.159  -5.037   1.376  1.00  0.00     0.010 A 
ATOM     32  C   UNL     1       5.002  -6.126   1.706  1.00  0.00     0.010 A 
ATOM     33  C   UNL     1       6.327  -5.904   2.100  1.00  0.00    -0.014 A 
BRANCH  33  34
ATOM     34  C   UNL     1       6.930  -6.716   3.167  1.00  0.00     0.031 A 
ATOM     35  C   UNL     1       7.371  -8.102   2.816  1.00  0.00     0.074 A 
ATOM     36  C   UNL     1       7.150  -6.185   4.380  1.00  0.00     0.049 A 
ATOM     37  N   UNL     1       8.043  -8.957   3.534  1.00  0.00    -0.248 NA
ATOM     38  C   UNL     1       7.014  -8.587   1.470  1.00  0.00     0.031 C 
ATOM     39  C   UNL     1       6.745  -4.844   4.803  1.00  0.00     0.029 A 
ATOM     40  N   UNL     1       7.779  -6.708   5.476  1.00  0.00    -0.354 N 
ATOM     41  C   UNL     1       8.226 -10.062   2.716  1.00  0.00     0.074 A 
ATOM     42  C   UNL     1       7.532  -9.804   1.475  1.00  0.00     0.031 C 
ATOM     43  C   UNL     1       7.145  -4.647   6.071  1.00  0.00     0.029 A 
ATOM     44  C   UNL     1       7.814  -5.853   6.551  1.00  0.00     0.049 A 
ATOM     45  H   UNL     1       8.171  -7.611   5.493  1.00  0.00     0.167 HD
ATOM     46  C   UNL     1       8.941 -11.180   2.972  1.00  0.00     0.037 A 
ATOM     47  C   UNL     1       8.324  -6.039   7.783  1.00  0.00     0.037 A 
ATOM     48  C   UNL     1       9.589 -11.432   4.230  1.00  0.00     0.049 A 
ATOM     49  C   UNL     1       9.041  -7.334   8.071  1.00  0.00     0.074 A 
ATOM     50  C   UNL     1      10.321 -12.539   4.614  1.00  0.00     0.029 A 
ATOM     51  N   UNL     1       9.569 -10.567   5.316  1.00  0.00    -0.354 N 
ATOM     52  N   UNL     1       9.254  -8.357   7.274  1.00  0.00    -0.248 NA
ATOM     53  C   UNL     1       9.604  -7.493   9.417  1.00  0.00     0.031 C 
ATOM     54  C   UNL     1      10.690 -12.372   5.952  1.00  0.00     0.029 A 
ATOM     55  C   UNL     1      10.253 -11.127   6.381  1.00  0.00     0.049 A 
ATOM     56  H   UNL     1       9.133  -9.684   5.328  1.00  0.00     0.167 HD
ATOM     57  C   UNL     1       9.999  -9.268   8.015  1.00  0.00     0.074 A 
ATOM     58  C   UNL     1      10.225  -8.658   9.310  1.00  0.00     0.031 C 
ATOM     59  C   UNL     1      10.455 -10.499   7.664  1.00  0.00     0.037 A 
BRANCH  46  60
ATOM     60  C   UNL     1       9.035 -12.203   1.877  1.00  0.00     0.058 A 
ATOM     61  C   UNL     1       9.758 -11.954   0.698  1.00  0.00     0.135 A 
ATOM     62  C   UNL     1       8.411 -13.452   2.012  1.00  0.00     0.135 A 
ATOM     63  F   UNL     1      10.347 -10.763   0.503  1.00  0.00    -0.206 F 
ATOM     64  C   UNL     1       9.847 -12.903  -0.314  1.00  0.00     0.059 A 
ATOM     65  C   UNL     1       8.514 -14.428   1.026  1.00  0.00     0.059 A 
ATOM     66  F   UNL     1       7.692 -13.734   3.109  1.00  0.00    -0.206 F 
ATOM     67  C   UNL     1       9.228 -14.141  -0.136  1.00  0.00     0.060 A 
BRANCH  67  68
ATOM     68  S   UNL     1       9.383 -15.372  -1.446  1.00  0.00     0.124 S 
ATOM     69  O   UNL     1       8.588 -14.768  -2.512  1.00  0.00    -0.237 OA
ATOM     70  O   UNL     1      10.824 -15.403  -1.670  1.00  0.00    -0.237 OA
ATOM     71  O   UNL     1       8.816 -16.578  -0.850  1.00  0.00    -0.744 OA
ENDBRANCH  67  68
ENDBRANCH  46  60
BRANCH  47  72
ATOM     72  C   UNL     1       8.165  -4.993   8.830  1.00  0.00     0.058 A 
ATOM     73  C   UNL     1       9.268  -4.318   9.374  1.00  0.00     0.135 A 
ATOM     74  C   UNL     1       6.893  -4.667   9.329  1.00  0.00     0.135 A 
ATOM     75  F   UNL     1      10.506  -4.593   8.936  1.00  0.00    -0.206 F 
ATOM     76  C   UNL     1       9.121  -3.384  10.396  1.00  0.00     0.059 A 
ATOM     77  C   UNL     1       6.717  -3.712  10.324  1.00  0.00     0.059 A 
ATOM     78  F   UNL     1       5.801  -5.270   8.835  1.00  0.00    -0.206 F 
ATOM     79  C   UNL     1       7.840  -3.087  10.864  1.00  0.00     0.060 A 
BRANCH  79  80
ATOM     80  S   UNL     1       7.657  -1.857  12.172  1.00  0.00     0.124 S 
ATOM     81  O   UNL     1       8.234  -2.554  13.315  1.00  0.00    -0.237 OA
ATOM     82  O   UNL     1       8.434  -0.738  11.647  1.00  0.00    -0.237 OA
ATOM     83  O   UNL     1       6.215  -1.637  12.229  1.00  0.00    -0.744 OA
ENDBRANCH  79  80
ENDBRANCH  47  72
BRANCH  59  84
ATOM     84  C   UNL     1      11.267 -11.246   8.690  1.00  0.00     0.058 A 
ATOM     85  C   UNL     1      10.699 -11.721   9.884  1.00  0.00     0.135 A 
ATOM     86  C   UNL     1      12.630 -11.501   8.468  1.00  0.00     0.135 A 
ATOM     87  F   UNL     1       9.400 -11.507  10.147  1.00  0.00    -0.206 F 
ATOM     88  C   UNL     1      11.466 -12.369  10.845  1.00  0.00     0.059 A 
ATOM     89  C   UNL     1      13.406 -12.186   9.396  1.00  0.00     0.059 A 
ATOM     90  F   UNL     1      13.222 -11.088   7.336  1.00  0.00    -0.206 F 
ATOM     91  C   UNL     1      12.820 -12.594  10.593  1.00  0.00     0.060 A 
BRANCH  91  92
ATOM     92  S   UNL     1      13.806 -13.426  11.854  1.00  0.00     0.124 S 
ATOM     93  O   UNL     1      13.893 -12.396  12.885  1.00  0.00    -0.237 OA
ATOM     94  O   UNL     1      12.978 -14.583  12.182  1.00  0.00    -0.237 OA
ATOM     95  O   UNL     1      15.056 -13.731  11.165  1.00  0.00    -0.744 OA
ENDBRANCH  91  92
ENDBRANCH  59  84
ENDBRANCH  33  34
ENDBRANCH  26  28
ENDBRANCH  25  26
ENDBRANCH  24  25
ENDBRANCH   1  24
TORSDOF 18
