REMARK SMILES CCc1cn(C[C@H](NC(=O)c2ccco2)C(=O)OCCOCCOC(=O)c2ccc(-c3c4nc(c(-c5c(F)cc(S(=O)(=O)[O-])cc5F)c5ccc([nH]5)c(-c5c(F)cc(S(=O)(=O)[O-])cc5F)c5nc(c(-c6c(F)cc(S(=O)(=O)[O-])cc6F)c6ccc3[nH]6)C=C5)C=C4)cc2)c(=O)[nH]c1=O
REMARK SMILES IDX 21 1 20 2 19 3 18 4 16 5 17 6 7 7 6 8 5 9 3 10 4 11 96 12
REMARK SMILES IDX 95 13 97 14 93 15 94 17 2 18 1 19 8 20 9 21 10 23 11 24
REMARK SMILES IDX 12 25 15 26 13 27 14 28 22 29 23 30 24 31 25 32 26 33 27 34
REMARK SMILES IDX 28 35 92 36 29 37 91 38 30 39 31 40 32 41 85 42 33 43 90 44
REMARK SMILES IDX 84 45 86 46 34 47 89 48 83 49 82 50 35 52 69 53 48 54 68 55
REMARK SMILES IDX 49 56 52 57 67 58 87 59 50 60 51 61 66 63 88 64 53 65 36 66
REMARK SMILES IDX 37 67 46 68 38 69 39 70 45 71 47 72 40 73 41 74 42 75 43 76
REMARK SMILES IDX 44 77 70 78 71 79 80 80 72 81 73 82 79 83 81 84 74 85 75 86
REMARK SMILES IDX 76 87 77 88 78 89 54 90 55 91 64 92 56 93 57 94 63 95 65 96
REMARK SMILES IDX 58 97 59 98 60 99 61 100 62 101
REMARK H PARENT 95 16 8 22 86 51 52 62
REMARK Flexibility Score: inf
ROOT
ATOM      1  O   UNL     1       9.049  -3.749   0.806  1.00  0.00    -0.374 OA
ENDROOT
BRANCH   1   2
ATOM      2  C   UNL     1       9.377  -4.902   0.034  1.00  0.00     0.202 C 
BRANCH   2   3
ATOM      3  C   UNL     1       8.400  -6.073   0.087  1.00  0.00     0.261 C 
BRANCH   3   4
ATOM      4  O   UNL     1       7.063  -5.657  -0.207  1.00  0.00    -0.462 OA
BRANCH   4   5
ATOM      5  C   UNL     1       6.162  -5.867   0.783  1.00  0.00     0.330 C 
ATOM      6  O   UNL     1       6.438  -6.276   1.909  1.00  0.00    -0.250 OA
BRANCH   5   7
ATOM      7  C   UNL     1       4.715  -5.565   0.368  1.00  0.00     0.212 C 
BRANCH   7   8
ATOM      8  C   UNL     1       3.911  -6.822   0.712  1.00  0.00     0.164 C 
BRANCH   8   9
ATOM      9  N   UNL     1       4.290  -8.131   0.135  1.00  0.00    -0.298 N 
ATOM     10  C   UNL     1       4.058 -10.498   0.414  1.00  0.00     0.033 A 
ATOM     11  C   UNL     1       3.794  -9.242   0.791  1.00  0.00     0.100 A 
ATOM     12  C   UNL     1       4.871 -10.692  -0.806  1.00  0.00     0.256 A 
ATOM     13  N   UNL     1       5.292  -9.556  -1.423  1.00  0.00    -0.274 N 
ATOM     14  O   UNL     1       5.176 -11.797  -1.230  1.00  0.00    -0.269 OA
ATOM     15  C   UNL     1       5.093  -8.280  -0.991  1.00  0.00     0.328 A 
ATOM     16  H   UNL     1       5.789  -9.667  -2.266  1.00  0.00     0.175 HD
ATOM     17  O   UNL     1       5.647  -7.367  -1.592  1.00  0.00    -0.248 OA
BRANCH  10  18
ATOM     18  C   UNL     1       3.589 -11.702   1.177  1.00  0.00     0.039 C 
ATOM     19  C   UNL     1       4.094 -11.704   2.616  1.00  0.00     0.009 C 
ENDBRANCH  10  18
ENDBRANCH   8   9
ENDBRANCH   7   8
BRANCH   7  20
ATOM     20  N   UNL     1       4.447  -4.819  -0.877  1.00  0.00    -0.334 N 
ATOM     21  C   UNL     1       3.734  -5.003  -2.037  1.00  0.00     0.287 C 
ATOM     22  H   UNL     1       4.906  -3.948  -0.876  1.00  0.00     0.164 HD
ATOM     23  O   UNL     1       3.771  -4.060  -2.833  1.00  0.00    -0.266 OA
BRANCH  21  24
ATOM     24  C   UNL     1       2.981  -6.204  -2.300  1.00  0.00     0.191 A 
ATOM     25  C   UNL     1       1.842  -6.768  -1.753  1.00  0.00     0.056 A 
ATOM     26  O   UNL     1       3.401  -6.989  -3.343  1.00  0.00    -0.459 OA
ATOM     27  C   UNL     1       1.658  -8.022  -2.391  1.00  0.00     0.043 A 
ATOM     28  C   UNL     1       2.620  -8.096  -3.368  1.00  0.00     0.196 A 
ENDBRANCH  21  24
ENDBRANCH   7  20
ENDBRANCH   5   7
ENDBRANCH   4   5
ENDBRANCH   3   4
ENDBRANCH   2   3
ENDBRANCH   1   2
BRANCH   1  29
ATOM     29  C   UNL     1       7.907  -2.978   0.434  1.00  0.00     0.202 C 
BRANCH  29  30
ATOM     30  C   UNL     1       7.886  -2.308  -0.948  1.00  0.00     0.261 C 
BRANCH  30  31
ATOM     31  O   UNL     1       7.848  -3.237  -2.045  1.00  0.00    -0.460 OA
BRANCH  31  32
ATOM     32  C   UNL     1       8.947  -3.234  -2.840  1.00  0.00     0.338 C 
ATOM     33  O   UNL     1       9.955  -2.555  -2.698  1.00  0.00    -0.246 OA
BRANCH  32  34
ATOM     34  C   UNL     1       8.852  -4.312  -3.838  1.00  0.00     0.060 A 
ATOM     35  C   UNL     1       7.885  -4.269  -4.842  1.00  0.00     0.016 A 
ATOM     36  C   UNL     1       9.812  -5.334  -3.817  1.00  0.00     0.016 A 
ATOM     37  C   UNL     1       7.889  -5.251  -5.837  1.00  0.00     0.010 A 
ATOM     38  C   UNL     1       9.809  -6.316  -4.809  1.00  0.00     0.010 A 
ATOM     39  C   UNL     1       8.856  -6.274  -5.836  1.00  0.00    -0.014 A 
BRANCH  39  40
ATOM     40  C   UNL     1       8.919  -7.248  -6.955  1.00  0.00     0.031 A 
ATOM     41  C   UNL     1       8.443  -8.662  -6.773  1.00  0.00     0.074 A 
ATOM     42  C   UNL     1       9.409  -6.842  -8.143  1.00  0.00     0.049 A 
ATOM     43  N   UNL     1       8.395  -9.631  -7.651  1.00  0.00    -0.248 NA
ATOM     44  C   UNL     1       7.963  -9.039  -5.434  1.00  0.00     0.031 C 
ATOM     45  C   UNL     1       9.912  -5.497  -8.429  1.00  0.00     0.029 A 
ATOM     46  N   UNL     1       9.552  -7.509  -9.334  1.00  0.00    -0.354 N 
ATOM     47  C   UNL     1       7.849 -10.722  -6.986  1.00  0.00     0.074 A 
ATOM     48  C   UNL     1       7.642 -10.316  -5.611  1.00  0.00     0.031 C 
ATOM     49  C   UNL     1      10.271  -5.427  -9.721  1.00  0.00     0.029 A 
ATOM     50  C   UNL     1      10.058  -6.727 -10.348  1.00  0.00     0.049 A 
ATOM     51  H   UNL     1       9.316  -8.457  -9.452  1.00  0.00     0.167 HD
ATOM     52  C   UNL     1       7.523 -11.938  -7.487  1.00  0.00     0.037 A 
ATOM     53  C   UNL     1      10.315  -7.025 -11.637  1.00  0.00     0.037 A 
ATOM     54  C   UNL     1       7.743 -12.337  -8.857  1.00  0.00     0.049 A 
ATOM     55  C   UNL     1      10.021  -8.415 -12.139  1.00  0.00     0.074 A 
ATOM     56  C   UNL     1       7.447 -13.550  -9.457  1.00  0.00     0.029 A 
ATOM     57  N   UNL     1       8.307 -11.537  -9.841  1.00  0.00    -0.354 N 
ATOM     58  N   UNL     1       9.470  -9.423 -11.506  1.00  0.00    -0.248 NA
ATOM     59  C   UNL     1      10.384  -8.708 -13.533  1.00  0.00     0.031 C 
ATOM     60  C   UNL     1       7.871 -13.499 -10.788  1.00  0.00     0.029 A 
ATOM     61  C   UNL     1       8.383 -12.237 -11.036  1.00  0.00     0.049 A 
ATOM     62  H   UNL     1       8.609 -10.609  -9.710  1.00  0.00     0.167 HD
ATOM     63  C   UNL     1       9.388 -10.456 -12.435  1.00  0.00     0.074 A 
ATOM     64  C   UNL     1       9.930  -9.945 -13.677  1.00  0.00     0.031 C 
ATOM     65  C   UNL     1       8.910 -11.714 -12.273  1.00  0.00     0.037 A 
BRANCH  52  66
ATOM     66  C   UNL     1       6.856 -12.930  -6.571  1.00  0.00     0.058 A 
ATOM     67  C   UNL     1       5.519 -12.764  -6.174  1.00  0.00     0.135 A 
ATOM     68  C   UNL     1       7.507 -14.114  -6.189  1.00  0.00     0.135 A 
ATOM     69  F   UNL     1       4.853 -11.642  -6.495  1.00  0.00    -0.206 F 
ATOM     70  C   UNL     1       4.848 -13.740  -5.444  1.00  0.00     0.059 A 
ATOM     71  C   UNL     1       6.847 -15.116  -5.479  1.00  0.00     0.059 A 
ATOM     72  F   UNL     1       8.786 -14.324  -6.538  1.00  0.00    -0.206 F 
ATOM     73  C   UNL     1       5.515 -14.922  -5.117  1.00  0.00     0.060 A 
BRANCH  73  74
ATOM     74  S   UNL     1       4.591 -16.221  -4.266  1.00  0.00     0.124 S 
ATOM     75  O   UNL     1       4.325 -15.608  -2.969  1.00  0.00    -0.237 OA
ATOM     76  O   UNL     1       3.429 -16.390  -5.133  1.00  0.00    -0.237 OA
ATOM     77  O   UNL     1       5.522 -17.346  -4.245  1.00  0.00    -0.744 OA
ENDBRANCH  73  74
ENDBRANCH  52  66
BRANCH  53  78
ATOM     78  C   UNL     1      10.859  -5.992 -12.560  1.00  0.00     0.058 A 
ATOM     79  C   UNL     1      10.101  -5.530 -13.648  1.00  0.00     0.135 A 
ATOM     80  C   UNL     1      12.155  -5.477 -12.405  1.00  0.00     0.135 A 
ATOM     81  F   UNL     1       8.858  -5.995 -13.844  1.00  0.00    -0.206 F 
ATOM     82  C   UNL     1      10.620  -4.626 -14.569  1.00  0.00     0.059 A 
ATOM     83  C   UNL     1      12.686  -4.548 -13.295  1.00  0.00     0.059 A 
ATOM     84  F   UNL     1      12.919  -5.873 -11.375  1.00  0.00    -0.206 F 
ATOM     85  C   UNL     1      11.917  -4.144 -14.386  1.00  0.00     0.060 A 
BRANCH  85  86
ATOM     86  S   UNL     1      12.584  -2.981 -15.595  1.00  0.00     0.124 S 
ATOM     87  O   UNL     1      12.752  -3.837 -16.764  1.00  0.00    -0.237 OA
ATOM     88  O   UNL     1      11.520  -1.986 -15.680  1.00  0.00    -0.237 OA
ATOM     89  O   UNL     1      13.819  -2.518 -14.971  1.00  0.00    -0.744 OA
ENDBRANCH  85  86
ENDBRANCH  53  78
BRANCH  65  90
ATOM     90  C   UNL     1       8.918 -12.623 -13.473  1.00  0.00     0.058 A 
ATOM     91  C   UNL     1      10.111 -13.149 -13.992  1.00  0.00     0.135 A 
ATOM     92  C   UNL     1       7.712 -13.020 -14.076  1.00  0.00     0.135 A 
ATOM     93  F   UNL     1      11.293 -12.797 -13.460  1.00  0.00    -0.206 F 
ATOM     94  C   UNL     1      10.112 -14.017 -15.079  1.00  0.00     0.059 A 
ATOM     95  C   UNL     1       7.687 -13.913 -15.144  1.00  0.00     0.059 A 
ATOM     96  F   UNL     1       6.540 -12.556 -13.615  1.00  0.00    -0.206 F 
ATOM     97  C   UNL     1       8.894 -14.399 -15.645  1.00  0.00     0.060 A 
BRANCH  97  98
ATOM     98  S   UNL     1       8.913 -15.559 -17.028  1.00  0.00     0.124 S 
ATOM     99  O   UNL     1       9.488 -14.742 -18.092  1.00  0.00    -0.237 OA
ATOM    100  O   UNL     1       9.764 -16.631 -16.522  1.00  0.00    -0.237 OA
ATOM    101  O   UNL     1       7.506 -15.911 -17.200  1.00  0.00    -0.744 OA
ENDBRANCH  97  98
ENDBRANCH  65  90
ENDBRANCH  39  40
ENDBRANCH  32  34
ENDBRANCH  31  32
ENDBRANCH  30  31
ENDBRANCH  29  30
ENDBRANCH   1  29
TORSDOF 22
