REMARK SMILES O=C(OCCOCCOC(=O)[C@@H]1CCCCC[C@H]1NS(=O)(=O)C(F)F)c1ccc(-c2c3nc(c(-c4c(F)cc(S(=O)(=O)[O-])cc4F)c4ccc([nH]4)c(-c4c(F)cc(S(=O)(=O)[O-])cc4F)c4nc(c(-c5c(F)cc(S(=O)(=O)[O-])cc5F)c5ccc2[nH]5)C=C4)C=C3)cc1
REMARK SMILES IDX 7 1 6 2 5 3 4 4 3 5 2 6 1 7 26 8 27 9 91 10 28 11 90 12
REMARK SMILES IDX 29 13 30 14 31 15 84 16 32 17 89 18 83 19 85 20 33 21 88 22
REMARK SMILES IDX 82 23 81 24 34 26 68 27 47 28 67 29 48 30 51 31 66 32 86 33
REMARK SMILES IDX 49 34 50 35 65 37 87 38 52 39 35 40 36 41 45 42 37 43 38 44
REMARK SMILES IDX 44 45 46 46 39 47 40 48 41 49 42 50 43 51 69 52 70 53 79 54
REMARK SMILES IDX 71 55 72 56 78 57 80 58 73 59 74 60 75 61 76 62 77 63 53 64
REMARK SMILES IDX 54 65 63 66 55 67 56 68 62 69 64 70 57 71 58 72 59 73 60 74
REMARK SMILES IDX 61 75 8 76 9 77 10 78 11 79 12 80 13 81 14 82 18 84 17 85
REMARK SMILES IDX 16 86 15 87 19 89 20 91 21 92 22 93 23 94 24 95 25 96
REMARK H PARENT 85 25 51 36 19 90
REMARK Flexibility Score: 90.00
ROOT
ATOM      1  C   UNL     1       2.675  -0.297   2.345  1.00  0.00     0.202 C 
ENDROOT
BRANCH   1   2
ATOM      2  O   UNL     1       3.969  -0.405   1.748  1.00  0.00    -0.374 OA
BRANCH   2   3
ATOM      3  C   UNL     1       4.357   0.642   0.876  1.00  0.00     0.202 C 
BRANCH   3   4
ATOM      4  C   UNL     1       3.884   0.610  -0.574  1.00  0.00     0.261 C 
BRANCH   4   5
ATOM      5  O   UNL     1       2.449   0.476  -0.645  1.00  0.00    -0.460 OA
BRANCH   5   6
ATOM      6  C   UNL     1       1.789  -0.643  -1.052  1.00  0.00     0.338 C 
ATOM      7  O   UNL     1       0.575  -0.641  -1.206  1.00  0.00    -0.246 OA
BRANCH   6   8
ATOM      8  C   UNL     1       2.572  -1.865  -1.331  1.00  0.00     0.060 A 
ATOM      9  C   UNL     1       3.525  -2.291  -0.421  1.00  0.00     0.016 A 
ATOM     10  C   UNL     1       2.372  -2.616  -2.483  1.00  0.00     0.016 A 
ATOM     11  C   UNL     1       4.462  -3.233  -0.731  1.00  0.00     0.010 A 
ATOM     12  C   UNL     1       3.164  -3.750  -2.696  1.00  0.00     0.010 A 
ATOM     13  C   UNL     1       4.224  -4.047  -1.820  1.00  0.00    -0.014 A 
BRANCH  13  14
ATOM     14  C   UNL     1       5.119  -5.203  -1.961  1.00  0.00     0.031 A 
ATOM     15  C   UNL     1       5.987  -5.280  -3.167  1.00  0.00     0.074 A 
ATOM     16  C   UNL     1       5.216  -6.078  -0.936  1.00  0.00     0.049 A 
ATOM     17  N   UNL     1       6.730  -6.267  -3.573  1.00  0.00    -0.248 NA
ATOM     18  C   UNL     1       6.024  -4.091  -4.039  1.00  0.00     0.031 C 
ATOM     19  C   UNL     1       4.498  -5.976   0.347  1.00  0.00     0.029 A 
ATOM     20  N   UNL     1       5.979  -7.202  -0.781  1.00  0.00    -0.354 N 
ATOM     21  C   UNL     1       7.266  -5.851  -4.782  1.00  0.00     0.074 A 
ATOM     22  C   UNL     1       6.785  -4.514  -5.038  1.00  0.00     0.031 C 
ATOM     23  C   UNL     1       4.893  -6.961   1.164  1.00  0.00     0.029 A 
ATOM     24  C   UNL     1       5.775  -7.842   0.421  1.00  0.00     0.049 A 
ATOM     25  H   UNL     1       6.614  -7.522  -1.462  1.00  0.00     0.167 HD
ATOM     26  C   UNL     1       8.072  -6.559  -5.601  1.00  0.00     0.037 A 
ATOM     27  C   UNL     1       6.193  -9.050   0.837  1.00  0.00     0.037 A 
ATOM     28  C   UNL     1       8.539  -7.878  -5.272  1.00  0.00     0.049 A 
ATOM     29  C   UNL     1       7.017  -9.847  -0.134  1.00  0.00     0.074 A 
ATOM     30  C   UNL     1       9.323  -8.729  -6.026  1.00  0.00     0.029 A 
ATOM     31  N   UNL     1       8.264  -8.532  -4.076  1.00  0.00    -0.354 N 
ATOM     32  N   UNL     1       7.450  -9.493  -1.323  1.00  0.00    -0.248 NA
ATOM     33  C   UNL     1       7.385 -11.207   0.267  1.00  0.00     0.031 C 
ATOM     34  C   UNL     1       9.476  -9.918  -5.307  1.00  0.00     0.029 A 
ATOM     35  C   UNL     1       8.842  -9.786  -4.078  1.00  0.00     0.049 A 
ATOM     36  H   UNL     1       7.734  -8.156  -3.336  1.00  0.00     0.167 HD
ATOM     37  C   UNL     1       8.158 -10.582  -1.808  1.00  0.00     0.074 A 
ATOM     38  C   UNL     1       8.114 -11.596  -0.769  1.00  0.00     0.031 C 
ATOM     39  C   UNL     1       8.779 -10.745  -3.002  1.00  0.00     0.037 A 
BRANCH  26  40
ATOM     40  C   UNL     1       8.409  -5.962  -6.933  1.00  0.00     0.058 A 
ATOM     41  C   UNL     1       9.293  -4.882  -7.073  1.00  0.00     0.135 A 
ATOM     42  C   UNL     1       7.830  -6.492  -8.098  1.00  0.00     0.135 A 
ATOM     43  F   UNL     1       9.837  -4.307  -5.988  1.00  0.00    -0.206 F 
ATOM     44  C   UNL     1       9.593  -4.349  -8.323  1.00  0.00     0.059 A 
ATOM     45  C   UNL     1       8.135  -5.992  -9.358  1.00  0.00     0.059 A 
ATOM     46  F   UNL     1       6.953  -7.505  -8.015  1.00  0.00    -0.206 F 
ATOM     47  C   UNL     1       9.016  -4.918  -9.460  1.00  0.00     0.060 A 
BRANCH  47  48
ATOM     48  S   UNL     1       9.453  -4.245 -11.077  1.00  0.00     0.124 S 
ATOM     49  O   UNL     1       8.782  -2.949 -11.046  1.00  0.00    -0.237 OA
ATOM     50  O   UNL     1      10.910  -4.207 -11.011  1.00  0.00    -0.237 OA
ATOM     51  O   UNL     1       8.896  -5.217 -12.012  1.00  0.00    -0.744 OA
ENDBRANCH  47  48
ENDBRANCH  26  40
BRANCH  27  52
ATOM     52  C   UNL     1       5.759  -9.608   2.149  1.00  0.00     0.058 A 
ATOM     53  C   UNL     1       6.687  -9.939   3.147  1.00  0.00     0.135 A 
ATOM     54  C   UNL     1       4.401  -9.855   2.425  1.00  0.00     0.135 A 
ATOM     55  F   UNL     1       7.996  -9.726   2.941  1.00  0.00    -0.206 F 
ATOM     56  C   UNL     1       6.295 -10.529   4.346  1.00  0.00     0.059 A 
ATOM     57  C   UNL     1       3.981 -10.408   3.631  1.00  0.00     0.059 A 
ATOM     58  F   UNL     1       3.460  -9.546   1.519  1.00  0.00    -0.206 F 
ATOM     59  C   UNL     1       4.939 -10.765   4.576  1.00  0.00     0.060 A 
BRANCH  59  60
ATOM     60  S   UNL     1       4.440 -11.549   6.125  1.00  0.00     0.124 S 
ATOM     61  O   UNL     1       4.897 -12.919   5.918  1.00  0.00    -0.237 OA
ATOM     62  O   UNL     1       5.178 -10.771   7.115  1.00  0.00    -0.237 OA
ATOM     63  O   UNL     1       2.992 -11.364   6.144  1.00  0.00    -0.744 OA
ENDBRANCH  59  60
ENDBRANCH  27  52
BRANCH  39  64
ATOM     64  C   UNL     1       9.494 -12.044  -3.213  1.00  0.00     0.058 A 
ATOM     65  C   UNL     1       8.796 -13.239  -3.439  1.00  0.00     0.135 A 
ATOM     66  C   UNL     1      10.897 -12.073  -3.248  1.00  0.00     0.135 A 
ATOM     67  F   UNL     1       7.454 -13.257  -3.403  1.00  0.00    -0.206 F 
ATOM     68  C   UNL     1       9.469 -14.429  -3.674  1.00  0.00     0.059 A 
ATOM     69  C   UNL     1      11.588 -13.245  -3.517  1.00  0.00     0.059 A 
ATOM     70  F   UNL     1      11.603 -10.949  -3.046  1.00  0.00    -0.206 F 
ATOM     71  C   UNL     1      10.865 -14.420  -3.718  1.00  0.00     0.060 A 
BRANCH  71  72
ATOM     72  S   UNL     1      11.724 -15.964  -4.073  1.00  0.00     0.124 S 
ATOM     73  O   UNL     1      11.546 -16.693  -2.822  1.00  0.00    -0.237 OA
ATOM     74  O   UNL     1      10.980 -16.477  -5.219  1.00  0.00    -0.237 OA
ATOM     75  O   UNL     1      13.089 -15.534  -4.361  1.00  0.00    -0.744 OA
ENDBRANCH  71  72
ENDBRANCH  39  64
ENDBRANCH  13  14
ENDBRANCH   6   8
ENDBRANCH   5   6
ENDBRANCH   4   5
ENDBRANCH   3   4
ENDBRANCH   2   3
ENDBRANCH   1   2
BRANCH   1  76
ATOM     76  C   UNL     1       2.863  -0.240   3.855  1.00  0.00     0.261 C 
BRANCH  76  77
ATOM     77  O   UNL     1       3.455   1.033   4.171  1.00  0.00    -0.463 OA
BRANCH  77  78
ATOM     78  C   UNL     1       4.815   1.127   4.138  1.00  0.00     0.310 C 
ATOM     79  O   UNL     1       5.587   0.180   4.091  1.00  0.00    -0.252 OA
BRANCH  78  80
ATOM     80  C   UNL     1       5.276   2.591   4.109  1.00  0.00     0.117 C 
BRANCH  80  81
ATOM     81  C   UNL     1       4.114   3.509   4.527  1.00  0.00     0.017 C 
BRANCH  81  82
ATOM     82  C   UNL     1       4.468   4.985   4.576  1.00  0.00     0.001 CG0
ATOM     83  G   UNL     1       4.169   5.695   3.262  1.00  0.00     0.000 G0
ENDBRANCH  81  82
ENDBRANCH  80  81
BRANCH  80  84
ATOM     84  C   UNL     1       5.944   2.918   2.740  1.00  0.00     0.084 C 
BRANCH  84  85
ATOM     85  C   UNL     1       5.113   3.815   1.799  1.00  0.00     0.021 C 
BRANCH  85  86
ATOM     86  C   UNL     1       5.088   5.307   2.114  1.00  0.00     0.002 C 
BRANCH  86  87
ATOM     87  C   UNL     1       4.169   5.695   3.262  1.00  0.00     0.000 CG0
ATOM     88  G   UNL     1       4.468   4.985   4.576  1.00  0.00     0.000 G0
ENDBRANCH  86  87
ENDBRANCH  85  86
ENDBRANCH  84  85
BRANCH  84  89
ATOM     89  N   UNL     1       7.319   3.447   2.938  1.00  0.00    -0.206 NA
ATOM     90  H   UNL     1       7.778   2.806   3.585  1.00  0.00     0.141 HD
BRANCH  89  91
ATOM     91  S   UNL     1       8.403   3.675   1.656  1.00  0.00     0.274 S 
ATOM     92  O   UNL     1       7.796   4.629   0.741  1.00  0.00    -0.206 OA
ATOM     93  O   UNL     1       9.650   4.035   2.296  1.00  0.00    -0.206 OA
BRANCH  91  94
ATOM     94  C   UNL     1       8.584   2.057   0.796  1.00  0.00     0.473 C 
ATOM     95  F   UNL     1       8.928   1.051   1.644  1.00  0.00    -0.191 F 
ATOM     96  F   UNL     1       7.423   1.677   0.184  1.00  0.00    -0.191 F 
ENDBRANCH  91  94
ENDBRANCH  89  91
ENDBRANCH  84  89
ENDBRANCH  80  84
ENDBRANCH  78  80
ENDBRANCH  77  78
ENDBRANCH  76  77
ENDBRANCH   1  76
TORSDOF 20
