REMARK SMILES CN(CC(=O)OCCOCCOC(=O)c1ccc(-c2c3nc(c(-c4c(F)cc(S(=O)(=O)[O-])cc4F)c4ccc([nH]4)c(-c4c(F)cc(S(=O)(=O)[O-])cc4F)c4nc(c(-c5c(F)cc(S(=O)(=O)[O-])cc5F)c5ccc2[nH]5)C=C4)C=C3)cc1)c1nc2cc(N)ccc2[nH]1
REMARK SMILES IDX 9 1 8 2 7 3 6 4 4 5 5 6 3 7 2 8 1 9 81 10 82 11 90 12 83 13
REMARK SMILES IDX 89 14 84 16 88 17 85 18 87 19 86 20 10 23 11 24 12 25 13 26
REMARK SMILES IDX 14 27 15 28 16 29 80 30 17 31 79 32 18 33 19 34 20 35 73 36
REMARK SMILES IDX 21 37 78 38 72 39 74 40 22 41 77 42 71 43 70 44 23 46 57 47
REMARK SMILES IDX 36 48 56 49 37 50 40 51 55 52 75 53 38 54 39 55 54 57 76 58
REMARK SMILES IDX 41 59 24 60 25 61 34 62 26 63 27 64 33 65 35 66 28 67 29 68
REMARK SMILES IDX 30 69 31 70 32 71 58 72 59 73 68 74 60 75 61 76 67 77 69 78
REMARK SMILES IDX 62 79 63 80 64 81 65 82 66 83 42 84 43 85 52 86 44 87 45 88
REMARK SMILES IDX 51 89 53 90 46 91 47 92 48 93 49 94 50 95
REMARK H PARENT 90 15 86 21 86 22 74 45 40 56
REMARK Flexibility Score: inf
ROOT
ATOM      1  O   UNL     1      -3.690  -3.866   0.952  1.00  0.00    -0.374 OA
ENDROOT
BRANCH   1   2
ATOM      2  C   UNL     1      -4.082  -2.558   0.551  1.00  0.00     0.202 C 
BRANCH   2   3
ATOM      3  C   UNL     1      -3.411  -1.340   1.200  1.00  0.00     0.261 C 
BRANCH   3   4
ATOM      4  O   UNL     1      -1.966  -1.314   1.130  1.00  0.00    -0.462 OA
BRANCH   4   5
ATOM      5  C   UNL     1      -1.339  -1.155   2.334  1.00  0.00     0.325 C 
ATOM      6  O   UNL     1      -1.939  -1.027   3.402  1.00  0.00    -0.250 OA
BRANCH   5   7
ATOM      7  C   UNL     1       0.182  -1.025   2.290  1.00  0.00     0.241 C 
BRANCH   7   8
ATOM      8  N   UNL     1       0.906  -1.508   1.103  1.00  0.00    -0.334 N 
ATOM      9  C   UNL     1       1.145  -0.571   0.021  1.00  0.00     0.147 C 
BRANCH   8  10
ATOM     10  C   UNL     1       1.263  -2.815   1.034  1.00  0.00     0.204 A 
ATOM     11  N   UNL     1       0.829  -3.810   1.778  1.00  0.00    -0.213 NA
ATOM     12  N   UNL     1       2.101  -3.297   0.051  1.00  0.00    -0.324 N 
ATOM     13  C   UNL     1       1.123  -4.951   1.065  1.00  0.00     0.093 A 
ATOM     14  C   UNL     1       1.931  -4.657  -0.025  1.00  0.00     0.067 A 
ATOM     15  H   UNL     1       2.714  -2.759  -0.500  1.00  0.00     0.170 HD
ATOM     16  C   UNL     1       0.601  -6.248   1.201  1.00  0.00     0.056 A 
ATOM     17  C   UNL     1       2.322  -5.607  -0.967  1.00  0.00     0.030 A 
ATOM     18  C   UNL     1       0.802  -7.165   0.160  1.00  0.00     0.034 A 
ATOM     19  C   UNL     1       1.723  -6.870  -0.853  1.00  0.00     0.028 A 
BRANCH  18  20
ATOM     20  N   UNL     1       0.156  -8.399   0.179  1.00  0.00    -0.399 N 
ATOM     21  H   UNL     1      -0.491  -8.604   0.892  1.00  0.00     0.156 HD
ATOM     22  H   UNL     1       0.346  -9.065  -0.520  1.00  0.00     0.156 HD
ENDBRANCH  18  20
ENDBRANCH   8  10
ENDBRANCH   7   8
ENDBRANCH   5   7
ENDBRANCH   4   5
ENDBRANCH   3   4
ENDBRANCH   2   3
ENDBRANCH   1   2
BRANCH   1  23
ATOM     23  C   UNL     1      -2.314  -4.201   0.852  1.00  0.00     0.202 C 
BRANCH  23  24
ATOM     24  C   UNL     1      -1.647  -4.211  -0.531  1.00  0.00     0.261 C 
BRANCH  24  25
ATOM     25  O   UNL     1      -2.272  -3.432  -1.535  1.00  0.00    -0.460 OA
BRANCH  25  26
ATOM     26  C   UNL     1      -2.994  -4.131  -2.432  1.00  0.00     0.338 C 
ATOM     27  O   UNL     1      -3.187  -5.331  -2.498  1.00  0.00    -0.246 OA
BRANCH  26  28
ATOM     28  C   UNL     1      -3.601  -3.123  -3.298  1.00  0.00     0.060 A 
ATOM     29  C   UNL     1      -4.979  -2.917  -3.206  1.00  0.00     0.016 A 
ATOM     30  C   UNL     1      -2.790  -2.344  -4.129  1.00  0.00     0.016 A 
ATOM     31  C   UNL     1      -5.563  -1.922  -3.977  1.00  0.00     0.010 A 
ATOM     32  C   UNL     1      -3.378  -1.350  -4.899  1.00  0.00     0.010 A 
ATOM     33  C   UNL     1      -4.767  -1.152  -4.837  1.00  0.00    -0.014 A 
BRANCH  33  34
ATOM     34  C   UNL     1      -5.403  -0.200  -5.764  1.00  0.00     0.031 A 
ATOM     35  C   UNL     1      -5.584  -0.613  -7.193  1.00  0.00     0.074 A 
ATOM     36  C   UNL     1      -5.796   1.004  -5.317  1.00  0.00     0.049 A 
ATOM     37  N   UNL     1      -6.056   0.075  -8.196  1.00  0.00    -0.248 NA
ATOM     38  C   UNL     1      -5.169  -1.984  -7.541  1.00  0.00     0.031 C 
ATOM     39  C   UNL     1      -5.661   1.476  -3.937  1.00  0.00     0.029 A 
ATOM     40  N   UNL     1      -6.372   2.056  -5.977  1.00  0.00    -0.354 N 
ATOM     41  C   UNL     1      -6.004  -0.778  -9.291  1.00  0.00     0.074 A 
ATOM     42  C   UNL     1      -5.412  -2.018  -8.842  1.00  0.00     0.031 C 
ATOM     43  C   UNL     1      -6.125   2.734  -3.859  1.00  0.00     0.029 A 
ATOM     44  C   UNL     1      -6.556   3.164  -5.186  1.00  0.00     0.049 A 
ATOM     45  H   UNL     1      -6.630   2.021  -6.926  1.00  0.00     0.167 HD
ATOM     46  C   UNL     1      -6.431  -0.544 -10.553  1.00  0.00     0.037 A 
ATOM     47  C   UNL     1      -6.994   4.395  -5.514  1.00  0.00     0.037 A 
ATOM     48  C   UNL     1      -7.008   0.705 -10.972  1.00  0.00     0.049 A 
ATOM     49  C   UNL     1      -7.397   4.654  -6.942  1.00  0.00     0.074 A 
ATOM     50  C   UNL     1      -7.489   1.057 -12.218  1.00  0.00     0.029 A 
ATOM     51  N   UNL     1      -7.170   1.812 -10.149  1.00  0.00    -0.354 N 
ATOM     52  N   UNL     1      -7.385   3.827  -7.963  1.00  0.00    -0.248 NA
ATOM     53  C   UNL     1      -7.871   6.005  -7.267  1.00  0.00     0.031 C 
ATOM     54  C   UNL     1      -7.898   2.393 -12.162  1.00  0.00     0.029 A 
ATOM     55  C   UNL     1      -7.717   2.860 -10.868  1.00  0.00     0.049 A 
ATOM     56  H   UNL     1      -6.931   1.847  -9.194  1.00  0.00     0.167 HD
ATOM     57  C   UNL     1      -7.856   4.555  -9.049  1.00  0.00     0.074 A 
ATOM     58  C   UNL     1      -8.168   5.882  -8.554  1.00  0.00     0.031 C 
ATOM     59  C   UNL     1      -8.011   4.170 -10.340  1.00  0.00     0.037 A 
BRANCH  46  60
ATOM     60  C   UNL     1      -6.283  -1.651 -11.557  1.00  0.00     0.058 A 
ATOM     61  C   UNL     1      -7.075  -2.809 -11.496  1.00  0.00     0.135 A 
ATOM     62  C   UNL     1      -5.359  -1.545 -12.609  1.00  0.00     0.135 A 
ATOM     63  F   UNL     1      -7.957  -2.974 -10.498  1.00  0.00    -0.206 F 
ATOM     64  C   UNL     1      -6.945  -3.830 -12.433  1.00  0.00     0.059 A 
ATOM     65  C   UNL     1      -5.231  -2.542 -13.572  1.00  0.00     0.059 A 
ATOM     66  F   UNL     1      -4.569  -0.464 -12.708  1.00  0.00    -0.206 F 
ATOM     67  C   UNL     1      -6.021  -3.686 -13.469  1.00  0.00     0.060 A 
BRANCH  67  68
ATOM     68  S   UNL     1      -5.879  -5.012 -14.685  1.00  0.00     0.124 S 
ATOM     69  O   UNL     1      -5.235  -6.060 -13.900  1.00  0.00    -0.237 OA
ATOM     70  O   UNL     1      -7.273  -5.255 -15.044  1.00  0.00    -0.237 OA
ATOM     71  O   UNL     1      -5.058  -4.423 -15.738  1.00  0.00    -0.744 OA
ENDBRANCH  67  68
ENDBRANCH  46  60
BRANCH  47  72
ATOM     72  C   UNL     1      -7.035   5.470  -4.488  1.00  0.00     0.058 A 
ATOM     73  C   UNL     1      -8.249   5.995  -4.026  1.00  0.00     0.135 A 
ATOM     74  C   UNL     1      -5.850   5.989  -3.939  1.00  0.00     0.135 A 
ATOM     75  F   UNL     1      -9.409   5.537  -4.522  1.00  0.00    -0.206 F 
ATOM     76  C   UNL     1      -8.291   7.007  -3.072  1.00  0.00     0.059 A 
ATOM     77  C   UNL     1      -5.865   6.981  -2.965  1.00  0.00     0.059 A 
ATOM     78  F   UNL     1      -4.659   5.511  -4.335  1.00  0.00    -0.206 F 
ATOM     79  C   UNL     1      -7.092   7.493  -2.546  1.00  0.00     0.060 A 
BRANCH  79  80
ATOM     80  S   UNL     1      -7.156   8.781  -1.281  1.00  0.00     0.124 S 
ATOM     81  O   UNL     1      -7.545   9.945  -2.068  1.00  0.00    -0.237 OA
ATOM     82  O   UNL     1      -8.167   8.261  -0.366  1.00  0.00    -0.237 OA
ATOM     83  O   UNL     1      -5.794   8.801  -0.754  1.00  0.00    -0.744 OA
ENDBRANCH  79  80
ENDBRANCH  47  72
BRANCH  59  84
ATOM     84  C   UNL     1      -8.539   5.193 -11.305  1.00  0.00     0.058 A 
ATOM     85  C   UNL     1      -7.730   6.242 -11.766  1.00  0.00     0.135 A 
ATOM     86  C   UNL     1      -9.832   5.072 -11.836  1.00  0.00     0.135 A 
ATOM     87  F   UNL     1      -6.489   6.404 -11.280  1.00  0.00    -0.206 F 
ATOM     88  C   UNL     1      -8.190   7.144 -12.718  1.00  0.00     0.059 A 
ATOM     89  C   UNL     1     -10.303   5.946 -12.810  1.00  0.00     0.059 A 
ATOM     90  F   UNL     1     -10.640   4.079 -11.432  1.00  0.00    -0.206 F 
ATOM     91  C   UNL     1      -9.474   6.982 -13.241  1.00  0.00     0.060 A 
BRANCH  91  92
ATOM     92  S   UNL     1     -10.031   8.122 -14.524  1.00  0.00     0.124 S 
ATOM     93  O   UNL     1     -10.237   9.348 -13.760  1.00  0.00    -0.237 OA
ATOM     94  O   UNL     1      -8.898   8.131 -15.444  1.00  0.00    -0.237 OA
ATOM     95  O   UNL     1     -11.243   7.491 -15.038  1.00  0.00    -0.744 OA
ENDBRANCH  91  92
ENDBRANCH  59  84
ENDBRANCH  33  34
ENDBRANCH  26  28
ENDBRANCH  25  26
ENDBRANCH  24  25
ENDBRANCH  23  24
ENDBRANCH   1  23
TORSDOF 20
