REMARK SMILES O=C(OCCOCCOC(=O)[C@@H]1C[C@@H]2CC(=O)[C@H]1C2)c1ccc(-c2c3nc(c(-c4c(F)cc(S(=O)(=O)[O-])cc4F)c4ccc([nH]4)c(-c4c(F)cc(S(=O)(=O)[O-])cc4F)c4nc(c(-c5c(F)cc(S(=O)(=O)[O-])cc5F)c5ccc2[nH]5)C=C4)C=C3)cc1
REMARK SMILES IDX 4 1 3 2 2 3 1 4 20 5 21 6 85 7 22 8 84 9 23 10 24 11 25 12
REMARK SMILES IDX 78 13 26 14 83 15 77 16 79 17 27 18 82 19 76 20 75 21 28 23
REMARK SMILES IDX 62 24 41 25 61 26 42 27 45 28 60 29 80 30 43 31 44 32 59 34
REMARK SMILES IDX 81 35 46 36 29 37 30 38 39 39 31 40 32 41 38 42 40 43 33 44
REMARK SMILES IDX 34 45 35 46 36 47 37 48 63 49 64 50 73 51 65 52 66 53 72 54
REMARK SMILES IDX 74 55 67 56 68 57 69 58 70 59 71 60 47 61 48 62 57 63 49 64
REMARK SMILES IDX 50 65 56 66 58 67 51 68 52 69 53 70 54 71 55 72 5 73 6 74
REMARK SMILES IDX 7 75 8 76 9 77 10 78 11 79 12 80 13 81 18 82 14 83 16 84
REMARK SMILES IDX 19 85 15 86 17 87
REMARK H PARENT 79 22 45 33
REMARK Flexibility Score: inf
ROOT
ATOM      1  C   UNL     1       3.897  -1.176  -0.774  1.00  0.00     0.261 C 
ENDROOT
BRANCH   1   2
ATOM      2  O   UNL     1       2.522  -1.253  -0.376  1.00  0.00    -0.460 OA
BRANCH   2   3
ATOM      3  C   UNL     1       1.988  -0.857   0.804  1.00  0.00     0.338 C 
ATOM      4  O   UNL     1       0.768  -0.924   0.947  1.00  0.00    -0.246 OA
BRANCH   3   5
ATOM      5  C   UNL     1       2.804  -0.356   1.951  1.00  0.00     0.060 A 
ATOM      6  C   UNL     1       4.011   0.335   1.833  1.00  0.00     0.016 A 
ATOM      7  C   UNL     1       2.268  -0.526   3.238  1.00  0.00     0.016 A 
ATOM      8  C   UNL     1       4.701   0.795   2.934  1.00  0.00     0.010 A 
ATOM      9  C   UNL     1       2.939  -0.033   4.361  1.00  0.00     0.010 A 
ATOM     10  C   UNL     1       4.167   0.617   4.202  1.00  0.00    -0.014 A 
BRANCH  10  11
ATOM     11  C   UNL     1       5.018   1.011   5.330  1.00  0.00     0.031 A 
ATOM     12  C   UNL     1       5.742  -0.071   6.065  1.00  0.00     0.074 A 
ATOM     13  C   UNL     1       5.264   2.317   5.537  1.00  0.00     0.049 A 
ATOM     14  N   UNL     1       6.537   0.019   7.091  1.00  0.00    -0.248 NA
ATOM     15  C   UNL     1       5.558  -1.444   5.559  1.00  0.00     0.031 C 
ATOM     16  C   UNL     1       4.713   3.417   4.736  1.00  0.00     0.029 A 
ATOM     17  N   UNL     1       6.071   2.942   6.446  1.00  0.00    -0.354 N 
ATOM     18  C   UNL     1       6.920  -1.284   7.379  1.00  0.00     0.074 A 
ATOM     19  C   UNL     1       6.271  -2.149   6.422  1.00  0.00     0.031 C 
ATOM     20  C   UNL     1       5.218   4.579   5.179  1.00  0.00     0.029 A 
ATOM     21  C   UNL     1       6.060   4.312   6.337  1.00  0.00     0.049 A 
ATOM     22  H   UNL     1       6.607   2.457   7.114  1.00  0.00     0.167 HD
ATOM     23  C   UNL     1       7.738  -1.706   8.369  1.00  0.00     0.037 A 
ATOM     24  C   UNL     1       6.641   5.237   7.123  1.00  0.00     0.037 A 
ATOM     25  C   UNL     1       8.359  -0.800   9.296  1.00  0.00     0.049 A 
ATOM     26  C   UNL     1       7.449   4.738   8.290  1.00  0.00     0.074 A 
ATOM     27  C   UNL     1       9.149  -1.087  10.391  1.00  0.00     0.029 A 
ATOM     28  N   UNL     1       8.252   0.586   9.226  1.00  0.00    -0.354 N 
ATOM     29  N   UNL     1       7.739   3.499   8.620  1.00  0.00    -0.248 NA
ATOM     30  C   UNL     1       7.995   5.749   9.200  1.00  0.00     0.031 C 
ATOM     31  C   UNL     1       9.473   0.122  11.015  1.00  0.00     0.029 A 
ATOM     32  C   UNL     1       8.942   1.168  10.272  1.00  0.00     0.049 A 
ATOM     33  H   UNL     1       7.756   1.079   8.533  1.00  0.00     0.167 HD
ATOM     34  C   UNL     1       8.521   3.581   9.764  1.00  0.00     0.074 A 
ATOM     35  C   UNL     1       8.671   4.995  10.056  1.00  0.00     0.031 C 
ATOM     36  C   UNL     1       9.067   2.587  10.510  1.00  0.00     0.037 A 
BRANCH  23  37
ATOM     37  C   UNL     1       7.907  -3.189   8.533  1.00  0.00     0.058 A 
ATOM     38  C   UNL     1       8.615  -3.974   7.608  1.00  0.00     0.135 A 
ATOM     39  C   UNL     1       7.299  -3.847   9.615  1.00  0.00     0.135 A 
ATOM     40  F   UNL     1       9.184  -3.404   6.533  1.00  0.00    -0.206 F 
ATOM     41  C   UNL     1       8.686  -5.359   7.731  1.00  0.00     0.059 A 
ATOM     42  C   UNL     1       7.381  -5.227   9.774  1.00  0.00     0.059 A 
ATOM     43  F   UNL     1       6.594  -3.150  10.519  1.00  0.00    -0.206 F 
ATOM     44  C   UNL     1       8.062  -5.976   8.816  1.00  0.00     0.060 A 
BRANCH  44  45
ATOM     45  S   UNL     1       8.142  -7.774   8.952  1.00  0.00     0.124 S 
ATOM     46  O   UNL     1       7.255  -8.189   7.869  1.00  0.00    -0.237 OA
ATOM     47  O   UNL     1       9.562  -8.038   8.743  1.00  0.00    -0.237 OA
ATOM     48  O   UNL     1       7.650  -8.037  10.300  1.00  0.00    -0.744 OA
ENDBRANCH  44  45
ENDBRANCH  23  37
BRANCH  24  49
ATOM     49  C   UNL     1       6.430   6.690   6.870  1.00  0.00     0.058 A 
ATOM     50  C   UNL     1       7.495   7.537   6.533  1.00  0.00     0.135 A 
ATOM     51  C   UNL     1       5.151   7.266   6.967  1.00  0.00     0.135 A 
ATOM     52  F   UNL     1       8.739   7.043   6.431  1.00  0.00    -0.206 F 
ATOM     53  C   UNL     1       7.307   8.902   6.324  1.00  0.00     0.059 A 
ATOM     54  C   UNL     1       4.932   8.620   6.732  1.00  0.00     0.059 A 
ATOM     55  F   UNL     1       4.091   6.504   7.278  1.00  0.00    -0.206 F 
ATOM     56  C   UNL     1       6.020   9.434   6.426  1.00  0.00     0.060 A 
BRANCH  56  57
ATOM     57  S   UNL     1       5.784  11.202   6.141  1.00  0.00     0.124 S 
ATOM     58  O   UNL     1       6.408  11.776   7.328  1.00  0.00    -0.237 OA
ATOM     59  O   UNL     1       6.494  11.407   4.883  1.00  0.00    -0.237 OA
ATOM     60  O   UNL     1       4.332  11.339   6.064  1.00  0.00    -0.744 OA
ENDBRANCH  56  57
ENDBRANCH  24  49
BRANCH  36  61
ATOM     61  C   UNL     1       9.911   3.006  11.678  1.00  0.00     0.058 A 
ATOM     62  C   UNL     1       9.345   3.545  12.843  1.00  0.00     0.135 A 
ATOM     63  C   UNL     1      11.300   2.807  11.646  1.00  0.00     0.135 A 
ATOM     64  F   UNL     1       8.022   3.761  12.916  1.00  0.00    -0.206 F 
ATOM     65  C   UNL     1      10.134   3.898  13.930  1.00  0.00     0.059 A 
ATOM     66  C   UNL     1      12.103   3.120  12.734  1.00  0.00     0.059 A 
ATOM     67  F   UNL     1      11.884   2.281  10.557  1.00  0.00    -0.206 F 
ATOM     68  C   UNL     1      11.512   3.677  13.867  1.00  0.00     0.060 A 
BRANCH  68  69
ATOM     69  S   UNL     1      12.520   4.102  15.301  1.00  0.00     0.124 S 
ATOM     70  O   UNL     1      12.531   5.559  15.229  1.00  0.00    -0.237 OA
ATOM     71  O   UNL     1      11.754   3.526  16.401  1.00  0.00    -0.237 OA
ATOM     72  O   UNL     1      13.796   3.450  15.024  1.00  0.00    -0.744 OA
ENDBRANCH  68  69
ENDBRANCH  36  61
ENDBRANCH  10  11
ENDBRANCH   3   5
ENDBRANCH   2   3
ENDBRANCH   1   2
BRANCH   1  73
ATOM     73  C   UNL     1       4.158   0.102  -1.576  1.00  0.00     0.202 C 
BRANCH  73  74
ATOM     74  O   UNL     1       3.785   1.319  -0.929  1.00  0.00    -0.374 OA
BRANCH  74  75
ATOM     75  C   UNL     1       2.417   1.724  -1.046  1.00  0.00     0.202 C 
BRANCH  75  76
ATOM     76  C   UNL     1       2.347   3.134  -1.637  1.00  0.00     0.261 C 
BRANCH  76  77
ATOM     77  O   UNL     1       2.926   3.086  -2.949  1.00  0.00    -0.463 OA
BRANCH  77  78
ATOM     78  C   UNL     1       4.284   3.193  -2.942  1.00  0.00     0.309 C 
ATOM     79  O   UNL     1       4.964   3.719  -2.072  1.00  0.00    -0.252 OA
BRANCH  78  80
ATOM     80  C   UNL     1       4.847   2.448  -4.130  1.00  0.00     0.110 C 
ATOM     81  C   UNL     1       6.182   1.733  -3.794  1.00  0.00     0.020 C 
ATOM     82  C   UNL     1       5.230   3.374  -5.284  1.00  0.00     0.070 C 
ATOM     83  C   UNL     1       7.182   2.402  -4.751  1.00  0.00    -0.002 C 
ATOM     84  C   UNL     1       6.114   4.461  -4.713  1.00  0.00     0.137 C 
ATOM     85  C   UNL     1       6.315   2.572  -6.003  1.00  0.00     0.016 C 
ATOM     86  C   UNL     1       7.439   3.858  -4.301  1.00  0.00     0.079 C 
ATOM     87  O   UNL     1       5.796   5.637  -4.617  1.00  0.00    -0.299 OA
ENDBRANCH  78  80
ENDBRANCH  77  78
ENDBRANCH  76  77
ENDBRANCH  75  76
ENDBRANCH  74  75
ENDBRANCH  73  74
ENDBRANCH   1  73
TORSDOF 17
