REMARK SMILES NC(=O)c1ccccc1NC(=O)[C@@H]1CC=CC[C@@H]1C(=O)OCCOCCOC(=O)c1ccc(-c2c3nc(c(-c4c(F)cc(S(=O)(=O)[O-])cc4F)c4ccc([nH]4)c(-c4c(F)cc(S(=O)(=O)[O-])cc4F)c4nc(c(-c5c(F)cc(S(=O)(=O)[O-])cc5F)c5ccc2[nH]5)C=C4)C=C3)cc1
REMARK SMILES IDX 24 1 23 2 22 3 21 4 19 5 20 6 18 7 13 8 14 9 15 10 17 11
REMARK SMILES IDX 16 12 11 13 10 14 12 16 9 17 4 18 5 19 6 20 8 21 7 22 2 23
REMARK SMILES IDX 1 24 3 27 25 28 26 29 27 30 28 31 29 32 30 33 31 34 95 35
REMARK SMILES IDX 32 36 94 37 33 38 34 39 35 40 88 41 36 42 93 43 87 44 89 45
REMARK SMILES IDX 37 46 92 47 86 48 85 49 38 51 72 52 51 53 71 54 52 55 55 56
REMARK SMILES IDX 70 57 90 58 53 59 54 60 69 62 91 63 56 64 39 65 40 66 49 67
REMARK SMILES IDX 41 68 42 69 48 70 50 71 43 72 44 73 45 74 46 75 47 76 73 77
REMARK SMILES IDX 74 78 83 79 75 80 76 81 82 82 84 83 77 84 78 85 79 86 80 87
REMARK SMILES IDX 81 88 57 89 58 90 67 91 59 92 60 93 66 94 68 95 61 96 62 97
REMARK SMILES IDX 63 98 64 99 65 100
REMARK H PARENT 10 15 1 25 1 26 89 50 55 61
REMARK Flexibility Score: inf
ROOT
ATOM      1  O   UNL     1       6.232   1.372   9.144  1.00  0.00    -0.374 OA
ENDROOT
BRANCH   1   2
ATOM      2  C   UNL     1       7.161   0.306   8.983  1.00  0.00     0.202 C 
BRANCH   2   3
ATOM      3  C   UNL     1       7.039  -0.591   7.747  1.00  0.00     0.261 C 
BRANCH   3   4
ATOM      4  O   UNL     1       6.794   0.134   6.538  1.00  0.00    -0.463 OA
BRANCH   4   5
ATOM      5  C   UNL     1       5.499   0.123   6.124  1.00  0.00     0.310 C 
ATOM      6  O   UNL     1       4.598  -0.465   6.713  1.00  0.00    -0.252 OA
BRANCH   5   7
ATOM      7  C   UNL     1       5.266   0.920   4.834  1.00  0.00     0.116 C 
ATOM      8  C   UNL     1       4.546  -0.016   3.819  1.00  0.00     0.097 C 
ATOM      9  C   UNL     1       5.502  -1.202   3.555  1.00  0.00     0.041 C 
ATOM     10  C   UNL     1       6.887  -0.739   3.183  1.00  0.00    -0.030 C 
ATOM     11  C   UNL     1       6.535   1.511   4.195  1.00  0.00     0.043 C 
ATOM     12  C   UNL     1       7.338   0.499   3.432  1.00  0.00    -0.030 C 
BRANCH   8  13
ATOM     13  C   UNL     1       3.125  -0.284   4.350  1.00  0.00     0.228 C 
ATOM     14  N   UNL     1       2.466  -1.458   4.169  1.00  0.00    -0.325 N 
ATOM     15  H   UNL     1       1.830  -1.676   4.887  1.00  0.00     0.169 HD
ATOM     16  O   UNL     1       2.521   0.592   4.984  1.00  0.00    -0.274 OA
BRANCH  14  17
ATOM     17  C   UNL     1       2.526  -2.417   3.146  1.00  0.00     0.053 A 
ATOM     18  C   UNL     1       2.124  -3.743   3.392  1.00  0.00     0.063 A 
ATOM     19  C   UNL     1       2.394  -4.739   2.444  1.00  0.00     0.016 A 
ATOM     20  C   UNL     1       2.967  -4.404   1.218  1.00  0.00     0.001 A 
ATOM     21  C   UNL     1       2.979  -2.079   1.867  1.00  0.00     0.027 A 
ATOM     22  C   UNL     1       3.221  -3.070   0.915  1.00  0.00     0.002 A 
BRANCH  18  23
ATOM     23  C   UNL     1       1.444  -4.168   4.642  1.00  0.00     0.250 C 
ATOM     24  N   UNL     1       0.464  -3.338   5.120  1.00  0.00    -0.366 N 
ATOM     25  H   UNL     1      -0.019  -3.572   5.945  1.00  0.00     0.159 HD
ATOM     26  H   UNL     1       0.244  -2.508   4.638  1.00  0.00     0.159 HD
ATOM     27  O   UNL     1       1.685  -5.237   5.185  1.00  0.00    -0.269 OA
ENDBRANCH  18  23
ENDBRANCH  14  17
ENDBRANCH   8  13
ENDBRANCH   5   7
ENDBRANCH   4   5
ENDBRANCH   3   4
ENDBRANCH   2   3
ENDBRANCH   1   2
BRANCH   1  28
ATOM     28  C   UNL     1       6.307   2.492   8.263  1.00  0.00     0.202 C 
BRANCH  28  29
ATOM     29  C   UNL     1       7.608   3.302   8.210  1.00  0.00     0.261 C 
BRANCH  29  30
ATOM     30  O   UNL     1       8.719   2.555   7.682  1.00  0.00    -0.460 OA
BRANCH  30  31
ATOM     31  C   UNL     1       9.779   2.448   8.517  1.00  0.00     0.338 C 
ATOM     32  O   UNL     1       9.890   2.932   9.639  1.00  0.00    -0.246 OA
BRANCH  31  33
ATOM     33  C   UNL     1      10.767   1.509   7.969  1.00  0.00     0.060 A 
ATOM     34  C   UNL     1      11.017   0.323   8.672  1.00  0.00     0.016 A 
ATOM     35  C   UNL     1      11.523   1.848   6.847  1.00  0.00     0.016 A 
ATOM     36  C   UNL     1      12.047  -0.523   8.265  1.00  0.00     0.010 A 
ATOM     37  C   UNL     1      12.566   1.006   6.451  1.00  0.00     0.010 A 
ATOM     38  C   UNL     1      12.848  -0.168   7.173  1.00  0.00    -0.014 A 
BRANCH  38  39
ATOM     39  C   UNL     1      14.057  -0.960   6.848  1.00  0.00     0.031 A 
ATOM     40  C   UNL     1      15.396  -0.482   7.334  1.00  0.00     0.074 A 
ATOM     41  C   UNL     1      13.956  -2.085   6.119  1.00  0.00     0.049 A 
ATOM     42  N   UNL     1      16.587  -0.957   7.077  1.00  0.00    -0.248 NA
ATOM     43  C   UNL     1      15.393   0.688   8.227  1.00  0.00     0.031 C 
ATOM     44  C   UNL     1      12.704  -2.667   5.637  1.00  0.00     0.029 A 
ATOM     45  N   UNL     1      14.927  -2.928   5.641  1.00  0.00    -0.354 N 
ATOM     46  C   UNL     1      17.476  -0.141   7.767  1.00  0.00     0.074 A 
ATOM     47  C   UNL     1      16.689   0.870   8.440  1.00  0.00     0.031 C 
ATOM     48  C   UNL     1      12.985  -3.760   4.908  1.00  0.00     0.029 A 
ATOM     49  C   UNL     1      14.435  -3.931   4.840  1.00  0.00     0.049 A 
ATOM     50  H   UNL     1      15.883  -2.825   5.851  1.00  0.00     0.167 HD
ATOM     51  C   UNL     1      18.825  -0.231   7.832  1.00  0.00     0.037 A 
ATOM     52  C   UNL     1      15.085  -4.855   4.106  1.00  0.00     0.037 A 
ATOM     53  C   UNL     1      19.598  -1.240   7.155  1.00  0.00     0.049 A 
ATOM     54  C   UNL     1      16.591  -4.883   4.123  1.00  0.00     0.074 A 
ATOM     55  C   UNL     1      20.968  -1.432   7.175  1.00  0.00     0.029 A 
ATOM     56  N   UNL     1      19.068  -2.218   6.326  1.00  0.00    -0.354 N 
ATOM     57  N   UNL     1      17.421  -4.118   4.793  1.00  0.00    -0.248 NA
ATOM     58  C   UNL     1      17.250  -5.890   3.280  1.00  0.00     0.031 C 
ATOM     59  C   UNL     1      21.270  -2.497   6.319  1.00  0.00     0.029 A 
ATOM     60  C   UNL     1      20.085  -2.998   5.803  1.00  0.00     0.049 A 
ATOM     61  H   UNL     1      18.109  -2.340   6.138  1.00  0.00     0.167 HD
ATOM     62  C   UNL     1      18.698  -4.563   4.466  1.00  0.00     0.074 A 
ATOM     63  C   UNL     1      18.531  -5.670   3.547  1.00  0.00     0.031 C 
ATOM     64  C   UNL     1      19.899  -4.098   4.889  1.00  0.00     0.037 A 
BRANCH  51  65
ATOM     65  C   UNL     1      19.555   0.806   8.638  1.00  0.00     0.058 A 
ATOM     66  C   UNL     1      19.528   0.806  10.041  1.00  0.00     0.135 A 
ATOM     67  C   UNL     1      20.320   1.795   7.997  1.00  0.00     0.135 A 
ATOM     68  F   UNL     1      18.798  -0.107  10.703  1.00  0.00    -0.206 F 
ATOM     69  C   UNL     1      20.215   1.763  10.781  1.00  0.00     0.059 A 
ATOM     70  C   UNL     1      21.034   2.747   8.718  1.00  0.00     0.059 A 
ATOM     71  F   UNL     1      20.378   1.842   6.657  1.00  0.00    -0.206 F 
ATOM     72  C   UNL     1      20.965   2.731  10.110  1.00  0.00     0.060 A 
BRANCH  72  73
ATOM     73  S   UNL     1      21.853   3.965  11.084  1.00  0.00     0.124 S 
ATOM     74  O   UNL     1      20.759   4.815  11.543  1.00  0.00    -0.237 OA
ATOM     75  O   UNL     1      22.495   3.150  12.111  1.00  0.00    -0.237 OA
ATOM     76  O   UNL     1      22.758   4.575  10.116  1.00  0.00    -0.744 OA
ENDBRANCH  72  73
ENDBRANCH  51  65
BRANCH  52  77
ATOM     77  C   UNL     1      14.313  -5.806   3.264  1.00  0.00     0.058 A 
ATOM     78  C   UNL     1      14.242  -7.168   3.587  1.00  0.00     0.135 A 
ATOM     79  C   UNL     1      13.621  -5.367   2.124  1.00  0.00     0.135 A 
ATOM     80  F   UNL     1      14.897  -7.638   4.659  1.00  0.00    -0.206 F 
ATOM     81  C   UNL     1      13.518  -8.065   2.807  1.00  0.00     0.059 A 
ATOM     82  C   UNL     1      12.872  -6.239   1.341  1.00  0.00     0.059 A 
ATOM     83  F   UNL     1      13.650  -4.071   1.776  1.00  0.00    -0.206 F 
ATOM     84  C   UNL     1      12.832  -7.589   1.687  1.00  0.00     0.060 A 
BRANCH  84  85
ATOM     85  S   UNL     1      11.848  -8.748   0.712  1.00  0.00     0.124 S 
ATOM     86  O   UNL     1      12.884  -9.480  -0.006  1.00  0.00    -0.237 OA
ATOM     87  O   UNL     1      11.137  -9.493   1.746  1.00  0.00    -0.237 OA
ATOM     88  O   UNL     1      11.012  -7.872  -0.104  1.00  0.00    -0.744 OA
ENDBRANCH  84  85
ENDBRANCH  52  77
BRANCH  64  89
ATOM     89  C   UNL     1      21.132  -4.791   4.381  1.00  0.00     0.058 A 
ATOM     90  C   UNL     1      21.600  -4.589   3.074  1.00  0.00     0.135 A 
ATOM     91  C   UNL     1      21.897  -5.601   5.236  1.00  0.00     0.135 A 
ATOM     92  F   UNL     1      20.900  -3.830   2.215  1.00  0.00    -0.206 F 
ATOM     93  C   UNL     1      22.782  -5.172   2.628  1.00  0.00     0.059 A 
ATOM     94  C   UNL     1      23.094  -6.175   4.819  1.00  0.00     0.059 A 
ATOM     95  F   UNL     1      21.497  -5.818   6.498  1.00  0.00    -0.206 F 
ATOM     96  C   UNL     1      23.526  -5.958   3.511  1.00  0.00     0.060 A 
BRANCH  96  97
ATOM     97  S   UNL     1      25.088  -6.659   2.938  1.00  0.00     0.124 S 
ATOM     98  O   UNL     1      24.627  -7.732   2.063  1.00  0.00    -0.237 OA
ATOM     99  O   UNL     1      25.715  -5.522   2.271  1.00  0.00    -0.237 OA
ATOM    100  O   UNL     1      25.739  -7.091   4.172  1.00  0.00    -0.744 OA
ENDBRANCH  96  97
ENDBRANCH  64  89
ENDBRANCH  38  39
ENDBRANCH  31  33
ENDBRANCH  30  31
ENDBRANCH  29  30
ENDBRANCH  28  29
ENDBRANCH   1  28
TORSDOF 20
