REMARK SMILES C[C@@H](CC(=O)OCCOCCOC(=O)c1ccc(-c2c3nc(c(-c4c(F)cc(S(=O)(=O)[O-])cc4F)c4ccc([nH]4)c(-c4c(F)cc(S(=O)(=O)[O-])cc4F)c4nc(c(-c5c(F)cc(S(=O)(=O)[O-])cc5F)c5ccc2[nH]5)C=C4)C=C3)cc1)NC(=O)c1ccc2c(c1)NC(=O)CO2
REMARK SMILES IDX 9 1 8 2 7 3 6 4 4 5 5 6 3 7 2 8 1 9 81 10 82 11 83 13 84 14
REMARK SMILES IDX 85 15 89 16 86 17 88 18 87 19 90 20 94 21 91 22 93 24 92 25
REMARK SMILES IDX 10 26 11 27 12 28 13 29 14 30 15 31 16 32 80 33 17 34 79 35
REMARK SMILES IDX 18 36 19 37 20 38 73 39 21 40 78 41 72 42 74 43 22 44 77 45
REMARK SMILES IDX 71 46 70 47 23 49 57 50 36 51 56 52 37 53 40 54 55 55 75 56
REMARK SMILES IDX 38 57 39 58 54 60 76 61 41 62 24 63 25 64 34 65 26 66 27 67
REMARK SMILES IDX 33 68 35 69 28 70 29 71 30 72 31 73 32 74 58 75 59 76 68 77
REMARK SMILES IDX 60 78 61 79 67 80 69 81 62 82 63 83 64 84 65 85 66 86 42 87
REMARK SMILES IDX 43 88 52 89 44 90 45 91 51 92 53 93 46 94 47 95 48 96 49 97
REMARK SMILES IDX 50 98
REMARK H PARENT 81 12 90 23 74 48 40 59
REMARK Flexibility Score: inf
ROOT
ATOM      1  O   UNL     1      -1.563   4.415   0.993  1.00  0.00    -0.374 OA
ENDROOT
BRANCH   1   2
ATOM      2  C   UNL     1      -0.623   4.579  -0.068  1.00  0.00     0.202 C 
BRANCH   2   3
ATOM      3  C   UNL     1       0.815   4.171   0.260  1.00  0.00     0.261 C 
BRANCH   3   4
ATOM      4  O   UNL     1       0.926   2.761   0.540  1.00  0.00    -0.463 OA
BRANCH   4   5
ATOM      5  C   UNL     1       1.550   2.444   1.697  1.00  0.00     0.307 C 
ATOM      6  O   UNL     1       2.020   3.260   2.486  1.00  0.00    -0.252 OA
BRANCH   5   7
ATOM      7  C   UNL     1       1.629   0.966   1.998  1.00  0.00     0.147 C 
BRANCH   7   8
ATOM      8  C   UNL     1       1.021  -0.102   1.079  1.00  0.00     0.090 C 
ATOM      9  C   UNL     1       1.456  -0.003  -0.381  1.00  0.00     0.031 C 
BRANCH   8  10
ATOM     10  N   UNL     1      -0.437  -0.176   1.178  1.00  0.00    -0.349 N 
ATOM     11  C   UNL     1      -1.262  -1.060   1.831  1.00  0.00     0.251 C 
ATOM     12  H   UNL     1      -0.911   0.534   0.689  1.00  0.00     0.164 HD
ATOM     13  O   UNL     1      -2.479  -0.963   1.685  1.00  0.00    -0.269 OA
BRANCH  11  14
ATOM     14  C   UNL     1      -0.734  -2.158   2.678  1.00  0.00     0.042 A 
ATOM     15  C   UNL     1      -1.300  -3.433   2.534  1.00  0.00     0.018 A 
ATOM     16  C   UNL     1       0.238  -1.946   3.659  1.00  0.00     0.044 A 
ATOM     17  C   UNL     1      -0.853  -4.499   3.321  1.00  0.00     0.049 A 
ATOM     18  C   UNL     1       0.707  -3.020   4.417  1.00  0.00     0.084 A 
ATOM     19  C   UNL     1       0.169  -4.298   4.245  1.00  0.00     0.143 A 
ATOM     20  N   UNL     1       1.702  -2.804   5.371  1.00  0.00    -0.320 N 
ATOM     21  O   UNL     1       0.547  -5.381   4.991  1.00  0.00    -0.482 OA
ATOM     22  C   UNL     1       2.262  -3.840   6.067  1.00  0.00     0.262 C 
ATOM     23  H   UNL     1       2.008  -1.885   5.548  1.00  0.00     0.170 HD
ATOM     24  C   UNL     1       1.809  -5.231   5.628  1.00  0.00     0.329 C 
ATOM     25  O   UNL     1       3.123  -3.649   6.922  1.00  0.00    -0.271 OA
ENDBRANCH  11  14
ENDBRANCH   8  10
ENDBRANCH   7   8
ENDBRANCH   5   7
ENDBRANCH   4   5
ENDBRANCH   3   4
ENDBRANCH   2   3
ENDBRANCH   1   2
BRANCH   1  26
ATOM     26  C   UNL     1      -1.994   3.084   1.289  1.00  0.00     0.202 C 
BRANCH  26  27
ATOM     27  C   UNL     1      -2.864   2.418   0.216  1.00  0.00     0.261 C 
BRANCH  27  28
ATOM     28  O   UNL     1      -2.095   2.090  -0.963  1.00  0.00    -0.460 OA
BRANCH  28  29
ATOM     29  C   UNL     1      -2.703   2.438  -2.125  1.00  0.00     0.338 C 
ATOM     30  O   UNL     1      -3.846   2.853  -2.261  1.00  0.00    -0.246 OA
BRANCH  29  31
ATOM     31  C   UNL     1      -1.746   2.436  -3.247  1.00  0.00     0.060 A 
ATOM     32  C   UNL     1      -1.479   3.663  -3.868  1.00  0.00     0.016 A 
ATOM     33  C   UNL     1      -1.241   1.249  -3.780  1.00  0.00     0.016 A 
ATOM     34  C   UNL     1      -0.750   3.702  -5.056  1.00  0.00     0.010 A 
ATOM     35  C   UNL     1      -0.512   1.292  -4.979  1.00  0.00     0.010 A 
ATOM     36  C   UNL     1      -0.297   2.513  -5.645  1.00  0.00    -0.014 A 
BRANCH  36  37
ATOM     37  C   UNL     1       0.269   2.552  -7.020  1.00  0.00     0.031 A 
ATOM     38  C   UNL     1      -0.608   2.193  -8.192  1.00  0.00     0.074 A 
ATOM     39  C   UNL     1       1.534   2.959  -7.235  1.00  0.00     0.049 A 
ATOM     40  N   UNL     1      -0.320   2.178  -9.469  1.00  0.00    -0.248 NA
ATOM     41  C   UNL     1      -1.993   1.804  -7.885  1.00  0.00     0.031 C 
ATOM     42  C   UNL     1       2.476   3.371  -6.196  1.00  0.00     0.029 A 
ATOM     43  N   UNL     1       2.242   3.094  -8.404  1.00  0.00    -0.354 N 
ATOM     44  C   UNL     1      -1.482   1.777 -10.117  1.00  0.00     0.074 A 
ATOM     45  C   UNL     1      -2.473   1.533  -9.090  1.00  0.00     0.031 C 
ATOM     46  C   UNL     1       3.643   3.706  -6.774  1.00  0.00     0.029 A 
ATOM     47  C   UNL     1       3.538   3.511  -8.220  1.00  0.00     0.049 A 
ATOM     48  H   UNL     1       1.857   2.909  -9.291  1.00  0.00     0.167 HD
ATOM     49  C   UNL     1      -1.710   1.636 -11.445  1.00  0.00     0.037 A 
ATOM     50  C   UNL     1       4.533   3.699  -9.110  1.00  0.00     0.037 A 
ATOM     51  C   UNL     1      -0.731   1.885 -12.472  1.00  0.00     0.049 A 
ATOM     52  C   UNL     1       4.274   3.480 -10.578  1.00  0.00     0.074 A 
ATOM     53  C   UNL     1      -0.881   1.789 -13.845  1.00  0.00     0.029 A 
ATOM     54  N   UNL     1       0.580   2.272 -12.241  1.00  0.00    -0.354 N 
ATOM     55  N   UNL     1       3.162   3.124 -11.175  1.00  0.00    -0.248 NA
ATOM     56  C   UNL     1       5.405   3.690 -11.494  1.00  0.00     0.031 C 
ATOM     57  C   UNL     1       0.351   2.077 -14.442  1.00  0.00     0.029 A 
ATOM     58  C   UNL     1       1.256   2.395 -13.444  1.00  0.00     0.049 A 
ATOM     59  H   UNL     1       0.972   2.435 -11.353  1.00  0.00     0.167 HD
ATOM     60  C   UNL     1       3.453   3.092 -12.536  1.00  0.00     0.074 A 
ATOM     61  C   UNL     1       4.843   3.471 -12.675  1.00  0.00     0.031 C 
ATOM     62  C   UNL     1       2.640   2.777 -13.574  1.00  0.00     0.037 A 
BRANCH  49  63
ATOM     63  C   UNL     1      -3.075   1.171 -11.870  1.00  0.00     0.058 A 
ATOM     64  C   UNL     1      -4.190   2.021 -11.826  1.00  0.00     0.135 A 
ATOM     65  C   UNL     1      -3.260  -0.130 -12.365  1.00  0.00     0.135 A 
ATOM     66  F   UNL     1      -4.070   3.269 -11.348  1.00  0.00    -0.206 F 
ATOM     67  C   UNL     1      -5.448   1.591 -12.238  1.00  0.00     0.059 A 
ATOM     68  C   UNL     1      -4.503  -0.575 -12.803  1.00  0.00     0.059 A 
ATOM     69  F   UNL     1      -2.225  -0.983 -12.427  1.00  0.00    -0.206 F 
ATOM     70  C   UNL     1      -5.595   0.290 -12.723  1.00  0.00     0.060 A 
BRANCH  70  71
ATOM     71  S   UNL     1      -7.231  -0.255 -13.258  1.00  0.00     0.124 S 
ATOM     72  O   UNL     1      -7.903  -0.454 -11.978  1.00  0.00    -0.237 OA
ATOM     73  O   UNL     1      -7.697   0.879 -14.049  1.00  0.00    -0.237 OA
ATOM     74  O   UNL     1      -6.952  -1.471 -14.016  1.00  0.00    -0.744 OA
ENDBRANCH  70  71
ENDBRANCH  49  63
BRANCH  50  75
ATOM     75  C   UNL     1       5.882   4.107  -8.636  1.00  0.00     0.058 A 
ATOM     76  C   UNL     1       6.383   5.393  -8.886  1.00  0.00     0.135 A 
ATOM     77  C   UNL     1       6.697   3.212  -7.926  1.00  0.00     0.135 A 
ATOM     78  F   UNL     1       5.646   6.278  -9.573  1.00  0.00    -0.206 F 
ATOM     79  C   UNL     1       7.650   5.776  -8.456  1.00  0.00     0.059 A 
ATOM     80  C   UNL     1       7.957   3.579  -7.466  1.00  0.00     0.059 A 
ATOM     81  F   UNL     1       6.258   1.973  -7.655  1.00  0.00    -0.206 F 
ATOM     82  C   UNL     1       8.428   4.861  -7.744  1.00  0.00     0.060 A 
BRANCH  82  83
ATOM     83  S   UNL     1      10.049   5.381  -7.139  1.00  0.00     0.124 S 
ATOM     84  O   UNL     1      10.845   5.337  -8.360  1.00  0.00    -0.237 OA
ATOM     85  O   UNL     1       9.767   6.711  -6.607  1.00  0.00    -0.237 OA
ATOM     86  O   UNL     1      10.370   4.370  -6.136  1.00  0.00    -0.744 OA
ENDBRANCH  82  83
ENDBRANCH  50  75
BRANCH  62  87
ATOM     87  C   UNL     1       3.219   2.854 -14.960  1.00  0.00     0.058 A 
ATOM     88  C   UNL     1       4.108   1.882 -15.442  1.00  0.00     0.135 A 
ATOM     89  C   UNL     1       2.837   3.885 -15.835  1.00  0.00     0.135 A 
ATOM     90  F   UNL     1       4.509   0.879 -14.645  1.00  0.00    -0.206 F 
ATOM     91  C   UNL     1       4.616   1.938 -16.737  1.00  0.00     0.059 A 
ATOM     92  C   UNL     1       3.314   3.948 -17.142  1.00  0.00     0.059 A 
ATOM     93  F   UNL     1       1.981   4.835 -15.428  1.00  0.00    -0.206 F 
ATOM     94  C   UNL     1       4.213   2.976 -17.580  1.00  0.00     0.060 A 
BRANCH  94  95
ATOM     95  S   UNL     1       4.851   3.021 -19.269  1.00  0.00     0.124 S 
ATOM     96  O   UNL     1       6.207   3.517 -19.057  1.00  0.00    -0.237 OA
ATOM     97  O   UNL     1       4.743   1.626 -19.684  1.00  0.00    -0.237 OA
ATOM     98  O   UNL     1       3.944   3.942 -19.949  1.00  0.00    -0.744 OA
ENDBRANCH  94  95
ENDBRANCH  62  87
ENDBRANCH  36  37
ENDBRANCH  29  31
ENDBRANCH  28  29
ENDBRANCH  27  28
ENDBRANCH  26  27
ENDBRANCH   1  26
TORSDOF 20
