REMARK SMILES CC(C)(C)c1ccc(C(=O)C[C@H](C(=O)OCCOCCOC(=O)c2ccc(-c3c4nc(c(-c5c(F)cc(S(=O)(=O)[O-])cc5F)c5ccc([nH]5)c(-c5c(F)cc(S(=O)(=O)[O-])cc5F)c5nc(c(-c6c(F)cc(S(=O)(=O)[O-])cc6F)c6ccc3[nH]6)C=C5)C=C4)cc2)[NH+]2CCCC2)cc1
REMARK SMILES IDX 17 1 16 2 15 3 13 4 14 5 12 6 11 7 9 8 10 9 8 10 5 11 6 12
REMARK SMILES IDX 96 13 7 14 95 15 2 16 1 17 3 18 4 19 90 20 91 21 94 22 92 24
REMARK SMILES IDX 93 25 18 26 19 27 20 28 21 29 22 30 23 31 24 32 25 33 89 34
REMARK SMILES IDX 26 35 88 36 27 37 28 38 29 39 82 40 30 41 87 42 81 43 83 44
REMARK SMILES IDX 31 45 86 46 80 47 79 48 32 50 66 51 45 52 65 53 46 54 49 55
REMARK SMILES IDX 64 56 84 57 47 58 48 59 63 61 85 62 50 63 33 64 34 65 43 66
REMARK SMILES IDX 35 67 36 68 42 69 44 70 37 71 38 72 39 73 40 74 41 75 67 76
REMARK SMILES IDX 68 77 77 78 69 79 70 80 76 81 78 82 71 83 72 84 73 85 74 86
REMARK SMILES IDX 75 87 51 88 52 89 61 90 53 91 54 92 60 93 62 94 55 95 56 96
REMARK SMILES IDX 57 97 58 98 59 99
REMARK H PARENT 90 23 83 49 49 60
REMARK Flexibility Score: inf
ROOT
ATOM      1  C   UNL     1       2.084   7.759   2.895  1.00  0.00     0.202 C 
ENDROOT
BRANCH   1   2
ATOM      2  C   UNL     1       2.553   6.757   1.835  1.00  0.00     0.261 C 
BRANCH   2   3
ATOM      3  O   UNL     1       2.856   7.202   0.511  1.00  0.00    -0.459 OA
BRANCH   3   4
ATOM      4  C   UNL     1       1.766   7.582  -0.200  1.00  0.00     0.365 C 
ATOM      5  O   UNL     1       0.727   7.984   0.294  1.00  0.00    -0.245 OA
BRANCH   4   6
ATOM      6  C   UNL     1       1.905   7.316  -1.682  1.00  0.00     0.302 C 
BRANCH   6   7
ATOM      7  C   UNL     1       1.060   6.063  -2.026  1.00  0.00     0.158 C 
BRANCH   7   8
ATOM      8  C   UNL     1      -0.461   6.135  -1.871  1.00  0.00     0.169 C 
ATOM      9  O   UNL     1      -1.196   6.224  -2.855  1.00  0.00    -0.294 OA
BRANCH   8  10
ATOM     10  C   UNL     1      -1.091   6.127  -0.513  1.00  0.00     0.018 A 
ATOM     11  C   UNL     1      -1.965   6.674   2.145  1.00  0.00    -0.043 A 
ATOM     12  C   UNL     1      -2.504   7.351   1.035  1.00  0.00     0.005 A 
ATOM     13  C   UNL     1      -1.040   5.647   1.869  1.00  0.00     0.005 A 
ATOM     14  C   UNL     1      -2.095   7.068  -0.275  1.00  0.00     0.012 A 
ATOM     15  C   UNL     1      -0.611   5.366   0.554  1.00  0.00     0.012 A 
BRANCH  11  16
ATOM     16  C   UNL     1      -2.340   7.095   3.586  1.00  0.00    -0.013 C 
ATOM     17  C   UNL     1      -3.818   7.538   3.683  1.00  0.00     0.016 C 
ATOM     18  C   UNL     1      -1.479   8.292   4.043  1.00  0.00     0.016 C 
ATOM     19  C   UNL     1      -2.136   5.959   4.613  1.00  0.00     0.016 C 
ENDBRANCH  11  16
ENDBRANCH   8  10
ENDBRANCH   7   8
ENDBRANCH   6   7
BRANCH   6  20
ATOM     20  N   UNL     1       1.681   8.512  -2.527  1.00  0.00    -0.323 N 
ATOM     21  C   UNL     1       2.833   9.399  -2.669  1.00  0.00     0.263 C 
ATOM     22  C   UNL     1       0.490   9.327  -2.291  1.00  0.00     0.263 C 
ATOM     23  H   UNL     1       1.507   8.020  -3.404  1.00  0.00     0.348 HD
ATOM     24  C   UNL     1       2.447  10.767  -2.143  1.00  0.00     0.067 C 
ATOM     25  C   UNL     1       0.943  10.751  -1.992  1.00  0.00     0.067 C 
ENDBRANCH   6  20
ENDBRANCH   4   6
ENDBRANCH   3   4
ENDBRANCH   2   3
ENDBRANCH   1   2
BRANCH   1  26
ATOM     26  O   UNL     1       1.257   8.850   2.567  1.00  0.00    -0.374 OA
BRANCH  26  27
ATOM     27  C   UNL     1       1.722  10.049   1.956  1.00  0.00     0.202 C 
BRANCH  27  28
ATOM     28  C   UNL     1       3.177  10.238   1.512  1.00  0.00     0.261 C 
BRANCH  28  29
ATOM     29  O   UNL     1       4.163   9.791   2.434  1.00  0.00    -0.460 OA
BRANCH  29  30
ATOM     30  C   UNL     1       4.084  10.294   3.685  1.00  0.00     0.338 C 
ATOM     31  O   UNL     1       3.404  11.226   4.074  1.00  0.00    -0.246 OA
BRANCH  30  32
ATOM     32  C   UNL     1       4.771   9.310   4.539  1.00  0.00     0.060 A 
ATOM     33  C   UNL     1       4.094   8.842   5.671  1.00  0.00     0.016 A 
ATOM     34  C   UNL     1       5.990   8.750   4.138  1.00  0.00     0.016 A 
ATOM     35  C   UNL     1       4.679   7.857   6.452  1.00  0.00     0.010 A 
ATOM     36  C   UNL     1       6.579   7.768   4.923  1.00  0.00     0.010 A 
ATOM     37  C   UNL     1       5.949   7.370   6.111  1.00  0.00    -0.014 A 
BRANCH  37  38
ATOM     38  C   UNL     1       6.720   6.671   7.152  1.00  0.00     0.031 A 
ATOM     39  C   UNL     1       7.675   7.499   7.965  1.00  0.00     0.074 A 
ATOM     40  C   UNL     1       6.499   5.374   7.414  1.00  0.00     0.049 A 
ATOM     41  N   UNL     1       8.401   7.154   8.992  1.00  0.00    -0.248 NA
ATOM     42  C   UNL     1       7.827   8.911   7.568  1.00  0.00     0.031 C 
ATOM     43  C   UNL     1       5.566   4.511   6.688  1.00  0.00     0.029 A 
ATOM     44  N   UNL     1       7.032   4.563   8.377  1.00  0.00    -0.354 N 
ATOM     45  C   UNL     1       9.087   8.304   9.365  1.00  0.00     0.074 A 
ATOM     46  C   UNL     1       8.734   9.343   8.428  1.00  0.00     0.031 C 
ATOM     47  C   UNL     1       5.585   3.288   7.243  1.00  0.00     0.029 A 
ATOM     48  C   UNL     1       6.545   3.279   8.345  1.00  0.00     0.049 A 
ATOM     49  H   UNL     1       7.700   4.870   9.032  1.00  0.00     0.167 HD
ATOM     50  C   UNL     1       9.924   8.478  10.412  1.00  0.00     0.037 A 
ATOM     51  C   UNL     1       6.851   2.225   9.124  1.00  0.00     0.037 A 
ATOM     52  C   UNL     1      10.262   7.423  11.328  1.00  0.00     0.049 A 
ATOM     53  C   UNL     1       7.827   2.429  10.254  1.00  0.00     0.074 A 
ATOM     54  C   UNL     1      11.099   7.471  12.426  1.00  0.00     0.029 A 
ATOM     55  N   UNL     1       9.781   6.123  11.242  1.00  0.00    -0.354 N 
ATOM     56  N   UNL     1       8.457   3.525  10.613  1.00  0.00    -0.248 NA
ATOM     57  C   UNL     1       8.122   1.263  11.094  1.00  0.00     0.031 C 
ATOM     58  C   UNL     1      11.169   6.184  12.971  1.00  0.00     0.029 A 
ATOM     59  C   UNL     1      10.321   5.352  12.255  1.00  0.00     0.049 A 
ATOM     60  H   UNL     1       9.149   5.798  10.561  1.00  0.00     0.167 HD
ATOM     61  C   UNL     1       9.197   3.189  11.741  1.00  0.00     0.074 A 
ATOM     62  C   UNL     1       8.925   1.790  12.009  1.00  0.00     0.031 C 
ATOM     63  C   UNL     1      10.024   3.960  12.493  1.00  0.00     0.037 A 
BRANCH  50  64
ATOM     64  C   UNL     1      10.545   9.835  10.591  1.00  0.00     0.058 A 
ATOM     65  C   UNL     1       9.790  10.957  10.976  1.00  0.00     0.135 A 
ATOM     66  C   UNL     1      11.921  10.016  10.383  1.00  0.00     0.135 A 
ATOM     67  F   UNL     1       8.464  10.850  11.158  1.00  0.00    -0.206 F 
ATOM     68  C   UNL     1      10.374  12.211  11.126  1.00  0.00     0.059 A 
ATOM     69  C   UNL     1      12.532  11.254  10.558  1.00  0.00     0.059 A 
ATOM     70  F   UNL     1      12.688   8.983   9.999  1.00  0.00    -0.206 F 
ATOM     71  C   UNL     1      11.748  12.348  10.919  1.00  0.00     0.060 A 
BRANCH  71  72
ATOM     72  S   UNL     1      12.494  13.977  11.135  1.00  0.00     0.124 S 
ATOM     73  O   UNL     1      11.970  14.694   9.977  1.00  0.00    -0.237 OA
ATOM     74  O   UNL     1      11.965  14.391  12.430  1.00  0.00    -0.237 OA
ATOM     75  O   UNL     1      13.927  13.702  11.105  1.00  0.00    -0.744 OA
ENDBRANCH  71  72
ENDBRANCH  50  64
BRANCH  51  76
ATOM     76  C   UNL     1       6.225   0.901   8.865  1.00  0.00     0.058 A 
ATOM     77  C   UNL     1       5.318   0.329   9.768  1.00  0.00     0.135 A 
ATOM     78  C   UNL     1       6.514   0.186   7.691  1.00  0.00     0.135 A 
ATOM     79  F   UNL     1       5.009   0.969  10.906  1.00  0.00    -0.206 F 
ATOM     80  C   UNL     1       4.733  -0.912   9.528  1.00  0.00     0.059 A 
ATOM     81  C   UNL     1       5.921  -1.041   7.415  1.00  0.00     0.059 A 
ATOM     82  F   UNL     1       7.363   0.696   6.785  1.00  0.00    -0.206 F 
ATOM     83  C   UNL     1       5.039  -1.587   8.345  1.00  0.00     0.060 A 
BRANCH  83  84
ATOM     84  S   UNL     1       4.239  -3.173   8.019  1.00  0.00     0.124 S 
ATOM     85  O   UNL     1       4.899  -4.040   8.988  1.00  0.00    -0.237 OA
ATOM     86  O   UNL     1       2.837  -2.866   8.284  1.00  0.00    -0.237 OA
ATOM     87  O   UNL     1       4.562  -3.429   6.618  1.00  0.00    -0.744 OA
ENDBRANCH  83  84
ENDBRANCH  51  76
BRANCH  63  88
ATOM     88  C   UNL     1      10.650   3.319  13.700  1.00  0.00     0.058 A 
ATOM     89  C   UNL     1      11.648   2.339  13.588  1.00  0.00     0.135 A 
ATOM     90  C   UNL     1      10.268   3.723  14.990  1.00  0.00     0.135 A 
ATOM     91  F   UNL     1      12.050   1.917  12.378  1.00  0.00    -0.206 F 
ATOM     92  C   UNL     1      12.214   1.750  14.713  1.00  0.00     0.059 A 
ATOM     93  C   UNL     1      10.846   3.175  16.128  1.00  0.00     0.059 A 
ATOM     94  F   UNL     1       9.330   4.671  15.152  1.00  0.00    -0.206 F 
ATOM     95  C   UNL     1      11.805   2.174  15.979  1.00  0.00     0.060 A 
BRANCH  95  96
ATOM     96  S   UNL     1      12.550   1.405  17.430  1.00  0.00     0.124 S 
ATOM     97  O   UNL     1      11.924   0.087  17.416  1.00  0.00    -0.237 OA
ATOM     98  O   UNL     1      13.972   1.435  17.103  1.00  0.00    -0.237 OA
ATOM     99  O   UNL     1      12.145   2.281  18.525  1.00  0.00    -0.744 OA
ENDBRANCH  95  96
ENDBRANCH  63  88
ENDBRANCH  37  38
ENDBRANCH  30  32
ENDBRANCH  29  30
ENDBRANCH  28  29
ENDBRANCH  27  28
ENDBRANCH  26  27
ENDBRANCH   1  26
TORSDOF 22
