REMARK SMILES C[C@H]1CC[C@@](NC(=O)C(F)(F)F)(C(=O)OCCOCCOC(=O)c2ccc(-c3c4nc(c(-c5c(F)cc(S(=O)(=O)[O-])cc5F)c5ccc([nH]5)c(-c5c(F)cc(S(=O)(=O)[O-])cc5F)c5nc(c(-c6c(F)cc(S(=O)(=O)[O-])cc6F)c6ccc3[nH]6)C=C5)C=C4)cc2)CC1
REMARK SMILES IDX 19 1 18 2 17 3 16 4 15 5 13 6 14 7 5 8 1 9 2 10 91 11 3 12
REMARK SMILES IDX 90 13 4 14 6 15 7 16 8 18 9 19 10 20 11 21 12 22 20 23 21 24
REMARK SMILES IDX 22 25 23 26 24 27 25 28 89 29 26 30 88 31 27 32 28 33 29 34
REMARK SMILES IDX 82 35 30 36 87 37 81 38 83 39 31 40 86 41 80 42 79 43 32 45
REMARK SMILES IDX 66 46 45 47 65 48 46 49 49 50 64 51 84 52 47 53 48 54 63 56
REMARK SMILES IDX 85 57 50 58 33 59 34 60 43 61 35 62 36 63 42 64 44 65 37 66
REMARK SMILES IDX 38 67 39 68 40 69 41 70 67 71 68 72 77 73 69 74 70 75 76 76
REMARK SMILES IDX 78 77 71 78 72 79 73 80 74 81 75 82 51 83 52 84 61 85 53 86
REMARK SMILES IDX 54 87 60 88 62 89 55 90 56 91 57 92 58 93 59 94
REMARK H PARENT 6 17 83 44 49 55
REMARK Flexibility Score: inf
ROOT
ATOM      1  C   UNL     1       0.727  -0.056  -3.632  1.00  0.00     0.202 C 
ENDROOT
BRANCH   1   2
ATOM      2  O   UNL     1      -0.071  -0.402  -4.762  1.00  0.00    -0.374 OA
BRANCH   2   3
ATOM      3  C   UNL     1      -1.303   0.298  -4.923  1.00  0.00     0.202 C 
BRANCH   3   4
ATOM      4  C   UNL     1      -2.414  -0.044  -3.927  1.00  0.00     0.261 C 
BRANCH   4   5
ATOM      5  O   UNL     1      -2.091   0.263  -2.554  1.00  0.00    -0.461 OA
BRANCH   5   6
ATOM      6  C   UNL     1      -2.192  -0.778  -1.678  1.00  0.00     0.331 C 
ATOM      7  O   UNL     1      -2.377  -1.945  -2.010  1.00  0.00    -0.249 OA
BRANCH   6   8
ATOM      8  C   UNL     1      -2.196  -0.321  -0.191  1.00  0.00     0.138 C 
ATOM      9  C   UNL     1       2.172   0.224   0.407  1.00  0.00     0.007 C 
ATOM     10  C   UNL     1       0.675   0.118   0.704  1.00  0.00    -0.014 C 
ATOM     11  C   UNL     1       0.156  -1.256   0.291  1.00  0.00     0.006 C 
ATOM     12  C   UNL     1      -0.115   1.239   0.013  1.00  0.00     0.006 C 
ATOM     13  C   UNL     1      -1.335  -1.367   0.577  1.00  0.00     0.041 C 
ATOM     14  C   UNL     1      -1.642   1.090   0.107  1.00  0.00     0.041 C 
BRANCH   8  15
ATOM     15  N   UNL     1      -3.567  -0.455   0.392  1.00  0.00    -0.332 N 
ATOM     16  C   UNL     1      -4.802   0.003   0.004  1.00  0.00     0.326 C 
ATOM     17  H   UNL     1      -3.588  -0.981   1.224  1.00  0.00     0.164 HD
ATOM     18  O   UNL     1      -5.655   0.021   0.901  1.00  0.00    -0.265 OA
BRANCH  16  19
ATOM     19  C   UNL     1      -5.125   0.402  -1.452  1.00  0.00     0.471 C 
ATOM     20  F   UNL     1      -4.396   1.474  -1.866  1.00  0.00    -0.162 F 
ATOM     21  F   UNL     1      -4.866  -0.606  -2.331  1.00  0.00    -0.162 F 
ATOM     22  F   UNL     1      -6.432   0.729  -1.638  1.00  0.00    -0.162 F 
ENDBRANCH  16  19
ENDBRANCH   8  15
ENDBRANCH   6   8
ENDBRANCH   5   6
ENDBRANCH   4   5
ENDBRANCH   3   4
ENDBRANCH   2   3
ENDBRANCH   1   2
BRANCH   1  23
ATOM     23  C   UNL     1       1.379   1.331  -3.672  1.00  0.00     0.261 C 
BRANCH  23  24
ATOM     24  O   UNL     1       0.400   2.386  -3.676  1.00  0.00    -0.460 OA
BRANCH  24  25
ATOM     25  C   UNL     1       0.706   3.412  -4.509  1.00  0.00     0.338 C 
ATOM     26  O   UNL     1       1.759   3.595  -5.094  1.00  0.00    -0.246 OA
BRANCH  25  27
ATOM     27  C   UNL     1      -0.476   4.260  -4.735  1.00  0.00     0.060 A 
ATOM     28  C   UNL     1      -1.178   4.114  -5.938  1.00  0.00     0.016 A 
ATOM     29  C   UNL     1      -0.783   5.298  -3.854  1.00  0.00     0.016 A 
ATOM     30  C   UNL     1      -2.165   5.038  -6.283  1.00  0.00     0.010 A 
ATOM     31  C   UNL     1      -1.771   6.226  -4.205  1.00  0.00     0.010 A 
ATOM     32  C   UNL     1      -2.440   6.122  -5.438  1.00  0.00    -0.014 A 
BRANCH  32  33
ATOM     33  C   UNL     1      -3.337   7.209  -5.904  1.00  0.00     0.031 A 
ATOM     34  C   UNL     1      -2.741   8.455  -6.505  1.00  0.00     0.074 A 
ATOM     35  C   UNL     1      -4.673   7.077  -5.817  1.00  0.00     0.049 A 
ATOM     36  N   UNL     1      -3.343   9.519  -6.971  1.00  0.00    -0.248 NA
ATOM     37  C   UNL     1      -1.273   8.506  -6.595  1.00  0.00     0.031 C 
ATOM     38  C   UNL     1      -5.370   5.910  -5.277  1.00  0.00     0.029 A 
ATOM     39  N   UNL     1      -5.681   7.936  -6.176  1.00  0.00    -0.354 N 
ATOM     40  C   UNL     1      -2.332  10.366  -7.410  1.00  0.00     0.074 A 
ATOM     41  C   UNL     1      -1.076   9.703  -7.132  1.00  0.00     0.031 C 
ATOM     42  C   UNL     1      -6.695   6.132  -5.329  1.00  0.00     0.029 A 
ATOM     43  C   UNL     1      -6.938   7.463  -5.884  1.00  0.00     0.049 A 
ATOM     44  H   UNL     1      -5.519   8.808  -6.602  1.00  0.00     0.167 HD
ATOM     45  C   UNL     1      -2.441  11.582  -7.998  1.00  0.00     0.037 A 
ATOM     46  C   UNL     1      -8.145   8.045  -6.029  1.00  0.00     0.037 A 
ATOM     47  C   UNL     1      -3.690  12.242  -8.273  1.00  0.00     0.049 A 
ATOM     48  C   UNL     1      -8.237   9.422  -6.630  1.00  0.00     0.074 A 
ATOM     49  C   UNL     1      -3.902  13.459  -8.897  1.00  0.00     0.029 A 
ATOM     50  N   UNL     1      -4.939  11.746  -7.931  1.00  0.00    -0.354 N 
ATOM     51  N   UNL     1      -7.274  10.194  -7.076  1.00  0.00    -0.248 NA
ATOM     52  C   UNL     1      -9.580  10.009  -6.748  1.00  0.00     0.031 C 
ATOM     53  C   UNL     1      -5.278  13.720  -8.894  1.00  0.00     0.029 A 
ATOM     54  C   UNL     1      -5.925  12.646  -8.303  1.00  0.00     0.049 A 
ATOM     55  H   UNL     1      -5.102  10.882  -7.489  1.00  0.00     0.167 HD
ATOM     56  C   UNL     1      -7.895  11.349  -7.538  1.00  0.00     0.074 A 
ATOM     57  C   UNL     1      -9.318  11.171  -7.332  1.00  0.00     0.031 C 
ATOM     58  C   UNL     1      -7.337  12.458  -8.084  1.00  0.00     0.037 A 
BRANCH  45  59
ATOM     59  C   UNL     1      -1.169  12.290  -8.370  1.00  0.00     0.058 A 
ATOM     60  C   UNL     1      -0.403  11.895  -9.478  1.00  0.00     0.135 A 
ATOM     61  C   UNL     1      -0.731  13.402  -7.633  1.00  0.00     0.135 A 
ATOM     62  F   UNL     1      -0.770  10.829 -10.207  1.00  0.00    -0.206 F 
ATOM     63  C   UNL     1       0.765  12.564  -9.830  1.00  0.00     0.059 A 
ATOM     64  C   UNL     1       0.423  14.099  -7.979  1.00  0.00     0.059 A 
ATOM     65  F   UNL     1      -1.426  13.819  -6.563  1.00  0.00    -0.206 F 
ATOM     66  C   UNL     1       1.171  13.664  -9.072  1.00  0.00     0.060 A 
BRANCH  66  67
ATOM     67  S   UNL     1       2.687  14.527  -9.541  1.00  0.00     0.124 S 
ATOM     68  O   UNL     1       3.708  13.594  -9.074  1.00  0.00    -0.237 OA
ATOM     69  O   UNL     1       2.549  14.640 -10.990  1.00  0.00    -0.237 OA
ATOM     70  O   UNL     1       2.603  15.785  -8.807  1.00  0.00    -0.744 OA
ENDBRANCH  66  67
ENDBRANCH  45  59
BRANCH  46  71
ATOM     71  C   UNL     1      -9.367   7.331  -5.577  1.00  0.00     0.058 A 
ATOM     72  C   UNL     1     -10.288   6.812  -6.498  1.00  0.00     0.135 A 
ATOM     73  C   UNL     1      -9.633   7.149  -4.211  1.00  0.00     0.135 A 
ATOM     74  F   UNL     1     -10.082   6.972  -7.815  1.00  0.00    -0.206 F 
ATOM     75  C   UNL     1     -11.435   6.145  -6.082  1.00  0.00     0.059 A 
ATOM     76  C   UNL     1     -10.762   6.467  -3.771  1.00  0.00     0.059 A 
ATOM     77  F   UNL     1      -8.777   7.621  -3.291  1.00  0.00    -0.206 F 
ATOM     78  C   UNL     1     -11.662   5.976  -4.715  1.00  0.00     0.060 A 
BRANCH  78  79
ATOM     79  S   UNL     1     -13.127   5.063  -4.182  1.00  0.00     0.124 S 
ATOM     80  O   UNL     1     -14.178   6.054  -4.381  1.00  0.00    -0.237 OA
ATOM     81  O   UNL     1     -13.136   3.929  -5.102  1.00  0.00    -0.237 OA
ATOM     82  O   UNL     1     -12.826   4.731  -2.793  1.00  0.00    -0.744 OA
ENDBRANCH  78  79
ENDBRANCH  46  71
BRANCH  58  83
ATOM     83  C   UNL     1      -8.265  13.563  -8.504  1.00  0.00     0.058 A 
ATOM     84  C   UNL     1      -8.866  14.412  -7.562  1.00  0.00     0.135 A 
ATOM     85  C   UNL     1      -8.517  13.808  -9.864  1.00  0.00     0.135 A 
ATOM     86  F   UNL     1      -8.662  14.216  -6.250  1.00  0.00    -0.206 F 
ATOM     87  C   UNL     1      -9.701  15.454  -7.952  1.00  0.00     0.059 A 
ATOM     88  C   UNL     1      -9.332  14.858 -10.277  1.00  0.00     0.059 A 
ATOM     89  F   UNL     1      -7.958  13.031 -10.805  1.00  0.00    -0.206 F 
ATOM     90  C   UNL     1      -9.928  15.669  -9.313  1.00  0.00     0.060 A 
BRANCH  90  91
ATOM     91  S   UNL     1     -10.987  17.045  -9.810  1.00  0.00     0.124 S 
ATOM     92  O   UNL     1     -12.315  16.508  -9.534  1.00  0.00    -0.237 OA
ATOM     93  O   UNL     1     -10.543  18.120  -8.929  1.00  0.00    -0.237 OA
ATOM     94  O   UNL     1     -10.664  17.227 -11.222  1.00  0.00    -0.744 OA
ENDBRANCH  90  91
ENDBRANCH  58  83
ENDBRANCH  32  33
ENDBRANCH  25  27
ENDBRANCH  24  25
ENDBRANCH  23  24
ENDBRANCH   1  23
TORSDOF 19
