REMARK SMILES CC[C@H]1CCCCN1S(=O)(=O)c1ccc2oc(C(=O)OCCOCCOC(=O)c3ccc(-c4c5nc(c(-c6c(F)cc(S(=O)(=O)[O-])cc6F)c6ccc([nH]6)c(-c6c(F)cc(S(=O)(=O)[O-])cc6F)c6nc(c(-c7c(F)cc(S(=O)(=O)[O-])cc7F)c7ccc4[nH]7)C=C6)C=C5)cc3)c(C)c2c1
REMARK SMILES IDX 23 1 22 2 21 3 20 4 18 5 19 6 17 7 12 8 13 9 98 10 14 11
REMARK SMILES IDX 97 12 15 13 95 14 16 15 96 16 9 17 10 18 11 19 8 20 3 21
REMARK SMILES IDX 4 22 5 23 7 24 6 25 2 26 1 27 24 28 25 29 26 30 27 31 28 32
REMARK SMILES IDX 29 33 30 34 94 35 31 36 93 37 32 38 33 39 34 40 87 41 35 42
REMARK SMILES IDX 92 43 86 44 88 45 36 46 91 47 85 48 84 49 37 51 71 52 50 53
REMARK SMILES IDX 70 54 51 55 54 56 69 57 89 58 52 59 53 60 68 62 90 63 55 64
REMARK SMILES IDX 38 65 39 66 48 67 40 68 41 69 47 70 49 71 42 72 43 73 44 74
REMARK SMILES IDX 45 75 46 76 72 77 73 78 82 79 74 80 75 81 81 82 83 83 76 84
REMARK SMILES IDX 77 85 78 86 79 87 80 88 56 89 57 90 66 91 58 92 59 93 65 94
REMARK SMILES IDX 67 95 60 96 61 97 62 98 63 99 64 100
REMARK H PARENT 88 50 54 61
REMARK Flexibility Score: inf
ROOT
ATOM      1  O   UNL     1       1.410  12.172  -0.737  1.00  0.00    -0.374 OA
ENDROOT
BRANCH   1   2
ATOM      2  C   UNL     1       1.230  12.466   0.651  1.00  0.00     0.202 C 
BRANCH   2   3
ATOM      3  C   UNL     1      -0.039  11.863   1.259  1.00  0.00     0.261 C 
BRANCH   3   4
ATOM      4  O   UNL     1       0.089  10.434   1.331  1.00  0.00    -0.457 OA
BRANCH   4   5
ATOM      5  C   UNL     1      -0.692   9.715   0.479  1.00  0.00     0.374 C 
ATOM      6  O   UNL     1      -1.625  10.178  -0.166  1.00  0.00    -0.242 OA
BRANCH   5   7
ATOM      7  C   UNL     1      -0.201   8.355   0.381  1.00  0.00     0.215 A 
ATOM      8  C   UNL     1       1.023   3.967  -0.035  1.00  0.00     0.083 A 
ATOM      9  C   UNL     1       0.096   4.055  -1.080  1.00  0.00     0.025 A 
ATOM     10  C   UNL     1       1.433   5.110   0.671  1.00  0.00     0.034 A 
ATOM     11  C   UNL     1      -0.510   5.281  -1.388  1.00  0.00     0.049 A 
ATOM     12  C   UNL     1       0.750   6.314   0.452  1.00  0.00     0.025 A 
ATOM     13  C   UNL     1      -0.186   6.360  -0.567  1.00  0.00     0.135 A 
ATOM     14  C   UNL     1       0.748   7.602   1.073  1.00  0.00     0.010 A 
ATOM     15  O   UNL     1      -0.738   7.594  -0.630  1.00  0.00    -0.449 OA
ATOM     16  C   UNL     1       1.565   7.966   2.264  1.00  0.00     0.049 C 
BRANCH   8  17
ATOM     17  S   UNL     1       1.807   2.419   0.368  1.00  0.00     0.243 S 
ATOM     18  O   UNL     1       3.202   2.733   0.586  1.00  0.00    -0.207 OA
ATOM     19  O   UNL     1       1.405   1.456  -0.638  1.00  0.00    -0.207 OA
BRANCH  17  20
ATOM     20  N   UNL     1       1.115   1.927   1.862  1.00  0.00    -0.195 NA
ATOM     21  C   UNL     1       1.304   0.474   2.222  1.00  0.00     0.073 C 
ATOM     22  C   UNL     1       0.260   0.122   3.305  1.00  0.00     0.020 C 
ATOM     23  C   UNL     1       0.397   1.003   4.543  1.00  0.00     0.003 C 
ATOM     24  C   UNL     1       1.266   2.839   3.028  1.00  0.00     0.103 C 
ATOM     25  C   UNL     1       0.299   2.467   4.149  1.00  0.00     0.017 C 
BRANCH  21  26
ATOM     26  C   UNL     1       2.716   0.093   2.720  1.00  0.00     0.017 C 
ATOM     27  C   UNL     1       3.789  -0.042   1.650  1.00  0.00     0.005 C 
ENDBRANCH  21  26
ENDBRANCH  17  20
ENDBRANCH   8  17
ENDBRANCH   5   7
ENDBRANCH   4   5
ENDBRANCH   3   4
ENDBRANCH   2   3
ENDBRANCH   1   2
BRANCH   1  28
ATOM     28  C   UNL     1       2.095  10.956  -1.044  1.00  0.00     0.202 C 
BRANCH  28  29
ATOM     29  C   UNL     1       3.624  11.052  -1.038  1.00  0.00     0.261 C 
BRANCH  29  30
ATOM     30  O   UNL     1       4.129  11.202   0.302  1.00  0.00    -0.460 OA
BRANCH  30  31
ATOM     31  C   UNL     1       4.596  12.440   0.595  1.00  0.00     0.338 C 
ATOM     32  O   UNL     1       4.712  13.381  -0.171  1.00  0.00    -0.246 OA
BRANCH  31  33
ATOM     33  C   UNL     1       4.796  12.573   2.053  1.00  0.00     0.060 A 
ATOM     34  C   UNL     1       4.308  13.737   2.660  1.00  0.00     0.016 A 
ATOM     35  C   UNL     1       5.497  11.624   2.803  1.00  0.00     0.016 A 
ATOM     36  C   UNL     1       4.573  13.987   4.004  1.00  0.00     0.010 A 
ATOM     37  C   UNL     1       5.765  11.879   4.153  1.00  0.00     0.010 A 
ATOM     38  C   UNL     1       5.340  13.081   4.748  1.00  0.00    -0.014 A 
BRANCH  38  39
ATOM     39  C   UNL     1       5.819  13.477   6.095  1.00  0.00     0.031 A 
ATOM     40  C   UNL     1       7.218  14.014   6.242  1.00  0.00     0.074 A 
ATOM     41  C   UNL     1       5.004  13.413   7.163  1.00  0.00     0.049 A 
ATOM     42  N   UNL     1       7.835  14.437   7.314  1.00  0.00    -0.248 NA
ATOM     43  C   UNL     1       8.029  14.081   5.015  1.00  0.00     0.031 C 
ATOM     44  C   UNL     1       3.620  12.940   7.143  1.00  0.00     0.029 A 
ATOM     45  N   UNL     1       5.225  13.751   8.474  1.00  0.00    -0.354 N 
ATOM     46  C   UNL     1       9.105  14.819   6.895  1.00  0.00     0.074 A 
ATOM     47  C   UNL     1       9.181  14.547   5.476  1.00  0.00     0.031 C 
ATOM     48  C   UNL     1       3.117  13.011   8.387  1.00  0.00     0.029 A 
ATOM     49  C   UNL     1       4.147  13.517   9.294  1.00  0.00     0.049 A 
ATOM     50  H   UNL     1       6.076  14.126   8.798  1.00  0.00     0.167 HD
ATOM     51  C   UNL     1      10.112  15.358   7.623  1.00  0.00     0.037 A 
ATOM     52  C   UNL     1       4.011  13.683  10.624  1.00  0.00     0.037 A 
ATOM     53  C   UNL     1      10.033  15.633   9.034  1.00  0.00     0.049 A 
ATOM     54  C   UNL     1       5.158  14.250  11.420  1.00  0.00     0.074 A 
ATOM     55  C   UNL     1      10.995  16.191   9.858  1.00  0.00     0.029 A 
ATOM     56  N   UNL     1       8.929  15.369   9.831  1.00  0.00    -0.354 N 
ATOM     57  N   UNL     1       6.344  14.627  11.005  1.00  0.00    -0.248 NA
ATOM     58  C   UNL     1       4.943  14.426  12.863  1.00  0.00     0.031 C 
ATOM     59  C   UNL     1      10.486  16.229  11.161  1.00  0.00     0.029 A 
ATOM     60  C   UNL     1       9.191  15.737  11.140  1.00  0.00     0.049 A 
ATOM     61  H   UNL     1       8.084  14.977   9.513  1.00  0.00     0.167 HD
ATOM     62  C   UNL     1       7.006  15.109  12.130  1.00  0.00     0.074 A 
ATOM     63  C   UNL     1       6.084  14.985  13.241  1.00  0.00     0.031 C 
ATOM     64  C   UNL     1       8.261  15.613  12.234  1.00  0.00     0.037 A 
BRANCH  51  65
ATOM     65  C   UNL     1      11.395  15.670   6.906  1.00  0.00     0.058 A 
ATOM     66  C   UNL     1      11.500  16.753   6.018  1.00  0.00     0.135 A 
ATOM     67  C   UNL     1      12.542  14.892   7.129  1.00  0.00     0.135 A 
ATOM     68  F   UNL     1      10.428  17.517   5.755  1.00  0.00    -0.206 F 
ATOM     69  C   UNL     1      12.691  17.040   5.359  1.00  0.00     0.059 A 
ATOM     70  C   UNL     1      13.751  15.175   6.499  1.00  0.00     0.059 A 
ATOM     71  F   UNL     1      12.495  13.843   7.965  1.00  0.00    -0.206 F 
ATOM     72  C   UNL     1      13.811  16.243   5.605  1.00  0.00     0.060 A 
BRANCH  72  73
ATOM     73  S   UNL     1      15.352  16.628   4.746  1.00  0.00     0.124 S 
ATOM     74  O   UNL     1      15.061  16.144   3.400  1.00  0.00    -0.237 OA
ATOM     75  O   UNL     1      15.440  18.077   4.893  1.00  0.00    -0.237 OA
ATOM     76  O   UNL     1      16.352  15.864   5.485  1.00  0.00    -0.744 OA
ENDBRANCH  72  73
ENDBRANCH  51  65
BRANCH  52  77
ATOM     77  C   UNL     1       2.738  13.306  11.292  1.00  0.00     0.058 A 
ATOM     78  C   UNL     1       1.868  14.280  11.803  1.00  0.00     0.135 A 
ATOM     79  C   UNL     1       2.368  11.959  11.432  1.00  0.00     0.135 A 
ATOM     80  F   UNL     1       2.184  15.580  11.702  1.00  0.00    -0.206 F 
ATOM     81  C   UNL     1       0.683  13.934  12.444  1.00  0.00     0.059 A 
ATOM     82  C   UNL     1       1.177  11.589  12.048  1.00  0.00     0.059 A 
ATOM     83  F   UNL     1       3.160  10.990  10.949  1.00  0.00    -0.206 F 
ATOM     84  C   UNL     1       0.345  12.584  12.559  1.00  0.00     0.060 A 
BRANCH  84  85
ATOM     85  S   UNL     1      -1.221  12.143  13.344  1.00  0.00     0.124 S 
ATOM     86  O   UNL     1      -0.912  12.351  14.753  1.00  0.00    -0.237 OA
ATOM     87  O   UNL     1      -2.146  13.099  12.743  1.00  0.00    -0.237 OA
ATOM     88  O   UNL     1      -1.417  10.755  12.937  1.00  0.00    -0.744 OA
ENDBRANCH  84  85
ENDBRANCH  52  77
BRANCH  64  89
ATOM     89  C   UNL     1       8.698  16.104  13.586  1.00  0.00     0.058 A 
ATOM     90  C   UNL     1       9.010  15.219  14.629  1.00  0.00     0.135 A 
ATOM     91  C   UNL     1       8.837  17.480  13.830  1.00  0.00     0.135 A 
ATOM     92  F   UNL     1       8.890  13.894  14.449  1.00  0.00    -0.206 F 
ATOM     93  C   UNL     1       9.415  15.681  15.878  1.00  0.00     0.059 A 
ATOM     94  C   UNL     1       9.264  17.964  15.063  1.00  0.00     0.059 A 
ATOM     95  F   UNL     1       8.564  18.370  12.862  1.00  0.00    -0.206 F 
ATOM     96  C   UNL     1       9.535  17.056  16.086  1.00  0.00     0.060 A 
BRANCH  96  97
ATOM     97  S   UNL     1      10.071  17.647  17.706  1.00  0.00     0.124 S 
ATOM     98  O   UNL     1       8.852  17.492  18.492  1.00  0.00    -0.237 OA
ATOM     99  O   UNL     1      11.158  16.729  18.033  1.00  0.00    -0.237 OA
ATOM    100  O   UNL     1      10.481  19.024  17.445  1.00  0.00    -0.744 OA
ENDBRANCH  96  97
ENDBRANCH  64  89
ENDBRANCH  38  39
ENDBRANCH  31  33
ENDBRANCH  30  31
ENDBRANCH  29  30
ENDBRANCH  28  29
ENDBRANCH   1  28
TORSDOF 20
