REMARK SMILES Nc1nc(N2CCCCC2)nc2c1[C@H](C(=O)OCCOCCOC(=O)c1ccc(-c3c4nc(c(-c5c(F)cc(S(=O)(=O)[O-])cc5F)c5ccc([nH]5)c(-c5c(F)cc(S(=O)(=O)[O-])cc5F)c5nc(c(-c6c(F)cc(S(=O)(=O)[O-])cc6F)c6ccc3[nH]6)C=C5)C=C4)cc1)CC(=O)N2
REMARK SMILES IDX 21 1 20 2 19 3 18 4 17 5 15 6 16 7 14 8 2 9 3 10 13 11 4 12
REMARK SMILES IDX 12 13 11 14 95 15 92 16 93 17 94 19 1 20 5 23 6 24 10 25
REMARK SMILES IDX 7 26 9 27 8 28 22 29 23 30 24 31 25 32 26 33 27 34 91 35
REMARK SMILES IDX 28 36 90 37 29 38 30 39 31 40 84 41 32 42 89 43 83 44 85 45
REMARK SMILES IDX 33 46 88 47 82 48 81 49 34 51 68 52 47 53 67 54 48 55 51 56
REMARK SMILES IDX 66 57 86 58 49 59 50 60 65 62 87 63 52 64 35 65 36 66 45 67
REMARK SMILES IDX 37 68 38 69 44 70 46 71 39 72 40 73 41 74 42 75 43 76 69 77
REMARK SMILES IDX 70 78 79 79 71 80 72 81 78 82 80 83 73 84 74 85 75 86 76 87
REMARK SMILES IDX 77 88 53 89 54 90 63 91 55 92 56 93 62 94 64 95 57 96 58 97
REMARK SMILES IDX 59 98 60 99 61 100
REMARK H PARENT 95 18 1 21 1 22 85 50 51 61
REMARK Flexibility Score: inf
ROOT
ATOM      1  C   UNL     1      -3.876   0.110   0.434  1.00  0.00     0.202 C 
ENDROOT
BRANCH   1   2
ATOM      2  O   UNL     1      -3.669   1.442   0.909  1.00  0.00    -0.374 OA
BRANCH   2   3
ATOM      3  C   UNL     1      -3.697   2.498  -0.047  1.00  0.00     0.202 C 
BRANCH   3   4
ATOM      4  C   UNL     1      -2.475   2.634  -0.961  1.00  0.00     0.261 C 
BRANCH   4   5
ATOM      5  O   UNL     1      -2.100   1.389  -1.577  1.00  0.00    -0.463 OA
BRANCH   5   6
ATOM      6  C   UNL     1      -0.871   0.918  -1.242  1.00  0.00     0.314 C 
ATOM      7  O   UNL     1      -0.071   1.533  -0.540  1.00  0.00    -0.252 OA
BRANCH   6   8
ATOM      8  C   UNL     1      -0.559  -0.474  -1.799  1.00  0.00     0.146 C 
ATOM      9  C   UNL     1       0.745  -1.356   0.223  1.00  0.00     0.135 A 
ATOM     10  N   UNL     1       0.930  -2.230   1.223  1.00  0.00    -0.196 NA
ATOM     11  C   UNL     1      -0.277  -1.471  -0.700  1.00  0.00     0.052 A 
ATOM     12  C   UNL     1       0.103  -3.277   1.309  1.00  0.00     0.229 A 
ATOM     13  C   UNL     1      -1.071  -2.576  -0.516  1.00  0.00     0.144 A 
ATOM     14  N   UNL     1      -0.891  -3.493   0.443  1.00  0.00    -0.195 NA
ATOM     15  N   UNL     1      -2.184  -2.773  -1.316  1.00  0.00    -0.310 N 
ATOM     16  C   UNL     1      -1.540  -0.986  -2.861  1.00  0.00     0.120 C 
ATOM     17  C   UNL     1      -2.544  -2.000  -2.372  1.00  0.00     0.226 C 
ATOM     18  H   UNL     1      -2.764  -3.539  -1.101  1.00  0.00     0.171 HD
ATOM     19  O   UNL     1      -3.605  -2.203  -2.958  1.00  0.00    -0.275 OA
BRANCH   9  20
ATOM     20  N   UNL     1       1.685  -0.343   0.159  1.00  0.00    -0.383 N 
ATOM     21  H   UNL     1       2.400  -0.292   0.834  1.00  0.00     0.158 HD
ATOM     22  H   UNL     1       1.639   0.326  -0.562  1.00  0.00     0.158 HD
ENDBRANCH   9  20
BRANCH  12  23
ATOM     23  N   UNL     1       0.236  -4.156   2.357  1.00  0.00    -0.341 N 
ATOM     24  C   UNL     1       0.519  -3.639   3.684  1.00  0.00     0.119 C 
ATOM     25  C   UNL     1       0.618  -5.521   2.042  1.00  0.00     0.119 C 
ATOM     26  C   UNL     1       1.978  -3.866   4.066  1.00  0.00     0.022 C 
ATOM     27  C   UNL     1       2.093  -5.743   2.396  1.00  0.00     0.022 C 
ATOM     28  C   UNL     1       2.389  -5.320   3.836  1.00  0.00     0.004 C 
ENDBRANCH  12  23
ENDBRANCH   6   8
ENDBRANCH   5   6
ENDBRANCH   4   5
ENDBRANCH   3   4
ENDBRANCH   2   3
ENDBRANCH   1   2
BRANCH   1  29
ATOM     29  C   UNL     1      -5.253  -0.229  -0.149  1.00  0.00     0.261 C 
BRANCH  29  30
ATOM     30  O   UNL     1      -5.512   0.470  -1.381  1.00  0.00    -0.460 OA
BRANCH  30  31
ATOM     31  C   UNL     1      -6.650   1.202  -1.386  1.00  0.00     0.338 C 
ATOM     32  O   UNL     1      -7.485   1.274  -0.491  1.00  0.00    -0.246 OA
BRANCH  31  33
ATOM     33  C   UNL     1      -6.690   2.091  -2.559  1.00  0.00     0.060 A 
ATOM     34  C   UNL     1      -6.804   3.467  -2.325  1.00  0.00     0.016 A 
ATOM     35  C   UNL     1      -6.730   1.587  -3.861  1.00  0.00     0.016 A 
ATOM     36  C   UNL     1      -7.013   4.342  -3.388  1.00  0.00     0.010 A 
ATOM     37  C   UNL     1      -6.953   2.466  -4.927  1.00  0.00     0.010 A 
ATOM     38  C   UNL     1      -7.132   3.842  -4.691  1.00  0.00    -0.014 A 
BRANCH  38  39
ATOM     39  C   UNL     1      -7.579   4.744  -5.780  1.00  0.00     0.031 A 
ATOM     40  C   UNL     1      -9.035   4.777  -6.155  1.00  0.00     0.074 A 
ATOM     41  C   UNL     1      -6.705   5.559  -6.397  1.00  0.00     0.049 A 
ATOM     42  N   UNL     1      -9.637   5.475  -7.082  1.00  0.00    -0.248 NA
ATOM     43  C   UNL     1      -9.933   3.910  -5.375  1.00  0.00     0.031 C 
ATOM     44  C   UNL     1      -5.282   5.660  -6.081  1.00  0.00     0.029 A 
ATOM     45  N   UNL     1      -6.891   6.458  -7.417  1.00  0.00    -0.354 N 
ATOM     46  C   UNL     1     -10.982   5.136  -6.998  1.00  0.00     0.074 A 
ATOM     47  C   UNL     1     -11.104   4.150  -5.946  1.00  0.00     0.031 C 
ATOM     48  C   UNL     1      -4.720   6.568  -6.897  1.00  0.00     0.029 A 
ATOM     49  C   UNL     1      -5.736   7.089  -7.810  1.00  0.00     0.049 A 
ATOM     50  H   UNL     1      -7.768   6.634  -7.827  1.00  0.00     0.167 HD
ATOM     51  C   UNL     1     -12.022   5.609  -7.728  1.00  0.00     0.037 A 
ATOM     52  C   UNL     1      -5.520   7.973  -8.805  1.00  0.00     0.037 A 
ATOM     53  C   UNL     1     -11.893   6.579  -8.784  1.00  0.00     0.049 A 
ATOM     54  C   UNL     1      -6.674   8.427  -9.655  1.00  0.00     0.074 A 
ATOM     55  C   UNL     1     -12.884   7.110  -9.592  1.00  0.00     0.029 A 
ATOM     56  N   UNL     1     -10.698   7.159  -9.186  1.00  0.00    -0.354 N 
ATOM     57  N   UNL     1      -7.939   8.088  -9.576  1.00  0.00    -0.248 NA
ATOM     58  C   UNL     1      -6.374   9.384 -10.729  1.00  0.00     0.031 C 
ATOM     59  C   UNL     1     -12.283   7.981 -10.508  1.00  0.00     0.029 A 
ATOM     60  C   UNL     1     -10.924   8.029 -10.240  1.00  0.00     0.049 A 
ATOM     61  H   UNL     1      -9.819   6.979  -8.781  1.00  0.00     0.167 HD
ATOM     62  C   UNL     1      -8.591   8.808 -10.572  1.00  0.00     0.074 A 
ATOM     63  C   UNL     1      -7.579   9.603 -11.240  1.00  0.00     0.031 C 
ATOM     64  C   UNL     1      -9.907   8.814 -10.898  1.00  0.00     0.037 A 
BRANCH  51  65
ATOM     65  C   UNL     1     -13.386   5.056  -7.423  1.00  0.00     0.058 A 
ATOM     66  C   UNL     1     -14.082   5.410  -6.257  1.00  0.00     0.135 A 
ATOM     67  C   UNL     1     -14.012   4.171  -8.316  1.00  0.00     0.135 A 
ATOM     68  F   UNL     1     -13.522   6.238  -5.361  1.00  0.00    -0.206 F 
ATOM     69  C   UNL     1     -15.339   4.885  -5.972  1.00  0.00     0.059 A 
ATOM     70  C   UNL     1     -15.278   3.652  -8.063  1.00  0.00     0.059 A 
ATOM     71  F   UNL     1     -13.389   3.798  -9.445  1.00  0.00    -0.206 F 
ATOM     72  C   UNL     1     -15.927   4.003  -6.880  1.00  0.00     0.060 A 
BRANCH  72  73
ATOM     73  S   UNL     1     -17.553   3.320  -6.492  1.00  0.00     0.124 S 
ATOM     74  O   UNL     1     -17.226   2.377  -5.427  1.00  0.00    -0.237 OA
ATOM     75  O   UNL     1     -18.300   4.505  -6.082  1.00  0.00    -0.237 OA
ATOM     76  O   UNL     1     -17.979   2.719  -7.752  1.00  0.00    -0.744 OA
ENDBRANCH  72  73
ENDBRANCH  51  65
BRANCH  52  77
ATOM     77  C   UNL     1      -4.145   8.486  -9.033  1.00  0.00     0.058 A 
ATOM     78  C   UNL     1      -3.794   9.795  -8.673  1.00  0.00     0.135 A 
ATOM     79  C   UNL     1      -3.140   7.657  -9.555  1.00  0.00     0.135 A 
ATOM     80  F   UNL     1      -4.724  10.628  -8.182  1.00  0.00    -0.206 F 
ATOM     81  C   UNL     1      -2.490  10.260  -8.807  1.00  0.00     0.059 A 
ATOM     82  C   UNL     1      -1.825   8.093  -9.680  1.00  0.00     0.059 A 
ATOM     83  F   UNL     1      -3.426   6.394  -9.908  1.00  0.00    -0.206 F 
ATOM     84  C   UNL     1      -1.509   9.396  -9.299  1.00  0.00     0.060 A 
BRANCH  84  85
ATOM     85  S   UNL     1       0.201   9.976  -9.363  1.00  0.00     0.124 S 
ATOM     86  O   UNL     1       0.149  10.927 -10.467  1.00  0.00    -0.237 OA
ATOM     87  O   UNL     1       0.377  10.550  -8.032  1.00  0.00    -0.237 OA
ATOM     88  O   UNL     1       0.960   8.755  -9.615  1.00  0.00    -0.744 OA
ENDBRANCH  84  85
ENDBRANCH  52  77
BRANCH  64  89
ATOM     89  C   UNL     1     -10.344   9.729 -12.009  1.00  0.00     0.058 A 
ATOM     90  C   UNL     1     -10.079   9.434 -13.355  1.00  0.00     0.135 A 
ATOM     91  C   UNL     1     -11.088  10.885 -11.724  1.00  0.00     0.135 A 
ATOM     92  F   UNL     1      -9.368   8.343 -13.681  1.00  0.00    -0.206 F 
ATOM     93  C   UNL     1     -10.520  10.266 -14.380  1.00  0.00     0.059 A 
ATOM     94  C   UNL     1     -11.558  11.719 -12.735  1.00  0.00     0.059 A 
ATOM     95  F   UNL     1     -11.378  11.207 -10.454  1.00  0.00    -0.206 F 
ATOM     96  C   UNL     1     -11.259  11.406 -14.060  1.00  0.00     0.060 A 
BRANCH  96  97
ATOM     97  S   UNL     1     -11.849  12.461 -15.401  1.00  0.00     0.124 S 
ATOM     98  O   UNL     1     -10.618  13.125 -15.816  1.00  0.00    -0.237 OA
ATOM     99  O   UNL     1     -12.396  11.492 -16.345  1.00  0.00    -0.237 OA
ATOM    100  O   UNL     1     -12.836  13.319 -14.751  1.00  0.00    -0.744 OA
ENDBRANCH  96  97
ENDBRANCH  64  89
ENDBRANCH  38  39
ENDBRANCH  31  33
ENDBRANCH  30  31
ENDBRANCH  29  30
ENDBRANCH   1  29
TORSDOF 19
