REMARK SMILES NS(=O)(=O)c1ccc(NS(=O)(=O)c2cccc(C(=O)OCCOCCOC(=O)c3ccc(-c4c5nc(c(-c6c(F)cc(S(=O)(=O)[O-])cc6F)c6ccc([nH]6)c(-c6c(F)cc(S(=O)(=O)[O-])cc6F)c6nc(c(-c7c(F)cc(S(=O)(=O)[O-])cc7F)c7ccc4[nH]7)C=C6)C=C5)cc3)c2)cc1
REMARK SMILES IDX 22 1 21 2 20 3 18 4 19 5 17 6 13 7 14 8 95 9 15 10 16 11
REMARK SMILES IDX 10 12 11 13 12 14 9 15 8 17 5 18 6 19 97 20 7 21 96 22 2 23
REMARK SMILES IDX 3 24 4 25 1 26 23 29 24 30 25 31 26 32 27 33 28 34 29 35
REMARK SMILES IDX 30 36 94 37 31 38 93 39 32 40 33 41 34 42 87 43 35 44 92 45
REMARK SMILES IDX 86 46 88 47 36 48 91 49 85 50 84 51 37 53 71 54 50 55 70 56
REMARK SMILES IDX 51 57 54 58 69 59 89 60 52 61 53 62 68 64 90 65 55 66 38 67
REMARK SMILES IDX 39 68 48 69 40 70 41 71 47 72 49 73 42 74 43 75 44 76 45 77
REMARK SMILES IDX 46 78 72 79 73 80 82 81 74 82 75 83 81 84 83 85 76 86 77 87
REMARK SMILES IDX 78 88 79 89 80 90 56 91 57 92 66 93 58 94 59 95 65 96 67 97
REMARK SMILES IDX 60 98 61 99 62 100 63 101 64 102
REMARK H PARENT 9 16 1 27 1 28 88 52 54 63
REMARK Flexibility Score: inf
ROOT
ATOM      1  C   UNL     1       4.317  -3.333  -1.312  1.00  0.00     0.202 C 
ENDROOT
BRANCH   1   2
ATOM      2  C   UNL     1       5.141  -2.213  -1.972  1.00  0.00     0.261 C 
BRANCH   2   3
ATOM      3  O   UNL     1       4.676  -1.784  -3.260  1.00  0.00    -0.460 OA
BRANCH   3   4
ATOM      4  C   UNL     1       5.292  -2.393  -4.305  1.00  0.00     0.338 C 
ATOM      5  O   UNL     1       6.174  -3.234  -4.251  1.00  0.00    -0.246 OA
BRANCH   4   6
ATOM      6  C   UNL     1       4.625  -2.024  -5.574  1.00  0.00     0.061 A 
ATOM      7  C   UNL     1       3.617  -0.461  -7.103  1.00  0.00     0.088 A 
ATOM      8  C   UNL     1       3.334  -1.508  -7.995  1.00  0.00     0.022 A 
ATOM      9  C   UNL     1       4.271  -0.706  -5.888  1.00  0.00     0.038 A 
ATOM     10  C   UNL     1       3.684  -2.815  -7.669  1.00  0.00     0.002 A 
ATOM     11  C   UNL     1       4.329  -3.072  -6.461  1.00  0.00     0.016 A 
BRANCH   7  12
ATOM     12  S   UNL     1       2.959   1.151  -7.481  1.00  0.00     0.261 S 
ATOM     13  O   UNL     1       1.860   0.976  -8.406  1.00  0.00    -0.201 OA
ATOM     14  O   UNL     1       4.092   1.987  -7.810  1.00  0.00    -0.201 OA
BRANCH  12  15
ATOM     15  N   UNL     1       2.333   1.731  -6.034  1.00  0.00    -0.280 N 
ATOM     16  H   UNL     1       2.799   2.482  -5.600  1.00  0.00     0.180 HD
BRANCH  15  17
ATOM     17  C   UNL     1       1.170   1.208  -5.394  1.00  0.00     0.049 A 
ATOM     18  C   UNL     1      -0.847   0.181  -3.719  1.00  0.00     0.082 A 
ATOM     19  C   UNL     1      -0.153  -0.661  -4.584  1.00  0.00     0.024 A 
ATOM     20  C   UNL     1      -0.592   1.554  -3.734  1.00  0.00     0.024 A 
ATOM     21  C   UNL     1       0.843  -0.147  -5.416  1.00  0.00     0.028 A 
ATOM     22  C   UNL     1       0.436   2.058  -4.552  1.00  0.00     0.028 A 
BRANCH  18  23
ATOM     23  S   UNL     1      -2.070  -0.521  -2.633  1.00  0.00     0.238 S 
ATOM     24  O   UNL     1      -2.023  -1.960  -2.795  1.00  0.00    -0.207 OA
ATOM     25  O   UNL     1      -3.278   0.243  -2.805  1.00  0.00    -0.207 OA
BRANCH  23  26
ATOM     26  N   UNL     1      -1.479  -0.229  -1.098  1.00  0.00    -0.225 NA
ATOM     27  H   UNL     1      -2.128  -0.605  -0.407  1.00  0.00     0.137 HD
ATOM     28  H   UNL     1      -1.377   0.776  -0.959  1.00  0.00     0.137 HD
ENDBRANCH  23  26
ENDBRANCH  18  23
ENDBRANCH  15  17
ENDBRANCH  12  15
ENDBRANCH   7  12
ENDBRANCH   4   6
ENDBRANCH   3   4
ENDBRANCH   2   3
ENDBRANCH   1   2
BRANCH   1  29
ATOM     29  O   UNL     1       3.711  -4.305  -2.153  1.00  0.00    -0.374 OA
BRANCH  29  30
ATOM     30  C   UNL     1       2.593  -3.910  -2.948  1.00  0.00     0.202 C 
BRANCH  30  31
ATOM     31  C   UNL     1       1.480  -3.115  -2.266  1.00  0.00     0.261 C 
BRANCH  31  32
ATOM     32  O   UNL     1       1.893  -1.772  -1.922  1.00  0.00    -0.460 OA
BRANCH  32  33
ATOM     33  C   UNL     1       1.551  -1.417  -0.662  1.00  0.00     0.338 C 
ATOM     34  O   UNL     1       0.891  -2.086   0.121  1.00  0.00    -0.246 OA
BRANCH  33  35
ATOM     35  C   UNL     1       1.999  -0.073  -0.259  1.00  0.00     0.060 A 
ATOM     36  C   UNL     1       2.502   0.062   1.036  1.00  0.00     0.016 A 
ATOM     37  C   UNL     1       1.602   1.054  -0.979  1.00  0.00     0.016 A 
ATOM     38  C   UNL     1       2.470   1.304   1.661  1.00  0.00     0.010 A 
ATOM     39  C   UNL     1       1.531   2.295  -0.341  1.00  0.00     0.010 A 
ATOM     40  C   UNL     1       1.922   2.416   1.000  1.00  0.00    -0.014 A 
BRANCH  40  41
ATOM     41  C   UNL     1       1.897   3.724   1.691  1.00  0.00     0.031 A 
ATOM     42  C   UNL     1       0.661   4.259   2.358  1.00  0.00     0.074 A 
ATOM     43  C   UNL     1       3.049   4.416   1.714  1.00  0.00     0.049 A 
ATOM     44  N   UNL     1       0.526   5.336   3.091  1.00  0.00    -0.248 NA
ATOM     45  C   UNL     1      -0.587   3.505   2.168  1.00  0.00     0.031 C 
ATOM     46  C   UNL     1       4.285   3.991   1.053  1.00  0.00     0.029 A 
ATOM     47  N   UNL     1       3.374   5.601   2.311  1.00  0.00    -0.354 N 
ATOM     48  C   UNL     1      -0.815   5.390   3.460  1.00  0.00     0.074 A 
ATOM     49  C   UNL     1      -1.460   4.252   2.836  1.00  0.00     0.031 C 
ATOM     50  C   UNL     1       5.242   4.896   1.295  1.00  0.00     0.029 A 
ATOM     51  C   UNL     1       4.682   5.968   2.111  1.00  0.00     0.049 A 
ATOM     52  H   UNL     1       2.735   6.139   2.832  1.00  0.00     0.167 HD
ATOM     53  C   UNL     1      -1.435   6.302   4.252  1.00  0.00     0.037 A 
ATOM     54  C   UNL     1       5.358   7.046   2.543  1.00  0.00     0.037 A 
ATOM     55  C   UNL     1      -0.761   7.434   4.850  1.00  0.00     0.049 A 
ATOM     56  C   UNL     1       4.656   8.027   3.433  1.00  0.00     0.074 A 
ATOM     57  C   UNL     1      -1.272   8.384   5.718  1.00  0.00     0.029 A 
ATOM     58  N   UNL     1       0.567   7.778   4.628  1.00  0.00    -0.354 N 
ATOM     59  N   UNL     1       3.412   8.013   3.850  1.00  0.00    -0.248 NA
ATOM     60  C   UNL     1       5.450   9.158   3.925  1.00  0.00     0.031 C 
ATOM     61  C   UNL     1      -0.273   9.331   5.974  1.00  0.00     0.029 A 
ATOM     62  C   UNL     1       0.882   8.941   5.315  1.00  0.00     0.049 A 
ATOM     63  H   UNL     1       1.194   7.270   4.064  1.00  0.00     0.167 HD
ATOM     64  C   UNL     1       3.275   9.130   4.665  1.00  0.00     0.074 A 
ATOM     65  C   UNL     1       4.573   9.775   4.704  1.00  0.00     0.031 C 
ATOM     66  C   UNL     1       2.175   9.582   5.319  1.00  0.00     0.037 A 
BRANCH  53  67
ATOM     67  C   UNL     1      -2.911   6.134   4.526  1.00  0.00     0.058 A 
ATOM     68  C   UNL     1      -3.403   5.088   5.324  1.00  0.00     0.135 A 
ATOM     69  C   UNL     1      -3.842   7.080   4.058  1.00  0.00     0.135 A 
ATOM     70  F   UNL     1      -2.567   4.152   5.801  1.00  0.00    -0.206 F 
ATOM     71  C   UNL     1      -4.758   4.971   5.627  1.00  0.00     0.059 A 
ATOM     72  C   UNL     1      -5.198   6.998   4.371  1.00  0.00     0.059 A 
ATOM     73  F   UNL     1      -3.434   8.108   3.298  1.00  0.00    -0.206 F 
ATOM     74  C   UNL     1      -5.649   5.933   5.147  1.00  0.00     0.060 A 
BRANCH  74  75
ATOM     75  S   UNL     1      -7.401   5.773   5.563  1.00  0.00     0.124 S 
ATOM     76  O   UNL     1      -7.787   4.616   4.761  1.00  0.00    -0.237 OA
ATOM     77  O   UNL     1      -7.360   5.558   7.006  1.00  0.00    -0.237 OA
ATOM     78  O   UNL     1      -7.971   7.048   5.139  1.00  0.00    -0.744 OA
ENDBRANCH  74  75
ENDBRANCH  53  67
BRANCH  54  79
ATOM     79  C   UNL     1       6.782   7.209   2.158  1.00  0.00     0.058 A 
ATOM     80  C   UNL     1       7.809   7.044   3.096  1.00  0.00     0.135 A 
ATOM     81  C   UNL     1       7.143   7.462   0.825  1.00  0.00     0.135 A 
ATOM     82  F   UNL     1       7.510   6.793   4.380  1.00  0.00    -0.206 F 
ATOM     83  C   UNL     1       9.146   7.134   2.731  1.00  0.00     0.059 A 
ATOM     84  C   UNL     1       8.473   7.527   0.429  1.00  0.00     0.059 A 
ATOM     85  F   UNL     1       6.195   7.594  -0.116  1.00  0.00    -0.206 F 
ATOM     86  C   UNL     1       9.468   7.370   1.393  1.00  0.00     0.060 A 
BRANCH  86  87
ATOM     87  S   UNL     1      11.209   7.419   0.918  1.00  0.00     0.124 S 
ATOM     88  O   UNL     1      11.630   8.696   1.483  1.00  0.00    -0.237 OA
ATOM     89  O   UNL     1      11.736   6.225   1.571  1.00  0.00    -0.237 OA
ATOM     90  O   UNL     1      11.160   7.357  -0.539  1.00  0.00    -0.744 OA
ENDBRANCH  86  87
ENDBRANCH  54  79
BRANCH  66  91
ATOM     91  C   UNL     1       2.344  10.840   6.129  1.00  0.00     0.058 A 
ATOM     92  C   UNL     1       2.534  12.089   5.515  1.00  0.00     0.135 A 
ATOM     93  C   UNL     1       2.316  10.796   7.532  1.00  0.00     0.135 A 
ATOM     94  F   UNL     1       2.579  12.184   4.177  1.00  0.00    -0.206 F 
ATOM     95  C   UNL     1       2.734  13.243   6.264  1.00  0.00     0.059 A 
ATOM     96  C   UNL     1       2.482  11.944   8.301  1.00  0.00     0.059 A 
ATOM     97  F   UNL     1       2.129   9.630   8.169  1.00  0.00    -0.206 F 
ATOM     98  C   UNL     1       2.710  13.160   7.657  1.00  0.00     0.060 A 
BRANCH  98  99
ATOM     99  S   UNL     1       2.971  14.665   8.617  1.00  0.00     0.124 S 
ATOM    100  O   UNL     1       4.403  14.883   8.436  1.00  0.00    -0.237 OA
ATOM    101  O   UNL     1       2.095  15.620   7.945  1.00  0.00    -0.237 OA
ATOM    102  O   UNL     1       2.559  14.285   9.965  1.00  0.00    -0.744 OA
ENDBRANCH  98  99
ENDBRANCH  66  91
ENDBRANCH  40  41
ENDBRANCH  33  35
ENDBRANCH  32  33
ENDBRANCH  31  32
ENDBRANCH  30  31
ENDBRANCH  29  30
ENDBRANCH   1  29
TORSDOF 22
