REMARK SMILES CC[C@@H](C)N(C)S(=O)(=O)c1cc(C(=O)OCCOCCOC(=O)c2ccc(-c3c4nc(c(-c5c(F)cc(S(=O)(=O)[O-])cc5F)c5ccc([nH]5)c(-c5c(F)cc(S(=O)(=O)[O-])cc5F)c5nc(c(-c6c(F)cc(S(=O)(=O)[O-])cc6F)c6ccc3[nH]6)C=C5)C=C4)cc2)c(C)cc1C
REMARK SMILES IDX 17 1 16 2 15 3 13 4 14 5 12 6 10 7 11 8 93 9 92 10 94 11
REMARK SMILES IDX 90 12 91 13 7 14 8 15 9 16 5 17 6 18 3 19 4 20 2 21 1 22
REMARK SMILES IDX 18 23 19 24 20 25 21 26 22 27 23 28 24 29 25 30 89 31 26 32
REMARK SMILES IDX 88 33 27 34 28 35 29 36 82 37 30 38 87 39 81 40 83 41 31 42
REMARK SMILES IDX 86 43 80 44 79 45 32 47 66 48 45 49 65 50 46 51 49 52 64 53
REMARK SMILES IDX 84 54 47 55 48 56 63 58 85 59 50 60 33 61 34 62 43 63 35 64
REMARK SMILES IDX 36 65 42 66 44 67 37 68 38 69 39 70 40 71 41 72 67 73 68 74
REMARK SMILES IDX 77 75 69 76 70 77 76 78 78 79 71 80 72 81 73 82 74 83 75 84
REMARK SMILES IDX 51 85 52 86 61 87 53 88 54 89 60 90 62 91 55 92 56 93 57 94
REMARK SMILES IDX 58 95 59 96
REMARK H PARENT 83 46 49 57
REMARK Flexibility Score: inf
ROOT
ATOM      1  C   UNL     1      -3.537   2.200  10.650  1.00  0.00     0.202 C 
ENDROOT
BRANCH   1   2
ATOM      2  C   UNL     1      -4.614   1.423   9.890  1.00  0.00     0.261 C 
BRANCH   2   3
ATOM      3  O   UNL     1      -4.007   0.301   9.225  1.00  0.00    -0.460 OA
BRANCH   3   4
ATOM      4  C   UNL     1      -4.369   0.125   7.937  1.00  0.00     0.338 C 
ATOM      5  O   UNL     1      -5.286   0.681   7.354  1.00  0.00    -0.246 OA
BRANCH   4   6
ATOM      6  C   UNL     1      -3.345  -0.680   7.222  1.00  0.00     0.064 A 
ATOM      7  C   UNL     1      -2.034  -0.834   5.165  1.00  0.00     0.086 A 
ATOM      8  C   UNL     1      -2.920  -0.138   5.999  1.00  0.00     0.038 A 
ATOM      9  C   UNL     1      -1.587  -2.112   5.528  1.00  0.00    -0.031 A 
ATOM     10  C   UNL     1      -1.974  -2.616   6.788  1.00  0.00     0.009 A 
ATOM     11  C   UNL     1      -0.824  -3.034   4.617  1.00  0.00     0.046 C 
ATOM     12  C   UNL     1      -2.823  -1.905   7.662  1.00  0.00    -0.036 A 
ATOM     13  C   UNL     1      -3.196  -2.541   8.973  1.00  0.00     0.045 C 
BRANCH   7  14
ATOM     14  S   UNL     1      -1.575  -0.031   3.635  1.00  0.00     0.243 S 
ATOM     15  O   UNL     1      -1.953   1.364   3.749  1.00  0.00    -0.207 OA
ATOM     16  O   UNL     1      -2.099  -0.859   2.573  1.00  0.00    -0.207 OA
BRANCH  14  17
ATOM     17  N   UNL     1       0.146  -0.063   3.602  1.00  0.00    -0.198 NA
ATOM     18  C   UNL     1       0.799   0.516   4.807  1.00  0.00     0.124 C 
BRANCH  17  19
ATOM     19  C   UNL     1       0.819   0.405   2.326  1.00  0.00     0.069 C 
ATOM     20  C   UNL     1       0.496   1.863   1.994  1.00  0.00     0.026 C 
BRANCH  19  21
ATOM     21  C   UNL     1       0.535  -0.552   1.155  1.00  0.00     0.016 C 
ATOM     22  C   UNL     1       1.340  -0.236  -0.100  1.00  0.00     0.005 C 
ENDBRANCH  19  21
ENDBRANCH  17  19
ENDBRANCH  14  17
ENDBRANCH   7  14
ENDBRANCH   4   6
ENDBRANCH   3   4
ENDBRANCH   2   3
ENDBRANCH   1   2
BRANCH   1  23
ATOM     23  O   UNL     1      -2.614   2.919   9.825  1.00  0.00    -0.374 OA
BRANCH  23  24
ATOM     24  C   UNL     1      -1.606   2.158   9.160  1.00  0.00     0.202 C 
BRANCH  24  25
ATOM     25  C   UNL     1      -0.370   1.803   9.994  1.00  0.00     0.261 C 
BRANCH  25  26
ATOM     26  O   UNL     1      -0.687   0.960  11.114  1.00  0.00    -0.460 OA
BRANCH  26  27
ATOM     27  C   UNL     1      -0.654   1.595  12.312  1.00  0.00     0.338 C 
ATOM     28  O   UNL     1      -0.310   2.747  12.520  1.00  0.00    -0.246 OA
BRANCH  27  29
ATOM     29  C   UNL     1      -1.250   0.749  13.364  1.00  0.00     0.060 A 
ATOM     30  C   UNL     1      -2.185   1.355  14.212  1.00  0.00     0.016 A 
ATOM     31  C   UNL     1      -0.847  -0.571  13.582  1.00  0.00     0.016 A 
ATOM     32  C   UNL     1      -2.666   0.669  15.323  1.00  0.00     0.010 A 
ATOM     33  C   UNL     1      -1.329  -1.259  14.703  1.00  0.00     0.010 A 
ATOM     34  C   UNL     1      -2.203  -0.624  15.604  1.00  0.00    -0.014 A 
BRANCH  34  35
ATOM     35  C   UNL     1      -2.512  -1.219  16.927  1.00  0.00     0.031 A 
ATOM     36  C   UNL     1      -1.484  -1.132  18.024  1.00  0.00     0.074 A 
ATOM     37  C   UNL     1      -3.719  -1.759  17.174  1.00  0.00     0.049 A 
ATOM     38  N   UNL     1      -1.565  -1.519  19.270  1.00  0.00    -0.248 NA
ATOM     39  C   UNL     1      -0.191  -0.525  17.667  1.00  0.00     0.031 C 
ATOM     40  C   UNL     1      -4.805  -1.880  16.202  1.00  0.00     0.029 A 
ATOM     41  N   UNL     1      -4.234  -2.300  18.325  1.00  0.00    -0.354 N 
ATOM     42  C   UNL     1      -0.341  -1.202  19.847  1.00  0.00     0.074 A 
ATOM     43  C   UNL     1       0.480  -0.625  18.805  1.00  0.00     0.031 C 
ATOM     44  C   UNL     1      -5.861  -2.459  16.800  1.00  0.00     0.029 A 
ATOM     45  C   UNL     1      -5.522  -2.761  18.189  1.00  0.00     0.049 A 
ATOM     46  H   UNL     1      -3.729  -2.352  19.168  1.00  0.00     0.167 HD
ATOM     47  C   UNL     1       0.060  -1.362  21.131  1.00  0.00     0.037 A 
ATOM     48  C   UNL     1      -6.332  -3.359  19.085  1.00  0.00     0.037 A 
ATOM     49  C   UNL     1      -0.759  -1.932  22.169  1.00  0.00     0.049 A 
ATOM     50  C   UNL     1      -5.854  -3.556  20.499  1.00  0.00     0.074 A 
ATOM     51  C   UNL     1      -0.449  -2.122  23.505  1.00  0.00     0.029 A 
ATOM     52  N   UNL     1      -2.049  -2.407  21.987  1.00  0.00    -0.354 N 
ATOM     53  N   UNL     1      -4.703  -3.224  21.036  1.00  0.00    -0.248 NA
ATOM     54  C   UNL     1      -6.790  -4.197  21.433  1.00  0.00     0.031 C 
ATOM     55  C   UNL     1      -1.539  -2.747  24.122  1.00  0.00     0.029 A 
ATOM     56  C   UNL     1      -2.543  -2.906  23.180  1.00  0.00     0.049 A 
ATOM     57  H   UNL     1      -2.541  -2.392  21.134  1.00  0.00     0.167 HD
ATOM     58  C   UNL     1      -4.787  -3.593  22.375  1.00  0.00     0.074 A 
ATOM     59  C   UNL     1      -6.105  -4.161  22.569  1.00  0.00     0.031 C 
ATOM     60  C   UNL     1      -3.859  -3.469  23.357  1.00  0.00     0.037 A 
BRANCH  47  61
ATOM     61  C   UNL     1       1.457  -0.928  21.478  1.00  0.00     0.058 A 
ATOM     62  C   UNL     1       1.809   0.428  21.564  1.00  0.00     0.135 A 
ATOM     63  C   UNL     1       2.453  -1.882  21.745  1.00  0.00     0.135 A 
ATOM     64  F   UNL     1       0.900   1.380  21.300  1.00  0.00    -0.206 F 
ATOM     65  C   UNL     1       3.106   0.825  21.875  1.00  0.00     0.059 A 
ATOM     66  C   UNL     1       3.750  -1.508  22.081  1.00  0.00     0.059 A 
ATOM     67  F   UNL     1       2.171  -3.192  21.673  1.00  0.00    -0.206 F 
ATOM     68  C   UNL     1       4.071  -0.151  22.129  1.00  0.00     0.060 A 
BRANCH  68  69
ATOM     69  S   UNL     1       5.752   0.375  22.525  1.00  0.00     0.124 S 
ATOM     70  O   UNL     1       6.242   0.789  21.214  1.00  0.00    -0.237 OA
ATOM     71  O   UNL     1       5.526   1.451  23.485  1.00  0.00    -0.237 OA
ATOM     72  O   UNL     1       6.365  -0.831  23.072  1.00  0.00    -0.744 OA
ENDBRANCH  68  69
ENDBRANCH  47  61
BRANCH  48  73
ATOM     73  C   UNL     1      -7.687  -3.809  18.671  1.00  0.00     0.058 A 
ATOM     74  C   UNL     1      -8.841  -3.155  19.124  1.00  0.00     0.135 A 
ATOM     75  C   UNL     1      -7.850  -4.905  17.809  1.00  0.00     0.135 A 
ATOM     76  F   UNL     1      -8.735  -2.109  19.958  1.00  0.00    -0.206 F 
ATOM     77  C   UNL     1     -10.112  -3.577  18.749  1.00  0.00     0.059 A 
ATOM     78  C   UNL     1      -9.110  -5.332  17.402  1.00  0.00     0.059 A 
ATOM     79  F   UNL     1      -6.776  -5.558  17.340  1.00  0.00    -0.206 F 
ATOM     80  C   UNL     1     -10.236  -4.667  17.884  1.00  0.00     0.060 A 
BRANCH  80  81
ATOM     81  S   UNL     1     -11.887  -5.176  17.357  1.00  0.00     0.124 S 
ATOM     82  O   UNL     1     -12.378  -5.857  18.549  1.00  0.00    -0.237 OA
ATOM     83  O   UNL     1     -12.518  -3.897  17.045  1.00  0.00    -0.237 OA
ATOM     84  O   UNL     1     -11.619  -6.031  16.205  1.00  0.00    -0.744 OA
ENDBRANCH  80  81
ENDBRANCH  48  73
BRANCH  60  85
ATOM     85  C   UNL     1      -4.248  -3.931  24.734  1.00  0.00     0.058 A 
ATOM     86  C   UNL     1      -4.358  -5.293  25.052  1.00  0.00     0.135 A 
ATOM     87  C   UNL     1      -4.489  -2.998  25.755  1.00  0.00     0.135 A 
ATOM     88  F   UNL     1      -4.141  -6.226  24.111  1.00  0.00    -0.206 F 
ATOM     89  C   UNL     1      -4.728  -5.715  26.325  1.00  0.00     0.059 A 
ATOM     90  C   UNL     1      -4.835  -3.397  27.042  1.00  0.00     0.059 A 
ATOM     91  F   UNL     1      -4.383  -1.682  25.508  1.00  0.00    -0.206 F 
ATOM     92  C   UNL     1      -4.971  -4.758  27.313  1.00  0.00     0.060 A 
BRANCH  92  93
ATOM     93  S   UNL     1      -5.446  -5.313  28.964  1.00  0.00     0.124 S 
ATOM     94  O   UNL     1      -6.850  -5.656  28.765  1.00  0.00    -0.237 OA
ATOM     95  O   UNL     1      -4.544  -6.438  29.191  1.00  0.00    -0.237 OA
ATOM     96  O   UNL     1      -5.197  -4.142  29.799  1.00  0.00    -0.744 OA
ENDBRANCH  92  93
ENDBRANCH  60  85
ENDBRANCH  34  35
ENDBRANCH  27  29
ENDBRANCH  26  27
ENDBRANCH  25  26
ENDBRANCH  24  25
ENDBRANCH  23  24
ENDBRANCH   1  23
TORSDOF 21
