REMARK SMILES Cn1nc(N2CCC(CC(=O)OCCOCCOC(=O)c3ccc(-c4c5nc(c(-c6c(F)cc(S(=O)(=O)[O-])cc6F)c6ccc([nH]6)c(-c6c(F)cc(S(=O)(=O)[O-])cc6F)c6nc(c(-c7c(F)cc(S(=O)(=O)[O-])cc7F)c7ccc4[nH]7)C=C6)C=C5)cc3)CC2)c(=O)n(C)c1=O
REMARK SMILES IDX 16 1 15 2 14 3 13 4 12 5 10 6 11 7 9 8 8 9 5 10 6 11 88 12
REMARK SMILES IDX 7 13 87 14 4 15 1 16 2 17 3 18 93 19 91 20 94 21 89 22 92 23
REMARK SMILES IDX 90 24 17 25 18 26 19 27 20 28 21 29 22 30 86 31 23 32 85 33
REMARK SMILES IDX 24 34 25 35 26 36 79 37 27 38 84 39 78 40 80 41 28 42 83 43
REMARK SMILES IDX 77 44 76 45 29 47 63 48 42 49 62 50 43 51 46 52 61 53 81 54
REMARK SMILES IDX 44 55 45 56 60 58 82 59 47 60 30 61 31 62 40 63 32 64 33 65
REMARK SMILES IDX 39 66 41 67 34 68 35 69 36 70 37 71 38 72 64 73 65 74 74 75
REMARK SMILES IDX 66 76 67 77 73 78 75 79 68 80 69 81 70 82 71 83 72 84 48 85
REMARK SMILES IDX 49 86 58 87 50 88 51 89 57 90 59 91 52 92 53 93 54 94 55 95
REMARK SMILES IDX 56 96
REMARK H PARENT 80 46 46 57
REMARK Flexibility Score: inf
ROOT
ATOM      1  C   UNL     1       3.883  -9.031   3.914  1.00  0.00     0.202 C 
ENDROOT
BRANCH   1   2
ATOM      2  O   UNL     1       4.383  -8.934   5.245  1.00  0.00    -0.374 OA
BRANCH   2   3
ATOM      3  C   UNL     1       4.108  -7.731   5.963  1.00  0.00     0.202 C 
BRANCH   3   4
ATOM      4  C   UNL     1       4.964  -6.511   5.611  1.00  0.00     0.261 C 
BRANCH   4   5
ATOM      5  O   UNL     1       4.662  -6.027   4.289  1.00  0.00    -0.463 OA
BRANCH   5   6
ATOM      6  C   UNL     1       5.628  -6.176   3.352  1.00  0.00     0.306 C 
ATOM      7  O   UNL     1       6.749  -6.624   3.564  1.00  0.00    -0.252 OA
BRANCH   6   8
ATOM      8  C   UNL     1       5.197  -5.694   1.981  1.00  0.00     0.126 C 
BRANCH   8   9
ATOM      9  C   UNL     1       3.748  -5.959   1.516  1.00  0.00     0.003 C 
ATOM     10  N   UNL     1       1.396  -4.907   0.204  1.00  0.00    -0.351 N 
ATOM     11  C   UNL     1       1.329  -5.163   1.631  1.00  0.00     0.118 C 
ATOM     12  C   UNL     1       2.246  -5.801  -0.562  1.00  0.00     0.118 C 
ATOM     13  C   UNL     1       2.719  -5.077   2.250  1.00  0.00     0.026 C 
ATOM     14  C   UNL     1       3.671  -5.722  -0.011  1.00  0.00     0.026 C 
BRANCH  10  15
ATOM     15  C   UNL     1       0.839  -3.767  -0.354  1.00  0.00     0.215 A 
ATOM     16  C   UNL     1       0.938  -0.212   0.124  1.00  0.00     0.180 C 
ATOM     17  N   UNL     1       0.519  -1.486  -0.441  1.00  0.00    -0.216 N 
ATOM     18  N   UNL     1       1.087  -2.589   0.140  1.00  0.00    -0.145 NA
ATOM     19  C   UNL     1      -0.426  -1.518  -1.463  1.00  0.00     0.346 A 
ATOM     20  N   UNL     1      -0.754  -2.769  -1.949  1.00  0.00    -0.259 N 
ATOM     21  O   UNL     1      -0.927  -0.492  -1.928  1.00  0.00    -0.246 OA
ATOM     22  C   UNL     1      -0.108  -3.918  -1.550  1.00  0.00     0.299 A 
ATOM     23  C   UNL     1      -1.770  -2.900  -2.971  1.00  0.00     0.159 C 
ATOM     24  O   UNL     1      -0.259  -5.021  -2.067  1.00  0.00    -0.265 OA
ENDBRANCH  10  15
ENDBRANCH   8   9
ENDBRANCH   6   8
ENDBRANCH   5   6
ENDBRANCH   4   5
ENDBRANCH   3   4
ENDBRANCH   2   3
ENDBRANCH   1   2
BRANCH   1  25
ATOM     25  C   UNL     1       2.388  -9.339   3.753  1.00  0.00     0.261 C 
BRANCH  25  26
ATOM     26  O   UNL     1       1.547  -8.270   4.223  1.00  0.00    -0.460 OA
BRANCH  26  27
ATOM     27  C   UNL     1       0.876  -8.542   5.370  1.00  0.00     0.338 C 
ATOM     28  O   UNL     1       0.867  -9.601   5.983  1.00  0.00    -0.246 OA
BRANCH  27  29
ATOM     29  C   UNL     1       0.290  -7.306   5.919  1.00  0.00     0.060 A 
ATOM     30  C   UNL     1       0.630  -6.958   7.232  1.00  0.00     0.016 A 
ATOM     31  C   UNL     1      -0.622  -6.534   5.195  1.00  0.00     0.016 A 
ATOM     32  C   UNL     1       0.034  -5.856   7.840  1.00  0.00     0.010 A 
ATOM     33  C   UNL     1      -1.225  -5.430   5.811  1.00  0.00     0.010 A 
ATOM     34  C   UNL     1      -0.923  -5.103   7.145  1.00  0.00    -0.014 A 
BRANCH  34  35
ATOM     35  C   UNL     1      -1.683  -4.051   7.869  1.00  0.00     0.031 A 
ATOM     36  C   UNL     1      -3.080  -4.347   8.343  1.00  0.00     0.074 A 
ATOM     37  C   UNL     1      -1.108  -2.868   8.154  1.00  0.00     0.049 A 
ATOM     38  N   UNL     1      -3.904  -3.584   9.014  1.00  0.00    -0.248 NA
ATOM     39  C   UNL     1      -3.620  -5.678   8.022  1.00  0.00     0.031 C 
ATOM     40  C   UNL     1       0.253  -2.483   7.785  1.00  0.00     0.029 A 
ATOM     41  N   UNL     1      -1.595  -1.776   8.829  1.00  0.00    -0.354 N 
ATOM     42  C   UNL     1      -5.053  -4.342   9.203  1.00  0.00     0.074 A 
ATOM     43  C   UNL     1      -4.839  -5.609   8.538  1.00  0.00     0.031 C 
ATOM     44  C   UNL     1       0.497  -1.245   8.248  1.00  0.00     0.029 A 
ATOM     45  C   UNL     1      -0.699  -0.736   8.918  1.00  0.00     0.049 A 
ATOM     46  H   UNL     1      -2.500  -1.740   9.214  1.00  0.00     0.167 HD
ATOM     47  C   UNL     1      -6.177  -4.019   9.886  1.00  0.00     0.037 A 
ATOM     48  C   UNL     1      -0.830   0.488   9.468  1.00  0.00     0.037 A 
ATOM     49  C   UNL     1      -6.385  -2.756  10.546  1.00  0.00     0.049 A 
ATOM     50  C   UNL     1      -2.123   0.858  10.149  1.00  0.00     0.074 A 
ATOM     51  C   UNL     1      -7.489  -2.336  11.266  1.00  0.00     0.029 A 
ATOM     52  N   UNL     1      -5.474  -1.709  10.564  1.00  0.00    -0.354 N 
ATOM     53  N   UNL     1      -3.195   0.124  10.334  1.00  0.00    -0.248 NA
ATOM     54  C   UNL     1      -2.227   2.219  10.697  1.00  0.00     0.031 C 
ATOM     55  C   UNL     1      -7.270  -1.018  11.673  1.00  0.00     0.029 A 
ATOM     56  C   UNL     1      -6.003  -0.636  11.261  1.00  0.00     0.049 A 
ATOM     57  H   UNL     1      -4.584  -1.727  10.144  1.00  0.00     0.167 HD
ATOM     58  C   UNL     1      -4.086   0.921  11.046  1.00  0.00     0.074 A 
ATOM     59  C   UNL     1      -3.429   2.193  11.261  1.00  0.00     0.031 C 
ATOM     60  C   UNL     1      -5.333   0.621  11.486  1.00  0.00     0.037 A 
BRANCH  47  61
ATOM     61  C   UNL     1      -7.279  -5.040   9.954  1.00  0.00     0.058 A 
ATOM     62  C   UNL     1      -7.157  -6.202  10.732  1.00  0.00     0.135 A 
ATOM     63  C   UNL     1      -8.497  -4.823   9.289  1.00  0.00     0.135 A 
ATOM     64  F   UNL     1      -6.010  -6.468  11.376  1.00  0.00    -0.206 F 
ATOM     65  C   UNL     1      -8.196  -7.121  10.834  1.00  0.00     0.059 A 
ATOM     66  C   UNL     1      -9.560  -5.715   9.399  1.00  0.00     0.059 A 
ATOM     67  F   UNL     1      -8.667  -3.728   8.530  1.00  0.00    -0.206 F 
ATOM     68  C   UNL     1      -9.396  -6.866  10.168  1.00  0.00     0.060 A 
BRANCH  68  69
ATOM     69  S   UNL     1     -10.738  -8.063  10.327  1.00  0.00     0.124 S 
ATOM     70  O   UNL     1     -10.200  -9.204   9.593  1.00  0.00    -0.237 OA
ATOM     71  O   UNL     1     -10.835  -8.228  11.774  1.00  0.00    -0.237 OA
ATOM     72  O   UNL     1     -11.871  -7.392   9.697  1.00  0.00    -0.744 OA
ENDBRANCH  68  69
ENDBRANCH  47  61
BRANCH  48  73
ATOM     73  C   UNL     1       0.304   1.450   9.409  1.00  0.00     0.058 A 
ATOM     74  C   UNL     1       1.010   1.808  10.567  1.00  0.00     0.135 A 
ATOM     75  C   UNL     1       0.721   2.010   8.191  1.00  0.00     0.135 A 
ATOM     76  F   UNL     1       0.643   1.309  11.757  1.00  0.00    -0.206 F 
ATOM     77  C   UNL     1       2.087   2.688  10.521  1.00  0.00     0.059 A 
ATOM     78  C   UNL     1       1.811   2.872   8.116  1.00  0.00     0.059 A 
ATOM     79  F   UNL     1       0.085   1.694   7.052  1.00  0.00    -0.206 F 
ATOM     80  C   UNL     1       2.486   3.208   9.288  1.00  0.00     0.060 A 
BRANCH  80  81
ATOM     81  S   UNL     1       3.925   4.297   9.236  1.00  0.00     0.124 S 
ATOM     82  O   UNL     1       3.423   5.484   9.918  1.00  0.00    -0.237 OA
ATOM     83  O   UNL     1       4.922   3.516   9.961  1.00  0.00    -0.237 OA
ATOM     84  O   UNL     1       4.178   4.451   7.806  1.00  0.00    -0.744 OA
ENDBRANCH  80  81
ENDBRANCH  48  73
BRANCH  60  85
ATOM     85  C   UNL     1      -6.079   1.660  12.278  1.00  0.00     0.058 A 
ATOM     86  C   UNL     1      -6.651   2.784  11.665  1.00  0.00     0.135 A 
ATOM     87  C   UNL     1      -6.333   1.459  13.646  1.00  0.00     0.135 A 
ATOM     88  F   UNL     1      -6.434   3.028  10.363  1.00  0.00    -0.206 F 
ATOM     89  C   UNL     1      -7.455   3.669  12.378  1.00  0.00     0.059 A 
ATOM     90  C   UNL     1      -7.154   2.316  14.372  1.00  0.00     0.059 A 
ATOM     91  F   UNL     1      -5.815   0.394  14.279  1.00  0.00    -0.206 F 
ATOM     92  C   UNL     1      -7.712   3.419  13.727  1.00  0.00     0.060 A 
BRANCH  92  93
ATOM     93  S   UNL     1      -8.827   4.529  14.613  1.00  0.00     0.124 S 
ATOM     94  O   UNL     1      -8.033   5.751  14.684  1.00  0.00    -0.237 OA
ATOM     95  O   UNL     1      -9.985   4.577  13.726  1.00  0.00    -0.237 OA
ATOM     96  O   UNL     1      -9.046   3.850  15.886  1.00  0.00    -0.744 OA
ENDBRANCH  92  93
ENDBRANCH  60  85
ENDBRANCH  34  35
ENDBRANCH  27  29
ENDBRANCH  26  27
ENDBRANCH  25  26
ENDBRANCH   1  25
TORSDOF 19
