REMARK SMILES O=C(OCCOCCOC(=O)[C@@H]1[C@@H](C(=O)NCCCn2ccnc2)[C@@H]2C=C[C@H]1C2)c1ccc(-c2c3nc(c(-c4c(F)cc(S(=O)(=O)[O-])cc4F)c4ccc([nH]4)c(-c4c(F)cc(S(=O)(=O)[O-])cc4F)c4nc(c(-c5c(F)cc(S(=O)(=O)[O-])cc5F)c5ccc2[nH]5)C=C4)C=C3)cc1
REMARK SMILES IDX 7 1 6 2 5 3 4 4 3 5 2 6 1 7 30 8 31 9 95 10 32 11 94 12
REMARK SMILES IDX 33 13 34 14 35 15 88 16 36 17 93 18 87 19 89 20 37 21 92 22
REMARK SMILES IDX 86 23 85 24 38 26 72 27 51 28 71 29 52 30 55 31 70 32 90 33
REMARK SMILES IDX 53 34 54 35 69 37 91 38 56 39 39 40 40 41 49 42 41 43 42 44
REMARK SMILES IDX 48 45 50 46 43 47 44 48 45 49 46 50 47 51 73 52 74 53 83 54
REMARK SMILES IDX 75 55 76 56 82 57 84 58 77 59 78 60 79 61 80 62 81 63 57 64
REMARK SMILES IDX 58 65 67 66 59 67 60 68 66 69 68 70 61 71 62 72 63 73 64 74
REMARK SMILES IDX 65 75 8 76 9 77 10 78 11 79 12 80 13 81 28 82 25 83 27 84
REMARK SMILES IDX 29 85 26 86 14 87 15 88 16 89 17 91 18 92 19 93 20 94 21 95
REMARK SMILES IDX 24 96 22 97 23 98
REMARK H PARENT 89 25 55 36 16 90
REMARK Flexibility Score: inf
ROOT
ATOM      1  C   UNL     1       2.870  -1.623   1.018  1.00  0.00     0.202 C 
ENDROOT
BRANCH   1   2
ATOM      2  O   UNL     1       4.077  -1.328   0.301  1.00  0.00    -0.374 OA
BRANCH   2   3
ATOM      3  C   UNL     1       4.739  -0.102   0.573  1.00  0.00     0.202 C 
BRANCH   3   4
ATOM      4  C   UNL     1       4.405   1.169  -0.214  1.00  0.00     0.261 C 
BRANCH   4   5
ATOM      5  O   UNL     1       3.031   1.553  -0.088  1.00  0.00    -0.460 OA
BRANCH   5   6
ATOM      6  C   UNL     1       1.966   0.905  -0.606  1.00  0.00     0.338 C 
ATOM      7  O   UNL     1       0.875   1.003  -0.046  1.00  0.00    -0.246 OA
BRANCH   6   8
ATOM      8  C   UNL     1       2.043   0.191  -1.908  1.00  0.00     0.060 A 
ATOM      9  C   UNL     1       3.214  -0.172  -2.573  1.00  0.00     0.016 A 
ATOM     10  C   UNL     1       0.812  -0.018  -2.547  1.00  0.00     0.016 A 
ATOM     11  C   UNL     1       3.195  -0.375  -3.932  1.00  0.00     0.010 A 
ATOM     12  C   UNL     1       0.774  -0.335  -3.888  1.00  0.00     0.010 A 
ATOM     13  C   UNL     1       1.971  -0.377  -4.591  1.00  0.00    -0.014 A 
BRANCH  13  14
ATOM     14  C   UNL     1       2.002  -0.514  -6.032  1.00  0.00     0.031 A 
ATOM     15  C   UNL     1       2.686  -1.751  -6.497  1.00  0.00     0.074 A 
ATOM     16  C   UNL     1       1.397   0.388  -6.826  1.00  0.00     0.049 A 
ATOM     17  N   UNL     1       3.750  -1.857  -7.224  1.00  0.00    -0.248 NA
ATOM     18  C   UNL     1       2.233  -3.027  -5.913  1.00  0.00     0.031 C 
ATOM     19  C   UNL     1       0.523   1.503  -6.445  1.00  0.00     0.029 A 
ATOM     20  N   UNL     1       1.360   0.430  -8.180  1.00  0.00    -0.354 N 
ATOM     21  C   UNL     1       3.966  -3.225  -7.374  1.00  0.00     0.074 A 
ATOM     22  C   UNL     1       3.123  -3.883  -6.412  1.00  0.00     0.031 C 
ATOM     23  C   UNL     1      -0.150   1.936  -7.535  1.00  0.00     0.029 A 
ATOM     24  C   UNL     1       0.355   1.236  -8.700  1.00  0.00     0.049 A 
ATOM     25  H   UNL     1       1.991  -0.069  -8.747  1.00  0.00     0.167 HD
ATOM     26  C   UNL     1       4.653  -3.731  -8.434  1.00  0.00     0.037 A 
ATOM     27  C   UNL     1      -0.074   1.226  -9.988  1.00  0.00     0.037 A 
ATOM     28  C   UNL     1       5.499  -2.735  -9.037  1.00  0.00     0.049 A 
ATOM     29  C   UNL     1       1.019   0.615 -10.797  1.00  0.00     0.074 A 
ATOM     30  C   UNL     1       6.578  -1.998  -8.587  1.00  0.00     0.029 A 
ATOM     31  N   UNL     1       5.034  -2.074 -10.148  1.00  0.00    -0.354 N 
ATOM     32  N   UNL     1       2.195   1.167 -10.950  1.00  0.00    -0.248 NA
ATOM     33  C   UNL     1       0.980  -0.826 -11.003  1.00  0.00     0.031 C 
ATOM     34  C   UNL     1       6.389  -0.696  -9.135  1.00  0.00     0.029 A 
ATOM     35  C   UNL     1       5.255  -0.732  -9.948  1.00  0.00     0.049 A 
ATOM     36  H   UNL     1       4.618  -2.485 -10.941  1.00  0.00     0.167 HD
ATOM     37  C   UNL     1       3.102   0.118 -10.866  1.00  0.00     0.074 A 
ATOM     38  C   UNL     1       2.288  -1.093 -10.954  1.00  0.00     0.031 C 
ATOM     39  C   UNL     1       4.388   0.316 -10.446  1.00  0.00     0.037 A 
BRANCH  26  40
ATOM     40  C   UNL     1       4.291  -5.033  -9.100  1.00  0.00     0.058 A 
ATOM     41  C   UNL     1       5.157  -5.611 -10.047  1.00  0.00     0.135 A 
ATOM     42  C   UNL     1       2.999  -5.605  -9.028  1.00  0.00     0.135 A 
ATOM     43  F   UNL     1       6.398  -5.130 -10.220  1.00  0.00    -0.206 F 
ATOM     44  C   UNL     1       4.756  -6.655 -10.884  1.00  0.00     0.059 A 
ATOM     45  C   UNL     1       2.596  -6.678  -9.812  1.00  0.00     0.059 A 
ATOM     46  F   UNL     1       2.031  -5.089  -8.259  1.00  0.00    -0.206 F 
ATOM     47  C   UNL     1       3.469  -7.175 -10.763  1.00  0.00     0.060 A 
BRANCH  47  48
ATOM     48  S   UNL     1       2.917  -8.464 -11.893  1.00  0.00     0.124 S 
ATOM     49  O   UNL     1       2.849  -7.736 -13.155  1.00  0.00    -0.237 OA
ATOM     50  O   UNL     1       3.990  -9.446 -11.778  1.00  0.00    -0.237 OA
ATOM     51  O   UNL     1       1.635  -8.878 -11.332  1.00  0.00    -0.744 OA
ENDBRANCH  47  48
ENDBRANCH  26  40
BRANCH  27  52
ATOM     52  C   UNL     1      -1.490   1.286 -10.445  1.00  0.00     0.058 A 
ATOM     53  C   UNL     1      -1.813   1.503 -11.796  1.00  0.00     0.135 A 
ATOM     54  C   UNL     1      -2.550   0.863  -9.615  1.00  0.00     0.135 A 
ATOM     55  F   UNL     1      -0.861   1.879 -12.663  1.00  0.00    -0.206 F 
ATOM     56  C   UNL     1      -3.100   1.278 -12.301  1.00  0.00     0.059 A 
ATOM     57  C   UNL     1      -3.841   0.642 -10.093  1.00  0.00     0.059 A 
ATOM     58  F   UNL     1      -2.344   0.562  -8.324  1.00  0.00    -0.206 F 
ATOM     59  C   UNL     1      -4.104   0.828 -11.443  1.00  0.00     0.060 A 
BRANCH  59  60
ATOM     60  S   UNL     1      -5.720   0.373 -12.117  1.00  0.00     0.124 S 
ATOM     61  O   UNL     1      -6.261   1.671 -12.506  1.00  0.00    -0.237 OA
ATOM     62  O   UNL     1      -5.356  -0.520 -13.212  1.00  0.00    -0.237 OA
ATOM     63  O   UNL     1      -6.391  -0.269 -10.989  1.00  0.00    -0.744 OA
ENDBRANCH  59  60
ENDBRANCH  27  52
BRANCH  39  64
ATOM     64  C   UNL     1       4.875   1.738 -10.278  1.00  0.00     0.058 A 
ATOM     65  C   UNL     1       4.356   2.650  -9.338  1.00  0.00     0.135 A 
ATOM     66  C   UNL     1       6.019   2.139 -10.982  1.00  0.00     0.135 A 
ATOM     67  F   UNL     1       3.335   2.310  -8.541  1.00  0.00    -0.206 F 
ATOM     68  C   UNL     1       4.920   3.913  -9.141  1.00  0.00     0.059 A 
ATOM     69  C   UNL     1       6.618   3.381 -10.780  1.00  0.00     0.059 A 
ATOM     70  F   UNL     1       6.606   1.293 -11.845  1.00  0.00    -0.206 F 
ATOM     71  C   UNL     1       6.055   4.270  -9.868  1.00  0.00     0.060 A 
BRANCH  71  72
ATOM     72  S   UNL     1       6.830   5.873  -9.562  1.00  0.00     0.124 S 
ATOM     73  O   UNL     1       5.863   6.798 -10.143  1.00  0.00    -0.237 OA
ATOM     74  O   UNL     1       6.939   5.902  -8.106  1.00  0.00    -0.237 OA
ATOM     75  O   UNL     1       8.104   5.777 -10.270  1.00  0.00    -0.744 OA
ENDBRANCH  71  72
ENDBRANCH  39  64
ENDBRANCH  13  14
ENDBRANCH   6   8
ENDBRANCH   5   6
ENDBRANCH   4   5
ENDBRANCH   3   4
ENDBRANCH   2   3
ENDBRANCH   1   2
BRANCH   1  76
ATOM     76  C   UNL     1       2.851  -1.679   2.557  1.00  0.00     0.261 C 
BRANCH  76  77
ATOM     77  O   UNL     1       3.385  -0.505   3.204  1.00  0.00    -0.463 OA
BRANCH  77  78
ATOM     78  C   UNL     1       4.603  -0.687   3.793  1.00  0.00     0.310 C 
ATOM     79  O   UNL     1       5.141  -1.777   3.892  1.00  0.00    -0.252 OA
BRANCH  78  80
ATOM     80  C   UNL     1       5.181   0.613   4.362  1.00  0.00     0.119 C 
ATOM     81  C   UNL     1       5.738   1.750   3.383  1.00  0.00     0.100 C 
ATOM     82  C   UNL     1       6.446   0.281   5.204  1.00  0.00     0.027 C 
ATOM     83  C   UNL     1       7.192   1.914   3.877  1.00  0.00     0.025 C 
ATOM     84  C   UNL     1       7.506  -0.320   4.303  1.00  0.00    -0.027 C 
ATOM     85  C   UNL     1       7.056   1.667   5.378  1.00  0.00     0.017 C 
ATOM     86  C   UNL     1       7.934   0.651   3.487  1.00  0.00    -0.027 C 
BRANCH  81  87
ATOM     87  C   UNL     1       4.811   2.966   3.416  1.00  0.00     0.224 C 
ATOM     88  O   UNL     1       3.625   2.824   3.734  1.00  0.00    -0.275 OA
ATOM     89  N   UNL     1       5.127   4.214   2.991  1.00  0.00    -0.356 N 
ATOM     90  H   UNL     1       4.331   4.760   2.799  1.00  0.00     0.163 HD
BRANCH  89  91
ATOM     91  C   UNL     1       6.369   4.933   2.754  1.00  0.00     0.117 C 
BRANCH  91  92
ATOM     92  C   UNL     1       6.260   6.065   1.721  1.00  0.00     0.043 C 
BRANCH  92  93
ATOM     93  C   UNL     1       5.082   7.038   1.846  1.00  0.00     0.125 C 
BRANCH  93  94
ATOM     94  N   UNL     1       5.128   7.929   2.986  1.00  0.00    -0.337 N 
ATOM     95  C   UNL     1       4.803   7.624   4.278  1.00  0.00     0.107 A 
ATOM     96  C   UNL     1       5.372   9.275   2.935  1.00  0.00     0.199 A 
ATOM     97  C   UNL     1       4.914   8.810   4.965  1.00  0.00     0.130 A 
ATOM     98  N   UNL     1       5.275   9.828   4.123  1.00  0.00    -0.245 NA
ENDBRANCH  93  94
ENDBRANCH  92  93
ENDBRANCH  91  92
ENDBRANCH  89  91
ENDBRANCH  81  87
ENDBRANCH  78  80
ENDBRANCH  77  78
ENDBRANCH  76  77
ENDBRANCH   1  76
TORSDOF 22
