REMARK SMILES C[C@H](O)[C@H](C)[NH2+]C1(C(=O)OCCOCCOC(=O)c2ccc(-c3c4nc(c(-c5c(F)cc(S(=O)(=O)[O-])cc5F)c5ccc([nH]5)c(-c5c(F)cc(S(=O)(=O)[O-])cc5F)c5nc(c(-c6c(F)cc(S(=O)(=O)[O-])cc6F)c6ccc3[nH]6)C=C5)C=C4)cc2)CC1
REMARK SMILES IDX 12 1 11 2 10 3 8 4 9 5 7 6 85 7 86 8 6 9 4 12 5 13 2 14 1 15
REMARK SMILES IDX 3 16 13 18 14 19 15 20 16 21 17 22 18 23 19 24 20 25 84 26
REMARK SMILES IDX 21 27 83 28 22 29 23 30 24 31 77 32 25 33 82 34 76 35 78 36
REMARK SMILES IDX 26 37 81 38 75 39 74 40 27 42 61 43 40 44 60 45 41 46 44 47
REMARK SMILES IDX 59 48 79 49 42 50 43 51 58 53 80 54 45 55 28 56 29 57 38 58
REMARK SMILES IDX 30 59 31 60 37 61 39 62 32 63 33 64 34 65 35 66 36 67 62 68
REMARK SMILES IDX 63 69 72 70 64 71 65 72 71 73 73 74 66 75 67 76 68 77 69 78
REMARK SMILES IDX 70 79 46 80 47 81 56 82 48 83 49 84 55 85 57 86 50 87 51 88
REMARK SMILES IDX 52 89 53 90 54 91
REMARK H PARENT 6 10 6 11 3 17 78 41 44 52
REMARK Flexibility Score: inf
ROOT
ATOM      1  C   UNL     1      -3.162  -2.163   1.069  1.00  0.00     0.202 C 
ENDROOT
BRANCH   1   2
ATOM      2  C   UNL     1      -4.195  -1.140   0.565  1.00  0.00     0.261 C 
BRANCH   2   3
ATOM      3  O   UNL     1      -4.094  -0.917  -0.841  1.00  0.00    -0.459 OA
BRANCH   3   4
ATOM      4  C   UNL     1      -3.702   0.329  -1.214  1.00  0.00     0.368 C 
ATOM      5  O   UNL     1      -3.713   1.329  -0.509  1.00  0.00    -0.245 OA
BRANCH   4   6
ATOM      6  C   UNL     1      -3.146   0.350  -2.623  1.00  0.00     0.195 C 
ATOM      7  C   UNL     1      -3.927   1.091  -3.690  1.00  0.00     0.088 C 
ATOM      8  C   UNL     1      -3.922  -0.405  -3.697  1.00  0.00     0.088 C 
BRANCH   6   9
ATOM      9  N   UNL     1      -1.657   0.272  -2.773  1.00  0.00    -0.328 N 
ATOM     10  H   UNL     1      -1.433  -0.691  -3.026  1.00  0.00     0.347 HD
ATOM     11  H   UNL     1      -1.444   0.988  -3.468  1.00  0.00     0.347 HD
BRANCH   9  12
ATOM     12  C   UNL     1      -0.802   0.626  -1.629  1.00  0.00     0.208 C 
ATOM     13  C   UNL     1       0.602   0.084  -1.950  1.00  0.00     0.078 C 
BRANCH  12  14
ATOM     14  C   UNL     1      -0.748   2.136  -1.244  1.00  0.00     0.169 C 
ATOM     15  C   UNL     1      -0.509   3.088  -2.409  1.00  0.00     0.045 C 
BRANCH  14  16
ATOM     16  O   UNL     1       0.290   2.369  -0.283  1.00  0.00    -0.387 OA
ATOM     17  H   UNL     1       1.151   2.168  -0.682  1.00  0.00     0.211 HD
ENDBRANCH  14  16
ENDBRANCH  12  14
ENDBRANCH   9  12
ENDBRANCH   6   9
ENDBRANCH   4   6
ENDBRANCH   3   4
ENDBRANCH   2   3
ENDBRANCH   1   2
BRANCH   1  18
ATOM     18  O   UNL     1      -1.969  -2.350   0.314  1.00  0.00    -0.374 OA
BRANCH  18  19
ATOM     19  C   UNL     1      -2.067  -2.917  -0.997  1.00  0.00     0.202 C 
BRANCH  19  20
ATOM     20  C   UNL     1      -2.796  -4.253  -1.169  1.00  0.00     0.261 C 
BRANCH  20  21
ATOM     21  O   UNL     1      -4.205  -4.146  -0.893  1.00  0.00    -0.460 OA
BRANCH  21  22
ATOM     22  C   UNL     1      -4.670  -5.036   0.017  1.00  0.00     0.338 C 
ATOM     23  O   UNL     1      -4.044  -5.927   0.566  1.00  0.00    -0.246 OA
BRANCH  22  24
ATOM     24  C   UNL     1      -6.036  -4.665   0.424  1.00  0.00     0.060 A 
ATOM     25  C   UNL     1      -6.264  -4.419   1.784  1.00  0.00     0.016 A 
ATOM     26  C   UNL     1      -7.090  -4.653  -0.491  1.00  0.00     0.016 A 
ATOM     27  C   UNL     1      -7.561  -4.201   2.242  1.00  0.00     0.010 A 
ATOM     28  C   UNL     1      -8.393  -4.450  -0.026  1.00  0.00     0.010 A 
ATOM     29  C   UNL     1      -8.635  -4.258   1.346  1.00  0.00    -0.014 A 
BRANCH  29  30
ATOM     30  C   UNL     1     -10.019  -4.280   1.873  1.00  0.00     0.031 A 
ATOM     31  C   UNL     1     -10.684  -5.609   2.104  1.00  0.00     0.074 A 
ATOM     32  C   UNL     1     -10.658  -3.134   2.168  1.00  0.00     0.049 A 
ATOM     33  N   UNL     1     -11.887  -5.867   2.542  1.00  0.00    -0.248 NA
ATOM     34  C   UNL     1      -9.883  -6.807   1.800  1.00  0.00     0.031 C 
ATOM     35  C   UNL     1     -10.096  -1.793   2.021  1.00  0.00     0.029 A 
ATOM     36  N   UNL     1     -11.923  -2.919   2.652  1.00  0.00    -0.354 N 
ATOM     37  C   UNL     1     -11.993  -7.253   2.561  1.00  0.00     0.074 A 
ATOM     38  C   UNL     1     -10.739  -7.782   2.072  1.00  0.00     0.031 C 
ATOM     39  C   UNL     1     -11.018  -0.891   2.398  1.00  0.00     0.029 A 
ATOM     40  C   UNL     1     -12.241  -1.590   2.788  1.00  0.00     0.049 A 
ATOM     41  H   UNL     1     -12.544  -3.649   2.879  1.00  0.00     0.167 HD
ATOM     42  C   UNL     1     -13.042  -8.014   2.954  1.00  0.00     0.037 A 
ATOM     43  C   UNL     1     -13.395  -1.007   3.171  1.00  0.00     0.037 A 
ATOM     44  C   UNL     1     -14.286  -7.479   3.441  1.00  0.00     0.049 A 
ATOM     45  C   UNL     1     -14.564  -1.874   3.557  1.00  0.00     0.074 A 
ATOM     46  C   UNL     1     -15.401  -8.166   3.887  1.00  0.00     0.029 A 
ATOM     47  N   UNL     1     -14.580  -6.127   3.540  1.00  0.00    -0.354 N 
ATOM     48  N   UNL     1     -14.644  -3.183   3.590  1.00  0.00    -0.248 NA
ATOM     49  C   UNL     1     -15.799  -1.186   3.960  1.00  0.00     0.031 C 
ATOM     50  C   UNL     1     -16.387  -7.229   4.215  1.00  0.00     0.029 A 
ATOM     51  C   UNL     1     -15.869  -5.958   4.017  1.00  0.00     0.049 A 
ATOM     52  H   UNL     1     -13.964  -5.396   3.306  1.00  0.00     0.167 HD
ATOM     53  C   UNL     1     -15.927  -3.476   4.039  1.00  0.00     0.074 A 
ATOM     54  C   UNL     1     -16.587  -2.207   4.272  1.00  0.00     0.031 C 
ATOM     55  C   UNL     1     -16.506  -4.685   4.245  1.00  0.00     0.037 A 
BRANCH  42  56
ATOM     56  C   UNL     1     -12.899  -9.505   2.847  1.00  0.00     0.058 A 
ATOM     57  C   UNL     1     -12.104 -10.238   3.742  1.00  0.00     0.135 A 
ATOM     58  C   UNL     1     -13.597 -10.215   1.856  1.00  0.00     0.135 A 
ATOM     59  F   UNL     1     -11.400  -9.605   4.694  1.00  0.00    -0.206 F 
ATOM     60  C   UNL     1     -11.994 -11.622   3.650  1.00  0.00     0.059 A 
ATOM     61  C   UNL     1     -13.518 -11.601   1.759  1.00  0.00     0.059 A 
ATOM     62  F   UNL     1     -14.364  -9.560   0.971  1.00  0.00    -0.206 F 
ATOM     63  C   UNL     1     -12.705 -12.294   2.654  1.00  0.00     0.060 A 
BRANCH  63  64
ATOM     64  S   UNL     1     -12.565 -14.092   2.555  1.00  0.00     0.124 S 
ATOM     65  O   UNL     1     -11.229 -14.248   1.989  1.00  0.00    -0.237 OA
ATOM     66  O   UNL     1     -12.713 -14.495   3.950  1.00  0.00    -0.237 OA
ATOM     67  O   UNL     1     -13.667 -14.471   1.676  1.00  0.00    -0.744 OA
ENDBRANCH  63  64
ENDBRANCH  42  56
BRANCH  43  68
ATOM     68  C   UNL     1     -13.497   0.475   3.205  1.00  0.00     0.058 A 
ATOM     69  C   UNL     1     -13.551   1.170   4.421  1.00  0.00     0.135 A 
ATOM     70  C   UNL     1     -13.522   1.227   2.020  1.00  0.00     0.135 A 
ATOM     71  F   UNL     1     -13.541   0.494   5.580  1.00  0.00    -0.206 F 
ATOM     72  C   UNL     1     -13.629   2.558   4.464  1.00  0.00     0.059 A 
ATOM     73  C   UNL     1     -13.579   2.617   2.037  1.00  0.00     0.059 A 
ATOM     74  F   UNL     1     -13.464   0.609   0.830  1.00  0.00    -0.206 F 
ATOM     75  C   UNL     1     -13.637   3.274   3.265  1.00  0.00     0.060 A 
BRANCH  75  76
ATOM     76  S   UNL     1     -13.670   5.079   3.332  1.00  0.00     0.124 S 
ATOM     77  O   UNL     1     -15.055   5.333   3.711  1.00  0.00    -0.237 OA
ATOM     78  O   UNL     1     -12.665   5.366   4.351  1.00  0.00    -0.237 OA
ATOM     79  O   UNL     1     -13.304   5.470   1.974  1.00  0.00    -0.744 OA
ENDBRANCH  75  76
ENDBRANCH  43  68
BRANCH  55  80
ATOM     80  C   UNL     1     -17.913  -4.699   4.771  1.00  0.00     0.058 A 
ATOM     81  C   UNL     1     -19.009  -4.391   3.951  1.00  0.00     0.135 A 
ATOM     82  C   UNL     1     -18.172  -5.090   6.096  1.00  0.00     0.135 A 
ATOM     83  F   UNL     1     -18.814  -4.008   2.680  1.00  0.00    -0.206 F 
ATOM     84  C   UNL     1     -20.313  -4.451   4.431  1.00  0.00     0.059 A 
ATOM     85  C   UNL     1     -19.469  -5.180   6.589  1.00  0.00     0.059 A 
ATOM     86  F   UNL     1     -17.158  -5.407   6.917  1.00  0.00    -0.206 F 
ATOM     87  C   UNL     1     -20.533  -4.848   5.752  1.00  0.00     0.060 A 
BRANCH  87  88
ATOM     88  S   UNL     1     -22.232  -4.959   6.354  1.00  0.00     0.124 S 
ATOM     89  O   UNL     1     -22.563  -3.553   6.557  1.00  0.00    -0.237 OA
ATOM     90  O   UNL     1     -22.916  -5.617   5.245  1.00  0.00    -0.237 OA
ATOM     91  O   UNL     1     -22.110  -5.758   7.569  1.00  0.00    -0.744 OA
ENDBRANCH  87  88
ENDBRANCH  55  80
ENDBRANCH  29  30
ENDBRANCH  22  24
ENDBRANCH  21  22
ENDBRANCH  20  21
ENDBRANCH  19  20
ENDBRANCH  18  19
ENDBRANCH   1  18
TORSDOF 21
