REMARK SMILES O=Cc1[nH]nc2cc(C(=O)OCCOCCOC(=O)c3ccc(-c4c5nc(c(-c6c(F)cc(S(=O)(=O)[O-])cc6F)c6ccc([nH]6)c(-c6c(F)cc(S(=O)(=O)[O-])cc6F)c6nc(c(-c7c(F)cc(S(=O)(=O)[O-])cc7F)c7ccc4[nH]7)C=C6)C=C5)cc3)ccc12
REMARK SMILES IDX 15 1 14 2 13 3 12 4 11 5 9 6 10 7 8 8 3 9 4 10 88 11 5 12
REMARK SMILES IDX 6 14 87 15 7 16 86 17 2 18 1 19 16 20 17 21 18 22 19 23
REMARK SMILES IDX 20 24 21 25 85 26 22 27 84 28 23 29 24 30 25 31 78 32 26 33
REMARK SMILES IDX 83 34 77 35 79 36 27 37 82 38 76 39 75 40 28 42 62 43 41 44
REMARK SMILES IDX 61 45 42 46 45 47 60 48 80 49 43 50 44 51 59 53 81 54 46 55
REMARK SMILES IDX 29 56 30 57 39 58 31 59 32 60 38 61 40 62 33 63 34 64 35 65
REMARK SMILES IDX 36 66 37 67 63 68 64 69 73 70 65 71 66 72 72 73 74 74 67 75
REMARK SMILES IDX 68 76 69 77 70 78 71 79 47 80 48 81 57 82 49 83 50 84 56 85
REMARK SMILES IDX 58 86 51 87 52 88 53 89 54 90 55 91
REMARK H PARENT 4 13 79 41 45 52
REMARK Flexibility Score: inf
ROOT
ATOM      1  C   UNL     1       4.776   5.634   5.285  1.00  0.00     0.202 C 
ENDROOT
BRANCH   1   2
ATOM      2  O   UNL     1       4.430   6.991   5.570  1.00  0.00    -0.374 OA
BRANCH   2   3
ATOM      3  C   UNL     1       3.103   7.232   6.039  1.00  0.00     0.202 C 
BRANCH   3   4
ATOM      4  C   UNL     1       2.018   7.324   4.962  1.00  0.00     0.261 C 
BRANCH   4   5
ATOM      5  O   UNL     1       1.893   6.087   4.240  1.00  0.00    -0.460 OA
BRANCH   5   6
ATOM      6  C   UNL     1       2.289   6.137   2.948  1.00  0.00     0.338 C 
ATOM      7  O   UNL     1       2.611   7.134   2.316  1.00  0.00    -0.246 OA
BRANCH   6   8
ATOM      8  C   UNL     1       2.447   4.769   2.399  1.00  0.00     0.062 A 
ATOM      9  C   UNL     1       2.968   1.191   0.531  1.00  0.00     0.105 A 
ATOM     10  N   UNL     1       4.087   1.572  -0.161  1.00  0.00    -0.274 N 
ATOM     11  C   UNL     1       2.663   2.291   1.298  1.00  0.00     0.030 A 
ATOM     12  N   UNL     1       4.498   2.829   0.068  1.00  0.00    -0.175 NA
ATOM     13  H   UNL     1       4.556   0.968  -0.782  1.00  0.00     0.190 HD
ATOM     14  C   UNL     1       3.615   3.319   0.951  1.00  0.00     0.094 A 
ATOM     15  C   UNL     1       1.607   2.413   2.202  1.00  0.00     0.013 A 
ATOM     16  C   UNL     1       3.529   4.602   1.502  1.00  0.00     0.046 A 
ATOM     17  C   UNL     1       1.540   3.715   2.752  1.00  0.00     0.016 A 
BRANCH   9  18
ATOM     18  C   UNL     1       2.339  -0.091   0.372  1.00  0.00     0.280 C 
ATOM     19  O   UNL     1       1.314  -0.460   0.934  1.00  0.00    -0.296 OA
ENDBRANCH   9  18
ENDBRANCH   6   8
ENDBRANCH   5   6
ENDBRANCH   4   5
ENDBRANCH   3   4
ENDBRANCH   2   3
ENDBRANCH   1   2
BRANCH   1  20
ATOM     20  C   UNL     1       5.131   4.757   6.493  1.00  0.00     0.261 C 
BRANCH  20  21
ATOM     21  O   UNL     1       3.989   4.508   7.331  1.00  0.00    -0.460 OA
BRANCH  21  22
ATOM     22  C   UNL     1       4.019   5.130   8.534  1.00  0.00     0.338 C 
ATOM     23  O   UNL     1       4.937   5.793   8.997  1.00  0.00    -0.246 OA
BRANCH  22  24
ATOM     24  C   UNL     1       2.691   5.058   9.173  1.00  0.00     0.060 A 
ATOM     25  C   UNL     1       2.140   6.254   9.651  1.00  0.00     0.016 A 
ATOM     26  C   UNL     1       2.023   3.846   9.357  1.00  0.00     0.016 A 
ATOM     27  C   UNL     1       0.942   6.236  10.363  1.00  0.00     0.010 A 
ATOM     28  C   UNL     1       0.823   3.829  10.079  1.00  0.00     0.010 A 
ATOM     29  C   UNL     1       0.296   5.018  10.614  1.00  0.00    -0.014 A 
BRANCH  29  30
ATOM     30  C   UNL     1      -0.849   4.978  11.556  1.00  0.00     0.031 A 
ATOM     31  C   UNL     1      -0.611   4.543  12.977  1.00  0.00     0.074 A 
ATOM     32  C   UNL     1      -2.079   5.352  11.160  1.00  0.00     0.049 A 
ATOM     33  N   UNL     1      -1.464   4.414  13.959  1.00  0.00    -0.248 NA
ATOM     34  C   UNL     1       0.777   4.209  13.336  1.00  0.00     0.031 C 
ATOM     35  C   UNL     1      -2.426   5.827   9.822  1.00  0.00     0.029 A 
ATOM     36  N   UNL     1      -3.265   5.387  11.849  1.00  0.00    -0.354 N 
ATOM     37  C   UNL     1      -0.721   3.980  15.051  1.00  0.00     0.074 A 
ATOM     38  C   UNL     1       0.647   3.837  14.601  1.00  0.00     0.031 C 
ATOM     39  C   UNL     1      -3.742   6.100   9.785  1.00  0.00     0.029 A 
ATOM     40  C   UNL     1      -4.333   5.792  11.086  1.00  0.00     0.049 A 
ATOM     41  H   UNL     1      -3.343   5.144  12.800  1.00  0.00     0.167 HD
ATOM     42  C   UNL     1      -1.139   3.733  16.316  1.00  0.00     0.037 A 
ATOM     43  C   UNL     1      -5.641   5.887  11.398  1.00  0.00     0.037 A 
ATOM     44  C   UNL     1      -2.502   3.874  16.758  1.00  0.00     0.049 A 
ATOM     45  C   UNL     1      -6.095   5.544  12.793  1.00  0.00     0.074 A 
ATOM     46  C   UNL     1      -3.024   3.662  18.021  1.00  0.00     0.029 A 
ATOM     47  N   UNL     1      -3.562   4.255  15.947  1.00  0.00    -0.354 N 
ATOM     48  N   UNL     1      -5.379   5.154  13.821  1.00  0.00    -0.248 NA
ATOM     49  C   UNL     1      -7.534   5.655  13.070  1.00  0.00     0.031 C 
ATOM     50  C   UNL     1      -4.407   3.871  17.964  1.00  0.00     0.029 A 
ATOM     51  C   UNL     1      -4.739   4.261  16.677  1.00  0.00     0.049 A 
ATOM     52  H   UNL     1      -3.487   4.487  14.993  1.00  0.00     0.167 HD
ATOM     53  C   UNL     1      -6.276   4.999  14.873  1.00  0.00     0.074 A 
ATOM     54  C   UNL     1      -7.585   5.345  14.359  1.00  0.00     0.031 C 
ATOM     55  C   UNL     1      -6.036   4.611  16.151  1.00  0.00     0.037 A 
BRANCH  42  56
ATOM     56  C   UNL     1      -0.109   3.258  17.303  1.00  0.00     0.058 A 
ATOM     57  C   UNL     1       0.885   4.114  17.805  1.00  0.00     0.135 A 
ATOM     58  C   UNL     1      -0.121   1.930  17.761  1.00  0.00     0.135 A 
ATOM     59  F   UNL     1       0.953   5.388  17.388  1.00  0.00    -0.206 F 
ATOM     60  C   UNL     1       1.850   3.662  18.700  1.00  0.00     0.059 A 
ATOM     61  C   UNL     1       0.818   1.464  18.675  1.00  0.00     0.059 A 
ATOM     62  F   UNL     1      -1.048   1.069  17.313  1.00  0.00    -0.206 F 
ATOM     63  C   UNL     1       1.811   2.333  19.125  1.00  0.00     0.060 A 
BRANCH  63  64
ATOM     64  S   UNL     1       3.080   1.755  20.273  1.00  0.00     0.124 S 
ATOM     65  O   UNL     1       4.242   1.657  19.395  1.00  0.00    -0.237 OA
ATOM     66  O   UNL     1       3.121   2.828  21.261  1.00  0.00    -0.237 OA
ATOM     67  O   UNL     1       2.549   0.484  20.754  1.00  0.00    -0.744 OA
ENDBRANCH  63  64
ENDBRANCH  42  56
BRANCH  43  68
ATOM     68  C   UNL     1      -6.616   6.329  10.366  1.00  0.00     0.058 A 
ATOM     69  C   UNL     1      -7.233   7.585  10.443  1.00  0.00     0.135 A 
ATOM     70  C   UNL     1      -6.936   5.508   9.273  1.00  0.00     0.135 A 
ATOM     71  F   UNL     1      -6.968   8.400  11.476  1.00  0.00    -0.206 F 
ATOM     72  C   UNL     1      -8.138   8.013   9.477  1.00  0.00     0.059 A 
ATOM     73  C   UNL     1      -7.820   5.923   8.282  1.00  0.00     0.059 A 
ATOM     74  F   UNL     1      -6.366   4.300   9.149  1.00  0.00    -0.206 F 
ATOM     75  C   UNL     1      -8.421   7.176   8.396  1.00  0.00     0.060 A 
BRANCH  75  76
ATOM     76  S   UNL     1      -9.546   7.767   7.113  1.00  0.00     0.124 S 
ATOM     77  O   UNL     1     -10.835   7.675   7.787  1.00  0.00    -0.237 OA
ATOM     78  O   UNL     1      -9.048   9.117   6.868  1.00  0.00    -0.237 OA
ATOM     79  O   UNL     1      -9.334   6.822   6.020  1.00  0.00    -0.744 OA
ENDBRANCH  75  76
ENDBRANCH  43  68
BRANCH  55  80
ATOM     80  C   UNL     1      -7.207   4.568  17.095  1.00  0.00     0.058 A 
ATOM     81  C   UNL     1      -8.180   3.560  17.020  1.00  0.00     0.135 A 
ATOM     82  C   UNL     1      -7.325   5.518  18.122  1.00  0.00     0.135 A 
ATOM     83  F   UNL     1      -8.117   2.631  16.053  1.00  0.00    -0.206 F 
ATOM     84  C   UNL     1      -9.243   3.508  17.917  1.00  0.00     0.059 A 
ATOM     85  C   UNL     1      -8.365   5.470  19.046  1.00  0.00     0.059 A 
ATOM     86  F   UNL     1      -6.415   6.497  18.246  1.00  0.00    -0.206 F 
ATOM     87  C   UNL     1      -9.326   4.467  18.928  1.00  0.00     0.060 A 
BRANCH  87  88
ATOM     88  S   UNL     1     -10.690   4.369  20.107  1.00  0.00     0.124 S 
ATOM     89  O   UNL     1     -11.808   4.854  19.304  1.00  0.00    -0.237 OA
ATOM     90  O   UNL     1     -10.717   2.948  20.437  1.00  0.00    -0.237 OA
ATOM     91  O   UNL     1     -10.266   5.250  21.191  1.00  0.00    -0.744 OA
ENDBRANCH  87  88
ENDBRANCH  55  80
ENDBRANCH  29  30
ENDBRANCH  22  24
ENDBRANCH  21  22
ENDBRANCH  20  21
ENDBRANCH   1  20
TORSDOF 18
