REMARK SMILES O=C(OCCOCCOC(=O)c1ccc(CNC(=O)c2ccc(F)cc2Br)o1)c1ccc(-c2c3nc(c(-c4c(F)cc(S(=O)(=O)[O-])cc4F)c4ccc([nH]4)c(-c4c(F)cc(S(=O)(=O)[O-])cc4F)c4nc(c(-c5c(F)cc(S(=O)(=O)[O-])cc5F)c5ccc2[nH]5)C=C4)C=C3)cc1
REMARK SMILES IDX 6 1 5 2 4 3 3 4 2 5 1 6 29 7 30 8 94 9 31 10 93 11 32 12
REMARK SMILES IDX 33 13 34 14 87 15 35 16 92 17 86 18 88 19 36 20 91 21 85 22
REMARK SMILES IDX 84 23 37 25 71 26 50 27 70 28 51 29 54 30 69 31 89 32 52 33
REMARK SMILES IDX 53 34 68 36 90 37 55 38 38 39 39 40 48 41 40 42 41 43 47 44
REMARK SMILES IDX 49 45 42 46 43 47 44 48 45 49 46 50 72 51 73 52 82 53 74 54
REMARK SMILES IDX 75 55 81 56 83 57 76 58 77 59 78 60 79 61 80 62 56 63 57 64
REMARK SMILES IDX 66 65 58 66 59 67 65 68 67 69 60 70 61 71 62 72 63 73 64 74
REMARK SMILES IDX 7 75 8 76 9 77 10 78 11 79 12 80 13 81 28 82 14 83 15 84
REMARK SMILES IDX 16 85 17 86 18 87 19 89 20 90 21 91 26 92 22 93 25 94 27 95
REMARK SMILES IDX 23 96 24 97
REMARK H PARENT 88 24 54 35 17 88
REMARK Flexibility Score: inf
ROOT
ATOM      1  O   UNL     1       4.024  -0.476   1.969  1.00  0.00    -0.374 OA
ENDROOT
BRANCH   1   2
ATOM      2  C   UNL     1       4.073   0.939   1.784  1.00  0.00     0.202 C 
BRANCH   2   3
ATOM      3  C   UNL     1       3.861   1.374   0.334  1.00  0.00     0.261 C 
BRANCH   3   4
ATOM      4  O   UNL     1       2.503   1.086  -0.048  1.00  0.00    -0.460 OA
BRANCH   4   5
ATOM      5  C   UNL     1       2.057   0.325  -1.071  1.00  0.00     0.338 C 
ATOM      6  O   UNL     1       0.870   0.405  -1.382  1.00  0.00    -0.246 OA
BRANCH   5   7
ATOM      7  C   UNL     1       2.923  -0.628  -1.830  1.00  0.00     0.060 A 
ATOM      8  C   UNL     1       4.029  -1.299  -1.301  1.00  0.00     0.016 A 
ATOM      9  C   UNL     1       2.500  -0.967  -3.127  1.00  0.00     0.016 A 
ATOM     10  C   UNL     1       4.733  -2.238  -2.062  1.00  0.00     0.010 A 
ATOM     11  C   UNL     1       3.166  -1.948  -3.870  1.00  0.00     0.010 A 
ATOM     12  C   UNL     1       4.293  -2.588  -3.343  1.00  0.00    -0.014 A 
BRANCH  12  13
ATOM     13  C   UNL     1       4.967  -3.665  -4.106  1.00  0.00     0.031 A 
ATOM     14  C   UNL     1       5.790  -3.341  -5.318  1.00  0.00     0.074 A 
ATOM     15  C   UNL     1       4.811  -4.946  -3.719  1.00  0.00     0.049 A 
ATOM     16  N   UNL     1       6.395  -4.155  -6.143  1.00  0.00    -0.248 NA
ATOM     17  C   UNL     1       5.951  -1.916  -5.647  1.00  0.00     0.031 C 
ATOM     18  C   UNL     1       4.030  -5.391  -2.562  1.00  0.00     0.029 A 
ATOM     19  N   UNL     1       5.294  -6.109  -4.261  1.00  0.00    -0.354 N 
ATOM     20  C   UNL     1       7.001  -3.348  -7.096  1.00  0.00     0.074 A 
ATOM     21  C   UNL     1       6.679  -1.977  -6.755  1.00  0.00     0.031 C 
ATOM     22  C   UNL     1       4.093  -6.730  -2.479  1.00  0.00     0.029 A 
ATOM     23  C   UNL     1       4.888  -7.238  -3.592  1.00  0.00     0.049 A 
ATOM     24  H   UNL     1       5.877  -6.133  -5.055  1.00  0.00     0.167 HD
ATOM     25  C   UNL     1       7.764  -3.713  -8.152  1.00  0.00     0.037 A 
ATOM     26  C   UNL     1       5.111  -8.539  -3.859  1.00  0.00     0.037 A 
ATOM     27  C   UNL     1       8.108  -5.070  -8.480  1.00  0.00     0.049 A 
ATOM     28  C   UNL     1       5.913  -8.921  -5.068  1.00  0.00     0.074 A 
ATOM     29  C   UNL     1       8.935  -5.532  -9.490  1.00  0.00     0.029 A 
ATOM     30  N   UNL     1       7.636  -6.186  -7.808  1.00  0.00    -0.354 N 
ATOM     31  N   UNL     1       6.505  -8.141  -5.939  1.00  0.00    -0.248 NA
ATOM     32  C   UNL     1       6.058 -10.357  -5.343  1.00  0.00     0.031 C 
ATOM     33  C   UNL     1       8.942  -6.933  -9.442  1.00  0.00     0.029 A 
ATOM     34  C   UNL     1       8.126  -7.338  -8.399  1.00  0.00     0.049 A 
ATOM     35  H   UNL     1       7.039  -6.163  -7.025  1.00  0.00     0.167 HD
ATOM     36  C   UNL     1       7.086  -8.991  -6.872  1.00  0.00     0.074 A 
ATOM     37  C   UNL     1       6.787 -10.345  -6.452  1.00  0.00     0.031 C 
ATOM     38  C   UNL     1       7.798  -8.676  -7.980  1.00  0.00     0.037 A 
BRANCH  25  39
ATOM     39  C   UNL     1       8.277  -2.613  -9.030  1.00  0.00     0.058 A 
ATOM     40  C   UNL     1       9.435  -1.896  -8.694  1.00  0.00     0.135 A 
ATOM     41  C   UNL     1       7.600  -2.267 -10.209  1.00  0.00     0.135 A 
ATOM     42  F   UNL     1      10.103  -2.182  -7.565  1.00  0.00    -0.206 F 
ATOM     43  C   UNL     1       9.897  -0.854  -9.491  1.00  0.00     0.059 A 
ATOM     44  C   UNL     1       8.048  -1.233 -11.024  1.00  0.00     0.059 A 
ATOM     45  F   UNL     1       6.481  -2.919 -10.563  1.00  0.00    -0.206 F 
ATOM     46  C   UNL     1       9.189  -0.522 -10.647  1.00  0.00     0.060 A 
BRANCH  46  47
ATOM     47  S   UNL     1       9.772   0.850 -11.666  1.00  0.00     0.124 S 
ATOM     48  O   UNL     1       9.232   1.997 -10.942  1.00  0.00    -0.237 OA
ATOM     49  O   UNL     1      11.222   0.695 -11.615  1.00  0.00    -0.237 OA
ATOM     50  O   UNL     1       9.163   0.583 -12.966  1.00  0.00    -0.744 OA
ENDBRANCH  46  47
ENDBRANCH  25  39
BRANCH  26  51
ATOM     51  C   UNL     1       4.522  -9.578  -2.981  1.00  0.00     0.058 A 
ATOM     52  C   UNL     1       5.302 -10.236  -2.020  1.00  0.00     0.135 A 
ATOM     53  C   UNL     1       3.161  -9.911  -3.073  1.00  0.00     0.135 A 
ATOM     54  F   UNL     1       6.608  -9.951  -1.904  1.00  0.00    -0.206 F 
ATOM     55  C   UNL     1       4.752 -11.192  -1.175  1.00  0.00     0.059 A 
ATOM     56  C   UNL     1       2.587 -10.859  -2.233  1.00  0.00     0.059 A 
ATOM     57  F   UNL     1       2.380  -9.296  -3.974  1.00  0.00    -0.206 F 
ATOM     58  C   UNL     1       3.394 -11.499  -1.291  1.00  0.00     0.060 A 
BRANCH  58  59
ATOM     59  S   UNL     1       2.659 -12.694  -0.153  1.00  0.00     0.124 S 
ATOM     60  O   UNL     1       2.800 -13.937  -0.903  1.00  0.00    -0.237 OA
ATOM     61  O   UNL     1       3.500 -12.568   1.034  1.00  0.00    -0.237 OA
ATOM     62  O   UNL     1       1.295 -12.197   0.004  1.00  0.00    -0.744 OA
ENDBRANCH  58  59
ENDBRANCH  26  51
BRANCH  38  63
ATOM     63  C   UNL     1       8.273  -9.813  -8.831  1.00  0.00     0.058 A 
ATOM     64  C   UNL     1       7.426 -10.391  -9.789  1.00  0.00     0.135 A 
ATOM     65  C   UNL     1       9.583 -10.301  -8.720  1.00  0.00     0.135 A 
ATOM     66  F   UNL     1       6.162  -9.959  -9.920  1.00  0.00    -0.206 F 
ATOM     67  C   UNL     1       7.863 -11.422 -10.613  1.00  0.00     0.059 A 
ATOM     68  C   UNL     1      10.043 -11.328  -9.538  1.00  0.00     0.059 A 
ATOM     69  F   UNL     1      10.427  -9.775  -7.818  1.00  0.00    -0.206 F 
ATOM     70  C   UNL     1       9.173 -11.886 -10.477  1.00  0.00     0.060 A 
BRANCH  70  71
ATOM     71  S   UNL     1       9.763 -13.195 -11.573  1.00  0.00     0.124 S 
ATOM     72  O   UNL     1       9.347 -14.392 -10.850  1.00  0.00    -0.237 OA
ATOM     73  O   UNL     1       9.046 -12.927 -12.816  1.00  0.00    -0.237 OA
ATOM     74  O   UNL     1      11.202 -12.958 -11.627  1.00  0.00    -0.744 OA
ENDBRANCH  70  71
ENDBRANCH  38  63
ENDBRANCH  12  13
ENDBRANCH   5   7
ENDBRANCH   4   5
ENDBRANCH   3   4
ENDBRANCH   2   3
ENDBRANCH   1   2
BRANCH   1  75
ATOM     75  C   UNL     1       2.720  -1.024   2.200  1.00  0.00     0.202 C 
BRANCH  75  76
ATOM     76  C   UNL     1       2.854  -2.311   3.029  1.00  0.00     0.261 C 
BRANCH  76  77
ATOM     77  O   UNL     1       3.326  -1.956   4.342  1.00  0.00    -0.457 OA
BRANCH  77  78
ATOM     78  C   UNL     1       4.684  -1.806   4.406  1.00  0.00     0.374 C 
ATOM     79  O   UNL     1       5.493  -2.467   3.767  1.00  0.00    -0.242 OA
BRANCH  78  80
ATOM     80  C   UNL     1       4.976  -0.641   5.203  1.00  0.00     0.211 A 
ATOM     81  C   UNL     1       4.323  -0.037   6.263  1.00  0.00     0.058 A 
ATOM     82  O   UNL     1       6.021   0.149   4.811  1.00  0.00    -0.452 OA
ATOM     83  C   UNL     1       4.988   1.190   6.508  1.00  0.00     0.048 A 
ATOM     84  C   UNL     1       5.992   1.279   5.568  1.00  0.00     0.124 A 
BRANCH  84  85
ATOM     85  C   UNL     1       6.942   2.346   5.179  1.00  0.00     0.191 C 
BRANCH  85  86
ATOM     86  N   UNL     1       8.300   1.852   5.213  1.00  0.00    -0.345 N 
ATOM     87  C   UNL     1       9.398   2.421   4.623  1.00  0.00     0.252 C 
ATOM     88  H   UNL     1       8.452   1.017   5.713  1.00  0.00     0.164 HD
ATOM     89  O   UNL     1      10.517   1.936   4.735  1.00  0.00    -0.269 OA
BRANCH  87  90
ATOM     90  C   UNL     1       9.220   3.673   3.865  1.00  0.00     0.054 A 
ATOM     91  C   UNL     1       9.019   4.857   4.591  1.00  0.00     0.018 A 
ATOM     92  C   UNL     1       9.266   3.698   2.465  1.00  0.00     0.033 A 
ATOM     93  C   UNL     1       8.847   6.062   3.911  1.00  0.00     0.040 A 
ATOM     94  C   UNL     1       9.101   4.910   1.790  1.00  0.00     0.055 A 
ATOM     95  Br  UNL     1       9.496   2.130   1.424  1.00  0.00    -0.050 Br
ATOM     96  C   UNL     1       8.892   6.077   2.520  1.00  0.00     0.124 A 
ATOM     97  F   UNL     1       8.725   7.237   1.873  1.00  0.00    -0.207 F 
ENDBRANCH  87  90
ENDBRANCH  85  86
ENDBRANCH  84  85
ENDBRANCH  78  80
ENDBRANCH  77  78
ENDBRANCH  76  77
ENDBRANCH  75  76
ENDBRANCH   1  75
TORSDOF 20
