REMARK SMILES C[NH2+][C@@]1(C(=O)OCCOCCOC(=O)c2ccc(-c3c4nc(c(-c5c(F)cc(S(=O)(=O)[O-])cc5F)c5ccc([nH]5)c(-c5c(F)cc(S(=O)(=O)[O-])cc5F)c5nc(c(-c6c(F)cc(S(=O)(=O)[O-])cc6F)c6ccc3[nH]6)C=C5)C=C4)cc2)CCC[C@H]([N@H+](C)C2CC[NH+](C)CC2)C1
REMARK SMILES IDX 10 1 9 2 8 3 7 4 6 5 4 6 5 7 3 8 81 9 94 10 82 11 84 12
REMARK SMILES IDX 83 13 2 14 1 15 85 18 86 19 87 21 88 22 93 23 89 24 92 25
REMARK SMILES IDX 90 26 91 27 11 29 12 30 13 31 14 32 15 33 16 34 80 35 17 36
REMARK SMILES IDX 79 37 18 38 19 39 20 40 73 41 21 42 78 43 72 44 74 45 22 46
REMARK SMILES IDX 77 47 71 48 70 49 23 51 57 52 36 53 56 54 37 55 40 56 55 57
REMARK SMILES IDX 75 58 38 59 39 60 54 62 76 63 41 64 24 65 25 66 34 67 26 68
REMARK SMILES IDX 27 69 33 70 35 71 28 72 29 73 30 74 31 75 32 76 58 77 59 78
REMARK SMILES IDX 68 79 60 80 61 81 67 82 69 83 62 84 63 85 64 86 65 87 66 88
REMARK SMILES IDX 42 89 43 90 52 91 44 92 45 93 51 94 53 95 46 96 47 97 48 98
REMARK SMILES IDX 49 99 50 100
REMARK H PARENT 2 16 2 17 85 20 90 28 74 50 40 61
REMARK Flexibility Score: inf
ROOT
ATOM      1  C   UNL     1      -0.753   2.341  -4.336  1.00  0.00     0.202 C 
ENDROOT
BRANCH   1   2
ATOM      2  O   UNL     1      -0.927   1.496  -5.472  1.00  0.00    -0.374 OA
BRANCH   2   3
ATOM      3  C   UNL     1      -1.959   0.511  -5.348  1.00  0.00     0.202 C 
BRANCH   3   4
ATOM      4  C   UNL     1      -1.518  -0.707  -4.533  1.00  0.00     0.261 C 
BRANCH   4   5
ATOM      5  O   UNL     1      -1.425  -0.338  -3.146  1.00  0.00    -0.459 OA
BRANCH   5   6
ATOM      6  C   UNL     1      -1.058  -1.329  -2.292  1.00  0.00     0.368 C 
ATOM      7  O   UNL     1      -0.895  -2.494  -2.644  1.00  0.00    -0.245 OA
BRANCH   6   8
ATOM      8  C   UNL     1      -0.635  -0.747  -0.888  1.00  0.00     0.199 C 
ATOM      9  C   UNL     1      -0.817  -1.863   0.165  1.00  0.00     0.081 C 
ATOM     10  C   UNL     1      -1.418   0.526  -0.468  1.00  0.00     0.146 C 
ATOM     11  C   UNL     1      -2.273  -2.084   0.554  1.00  0.00     0.013 C 
ATOM     12  C   UNL     1      -2.910   0.332  -0.049  1.00  0.00     0.190 C 
ATOM     13  C   UNL     1      -2.946  -0.790   0.996  1.00  0.00     0.065 C 
BRANCH   8  14
ATOM     14  N   UNL     1       0.830  -0.443  -1.048  1.00  0.00    -0.334 N 
ATOM     15  C   UNL     1       1.495   0.209   0.070  1.00  0.00     0.331 C 
ATOM     16  H   UNL     1       1.311  -1.326  -1.219  1.00  0.00     0.347 HD
ATOM     17  H   UNL     1       0.879   0.229  -1.813  1.00  0.00     0.347 HD
ENDBRANCH   8  14
BRANCH  12  18
ATOM     18  N   UNL     1      -3.779   0.315  -1.253  1.00  0.00    -0.332 N 
ATOM     19  C   UNL     1      -3.916   1.736  -1.683  1.00  0.00     0.333 C 
ATOM     20  H   UNL     1      -3.308  -0.323  -1.894  1.00  0.00     0.348 HD
BRANCH  18  21
ATOM     21  C   UNL     1      -5.166  -0.261  -1.159  1.00  0.00     0.195 C 
ATOM     22  C   UNL     1      -5.320  -1.775  -0.913  1.00  0.00     0.126 C 
ATOM     23  C   UNL     1      -5.968  -0.062  -2.479  1.00  0.00     0.126 C 
ATOM     24  C   UNL     1      -4.771  -2.614  -2.067  1.00  0.00     0.268 C 
ATOM     25  C   UNL     1      -5.387  -0.888  -3.634  1.00  0.00     0.268 C 
ATOM     26  N   UNL     1      -5.466  -2.317  -3.325  1.00  0.00    -0.337 N 
ATOM     27  C   UNL     1      -4.919  -3.141  -4.401  1.00  0.00     0.332 C 
ATOM     28  H   UNL     1      -6.454  -2.548  -3.226  1.00  0.00     0.347 HD
ENDBRANCH  18  21
ENDBRANCH  12  18
ENDBRANCH   6   8
ENDBRANCH   5   6
ENDBRANCH   4   5
ENDBRANCH   3   4
ENDBRANCH   2   3
ENDBRANCH   1   2
BRANCH   1  29
ATOM     29  C   UNL     1      -1.537   3.654  -4.410  1.00  0.00     0.261 C 
BRANCH  29  30
ATOM     30  O   UNL     1      -2.956   3.457  -4.260  1.00  0.00    -0.460 OA
BRANCH  30  31
ATOM     31  C   UNL     1      -3.677   3.437  -5.409  1.00  0.00     0.338 C 
ATOM     32  O   UNL     1      -3.244   3.576  -6.542  1.00  0.00    -0.246 OA
BRANCH  31  33
ATOM     33  C   UNL     1      -5.093   3.102  -5.119  1.00  0.00     0.060 A 
ATOM     34  C   UNL     1      -5.772   2.258  -6.006  1.00  0.00     0.016 A 
ATOM     35  C   UNL     1      -5.764   3.621  -4.007  1.00  0.00     0.016 A 
ATOM     36  C   UNL     1      -7.126   1.960  -5.805  1.00  0.00     0.010 A 
ATOM     37  C   UNL     1      -7.110   3.294  -3.790  1.00  0.00     0.010 A 
ATOM     38  C   UNL     1      -7.817   2.491  -4.707  1.00  0.00    -0.014 A 
BRANCH  38  39
ATOM     39  C   UNL     1      -9.301   2.360  -4.598  1.00  0.00     0.031 A 
ATOM     40  C   UNL     1     -10.148   3.591  -4.806  1.00  0.00     0.074 A 
ATOM     41  C   UNL     1      -9.910   1.188  -4.323  1.00  0.00     0.049 A 
ATOM     42  N   UNL     1     -11.447   3.728  -4.732  1.00  0.00    -0.248 NA
ATOM     43  C   UNL     1      -9.432   4.835  -5.134  1.00  0.00     0.031 C 
ATOM     44  C   UNL     1      -9.241  -0.093  -4.127  1.00  0.00     0.029 A 
ATOM     45  N   UNL     1     -11.242   0.889  -4.141  1.00  0.00    -0.354 N 
ATOM     46  C   UNL     1     -11.701   5.065  -5.014  1.00  0.00     0.074 A 
ATOM     47  C   UNL     1     -10.419   5.714  -5.178  1.00  0.00     0.031 C 
ATOM     48  C   UNL     1     -10.149  -1.029  -3.801  1.00  0.00     0.029 A 
ATOM     49  C   UNL     1     -11.476  -0.420  -3.785  1.00  0.00     0.049 A 
ATOM     50  H   UNL     1     -11.961   1.552  -4.254  1.00  0.00     0.167 HD
ATOM     51  C   UNL     1     -12.889   5.693  -5.171  1.00  0.00     0.037 A 
ATOM     52  C   UNL     1     -12.625  -1.062  -3.487  1.00  0.00     0.037 A 
ATOM     53  C   UNL     1     -14.170   5.056  -5.035  1.00  0.00     0.049 A 
ATOM     54  C   UNL     1     -13.937  -0.329  -3.603  1.00  0.00     0.074 A 
ATOM     55  C   UNL     1     -15.427   5.606  -5.220  1.00  0.00     0.029 A 
ATOM     56  N   UNL     1     -14.361   3.731  -4.676  1.00  0.00    -0.354 N 
ATOM     57  N   UNL     1     -14.159   0.918  -3.941  1.00  0.00    -0.248 NA
ATOM     58  C   UNL     1     -15.160  -1.100  -3.327  1.00  0.00     0.031 C 
ATOM     59  C   UNL     1     -16.380   4.623  -4.932  1.00  0.00     0.029 A 
ATOM     60  C   UNL     1     -15.716   3.450  -4.614  1.00  0.00     0.049 A 
ATOM     61  H   UNL     1     -13.641   3.085  -4.494  1.00  0.00     0.167 HD
ATOM     62  C   UNL     1     -15.542   1.067  -3.965  1.00  0.00     0.074 A 
ATOM     63  C   UNL     1     -16.108  -0.215  -3.604  1.00  0.00     0.031 C 
ATOM     64  C   UNL     1     -16.275   2.166  -4.272  1.00  0.00     0.037 A 
BRANCH  51  65
ATOM     65  C   UNL     1     -12.848   7.152  -5.528  1.00  0.00     0.058 A 
ATOM     66  C   UNL     1     -12.422   7.583  -6.795  1.00  0.00     0.135 A 
ATOM     67  C   UNL     1     -13.238   8.128  -4.598  1.00  0.00     0.135 A 
ATOM     68  F   UNL     1     -12.019   6.690  -7.714  1.00  0.00    -0.206 F 
ATOM     69  C   UNL     1     -12.347   8.933  -7.116  1.00  0.00     0.059 A 
ATOM     70  C   UNL     1     -13.199   9.483  -4.908  1.00  0.00     0.059 A 
ATOM     71  F   UNL     1     -13.650   7.768  -3.373  1.00  0.00    -0.206 F 
ATOM     72  C   UNL     1     -12.734   9.876  -6.163  1.00  0.00     0.060 A 
BRANCH  72  73
ATOM     73  S   UNL     1     -12.618  11.626  -6.588  1.00  0.00     0.124 S 
ATOM     74  O   UNL     1     -11.176  11.843  -6.527  1.00  0.00    -0.237 OA
ATOM     75  O   UNL     1     -13.208  11.663  -7.923  1.00  0.00    -0.237 OA
ATOM     76  O   UNL     1     -13.396  12.282  -5.543  1.00  0.00    -0.744 OA
ENDBRANCH  72  73
ENDBRANCH  51  65
BRANCH  52  77
ATOM     77  C   UNL     1     -12.601  -2.494  -3.080  1.00  0.00     0.058 A 
ATOM     78  C   UNL     1     -13.077  -3.500  -3.934  1.00  0.00     0.135 A 
ATOM     79  C   UNL     1     -12.128  -2.882  -1.816  1.00  0.00     0.135 A 
ATOM     80  F   UNL     1     -13.551  -3.178  -5.147  1.00  0.00    -0.206 F 
ATOM     81  C   UNL     1     -13.109  -4.835  -3.544  1.00  0.00     0.059 A 
ATOM     82  C   UNL     1     -12.130  -4.215  -1.411  1.00  0.00     0.059 A 
ATOM     83  F   UNL     1     -11.656  -1.960  -0.963  1.00  0.00    -0.206 F 
ATOM     84  C   UNL     1     -12.635  -5.183  -2.278  1.00  0.00     0.060 A 
BRANCH  84  85
ATOM     85  S   UNL     1     -12.663  -6.923  -1.791  1.00  0.00     0.124 S 
ATOM     86  O   UNL     1     -14.088  -7.145  -1.575  1.00  0.00    -0.237 OA
ATOM     87  O   UNL     1     -12.085  -7.578  -2.959  1.00  0.00    -0.237 OA
ATOM     88  O   UNL     1     -11.833  -6.950  -0.590  1.00  0.00    -0.744 OA
ENDBRANCH  84  85
ENDBRANCH  52  77
BRANCH  64  89
ATOM     89  C   UNL     1     -17.773   2.034  -4.280  1.00  0.00     0.058 A 
ATOM     90  C   UNL     1     -18.515   1.928  -3.094  1.00  0.00     0.135 A 
ATOM     91  C   UNL     1     -18.482   2.087  -5.492  1.00  0.00     0.135 A 
ATOM     92  F   UNL     1     -17.887   1.869  -1.908  1.00  0.00    -0.206 F 
ATOM     93  C   UNL     1     -19.905   1.864  -3.108  1.00  0.00     0.059 A 
ATOM     94  C   UNL     1     -19.873   2.052  -5.529  1.00  0.00     0.059 A 
ATOM     95  F   UNL     1     -17.823   2.200  -6.657  1.00  0.00    -0.206 F 
ATOM     96  C   UNL     1     -20.576   1.931  -4.331  1.00  0.00     0.060 A 
BRANCH  96  97
ATOM     97  S   UNL     1     -22.381   1.897  -4.333  1.00  0.00     0.124 S 
ATOM     98  O   UNL     1     -22.650   0.492  -4.048  1.00  0.00    -0.237 OA
ATOM     99  O   UNL     1     -22.713   2.836  -3.265  1.00  0.00    -0.237 OA
ATOM    100  O   UNL     1     -22.728   2.342  -5.679  1.00  0.00    -0.744 OA
ENDBRANCH  96  97
ENDBRANCH  64  89
ENDBRANCH  38  39
ENDBRANCH  31  33
ENDBRANCH  30  31
ENDBRANCH  29  30
ENDBRANCH   1  29
TORSDOF 20
