REMARK SMILES C[C@@H](C(=O)OCCOCCOC(=O)c1ccc(-c2c3nc(c(-c4c(F)cc(S(=O)(=O)[O-])cc4F)c4ccc([nH]4)c(-c4c(F)cc(S(=O)(=O)[O-])cc4F)c4nc(c(-c5c(F)cc(S(=O)(=O)[O-])cc5F)c5ccc2[nH]5)C=C4)C=C3)cc1)c1ccc2c(c1)[nH]c1ccc(Cl)cc12
REMARK SMILES IDX 9 1 8 2 7 3 6 4 5 5 3 6 4 7 2 8 1 9 80 10 81 11 85 12 82 13
REMARK SMILES IDX 84 14 83 15 86 16 93 17 87 18 92 20 88 21 90 22 89 23 91 24
REMARK SMILES IDX 10 25 11 26 12 27 13 28 14 29 15 30 79 31 16 32 78 33 17 34
REMARK SMILES IDX 18 35 19 36 72 37 20 38 77 39 71 40 73 41 21 42 76 43 70 44
REMARK SMILES IDX 69 45 22 47 56 48 35 49 55 50 36 51 39 52 54 53 74 54 37 55
REMARK SMILES IDX 38 56 53 58 75 59 40 60 23 61 24 62 33 63 25 64 26 65 32 66
REMARK SMILES IDX 34 67 27 68 28 69 29 70 30 71 31 72 57 73 58 74 67 75 59 76
REMARK SMILES IDX 60 77 66 78 68 79 61 80 62 81 63 82 64 83 65 84 41 85 42 86
REMARK SMILES IDX 51 87 43 88 44 89 50 90 52 91 45 92 46 93 47 94 48 95 49 96
REMARK H PARENT 86 19 73 46 39 57
REMARK Flexibility Score: inf
ROOT
ATOM      1  C   UNL     1       0.436  -0.131   3.547  1.00  0.00     0.202 C 
ENDROOT
BRANCH   1   2
ATOM      2  O   UNL     1       0.841  -1.215   4.381  1.00  0.00    -0.374 OA
BRANCH   2   3
ATOM      3  C   UNL     1       2.166  -1.716   4.231  1.00  0.00     0.202 C 
BRANCH   3   4
ATOM      4  C   UNL     1       2.506  -2.482   2.949  1.00  0.00     0.261 C 
BRANCH   4   5
ATOM      5  O   UNL     1       2.034  -1.825   1.760  1.00  0.00    -0.463 OA
BRANCH   5   6
ATOM      6  C   UNL     1       1.155  -2.558   1.022  1.00  0.00     0.313 C 
ATOM      7  O   UNL     1       0.917  -3.740   1.254  1.00  0.00    -0.252 OA
BRANCH   6   8
ATOM      8  C   UNL     1       0.483  -1.770  -0.135  1.00  0.00     0.126 C 
ATOM      9  C   UNL     1       1.012  -0.338  -0.290  1.00  0.00     0.025 C 
BRANCH   8  10
ATOM     10  C   UNL     1      -1.051  -1.891  -0.077  1.00  0.00    -0.032 A 
ATOM     11  C   UNL     1      -1.944  -0.810  -0.143  1.00  0.00     0.005 A 
ATOM     12  C   UNL     1      -1.591  -3.179   0.083  1.00  0.00     0.031 A 
ATOM     13  C   UNL     1      -3.339  -0.988   0.015  1.00  0.00     0.011 A 
ATOM     14  C   UNL     1      -2.942  -3.316   0.389  1.00  0.00     0.047 A 
ATOM     15  C   UNL     1      -3.846  -2.265   0.336  1.00  0.00     0.007 A 
ATOM     16  N   UNL     1      -3.611  -4.426   0.833  1.00  0.00    -0.355 N 
ATOM     17  C   UNL     1      -5.135  -2.816   0.652  1.00  0.00     0.009 A 
ATOM     18  C   UNL     1      -4.933  -4.140   1.050  1.00  0.00     0.047 A 
ATOM     19  H   UNL     1      -3.198  -5.308   0.976  1.00  0.00     0.167 HD
ATOM     20  C   UNL     1      -6.452  -2.310   0.681  1.00  0.00     0.031 A 
ATOM     21  C   UNL     1      -5.945  -4.957   1.563  1.00  0.00     0.028 A 
ATOM     22  C   UNL     1      -7.486  -3.139   1.136  1.00  0.00     0.041 A 
ATOM     23  C   UNL     1      -7.235  -4.429   1.598  1.00  0.00     0.022 A 
ATOM     24  Cl  UNL     1      -9.107  -2.553   1.126  1.00  0.00    -0.084 Cl
ENDBRANCH   8  10
ENDBRANCH   6   8
ENDBRANCH   5   6
ENDBRANCH   4   5
ENDBRANCH   3   4
ENDBRANCH   2   3
ENDBRANCH   1   2
BRANCH   1  25
ATOM     25  C   UNL     1       1.152   1.219   3.708  1.00  0.00     0.261 C 
BRANCH  25  26
ATOM     26  O   UNL     1       2.559   1.165   3.404  1.00  0.00    -0.460 OA
BRANCH  26  27
ATOM     27  C   UNL     1       3.374   1.459   4.447  1.00  0.00     0.338 C 
ATOM     28  O   UNL     1       3.032   1.817   5.569  1.00  0.00    -0.246 OA
BRANCH  27  29
ATOM     29  C   UNL     1       4.770   1.102   4.137  1.00  0.00     0.060 A 
ATOM     30  C   UNL     1       5.417   0.204   4.997  1.00  0.00     0.016 A 
ATOM     31  C   UNL     1       5.468   1.707   3.091  1.00  0.00     0.016 A 
ATOM     32  C   UNL     1       6.777  -0.056   4.844  1.00  0.00     0.010 A 
ATOM     33  C   UNL     1       6.838   1.453   2.946  1.00  0.00     0.010 A 
ATOM     34  C   UNL     1       7.505   0.600   3.844  1.00  0.00    -0.014 A 
BRANCH  34  35
ATOM     35  C   UNL     1       8.986   0.505   3.842  1.00  0.00     0.031 A 
ATOM     36  C   UNL     1       9.790   1.627   4.442  1.00  0.00     0.074 A 
ATOM     37  C   UNL     1       9.607  -0.583   3.352  1.00  0.00     0.049 A 
ATOM     38  N   UNL     1      11.088   1.764   4.528  1.00  0.00    -0.248 NA
ATOM     39  C   UNL     1       9.027   2.744   5.024  1.00  0.00     0.031 C 
ATOM     40  C   UNL     1       8.938  -1.751   2.781  1.00  0.00     0.029 A 
ATOM     41  N   UNL     1      10.944  -0.878   3.251  1.00  0.00    -0.354 N 
ATOM     42  C   UNL     1      11.299   2.980   5.169  1.00  0.00     0.074 A 
ATOM     43  C   UNL     1       9.996   3.556   5.421  1.00  0.00     0.031 C 
ATOM     44  C   UNL     1       9.868  -2.632   2.376  1.00  0.00     0.029 A 
ATOM     45  C   UNL     1      11.197  -2.079   2.633  1.00  0.00     0.049 A 
ATOM     46  H   UNL     1      11.653  -0.285   3.589  1.00  0.00     0.167 HD
ATOM     47  C   UNL     1      12.472   3.558   5.524  1.00  0.00     0.037 A 
ATOM     48  C   UNL     1      12.368  -2.656   2.294  1.00  0.00     0.037 A 
ATOM     49  C   UNL     1      13.766   2.982   5.270  1.00  0.00     0.049 A 
ATOM     50  C   UNL     1      13.661  -1.966   2.642  1.00  0.00     0.074 A 
ATOM     51  C   UNL     1      15.013   3.486   5.599  1.00  0.00     0.029 A 
ATOM     52  N   UNL     1      13.983   1.776   4.620  1.00  0.00    -0.354 N 
ATOM     53  N   UNL     1      13.845  -0.824   3.262  1.00  0.00    -0.248 NA
ATOM     54  C   UNL     1      14.905  -2.643   2.251  1.00  0.00     0.031 C 
ATOM     55  C   UNL     1      15.984   2.607   5.109  1.00  0.00     0.029 A 
ATOM     56  C   UNL     1      15.342   1.530   4.518  1.00  0.00     0.049 A 
ATOM     57  H   UNL     1      13.274   1.183   4.281  1.00  0.00     0.167 HD
ATOM     58  C   UNL     1      15.224  -0.658   3.355  1.00  0.00     0.074 A 
ATOM     59  C   UNL     1      15.826  -1.822   2.738  1.00  0.00     0.031 C 
ATOM     60  C   UNL     1      15.927   0.363   3.905  1.00  0.00     0.037 A 
BRANCH  47  61
ATOM     61  C   UNL     1      12.406   4.897   6.207  1.00  0.00     0.058 A 
ATOM     62  C   UNL     1      11.959   5.030   7.531  1.00  0.00     0.135 A 
ATOM     63  C   UNL     1      12.819   6.059   5.536  1.00  0.00     0.135 A 
ATOM     64  F   UNL     1      11.536   3.954   8.213  1.00  0.00    -0.206 F 
ATOM     65  C   UNL     1      11.898   6.271   8.157  1.00  0.00     0.059 A 
ATOM     66  C   UNL     1      12.791   7.308   6.151  1.00  0.00     0.059 A 
ATOM     67  F   UNL     1      13.254   5.989   4.267  1.00  0.00    -0.206 F 
ATOM     68  C   UNL     1      12.314   7.405   7.457  1.00  0.00     0.060 A 
BRANCH  68  69
ATOM     69  S   UNL     1      12.226   9.009   8.280  1.00  0.00     0.124 S 
ATOM     70  O   UNL     1      10.789   9.262   8.271  1.00  0.00    -0.237 OA
ATOM     71  O   UNL     1      12.810   8.723   9.587  1.00  0.00    -0.237 OA
ATOM     72  O   UNL     1      13.022   9.878   7.419  1.00  0.00    -0.744 OA
ENDBRANCH  68  69
ENDBRANCH  47  61
BRANCH  48  73
ATOM     73  C   UNL     1      12.369  -3.954   1.568  1.00  0.00     0.058 A 
ATOM     74  C   UNL     1      12.800  -5.135   2.189  1.00  0.00     0.135 A 
ATOM     75  C   UNL     1      11.929  -4.037   0.237  1.00  0.00     0.135 A 
ATOM     76  F   UNL     1      13.241  -5.104   3.455  1.00  0.00    -0.206 F 
ATOM     77  C   UNL     1      12.804  -6.352   1.514  1.00  0.00     0.059 A 
ATOM     78  C   UNL     1      11.900  -5.246  -0.450  1.00  0.00     0.059 A 
ATOM     79  F   UNL     1      11.497  -2.937  -0.398  1.00  0.00    -0.206 F 
ATOM     80  C   UNL     1      12.348  -6.398   0.196  1.00  0.00     0.060 A 
BRANCH  80  81
ATOM     81  S   UNL     1      12.300  -7.992  -0.652  1.00  0.00     0.124 S 
ATOM     82  O   UNL     1      13.714  -8.220  -0.929  1.00  0.00    -0.237 OA
ATOM     83  O   UNL     1      11.698  -8.858   0.356  1.00  0.00    -0.237 OA
ATOM     84  O   UNL     1      11.463  -7.726  -1.818  1.00  0.00    -0.744 OA
ENDBRANCH  80  81
ENDBRANCH  48  73
BRANCH  60  85
ATOM     85  C   UNL     1      17.428   0.259   3.894  1.00  0.00     0.058 A 
ATOM     86  C   UNL     1      18.172   0.437   2.718  1.00  0.00     0.135 A 
ATOM     87  C   UNL     1      18.133   0.032   5.088  1.00  0.00     0.135 A 
ATOM     88  F   UNL     1      17.548   0.651   1.549  1.00  0.00    -0.206 F 
ATOM     89  C   UNL     1      19.562   0.373   2.721  1.00  0.00     0.059 A 
ATOM     90  C   UNL     1      19.523  -0.010   5.119  1.00  0.00     0.059 A 
ATOM     91  F   UNL     1      17.470  -0.134   6.243  1.00  0.00    -0.206 F 
ATOM     92  C   UNL     1      20.229   0.150   3.927  1.00  0.00     0.060 A 
BRANCH  92  93
ATOM     93  S   UNL     1      22.034   0.102   3.924  1.00  0.00     0.124 S 
ATOM     94  O   UNL     1      22.293  -1.203   3.325  1.00  0.00    -0.237 OA
ATOM     95  O   UNL     1      22.377   1.257   3.100  1.00  0.00    -0.237 OA
ATOM     96  O   UNL     1      22.380   0.224   5.337  1.00  0.00    -0.744 OA
ENDBRANCH  92  93
ENDBRANCH  60  85
ENDBRANCH  34  35
ENDBRANCH  27  29
ENDBRANCH  26  27
ENDBRANCH  25  26
ENDBRANCH   1  25
TORSDOF 18
