REMARK SMILES Cc1c(C(=O)OCCOCCOC(=O)c2ccc(-c3c4nc(c(-c5c(F)cc(S(=O)(=O)[O-])cc5F)c5ccc([nH]5)c(-c5c(F)cc(S(=O)(=O)[O-])cc5F)c5nc(c(-c6c(F)cc(S(=O)(=O)[O-])cc6F)c6ccc3[nH]6)C=C5)C=C4)cc2)oc2c1/C(=N/NC(=O)C(c1ccccc1)c1ccccc1)CCC2
REMARK SMILES IDX 9 1 8 2 7 3 6 4 4 5 5 6 3 7 1 8 2 9 83 10 81 11 82 12 84 13
REMARK SMILES IDX 104 14 85 15 102 16 103 17 86 18 87 19 88 21 89 22 90 23
REMARK SMILES IDX 91 24 95 25 92 26 94 27 93 28 96 29 97 30 101 31 98 32
REMARK SMILES IDX 100 33 99 34 10 35 11 36 12 37 13 38 14 39 15 40 16 41 80 42
REMARK SMILES IDX 17 43 79 44 18 45 19 46 20 47 73 48 21 49 78 50 72 51 74 52
REMARK SMILES IDX 22 53 77 54 71 55 70 56 23 58 57 59 36 60 56 61 37 62 40 63
REMARK SMILES IDX 55 64 75 65 38 66 39 67 54 69 76 70 41 71 24 72 25 73 34 74
REMARK SMILES IDX 26 75 27 76 33 77 35 78 28 79 29 80 30 81 31 82 32 83 58 84
REMARK SMILES IDX 59 85 68 86 60 87 61 88 67 89 69 90 62 91 63 92 64 93 65 94
REMARK SMILES IDX 66 95 42 96 43 97 52 98 44 99 45 100 51 101 53 102 46 103
REMARK SMILES IDX 47 104 48 105 49 106 50 107
REMARK H PARENT 86 20 74 57 40 68
REMARK Flexibility Score: inf
ROOT
ATOM      1  O   UNL     1      -4.100  -0.984   0.521  1.00  0.00    -0.374 OA
ENDROOT
BRANCH   1   2
ATOM      2  C   UNL     1      -4.819  -0.079   1.363  1.00  0.00     0.202 C 
BRANCH   2   3
ATOM      3  C   UNL     1      -4.129   0.362   2.654  1.00  0.00     0.261 C 
BRANCH   3   4
ATOM      4  O   UNL     1      -3.007   1.189   2.366  1.00  0.00    -0.457 OA
BRANCH   4   5
ATOM      5  C   UNL     1      -1.802   0.553   2.245  1.00  0.00     0.374 C 
ATOM      6  O   UNL     1      -1.558  -0.580   2.589  1.00  0.00    -0.242 OA
BRANCH   5   7
ATOM      7  C   UNL     1      -0.927   1.444   1.516  1.00  0.00     0.215 A 
ATOM      8  C   UNL     1       0.830  -0.050   0.349  1.00  0.00     0.049 C 
ATOM      9  C   UNL     1       0.211   1.242   0.734  1.00  0.00     0.012 A 
ATOM     10  C   UNL     1       0.677   2.554   0.431  1.00  0.00     0.043 A 
ATOM     11  O   UNL     1      -1.279   2.759   1.517  1.00  0.00    -0.453 OA
ATOM     12  C   UNL     1      -0.316   3.412   0.869  1.00  0.00     0.114 A 
ATOM     13  C   UNL     1       1.936   3.115  -0.062  1.00  0.00     0.072 C 
ATOM     14  C   UNL     1      -0.382   4.886   0.894  1.00  0.00     0.076 C 
ATOM     15  N   UNL     1       2.745   2.307  -0.681  1.00  0.00    -0.177 NA
ATOM     16  C   UNL     1       2.044   4.537   0.434  1.00  0.00     0.059 C 
ATOM     17  C   UNL     1       0.827   5.414   0.154  1.00  0.00     0.014 C 
BRANCH  15  18
ATOM     18  N   UNL     1       4.011   2.383  -1.218  1.00  0.00    -0.246 N 
ATOM     19  C   UNL     1       5.021   3.301  -1.453  1.00  0.00     0.252 C 
ATOM     20  H   UNL     1       4.290   1.494  -1.538  1.00  0.00     0.193 HD
ATOM     21  O   UNL     1       6.043   2.886  -2.023  1.00  0.00    -0.272 OA
BRANCH  19  22
ATOM     22  C   UNL     1       4.948   4.775  -1.015  1.00  0.00     0.140 C 
BRANCH  22  23
ATOM     23  C   UNL     1       3.829   5.457  -1.907  1.00  0.00    -0.031 A 
ATOM     24  C   UNL     1       3.409   6.789  -1.772  1.00  0.00     0.005 A 
ATOM     25  C   UNL     1       3.131   4.697  -2.892  1.00  0.00     0.005 A 
ATOM     26  C   UNL     1       2.271   7.263  -2.466  1.00  0.00     0.000 A 
ATOM     27  C   UNL     1       1.982   5.148  -3.545  1.00  0.00     0.000 A 
ATOM     28  C   UNL     1       1.538   6.434  -3.318  1.00  0.00     0.000 A 
ENDBRANCH  22  23
BRANCH  22  29
ATOM     29  C   UNL     1       5.000   4.761   0.574  1.00  0.00    -0.031 A 
ATOM     30  C   UNL     1       4.662   5.843   1.403  1.00  0.00     0.005 A 
ATOM     31  C   UNL     1       5.286   3.539   1.249  1.00  0.00     0.005 A 
ATOM     32  C   UNL     1       4.384   5.635   2.775  1.00  0.00     0.000 A 
ATOM     33  C   UNL     1       4.974   3.322   2.592  1.00  0.00     0.000 A 
ATOM     34  C   UNL     1       4.483   4.367   3.351  1.00  0.00     0.000 A 
ENDBRANCH  22  29
ENDBRANCH  19  22
ENDBRANCH  15  18
ENDBRANCH   5   7
ENDBRANCH   4   5
ENDBRANCH   3   4
ENDBRANCH   2   3
ENDBRANCH   1   2
BRANCH   1  35
ATOM     35  C   UNL     1      -3.156  -0.469  -0.418  1.00  0.00     0.202 C 
BRANCH  35  36
ATOM     36  C   UNL     1      -3.662   0.181  -1.694  1.00  0.00     0.261 C 
BRANCH  36  37
ATOM     37  O   UNL     1      -4.363   1.377  -1.400  1.00  0.00    -0.460 OA
BRANCH  37  38
ATOM     38  C   UNL     1      -5.704   1.229  -1.325  1.00  0.00     0.338 C 
ATOM     39  O   UNL     1      -6.332   0.185  -1.323  1.00  0.00    -0.246 OA
BRANCH  38  40
ATOM     40  C   UNL     1      -6.305   2.563  -1.397  1.00  0.00     0.060 A 
ATOM     41  C   UNL     1      -7.659   2.571  -1.726  1.00  0.00     0.016 A 
ATOM     42  C   UNL     1      -5.482   3.691  -1.547  1.00  0.00     0.016 A 
ATOM     43  C   UNL     1      -8.103   3.591  -2.527  1.00  0.00     0.010 A 
ATOM     44  C   UNL     1      -5.929   4.709  -2.348  1.00  0.00     0.010 A 
ATOM     45  C   UNL     1      -7.187   4.572  -2.923  1.00  0.00    -0.014 A 
BRANCH  45  46
ATOM     46  C   UNL     1      -7.609   5.509  -3.933  1.00  0.00     0.031 A 
ATOM     47  C   UNL     1      -8.552   6.503  -3.389  1.00  0.00     0.074 A 
ATOM     48  C   UNL     1      -7.140   5.478  -5.193  1.00  0.00     0.049 A 
ATOM     49  N   UNL     1      -9.833   6.517  -3.533  1.00  0.00    -0.248 NA
ATOM     50  C   UNL     1      -8.048   7.421  -2.357  1.00  0.00     0.031 C 
ATOM     51  C   UNL     1      -6.037   4.698  -5.760  1.00  0.00     0.029 A 
ATOM     52  N   UNL     1      -7.541   6.241  -6.242  1.00  0.00    -0.354 N 
ATOM     53  C   UNL     1     -10.271   7.607  -2.794  1.00  0.00     0.074 A 
ATOM     54  C   UNL     1      -9.186   7.960  -1.919  1.00  0.00     0.031 C 
ATOM     55  C   UNL     1      -5.712   5.204  -6.976  1.00  0.00     0.029 A 
ATOM     56  C   UNL     1      -6.670   6.237  -7.327  1.00  0.00     0.049 A 
ATOM     57  H   UNL     1      -8.380   6.755  -6.235  1.00  0.00     0.167 HD
ATOM     58  C   UNL     1     -11.389   8.292  -3.152  1.00  0.00     0.037 A 
ATOM     59  C   UNL     1      -6.730   7.110  -8.368  1.00  0.00     0.037 A 
ATOM     60  C   UNL     1     -12.176   7.537  -4.095  1.00  0.00     0.049 A 
ATOM     61  C   UNL     1      -8.124   7.649  -8.386  1.00  0.00     0.074 A 
ATOM     62  C   UNL     1     -12.834   6.324  -4.046  1.00  0.00     0.029 A 
ATOM     63  N   UNL     1     -12.019   7.833  -5.430  1.00  0.00    -0.354 N 
ATOM     64  N   UNL     1      -9.172   6.910  -8.647  1.00  0.00    -0.248 NA
ATOM     65  C   UNL     1      -8.393   8.851  -7.606  1.00  0.00     0.031 C 
ATOM     66  C   UNL     1     -12.611   5.732  -5.323  1.00  0.00     0.029 A 
ATOM     67  C   UNL     1     -11.901   6.645  -6.107  1.00  0.00     0.049 A 
ATOM     68  H   UNL     1     -11.996   8.733  -5.827  1.00  0.00     0.167 HD
ATOM     69  C   UNL     1     -10.141   7.320  -7.738  1.00  0.00     0.074 A 
ATOM     70  C   UNL     1      -9.616   8.555  -7.155  1.00  0.00     0.031 C 
ATOM     71  C   UNL     1     -11.132   6.478  -7.322  1.00  0.00     0.037 A 
BRANCH  58  72
ATOM     72  C   UNL     1     -11.569   9.774  -2.953  1.00  0.00     0.058 A 
ATOM     73  C   UNL     1     -12.825  10.349  -3.223  1.00  0.00     0.135 A 
ATOM     74  C   UNL     1     -10.503  10.686  -2.779  1.00  0.00     0.135 A 
ATOM     75  F   UNL     1     -13.908   9.576  -3.406  1.00  0.00    -0.206 F 
ATOM     76  C   UNL     1     -12.994  11.723  -3.390  1.00  0.00     0.059 A 
ATOM     77  C   UNL     1     -10.661  12.060  -2.883  1.00  0.00     0.059 A 
ATOM     78  F   UNL     1      -9.237  10.295  -2.600  1.00  0.00    -0.206 F 
ATOM     79  C   UNL     1     -11.899  12.568  -3.233  1.00  0.00     0.060 A 
BRANCH  79  80
ATOM     80  S   UNL     1     -12.084  14.327  -3.555  1.00  0.00     0.124 S 
ATOM     81  O   UNL     1     -12.315  14.335  -4.995  1.00  0.00    -0.237 OA
ATOM     82  O   UNL     1     -13.230  14.665  -2.718  1.00  0.00    -0.237 OA
ATOM     83  O   UNL     1     -10.808  14.885  -3.117  1.00  0.00    -0.744 OA
ENDBRANCH  79  80
ENDBRANCH  58  72
BRANCH  59  84
ATOM     84  C   UNL     1      -5.589   7.801  -9.032  1.00  0.00     0.058 A 
ATOM     85  C   UNL     1      -5.755   8.509 -10.237  1.00  0.00     0.135 A 
ATOM     86  C   UNL     1      -4.372   8.018  -8.354  1.00  0.00     0.135 A 
ATOM     87  F   UNL     1      -6.892   8.385 -10.939  1.00  0.00    -0.206 F 
ATOM     88  C   UNL     1      -4.791   9.408 -10.719  1.00  0.00     0.059 A 
ATOM     89  C   UNL     1      -3.396   8.902  -8.815  1.00  0.00     0.059 A 
ATOM     90  F   UNL     1      -4.130   7.444  -7.166  1.00  0.00    -0.206 F 
ATOM     91  C   UNL     1      -3.621   9.613  -9.987  1.00  0.00     0.060 A 
BRANCH  91  92
ATOM     92  S   UNL     1      -2.450  10.893 -10.505  1.00  0.00     0.124 S 
ATOM     93  O   UNL     1      -1.896  10.321 -11.727  1.00  0.00    -0.237 OA
ATOM     94  O   UNL     1      -3.317  12.054 -10.680  1.00  0.00    -0.237 OA
ATOM     95  O   UNL     1      -1.522  10.978  -9.379  1.00  0.00    -0.744 OA
ENDBRANCH  91  92
ENDBRANCH  59  84
BRANCH  71  96
ATOM     96  C   UNL     1     -11.319   5.167  -8.042  1.00  0.00     0.058 A 
ATOM     97  C   UNL     1     -10.404   4.099  -8.002  1.00  0.00     0.135 A 
ATOM     98  C   UNL     1     -12.575   4.913  -8.612  1.00  0.00     0.135 A 
ATOM     99  F   UNL     1      -9.218   4.233  -7.389  1.00  0.00    -0.206 F 
ATOM    100  C   UNL     1     -10.721   2.840  -8.520  1.00  0.00     0.059 A 
ATOM    101  C   UNL     1     -12.922   3.661  -9.108  1.00  0.00     0.059 A 
ATOM    102  F   UNL     1     -13.512   5.876  -8.624  1.00  0.00    -0.206 F 
ATOM    103  C   UNL     1     -11.988   2.629  -9.064  1.00  0.00     0.060 A 
BRANCH 103 104
ATOM    104  S   UNL     1     -12.443   0.978  -9.640  1.00  0.00     0.124 S 
ATOM    105  O   UNL     1     -11.648   0.848 -10.856  1.00  0.00    -0.237 OA
ATOM    106  O   UNL     1     -12.039   0.129  -8.524  1.00  0.00    -0.237 OA
ATOM    107  O   UNL     1     -13.887   1.074  -9.846  1.00  0.00    -0.744 OA
ENDBRANCH 103 104
ENDBRANCH  71  96
ENDBRANCH  45  46
ENDBRANCH  38  40
ENDBRANCH  37  38
ENDBRANCH  36  37
ENDBRANCH  35  36
ENDBRANCH   1  35
TORSDOF 21
