REMARK SMILES CC[C@H](C(=O)OCCOCCOC(=O)c1ccc(-c2c3nc(c(-c4c(F)cc(S(=O)(=O)[O-])cc4F)c4ccc([nH]4)c(-c4c(F)cc(S(=O)(=O)[O-])cc4F)c4nc(c(-c5c(F)cc(S(=O)(=O)[O-])cc5F)c5ccc2[nH]5)C=C4)C=C3)cc1)N1C(=O)c2ccc([N+](=O)[O-])cc2C1=O
REMARK SMILES IDX 10 1 9 2 8 3 7 4 6 5 4 6 5 7 3 8 2 9 1 10 81 11 82 12 93 13
REMARK SMILES IDX 83 14 84 15 92 16 94 17 85 18 91 19 86 20 87 21 88 22 89 23
REMARK SMILES IDX 90 24 11 25 12 26 13 27 14 28 15 29 16 30 80 31 17 32 79 33
REMARK SMILES IDX 18 34 19 35 20 36 73 37 21 38 78 39 72 40 74 41 22 42 77 43
REMARK SMILES IDX 71 44 70 45 23 47 57 48 36 49 56 50 37 51 40 52 55 53 75 54
REMARK SMILES IDX 38 55 39 56 54 58 76 59 41 60 24 61 25 62 34 63 26 64 27 65
REMARK SMILES IDX 33 66 35 67 28 68 29 69 30 70 31 71 32 72 58 73 59 74 68 75
REMARK SMILES IDX 60 76 61 77 67 78 69 79 62 80 63 81 64 82 65 83 66 84 42 85
REMARK SMILES IDX 43 86 52 87 44 88 45 89 51 90 53 91 46 92 47 93 48 94 49 95
REMARK SMILES IDX 50 96
REMARK H PARENT 74 46 40 57
REMARK Flexibility Score: inf
ROOT
ATOM      1  C   UNL     1      -0.342  -0.432  -0.969  1.00  0.00     0.202 C 
ENDROOT
BRANCH   1   2
ATOM      2  O   UNL     1      -1.096  -1.195  -0.033  1.00  0.00    -0.374 OA
BRANCH   2   3
ATOM      3  C   UNL     1      -1.766  -0.436   0.979  1.00  0.00     0.202 C 
BRANCH   3   4
ATOM      4  C   UNL     1      -0.911  -0.146   2.225  1.00  0.00     0.261 C 
BRANCH   4   5
ATOM      5  O   UNL     1      -0.310   1.166   2.164  1.00  0.00    -0.462 OA
BRANCH   5   6
ATOM      6  C   UNL     1       0.902   1.353   1.579  1.00  0.00     0.329 C 
ATOM      7  O   UNL     1       1.689   0.445   1.337  1.00  0.00    -0.250 OA
BRANCH   6   8
ATOM      8  C   UNL     1       1.097   2.821   1.092  1.00  0.00     0.203 C 
BRANCH   8   9
ATOM      9  C   UNL     1       0.928   3.001  -0.422  1.00  0.00     0.034 C 
ATOM     10  C   UNL     1       2.063   2.412  -1.245  1.00  0.00     0.007 C 
ENDBRANCH   8   9
BRANCH   8  11
ATOM     11  N   UNL     1       0.198   3.732   1.798  1.00  0.00    -0.260 N 
ATOM     12  C   UNL     1      -1.163   3.633   1.790  1.00  0.00     0.262 C 
ATOM     13  C   UNL     1       0.612   4.817   2.520  1.00  0.00     0.262 C 
ATOM     14  O   UNL     1      -1.903   2.991   1.069  1.00  0.00    -0.269 OA
ATOM     15  C   UNL     1      -1.620   4.490   2.864  1.00  0.00     0.053 A 
ATOM     16  C   UNL     1      -0.574   5.326   3.209  1.00  0.00     0.060 A 
ATOM     17  O   UNL     1       1.730   5.274   2.642  1.00  0.00    -0.269 OA
ATOM     18  C   UNL     1      -2.791   4.435   3.583  1.00  0.00     0.022 A 
ATOM     19  C   UNL     1      -0.706   6.301   4.169  1.00  0.00     0.100 A 
ATOM     20  C   UNL     1      -2.941   5.361   4.610  1.00  0.00     0.086 A 
ATOM     21  C   UNL     1      -1.928   6.314   4.848  1.00  0.00     0.270 A 
BRANCH  21  22
ATOM     22  N   UNL     1      -2.139   7.292   5.894  1.00  0.00     0.062 N 
ATOM     23  O   UNL     1      -2.576   6.855   6.961  1.00  0.00    -0.258 OA
ATOM     24  O   UNL     1      -1.853   8.465   5.625  1.00  0.00    -0.258 OA
ENDBRANCH  21  22
ENDBRANCH   8  11
ENDBRANCH   6   8
ENDBRANCH   5   6
ENDBRANCH   4   5
ENDBRANCH   3   4
ENDBRANCH   2   3
ENDBRANCH   1   2
BRANCH   1  25
ATOM     25  C   UNL     1      -1.109   0.055  -2.203  1.00  0.00     0.261 C 
BRANCH  25  26
ATOM     26  O   UNL     1      -2.092   1.052  -1.864  1.00  0.00    -0.460 OA
BRANCH  26  27
ATOM     27  C   UNL     1      -3.365   0.593  -1.790  1.00  0.00     0.338 C 
ATOM     28  O   UNL     1      -3.748  -0.532  -2.069  1.00  0.00    -0.246 OA
BRANCH  27  29
ATOM     29  C   UNL     1      -4.255   1.598  -1.169  1.00  0.00     0.060 A 
ATOM     30  C   UNL     1      -5.115   1.150  -0.159  1.00  0.00     0.016 A 
ATOM     31  C   UNL     1      -4.311   2.927  -1.597  1.00  0.00     0.016 A 
ATOM     32  C   UNL     1      -6.057   2.015   0.401  1.00  0.00     0.010 A 
ATOM     33  C   UNL     1      -5.258   3.795  -1.030  1.00  0.00     0.010 A 
ATOM     34  C   UNL     1      -6.154   3.341  -0.043  1.00  0.00    -0.014 A 
BRANCH  34  35
ATOM     35  C   UNL     1      -7.237   4.227   0.469  1.00  0.00     0.031 A 
ATOM     36  C   UNL     1      -8.417   4.543  -0.403  1.00  0.00     0.074 A 
ATOM     37  C   UNL     1      -7.199   4.730   1.718  1.00  0.00     0.049 A 
ATOM     38  N   UNL     1      -9.426   5.339  -0.162  1.00  0.00    -0.248 NA
ATOM     39  C   UNL     1      -8.483   3.859  -1.703  1.00  0.00     0.031 C 
ATOM     40  C   UNL     1      -6.183   4.406   2.709  1.00  0.00     0.029 A 
ATOM     41  N   UNL     1      -8.025   5.611   2.373  1.00  0.00    -0.354 N 
ATOM     42  C   UNL     1     -10.252   5.252  -1.274  1.00  0.00     0.074 A 
ATOM     43  C   UNL     1      -9.607   4.350  -2.207  1.00  0.00     0.031 C 
ATOM     44  C   UNL     1      -6.416   5.107   3.830  1.00  0.00     0.029 A 
ATOM     45  C   UNL     1      -7.572   5.964   3.624  1.00  0.00     0.049 A 
ATOM     46  H   UNL     1      -8.861   5.957   1.985  1.00  0.00     0.167 HD
ATOM     47  C   UNL     1     -11.443   5.859  -1.487  1.00  0.00     0.037 A 
ATOM     48  C   UNL     1      -8.013   6.885   4.502  1.00  0.00     0.037 A 
ATOM     49  C   UNL     1     -12.080   6.752  -0.552  1.00  0.00     0.049 A 
ATOM     50  C   UNL     1      -9.259   7.652   4.182  1.00  0.00     0.074 A 
ATOM     51  C   UNL     1     -13.306   7.384  -0.669  1.00  0.00     0.029 A 
ATOM     52  N   UNL     1     -11.539   7.159   0.660  1.00  0.00    -0.354 N 
ATOM     53  N   UNL     1     -10.033   7.548   3.130  1.00  0.00    -0.248 NA
ATOM     54  C   UNL     1      -9.704   8.641   5.172  1.00  0.00     0.031 C 
ATOM     55  C   UNL     1     -13.475   8.225   0.435  1.00  0.00     0.029 A 
ATOM     56  C   UNL     1     -12.384   8.071   1.274  1.00  0.00     0.049 A 
ATOM     57  H   UNL     1     -10.682   6.845   1.029  1.00  0.00     0.167 HD
ATOM     58  C   UNL     1     -11.069   8.447   3.339  1.00  0.00     0.074 A 
ATOM     59  C   UNL     1     -10.829   9.077   4.622  1.00  0.00     0.031 C 
ATOM     60  C   UNL     1     -12.127   8.716   2.538  1.00  0.00     0.037 A 
BRANCH  47  61
ATOM     61  C   UNL     1     -12.130   5.605  -2.799  1.00  0.00     0.058 A 
ATOM     62  C   UNL     1     -12.724   4.370  -3.103  1.00  0.00     0.135 A 
ATOM     63  C   UNL     1     -12.245   6.638  -3.745  1.00  0.00     0.135 A 
ATOM     64  F   UNL     1     -12.629   3.344  -2.242  1.00  0.00    -0.206 F 
ATOM     65  C   UNL     1     -13.392   4.162  -4.305  1.00  0.00     0.059 A 
ATOM     66  C   UNL     1     -12.933   6.461  -4.940  1.00  0.00     0.059 A 
ATOM     67  F   UNL     1     -11.692   7.838  -3.505  1.00  0.00    -0.206 F 
ATOM     68  C   UNL     1     -13.495   5.216  -5.216  1.00  0.00     0.060 A 
BRANCH  68  69
ATOM     69  S   UNL     1     -14.381   4.934  -6.762  1.00  0.00     0.124 S 
ATOM     70  O   UNL     1     -13.465   4.041  -7.465  1.00  0.00    -0.237 OA
ATOM     71  O   UNL     1     -15.626   4.329  -6.300  1.00  0.00    -0.237 OA
ATOM     72  O   UNL     1     -14.510   6.272  -7.330  1.00  0.00    -0.744 OA
ENDBRANCH  68  69
ENDBRANCH  47  61
BRANCH  48  73
ATOM     73  C   UNL     1      -7.260   7.176   5.750  1.00  0.00     0.058 A 
ATOM     74  C   UNL     1      -7.691   6.690   6.991  1.00  0.00     0.135 A 
ATOM     75  C   UNL     1      -6.119   7.995   5.727  1.00  0.00     0.135 A 
ATOM     76  F   UNL     1      -8.787   5.920   7.064  1.00  0.00    -0.206 F 
ATOM     77  C   UNL     1      -7.018   7.004   8.168  1.00  0.00     0.059 A 
ATOM     78  C   UNL     1      -5.436   8.332   6.893  1.00  0.00     0.059 A 
ATOM     79  F   UNL     1      -5.655   8.465   4.559  1.00  0.00    -0.206 F 
ATOM     80  C   UNL     1      -5.890   7.826   8.110  1.00  0.00     0.060 A 
BRANCH  80  81
ATOM     81  S   UNL     1      -5.003   8.178   9.647  1.00  0.00     0.124 S 
ATOM     82  O   UNL     1      -5.913   9.111  10.302  1.00  0.00    -0.237 OA
ATOM     83  O   UNL     1      -4.910   6.851  10.253  1.00  0.00    -0.237 OA
ATOM     84  O   UNL     1      -3.739   8.750   9.197  1.00  0.00    -0.744 OA
ENDBRANCH  80  81
ENDBRANCH  48  73
BRANCH  60  85
ATOM     85  C   UNL     1     -13.111   9.741   3.025  1.00  0.00     0.058 A 
ATOM     86  C   UNL     1     -12.792  11.107   3.052  1.00  0.00     0.135 A 
ATOM     87  C   UNL     1     -14.399   9.357   3.431  1.00  0.00     0.135 A 
ATOM     88  F   UNL     1     -11.568  11.523   2.692  1.00  0.00    -0.206 F 
ATOM     89  C   UNL     1     -13.713  12.058   3.477  1.00  0.00     0.059 A 
ATOM     90  C   UNL     1     -15.346  10.294   3.831  1.00  0.00     0.059 A 
ATOM     91  F   UNL     1     -14.753   8.062   3.425  1.00  0.00    -0.206 F 
ATOM     92  C   UNL     1     -14.991  11.642   3.857  1.00  0.00     0.060 A 
BRANCH  92  93
ATOM     93  S   UNL     1     -16.191  12.894   4.353  1.00  0.00     0.124 S 
ATOM     94  O   UNL     1     -15.659  13.318   5.644  1.00  0.00    -0.237 OA
ATOM     95  O   UNL     1     -16.087  13.868   3.272  1.00  0.00    -0.237 OA
ATOM     96  O   UNL     1     -17.450  12.156   4.406  1.00  0.00    -0.744 OA
ENDBRANCH  92  93
ENDBRANCH  60  85
ENDBRANCH  34  35
ENDBRANCH  27  29
ENDBRANCH  26  27
ENDBRANCH  25  26
ENDBRANCH   1  25
TORSDOF 20
