REMARK SMILES CCCOC(=O)c1c(NC(=O)[C@@H]2CC=CC[C@H]2C(=O)OCCOCCOC(=O)c2ccc(-c3c4nc(c(-c5c(F)cc(S(=O)(=O)[O-])cc5F)c5ccc([nH]5)c(-c5c(F)cc(S(=O)(=O)[O-])cc5F)c5nc(c(-c6c(F)cc(S(=O)(=O)[O-])cc6F)c6ccc3[nH]6)C=C5)C=C4)cc2)sc2c1CCCC2
REMARK SMILES IDX 21 1 20 2 18 3 19 4 17 5 12 6 13 7 14 8 16 9 15 10 10 11
REMARK SMILES IDX 9 12 11 14 8 15 7 16 97 17 95 18 96 19 98 20 101 21 99 22
REMARK SMILES IDX 100 23 5 24 6 25 4 26 3 27 2 28 1 29 22 30 23 31 24 32 25 33
REMARK SMILES IDX 26 34 27 35 28 36 29 37 30 38 94 39 31 40 93 41 32 42 33 43
REMARK SMILES IDX 34 44 87 45 35 46 92 47 86 48 88 49 36 50 91 51 85 52 84 53
REMARK SMILES IDX 37 55 71 56 50 57 70 58 51 59 54 60 69 61 89 62 52 63 53 64
REMARK SMILES IDX 68 66 90 67 55 68 38 69 39 70 48 71 40 72 41 73 47 74 49 75
REMARK SMILES IDX 42 76 43 77 44 78 45 79 46 80 72 81 73 82 82 83 74 84 75 85
REMARK SMILES IDX 81 86 83 87 76 88 77 89 78 90 79 91 80 92 56 93 57 94 66 95
REMARK SMILES IDX 58 96 59 97 65 98 67 99 60 100 61 101 62 102 63 103 64 104
REMARK H PARENT 9 13 88 54 54 65
REMARK Flexibility Score: inf
ROOT
ATOM      1  C   UNL     1      -1.079   5.548   2.653  1.00  0.00     0.261 C 
ENDROOT
BRANCH   1   2
ATOM      2  O   UNL     1      -0.505   4.473   1.895  1.00  0.00    -0.463 OA
BRANCH   2   3
ATOM      3  C   UNL     1       0.583   3.862   2.444  1.00  0.00     0.310 C 
ATOM      4  O   UNL     1       1.053   4.108   3.547  1.00  0.00    -0.252 OA
BRANCH   3   5
ATOM      5  C   UNL     1       1.224   2.877   1.475  1.00  0.00     0.116 C 
ATOM      6  C   UNL     1       0.207   1.836   0.963  1.00  0.00     0.097 C 
ATOM      7  C   UNL     1       0.194   1.482  -0.522  1.00  0.00     0.041 C 
ATOM      8  C   UNL     1       0.784   2.508  -1.409  1.00  0.00    -0.030 C 
ATOM      9  C   UNL     1       1.928   3.757   0.428  1.00  0.00     0.043 C 
ATOM     10  C   UNL     1       1.584   3.492  -0.996  1.00  0.00    -0.030 C 
BRANCH   6  11
ATOM     11  C   UNL     1       0.196   0.521   1.726  1.00  0.00     0.229 C 
ATOM     12  N   UNL     1       1.147  -0.454   1.559  1.00  0.00    -0.317 N 
ATOM     13  H   UNL     1       0.863  -1.327   1.201  1.00  0.00     0.170 HD
ATOM     14  O   UNL     1      -0.777   0.237   2.437  1.00  0.00    -0.274 OA
BRANCH  12  15
ATOM     15  C   UNL     1       2.481  -0.275   1.867  1.00  0.00     0.110 A 
ATOM     16  C   UNL     1       3.606   0.353   1.356  1.00  0.00     0.098 A 
ATOM     17  C   UNL     1       4.637   0.375   2.408  1.00  0.00    -0.017 A 
ATOM     18  S   UNL     1       2.792  -1.110   3.337  1.00  0.00    -0.122 S 
ATOM     19  C   UNL     1       4.259  -0.308   3.546  1.00  0.00     0.011 A 
ATOM     20  C   UNL     1       5.965   1.090   2.350  1.00  0.00     0.038 C 
ATOM     21  C   UNL     1       5.040  -0.408   4.819  1.00  0.00     0.047 C 
ATOM     22  C   UNL     1       6.912   0.648   3.477  1.00  0.00     0.005 C 
ATOM     23  C   UNL     1       6.194   0.604   4.830  1.00  0.00     0.006 C 
BRANCH  16  24
ATOM     24  C   UNL     1       3.851   1.001   0.054  1.00  0.00     0.341 C 
ATOM     25  O   UNL     1       4.661   1.921  -0.032  1.00  0.00    -0.246 OA
BRANCH  24  26
ATOM     26  O   UNL     1       3.263   0.441  -1.062  1.00  0.00    -0.462 OA
BRANCH  26  27
ATOM     27  C   UNL     1       3.868   0.964  -2.273  1.00  0.00     0.233 C 
BRANCH  27  28
ATOM     28  C   UNL     1       3.185   0.529  -3.576  1.00  0.00     0.038 C 
ATOM     29  C   UNL     1       2.380   1.629  -4.270  1.00  0.00     0.007 C 
ENDBRANCH  27  28
ENDBRANCH  26  27
ENDBRANCH  24  26
ENDBRANCH  16  24
ENDBRANCH  12  15
ENDBRANCH   6  11
ENDBRANCH   3   5
ENDBRANCH   2   3
ENDBRANCH   1   2
BRANCH   1  30
ATOM     30  C   UNL     1      -2.409   5.182   3.314  1.00  0.00     0.202 C 
BRANCH  30  31
ATOM     31  O   UNL     1      -2.374   4.138   4.284  1.00  0.00    -0.374 OA
BRANCH  31  32
ATOM     32  C   UNL     1      -2.298   2.793   3.803  1.00  0.00     0.202 C 
BRANCH  32  33
ATOM     33  C   UNL     1      -3.507   2.296   3.005  1.00  0.00     0.261 C 
BRANCH  33  34
ATOM     34  O   UNL     1      -3.564   2.912   1.703  1.00  0.00    -0.460 OA
BRANCH  34  35
ATOM     35  C   UNL     1      -4.819   3.218   1.294  1.00  0.00     0.338 C 
ATOM     36  O   UNL     1      -5.868   2.916   1.833  1.00  0.00    -0.246 OA
BRANCH  35  37
ATOM     37  C   UNL     1      -4.762   4.124   0.136  1.00  0.00     0.060 A 
ATOM     38  C   UNL     1      -4.986   5.489   0.354  1.00  0.00     0.016 A 
ATOM     39  C   UNL     1      -4.661   3.615  -1.159  1.00  0.00     0.016 A 
ATOM     40  C   UNL     1      -5.154   6.347  -0.732  1.00  0.00     0.010 A 
ATOM     41  C   UNL     1      -4.836   4.477  -2.247  1.00  0.00     0.010 A 
ATOM     42  C   UNL     1      -5.122   5.838  -2.037  1.00  0.00    -0.014 A 
BRANCH  42  43
ATOM     43  C   UNL     1      -5.535   6.704  -3.168  1.00  0.00     0.031 A 
ATOM     44  C   UNL     1      -6.953   6.628  -3.667  1.00  0.00     0.074 A 
ATOM     45  C   UNL     1      -4.667   7.570  -3.720  1.00  0.00     0.049 A 
ATOM     46  N   UNL     1      -7.519   7.271  -4.655  1.00  0.00    -0.248 NA
ATOM     47  C   UNL     1      -7.856   5.710  -2.952  1.00  0.00     0.031 C 
ATOM     48  C   UNL     1      -3.283   7.764  -3.288  1.00  0.00     0.029 A 
ATOM     49  N   UNL     1      -4.819   8.443  -4.767  1.00  0.00    -0.354 N 
ATOM     50  C   UNL     1      -8.840   6.838  -4.683  1.00  0.00     0.074 A 
ATOM     51  C   UNL     1      -8.987   5.860  -3.627  1.00  0.00     0.031 C 
ATOM     52  C   UNL     1      -2.708   8.689  -4.075  1.00  0.00     0.029 A 
ATOM     53  C   UNL     1      -3.671   9.127  -5.085  1.00  0.00     0.049 A 
ATOM     54  H   UNL     1      -5.671   8.568  -5.245  1.00  0.00     0.167 HD
ATOM     55  C   UNL     1      -9.839   7.227  -5.510  1.00  0.00     0.037 A 
ATOM     56  C   UNL     1      -3.417   9.984  -6.094  1.00  0.00     0.037 A 
ATOM     57  C   UNL     1      -9.684   8.198  -6.561  1.00  0.00     0.049 A 
ATOM     58  C   UNL     1      -4.519  10.329  -7.061  1.00  0.00     0.074 A 
ATOM     59  C   UNL     1     -10.641   8.681  -7.436  1.00  0.00     0.029 A 
ATOM     60  N   UNL     1      -8.490   8.822  -6.889  1.00  0.00    -0.354 N 
ATOM     61  N   UNL     1      -5.770   9.934  -7.059  1.00  0.00    -0.248 NA
ATOM     62  C   UNL     1      -4.174  11.227  -8.173  1.00  0.00     0.031 C 
ATOM     63  C   UNL     1     -10.015   9.561  -8.325  1.00  0.00     0.029 A 
ATOM     64  C   UNL     1      -8.676   9.658  -7.978  1.00  0.00     0.049 A 
ATOM     65  H   UNL     1      -7.635   8.691  -6.418  1.00  0.00     0.167 HD
ATOM     66  C   UNL     1      -6.363  10.540  -8.161  1.00  0.00     0.074 A 
ATOM     67  C   UNL     1      -5.339  11.342  -8.798  1.00  0.00     0.031 C 
ATOM     68  C   UNL     1      -7.641  10.442  -8.604  1.00  0.00     0.037 A 
BRANCH  55  69
ATOM     69  C   UNL     1     -11.184   6.582  -5.329  1.00  0.00     0.058 A 
ATOM     70  C   UNL     1     -12.023   6.914  -4.253  1.00  0.00     0.135 A 
ATOM     71  C   UNL     1     -11.656   5.646  -6.263  1.00  0.00     0.135 A 
ATOM     72  F   UNL     1     -11.614   7.793  -3.324  1.00  0.00    -0.206 F 
ATOM     73  C   UNL     1     -13.274   6.324  -4.098  1.00  0.00     0.059 A 
ATOM     74  C   UNL     1     -12.912   5.058  -6.138  1.00  0.00     0.059 A 
ATOM     75  F   UNL     1     -10.892   5.291  -7.308  1.00  0.00    -0.206 F 
ATOM     76  C   UNL     1     -13.708   5.395  -5.045  1.00  0.00     0.060 A 
BRANCH  76  77
ATOM     77  S   UNL     1     -15.334   4.639  -4.832  1.00  0.00     0.124 S 
ATOM     78  O   UNL     1     -15.082   3.711  -3.735  1.00  0.00    -0.237 OA
ATOM     79  O   UNL     1     -16.174   5.788  -4.510  1.00  0.00    -0.237 OA
ATOM     80  O   UNL     1     -15.595   4.022  -6.129  1.00  0.00    -0.744 OA
ENDBRANCH  76  77
ENDBRANCH  55  69
BRANCH  56  81
ATOM     81  C   UNL     1      -2.051  10.545  -6.260  1.00  0.00     0.058 A 
ATOM     82  C   UNL     1      -1.782  11.896  -6.005  1.00  0.00     0.135 A 
ATOM     83  C   UNL     1      -0.982   9.730  -6.665  1.00  0.00     0.135 A 
ATOM     84  F   UNL     1      -2.774  12.718  -5.629  1.00  0.00    -0.206 F 
ATOM     85  C   UNL     1      -0.502  12.423  -6.146  1.00  0.00     0.059 A 
ATOM     86  C   UNL     1       0.311  10.227  -6.792  1.00  0.00     0.059 A 
ATOM     87  F   UNL     1      -1.186   8.427  -6.915  1.00  0.00    -0.206 F 
ATOM     88  C   UNL     1       0.540  11.578  -6.535  1.00  0.00     0.060 A 
BRANCH  88  89
ATOM     89  S   UNL     1       2.211  12.253  -6.653  1.00  0.00     0.124 S 
ATOM     90  O   UNL     1       2.136  13.008  -7.898  1.00  0.00    -0.237 OA
ATOM     91  O   UNL     1       2.311  13.044  -5.431  1.00  0.00    -0.237 OA
ATOM     92  O   UNL     1       3.051  11.059  -6.687  1.00  0.00    -0.744 OA
ENDBRANCH  88  89
ENDBRANCH  56  81
BRANCH  68  93
ATOM     93  C   UNL     1      -8.009  11.215  -9.839  1.00  0.00     0.058 A 
ATOM     94  C   UNL     1      -7.623  10.777 -11.115  1.00  0.00     0.135 A 
ATOM     95  C   UNL     1      -8.822  12.357  -9.753  1.00  0.00     0.135 A 
ATOM     96  F   UNL     1      -6.840   9.695 -11.249  1.00  0.00    -0.206 F 
ATOM     97  C   UNL     1      -8.027  11.447 -12.265  1.00  0.00     0.059 A 
ATOM     98  C   UNL     1      -9.254  13.031 -10.891  1.00  0.00     0.059 A 
ATOM     99  F   UNL     1      -9.224  12.811  -8.555  1.00  0.00    -0.206 F 
ATOM    100  C   UNL     1      -8.847  12.571 -12.143  1.00  0.00     0.060 A 
BRANCH 100 101
ATOM    101  S   UNL     1      -9.413  13.396 -13.646  1.00  0.00     0.124 S 
ATOM    102  O   UNL     1      -8.206  14.098 -14.068  1.00  0.00    -0.237 OA
ATOM    103  O   UNL     1      -9.820  12.274 -14.485  1.00  0.00    -0.237 OA
ATOM    104  O   UNL     1     -10.503  14.247 -13.176  1.00  0.00    -0.744 OA
ENDBRANCH 100 101
ENDBRANCH  68  93
ENDBRANCH  42  43
ENDBRANCH  35  37
ENDBRANCH  34  35
ENDBRANCH  33  34
ENDBRANCH  32  33
ENDBRANCH  31  32
ENDBRANCH  30  31
ENDBRANCH   1  30
TORSDOF 23
