REMARK SMILES CC[N@@H+]1CCO[C@@H](Cn2cc(C(=O)OCCOCCOC(=O)c3ccc(-c4c5nc(c(-c6c(F)cc(S(=O)(=O)[O-])cc6F)c6ccc([nH]6)c(-c6c(F)cc(S(=O)(=O)[O-])cc6F)c6nc(c(-c7c(F)cc(S(=O)(=O)[O-])cc7F)c7ccc4[nH]7)C=C6)C=C5)cc3)nn2)C1
REMARK SMILES IDX 17 1 16 2 15 3 14 4 12 5 13 6 11 7 9 8 10 9 90 10 89 11 8 12
REMARK SMILES IDX 7 13 3 14 4 15 91 16 5 18 6 19 2 20 1 21 18 22 19 23 20 24
REMARK SMILES IDX 21 25 22 26 23 27 24 28 88 29 25 30 87 31 26 32 27 33 28 34
REMARK SMILES IDX 81 35 29 36 86 37 80 38 82 39 30 40 85 41 79 42 78 43 31 45
REMARK SMILES IDX 65 46 44 47 64 48 45 49 48 50 63 51 83 52 46 53 47 54 62 56
REMARK SMILES IDX 84 57 49 58 32 59 33 60 42 61 34 62 35 63 41 64 43 65 36 66
REMARK SMILES IDX 37 67 38 68 39 69 40 70 66 71 67 72 76 73 68 74 69 75 75 76
REMARK SMILES IDX 77 77 70 78 71 79 72 80 73 81 74 82 50 83 51 84 60 85 52 86
REMARK SMILES IDX 53 87 59 88 61 89 54 90 55 91 56 92 57 93 58 94
REMARK H PARENT 3 17 82 44 48 55
REMARK Flexibility Score: inf
ROOT
ATOM      1  O   UNL     1       2.973   5.197   4.085  1.00  0.00    -0.374 OA
ENDROOT
BRANCH   1   2
ATOM      2  C   UNL     1       1.581   5.196   3.777  1.00  0.00     0.202 C 
BRANCH   2   3
ATOM      3  C   UNL     1       1.127   4.501   2.491  1.00  0.00     0.261 C 
BRANCH   3   4
ATOM      4  O   UNL     1       1.372   3.085   2.521  1.00  0.00    -0.458 OA
BRANCH   4   5
ATOM      5  C   UNL     1       2.377   2.656   1.707  1.00  0.00     0.360 C 
ATOM      6  O   UNL     1       2.950   3.375   0.879  1.00  0.00    -0.244 OA
BRANCH   5   7
ATOM      7  C   UNL     1       2.776   1.284   1.955  1.00  0.00     0.190 A 
ATOM      8  N   UNL     1       2.828  -0.859   2.242  1.00  0.00    -0.249 N 
ATOM      9  C   UNL     1       2.047   0.239   2.497  1.00  0.00     0.147 A 
ATOM     10  N   UNL     1       4.053  -0.492   1.829  1.00  0.00    -0.066 NA
ATOM     11  N   UNL     1       4.018   0.811   1.601  1.00  0.00    -0.123 NA
BRANCH   8  12
ATOM     12  C   UNL     1       2.372  -2.213   1.983  1.00  0.00     0.184 C 
BRANCH  12  13
ATOM     13  C   UNL     1       1.433  -2.246   0.770  1.00  0.00     0.194 C 
ATOM     14  N   UNL     1       1.188  -1.676  -1.662  1.00  0.00    -0.331 N 
ATOM     15  C   UNL     1       0.499  -2.974  -1.815  1.00  0.00     0.291 C 
ATOM     16  C   UNL     1       2.123  -1.768  -0.529  1.00  0.00     0.296 C 
ATOM     17  H   UNL     1       1.766  -1.470  -2.477  1.00  0.00     0.348 HD
ATOM     18  C   UNL     1      -0.061  -3.552  -0.496  1.00  0.00     0.222 C 
ATOM     19  O   UNL     1       0.922  -3.575   0.558  1.00  0.00    -0.365 OA
BRANCH  14  20
ATOM     20  C   UNL     1       0.263  -0.532  -1.688  1.00  0.00     0.258 C 
ATOM     21  C   UNL     1       0.474   0.626  -0.715  1.00  0.00     0.071 C 
ENDBRANCH  14  20
ENDBRANCH  12  13
ENDBRANCH   8  12
ENDBRANCH   5   7
ENDBRANCH   4   5
ENDBRANCH   3   4
ENDBRANCH   2   3
ENDBRANCH   1   2
BRANCH   1  22
ATOM     22  C   UNL     1       3.635   3.984   4.424  1.00  0.00     0.202 C 
BRANCH  22  23
ATOM     23  C   UNL     1       3.262   3.270   5.715  1.00  0.00     0.261 C 
BRANCH  23  24
ATOM     24  O   UNL     1       1.874   2.999   5.829  1.00  0.00    -0.460 OA
BRANCH  24  25
ATOM     25  C   UNL     1       1.243   3.840   6.678  1.00  0.00     0.338 C 
ATOM     26  O   UNL     1       1.582   4.982   6.972  1.00  0.00    -0.246 OA
BRANCH  25  27
ATOM     27  C   UNL     1       0.168   3.118   7.353  1.00  0.00     0.060 A 
ATOM     28  C   UNL     1      -0.590   3.837   8.281  1.00  0.00     0.016 A 
ATOM     29  C   UNL     1       0.119   1.719   7.272  1.00  0.00     0.016 A 
ATOM     30  C   UNL     1      -1.266   3.139   9.255  1.00  0.00     0.010 A 
ATOM     31  C   UNL     1      -0.533   1.025   8.259  1.00  0.00     0.010 A 
ATOM     32  C   UNL     1      -1.160   1.746   9.274  1.00  0.00    -0.014 A 
BRANCH  32  33
ATOM     33  C   UNL     1      -1.866   1.019  10.308  1.00  0.00     0.031 A 
ATOM     34  C   UNL     1      -3.329   0.994  10.059  1.00  0.00     0.074 A 
ATOM     35  C   UNL     1      -1.205   0.330  11.258  1.00  0.00     0.049 A 
ATOM     36  N   UNL     1      -4.270   1.509  10.777  1.00  0.00    -0.248 NA
ATOM     37  C   UNL     1      -3.785   0.519   8.736  1.00  0.00     0.031 C 
ATOM     38  C   UNL     1       0.242   0.103  11.350  1.00  0.00     0.029 A 
ATOM     39  N   UNL     1      -1.687  -0.425  12.280  1.00  0.00    -0.354 N 
ATOM     40  C   UNL     1      -5.451   1.170  10.122  1.00  0.00     0.074 A 
ATOM     41  C   UNL     1      -5.086   0.800   8.784  1.00  0.00     0.031 C 
ATOM     42  C   UNL     1       0.480  -0.917  12.206  1.00  0.00     0.029 A 
ATOM     43  C   UNL     1      -0.775  -1.338  12.804  1.00  0.00     0.049 A 
ATOM     44  H   UNL     1      -2.607  -0.335  12.621  1.00  0.00     0.167 HD
ATOM     45  C   UNL     1      -6.581   0.899  10.828  1.00  0.00     0.037 A 
ATOM     46  C   UNL     1      -1.067  -2.407  13.593  1.00  0.00     0.037 A 
ATOM     47  C   UNL     1      -6.515   1.480  12.145  1.00  0.00     0.049 A 
ATOM     48  C   UNL     1      -2.441  -2.192  14.125  1.00  0.00     0.074 A 
ATOM     49  C   UNL     1      -6.327   2.762  12.628  1.00  0.00     0.029 A 
ATOM     50  N   UNL     1      -6.258   0.638  13.198  1.00  0.00    -0.354 N 
ATOM     51  N   UNL     1      -2.755  -1.258  14.980  1.00  0.00    -0.248 NA
ATOM     52  C   UNL     1      -3.553  -2.721  13.348  1.00  0.00     0.031 C 
ATOM     53  C   UNL     1      -5.520   2.605  13.792  1.00  0.00     0.029 A 
ATOM     54  C   UNL     1      -5.324   1.240  14.001  1.00  0.00     0.049 A 
ATOM     55  H   UNL     1      -6.671  -0.243  13.350  1.00  0.00     0.167 HD
ATOM     56  C   UNL     1      -3.984  -0.780  14.549  1.00  0.00     0.074 A 
ATOM     57  C   UNL     1      -4.462  -1.773  13.590  1.00  0.00     0.031 C 
ATOM     58  C   UNL     1      -4.357   0.511  14.790  1.00  0.00     0.037 A 
BRANCH  45  59
ATOM     59  C   UNL     1      -7.519  -0.237  10.480  1.00  0.00     0.058 A 
ATOM     60  C   UNL     1      -8.717  -0.377  11.208  1.00  0.00     0.135 A 
ATOM     61  C   UNL     1      -7.166  -1.348   9.677  1.00  0.00     0.135 A 
ATOM     62  F   UNL     1      -9.146   0.610  12.011  1.00  0.00    -0.206 F 
ATOM     63  C   UNL     1      -9.463  -1.556  11.200  1.00  0.00     0.059 A 
ATOM     64  C   UNL     1      -7.925  -2.509   9.610  1.00  0.00     0.059 A 
ATOM     65  F   UNL     1      -6.022  -1.415   8.987  1.00  0.00    -0.206 F 
ATOM     66  C   UNL     1      -9.049  -2.621  10.406  1.00  0.00     0.060 A 
BRANCH  66  67
ATOM     67  S   UNL     1      -9.955  -4.173  10.455  1.00  0.00     0.124 S 
ATOM     68  O   UNL     1      -9.640  -4.649  11.796  1.00  0.00    -0.237 OA
ATOM     69  O   UNL     1     -11.326  -3.726  10.236  1.00  0.00    -0.237 OA
ATOM     70  O   UNL     1      -9.369  -4.937   9.357  1.00  0.00    -0.744 OA
ENDBRANCH  66  67
ENDBRANCH  45  59
BRANCH  46  71
ATOM     71  C   UNL     1      -0.418  -3.749  13.637  1.00  0.00     0.058 A 
ATOM     72  C   UNL     1      -0.742  -4.673  14.651  1.00  0.00     0.135 A 
ATOM     73  C   UNL     1       0.294  -4.268  12.538  1.00  0.00     0.135 A 
ATOM     74  F   UNL     1      -1.429  -4.274  15.733  1.00  0.00    -0.206 F 
ATOM     75  C   UNL     1      -0.444  -6.037  14.547  1.00  0.00     0.059 A 
ATOM     76  C   UNL     1       0.615  -5.621  12.419  1.00  0.00     0.059 A 
ATOM     77  F   UNL     1       0.616  -3.495  11.491  1.00  0.00    -0.206 F 
ATOM     78  C   UNL     1       0.213  -6.506  13.412  1.00  0.00     0.060 A 
BRANCH  78  79
ATOM     79  S   UNL     1       0.417  -8.288  13.172  1.00  0.00     0.124 S 
ATOM     80  O   UNL     1       1.411  -8.619  14.187  1.00  0.00    -0.237 OA
ATOM     81  O   UNL     1      -0.932  -8.788  13.411  1.00  0.00    -0.237 OA
ATOM     82  O   UNL     1       0.879  -8.392  11.790  1.00  0.00    -0.744 OA
ENDBRANCH  78  79
ENDBRANCH  46  71
BRANCH  58  83
ATOM     83  C   UNL     1      -3.589   1.292  15.823  1.00  0.00     0.058 A 
ATOM     84  C   UNL     1      -2.216   1.594  15.761  1.00  0.00     0.135 A 
ATOM     85  C   UNL     1      -4.320   1.856  16.881  1.00  0.00     0.135 A 
ATOM     86  F   UNL     1      -1.466   1.193  14.724  1.00  0.00    -0.206 F 
ATOM     87  C   UNL     1      -1.591   2.366  16.744  1.00  0.00     0.059 A 
ATOM     88  C   UNL     1      -3.726   2.657  17.848  1.00  0.00     0.059 A 
ATOM     89  F   UNL     1      -5.647   1.659  16.961  1.00  0.00    -0.206 F 
ATOM     90  C   UNL     1      -2.355   2.889  17.787  1.00  0.00     0.060 A 
BRANCH  90  91
ATOM     91  S   UNL     1      -1.559   3.907  19.047  1.00  0.00     0.124 S 
ATOM     92  O   UNL     1      -0.752   2.928  19.767  1.00  0.00    -0.237 OA
ATOM     93  O   UNL     1      -0.817   4.878  18.248  1.00  0.00    -0.237 OA
ATOM     94  O   UNL     1      -2.683   4.462  19.799  1.00  0.00    -0.744 OA
ENDBRANCH  90  91
ENDBRANCH  58  83
ENDBRANCH  32  33
ENDBRANCH  25  27
ENDBRANCH  24  25
ENDBRANCH  23  24
ENDBRANCH  22  23
ENDBRANCH   1  22
TORSDOF 20
