REMARK SMILES COc1ccc(CCN2/C(=[NH+]/C(=O)CCC(=O)OCCOCCOC(=O)c3ccc(-c4c5nc(c(-c6c(F)cc(S(=O)(=O)[O-])cc6F)c6ccc([nH]6)c(-c6c(F)cc(S(=O)(=O)[O-])cc6F)c6nc(c(-c7c(F)cc(S(=O)(=O)[O-])cc7F)c7ccc4[nH]7)C=C6)C=C5)cc3)S[C@@H]3CS(=O)(=O)C[C@@H]32)cc1
REMARK SMILES IDX 19 1 18 2 16 3 17 4 15 5 14 6 12 7 9 8 10 9 100 10 11 11
REMARK SMILES IDX 93 12 94 13 99 14 95 16 96 17 13 18 97 19 98 20 8 21 7 22
REMARK SMILES IDX 6 23 3 24 4 25 102 26 5 27 101 28 2 29 1 30 20 31 21 32
REMARK SMILES IDX 22 33 23 34 24 35 25 36 26 37 27 38 28 39 92 40 29 41 91 42
REMARK SMILES IDX 30 43 31 44 32 45 85 46 33 47 90 48 84 49 86 50 34 51 89 52
REMARK SMILES IDX 83 53 82 54 35 56 69 57 48 58 68 59 49 60 52 61 67 62 87 63
REMARK SMILES IDX 50 64 51 65 66 67 88 68 53 69 36 70 37 71 46 72 38 73 39 74
REMARK SMILES IDX 45 75 47 76 40 77 41 78 42 79 43 80 44 81 70 82 71 83 80 84
REMARK SMILES IDX 72 85 73 86 79 87 81 88 74 89 75 90 76 91 77 92 78 93 54 94
REMARK SMILES IDX 55 95 64 96 56 97 57 98 63 99 65 100 58 101 59 102 60 103
REMARK SMILES IDX 61 104 62 105
REMARK H PARENT 11 15 86 55 52 66
REMARK Flexibility Score: inf
ROOT
ATOM      1  C   UNL     1       2.198   8.741   4.895  1.00  0.00     0.261 C 
ENDROOT
BRANCH   1   2
ATOM      2  O   UNL     1       0.889   9.268   4.618  1.00  0.00    -0.463 OA
BRANCH   2   3
ATOM      3  C   UNL     1       0.382  10.189   5.474  1.00  0.00     0.306 C 
ATOM      4  O   UNL     1       0.929  10.572   6.500  1.00  0.00    -0.252 OA
BRANCH   3   5
ATOM      5  C   UNL     1      -0.982  10.678   5.042  1.00  0.00     0.135 C 
BRANCH   5   6
ATOM      6  C   UNL     1      -1.002  11.374   3.689  1.00  0.00     0.139 C 
BRANCH   6   7
ATOM      7  C   UNL     1      -1.440  10.437   2.584  1.00  0.00     0.308 C 
ATOM      8  N   UNL     1      -0.281   7.201   1.415  1.00  0.00    -0.251 N 
ATOM      9  C   UNL     1      -0.828   8.480   1.463  1.00  0.00     0.314 C 
ATOM     10  C   UNL     1      -1.082   6.255   0.616  1.00  0.00     0.206 C 
ATOM     11  N   UNL     1      -0.612   9.352   2.389  1.00  0.00    -0.205 N 
ATOM     12  S   UNL     1      -1.980   8.660   0.129  1.00  0.00    -0.030 SA
ATOM     13  C   UNL     1      -2.404   6.916   0.210  1.00  0.00     0.120 C 
ATOM     14  C   UNL     1      -1.382   5.034   1.452  1.00  0.00     0.187 C 
ATOM     15  H   UNL     1       0.170   9.239   2.976  1.00  0.00     0.316 HD
ATOM     16  C   UNL     1      -3.426   6.633   1.295  1.00  0.00     0.156 C 
ATOM     17  S   UNL     1      -3.109   4.945   1.704  1.00  0.00     0.155 S 
ATOM     18  O   UNL     1      -2.528  10.652   2.053  1.00  0.00    -0.247 OA
ATOM     19  O   UNL     1      -3.348   4.729   3.111  1.00  0.00    -0.229 OA
ATOM     20  O   UNL     1      -3.662   4.105   0.664  1.00  0.00    -0.229 OA
BRANCH   8  21
ATOM     21  C   UNL     1       1.163   6.903   1.548  1.00  0.00     0.242 C 
BRANCH  21  22
ATOM     22  C   UNL     1       1.653   5.885   2.620  1.00  0.00     0.081 C 
BRANCH  22  23
ATOM     23  C   UNL     1       1.847   4.437   2.166  1.00  0.00    -0.044 A 
ATOM     24  C   UNL     1       1.825   1.916   0.893  1.00  0.00     0.118 A 
ATOM     25  C   UNL     1       0.924   2.183   1.917  1.00  0.00     0.046 A 
ATOM     26  C   UNL     1       2.838   2.836   0.624  1.00  0.00     0.046 A 
ATOM     27  C   UNL     1       0.977   3.419   2.586  1.00  0.00     0.007 A 
ATOM     28  C   UNL     1       2.857   4.085   1.259  1.00  0.00     0.007 A 
BRANCH  24  29
ATOM     29  O   UNL     1       1.685   0.931  -0.040  1.00  0.00    -0.497 OA
ATOM     30  C   UNL     1       1.357  -0.375   0.402  1.00  0.00     0.278 C 
ENDBRANCH  24  29
ENDBRANCH  22  23
ENDBRANCH  21  22
ENDBRANCH   8  21
ENDBRANCH   6   7
ENDBRANCH   5   6
ENDBRANCH   3   5
ENDBRANCH   2   3
ENDBRANCH   1   2
BRANCH   1  31
ATOM     31  C   UNL     1       3.231   9.144   3.828  1.00  0.00     0.202 C 
BRANCH  31  32
ATOM     32  O   UNL     1       3.579  10.528   3.817  1.00  0.00    -0.374 OA
BRANCH  32  33
ATOM     33  C   UNL     1       2.653  11.357   3.115  1.00  0.00     0.202 C 
BRANCH  33  34
ATOM     34  C   UNL     1       2.949  11.578   1.627  1.00  0.00     0.261 C 
BRANCH  34  35
ATOM     35  O   UNL     1       2.551  10.457   0.804  1.00  0.00    -0.460 OA
BRANCH  35  36
ATOM     36  C   UNL     1       3.550   9.750   0.214  1.00  0.00     0.338 C 
ATOM     37  O   UNL     1       4.745   9.896   0.408  1.00  0.00    -0.246 OA
BRANCH  36  38
ATOM     38  C   UNL     1       2.993   8.662  -0.643  1.00  0.00     0.060 A 
ATOM     39  C   UNL     1       3.705   7.456  -0.748  1.00  0.00     0.016 A 
ATOM     40  C   UNL     1       1.775   8.789  -1.320  1.00  0.00     0.016 A 
ATOM     41  C   UNL     1       3.185   6.370  -1.482  1.00  0.00     0.010 A 
ATOM     42  C   UNL     1       1.260   7.705  -2.054  1.00  0.00     0.010 A 
ATOM     43  C   UNL     1       1.945   6.474  -2.129  1.00  0.00    -0.014 A 
BRANCH  43  44
ATOM     44  C   UNL     1       1.445   5.421  -3.070  1.00  0.00     0.031 A 
ATOM     45  C   UNL     1       1.828   5.566  -4.505  1.00  0.00     0.074 A 
ATOM     46  C   UNL     1       0.635   4.393  -2.731  1.00  0.00     0.049 A 
ATOM     47  N   UNL     1       1.465   4.834  -5.521  1.00  0.00    -0.248 NA
ATOM     48  C   UNL     1       2.759   6.657  -4.832  1.00  0.00     0.031 C 
ATOM     49  C   UNL     1       0.299   4.017  -1.375  1.00  0.00     0.029 A 
ATOM     50  N   UNL     1      -0.076   3.481  -3.486  1.00  0.00    -0.354 N 
ATOM     51  C   UNL     1       2.147   5.353  -6.605  1.00  0.00     0.074 A 
ATOM     52  C   UNL     1       2.899   6.498  -6.137  1.00  0.00     0.031 C 
ATOM     53  C   UNL     1      -0.633   3.048  -1.377  1.00  0.00     0.029 A 
ATOM     54  C   UNL     1      -0.937   2.689  -2.747  1.00  0.00     0.049 A 
ATOM     55  H   UNL     1       0.021   3.402  -4.462  1.00  0.00     0.167 HD
ATOM     56  C   UNL     1       2.165   4.895  -7.873  1.00  0.00     0.037 A 
ATOM     57  C   UNL     1      -1.854   1.763  -3.102  1.00  0.00     0.037 A 
ATOM     58  C   UNL     1       1.396   3.778  -8.344  1.00  0.00     0.049 A 
ATOM     59  C   UNL     1      -1.918   1.357  -4.542  1.00  0.00     0.074 A 
ATOM     60  C   UNL     1       1.360   3.248  -9.620  1.00  0.00     0.029 A 
ATOM     61  N   UNL     1       0.513   3.036  -7.574  1.00  0.00    -0.354 N 
ATOM     62  N   UNL     1      -1.222   1.832  -5.545  1.00  0.00    -0.248 NA
ATOM     63  C   UNL     1      -2.827   0.259  -4.898  1.00  0.00     0.031 C 
ATOM     64  C   UNL     1       0.404   2.231  -9.640  1.00  0.00     0.029 A 
ATOM     65  C   UNL     1      -0.103   2.077  -8.360  1.00  0.00     0.049 A 
ATOM     66  H   UNL     1       0.349   3.170  -6.612  1.00  0.00     0.167 HD
ATOM     67  C   UNL     1      -1.560   1.050  -6.638  1.00  0.00     0.074 A 
ATOM     68  C   UNL     1      -2.538   0.084  -6.181  1.00  0.00     0.031 C 
ATOM     69  C   UNL     1      -1.074   1.117  -7.898  1.00  0.00     0.037 A 
BRANCH  56  70
ATOM     70  C   UNL     1       3.026   5.643  -8.837  1.00  0.00     0.058 A 
ATOM     71  C   UNL     1       4.427   5.567  -8.782  1.00  0.00     0.135 A 
ATOM     72  C   UNL     1       2.440   6.456  -9.816  1.00  0.00     0.135 A 
ATOM     73  F   UNL     1       5.030   4.837  -7.830  1.00  0.00    -0.206 F 
ATOM     74  C   UNL     1       5.220   6.286  -9.665  1.00  0.00     0.059 A 
ATOM     75  C   UNL     1       3.213   7.161 -10.727  1.00  0.00     0.059 A 
ATOM     76  F   UNL     1       1.105   6.578  -9.883  1.00  0.00    -0.206 F 
ATOM     77  C   UNL     1       4.603   7.074 -10.638  1.00  0.00     0.060 A 
BRANCH  77  78
ATOM     78  S   UNL     1       5.647   7.974 -11.798  1.00  0.00     0.124 S 
ATOM     79  O   UNL     1       6.210   9.011 -10.938  1.00  0.00    -0.237 OA
ATOM     80  O   UNL     1       6.578   6.941 -12.239  1.00  0.00    -0.237 OA
ATOM     81  O   UNL     1       4.705   8.441 -12.811  1.00  0.00    -0.744 OA
ENDBRANCH  77  78
ENDBRANCH  56  70
BRANCH  57  82
ATOM     82  C   UNL     1      -2.757   1.121  -2.097  1.00  0.00     0.058 A 
ATOM     83  C   UNL     1      -2.577  -0.206  -1.680  1.00  0.00     0.135 A 
ATOM     84  C   UNL     1      -3.859   1.815  -1.573  1.00  0.00     0.135 A 
ATOM     85  F   UNL     1      -1.561  -0.931  -2.173  1.00  0.00    -0.206 F 
ATOM     86  C   UNL     1      -3.456  -0.824  -0.790  1.00  0.00     0.059 A 
ATOM     87  C   UNL     1      -4.734   1.230  -0.654  1.00  0.00     0.059 A 
ATOM     88  F   UNL     1      -4.102   3.074  -1.972  1.00  0.00    -0.206 F 
ATOM     89  C   UNL     1      -4.531  -0.097  -0.277  1.00  0.00     0.060 A 
BRANCH  89  90
ATOM     90  S   UNL     1      -5.638  -0.907   0.904  1.00  0.00     0.124 S 
ATOM     91  O   UNL     1      -6.396  -1.800   0.034  1.00  0.00    -0.237 OA
ATOM     92  O   UNL     1      -4.695  -1.557   1.811  1.00  0.00    -0.237 OA
ATOM     93  O   UNL     1      -6.393   0.199   1.483  1.00  0.00    -0.744 OA
ENDBRANCH  89  90
ENDBRANCH  57  82
BRANCH  69  94
ATOM     94  C   UNL     1      -1.556   0.100  -8.886  1.00  0.00     0.058 A 
ATOM     95  C   UNL     1      -2.840   0.165  -9.443  1.00  0.00     0.135 A 
ATOM     96  C   UNL     1      -0.673  -0.883  -9.364  1.00  0.00     0.135 A 
ATOM     97  F   UNL     1      -3.723   1.077  -9.007  1.00  0.00    -0.206 F 
ATOM     98  C   UNL     1      -3.232  -0.706 -10.453  1.00  0.00     0.059 A 
ATOM     99  C   UNL     1      -1.034  -1.744 -10.392  1.00  0.00     0.059 A 
ATOM    100  F   UNL     1       0.567  -0.982  -8.858  1.00  0.00    -0.206 F 
ATOM    101  C   UNL     1      -2.315  -1.645 -10.932  1.00  0.00     0.060 A 
BRANCH 101 102
ATOM    102  S   UNL     1      -2.802  -2.695 -12.315  1.00  0.00     0.124 S 
ATOM    103  O   UNL     1      -3.756  -3.597 -11.679  1.00  0.00    -0.237 OA
ATOM    104  O   UNL     1      -3.369  -1.729 -13.252  1.00  0.00    -0.237 OA
ATOM    105  O   UNL     1      -1.545  -3.306 -12.738  1.00  0.00    -0.744 OA
ENDBRANCH 101 102
ENDBRANCH  69  94
ENDBRANCH  43  44
ENDBRANCH  36  38
ENDBRANCH  35  36
ENDBRANCH  34  35
ENDBRANCH  33  34
ENDBRANCH  32  33
ENDBRANCH  31  32
ENDBRANCH   1  31
TORSDOF 23
