REMARK SMILES COc1ccccc1[C@@H]1C[N@@H+](Cc2cn3cc(C)ccc3n2)C[C@H]1C(=O)OCCOCCOC(=O)c1ccc(-c2c3nc(c(-c4c(F)cc(S(=O)(=O)[O-])cc4F)c4ccc([nH]4)c(-c4c(F)cc(S(=O)(=O)[O-])cc4F)c4nc(c(-c5c(F)cc(S(=O)(=O)[O-])cc5F)c5ccc2[nH]5)C=C4)C=C3)cc1
REMARK SMILES IDX 31 1 30 2 29 3 28 4 27 5 25 6 26 7 24 8 9 9 10 10 11 11
REMARK SMILES IDX 23 12 8 14 3 15 4 16 5 17 7 18 6 19 2 20 1 21 12 22 13 23
REMARK SMILES IDX 14 24 22 25 15 26 21 27 16 28 20 29 17 30 19 31 18 32 32 33
REMARK SMILES IDX 33 34 34 35 35 36 36 37 37 38 101 39 38 40 100 41 39 42
REMARK SMILES IDX 40 43 41 44 94 45 42 46 99 47 93 48 95 49 43 50 98 51 92 52
REMARK SMILES IDX 91 53 44 55 78 56 57 57 77 58 58 59 61 60 76 61 96 62 59 63
REMARK SMILES IDX 60 64 75 66 97 67 62 68 45 69 46 70 55 71 47 72 48 73 54 74
REMARK SMILES IDX 56 75 49 76 50 77 51 78 52 79 53 80 79 81 80 82 89 83 81 84
REMARK SMILES IDX 82 85 88 86 90 87 83 88 84 89 85 90 86 91 87 92 63 93 64 94
REMARK SMILES IDX 73 95 65 96 66 97 72 98 74 99 67 100 68 101 69 102 70 103
REMARK SMILES IDX 71 104
REMARK H PARENT 11 13 95 54 61 65
REMARK Flexibility Score: inf
ROOT
ATOM      1  C   UNL     1       2.201  -3.490   3.767  1.00  0.00     0.202 C 
ENDROOT
BRANCH   1   2
ATOM      2  O   UNL     1       2.372  -4.725   3.071  1.00  0.00    -0.374 OA
BRANCH   2   3
ATOM      3  C   UNL     1       3.687  -4.954   2.575  1.00  0.00     0.202 C 
BRANCH   3   4
ATOM      4  C   UNL     1       3.926  -4.401   1.167  1.00  0.00     0.261 C 
BRANCH   4   5
ATOM      5  O   UNL     1       3.757  -2.967   1.066  1.00  0.00    -0.463 OA
BRANCH   5   6
ATOM      6  C   UNL     1       2.646  -2.543   0.415  1.00  0.00     0.315 C 
ATOM      7  O   UNL     1       1.752  -3.294   0.030  1.00  0.00    -0.252 OA
BRANCH   6   8
ATOM      8  C   UNL     1       2.627  -1.068   0.050  1.00  0.00     0.167 C 
ATOM      9  C   UNL     1       2.796   0.034   1.096  1.00  0.00     0.098 C 
ATOM     10  C   UNL     1       3.354   1.214   0.278  1.00  0.00     0.272 C 
ATOM     11  N   UNL     1       4.082   0.649  -0.875  1.00  0.00    -0.329 N 
ATOM     12  C   UNL     1       3.695  -0.765  -1.005  1.00  0.00     0.278 C 
ATOM     13  H   UNL     1       3.796   1.176  -1.699  1.00  0.00     0.348 HD
BRANCH   9  14
ATOM     14  C   UNL     1       1.700   0.448   2.083  1.00  0.00     0.004 A 
ATOM     15  C   UNL     1       0.383   0.871   1.860  1.00  0.00     0.122 A 
ATOM     16  C   UNL     1      -0.461   1.192   2.952  1.00  0.00     0.047 A 
ATOM     17  C   UNL     1      -0.007   1.199   4.268  1.00  0.00     0.004 A 
ATOM     18  C   UNL     1       2.135   0.566   3.427  1.00  0.00     0.008 A 
ATOM     19  C   UNL     1       1.321   0.927   4.503  1.00  0.00     0.001 A 
BRANCH  15  20
ATOM     20  O   UNL     1      -0.146   1.318   0.681  1.00  0.00    -0.496 OA
ATOM     21  C   UNL     1      -0.232   0.410  -0.393  1.00  0.00     0.278 C 
ENDBRANCH  15  20
ENDBRANCH   9  14
BRANCH  11  22
ATOM     22  C   UNL     1       5.553   0.868  -0.903  1.00  0.00     0.321 C 
BRANCH  22  23
ATOM     23  C   UNL     1       6.215   0.536   0.397  1.00  0.00     0.114 A 
ATOM     24  C   UNL     1       6.724   1.415   1.341  1.00  0.00     0.122 A 
ATOM     25  N   UNL     1       6.114  -0.728   0.921  1.00  0.00    -0.228 NA
ATOM     26  N   UNL     1       6.465   0.783   2.533  1.00  0.00    -0.306 N 
ATOM     27  C   UNL     1       6.112  -0.523   2.217  1.00  0.00     0.137 A 
ATOM     28  C   UNL     1       6.272   1.358   3.785  1.00  0.00     0.096 A 
ATOM     29  C   UNL     1       5.490  -1.288   3.228  1.00  0.00     0.048 A 
ATOM     30  C   UNL     1       5.571   0.666   4.699  1.00  0.00    -0.034 A 
ATOM     31  C   UNL     1       5.153  -0.688   4.379  1.00  0.00     0.009 A 
ATOM     32  C   UNL     1       5.139   1.187   6.017  1.00  0.00     0.046 C 
ENDBRANCH  22  23
ENDBRANCH  11  22
ENDBRANCH   6   8
ENDBRANCH   5   6
ENDBRANCH   4   5
ENDBRANCH   3   4
ENDBRANCH   2   3
ENDBRANCH   1   2
BRANCH   1  33
ATOM     33  C   UNL     1       2.717  -3.525   5.209  1.00  0.00     0.261 C 
BRANCH  33  34
ATOM     34  O   UNL     1       4.157  -3.502   5.274  1.00  0.00    -0.460 OA
BRANCH  34  35
ATOM     35  C   UNL     1       4.802  -4.424   6.054  1.00  0.00     0.338 C 
ATOM     36  O   UNL     1       4.374  -5.473   6.447  1.00  0.00    -0.246 OA
BRANCH  35  37
ATOM     37  C   UNL     1       6.012  -3.717   6.571  1.00  0.00     0.060 A 
ATOM     38  C   UNL     1       6.151  -3.586   7.952  1.00  0.00     0.016 A 
ATOM     39  C   UNL     1       6.764  -2.910   5.733  1.00  0.00     0.016 A 
ATOM     40  C   UNL     1       6.776  -2.448   8.481  1.00  0.00     0.010 A 
ATOM     41  C   UNL     1       7.340  -1.758   6.263  1.00  0.00     0.010 A 
ATOM     42  C   UNL     1       7.235  -1.444   7.629  1.00  0.00    -0.014 A 
BRANCH  42  43
ATOM     43  C   UNL     1       7.789  -0.166   8.133  1.00  0.00     0.031 A 
ATOM     44  C   UNL     1       9.228  -0.026   7.808  1.00  0.00     0.074 A 
ATOM     45  C   UNL     1       7.191   0.887   8.754  1.00  0.00     0.049 A 
ATOM     46  N   UNL     1      10.187  -0.499   8.532  1.00  0.00    -0.248 NA
ATOM     47  C   UNL     1       9.657   0.468   6.491  1.00  0.00     0.031 C 
ATOM     48  C   UNL     1       5.772   1.172   8.994  1.00  0.00     0.029 A 
ATOM     49  N   UNL     1       7.784   2.031   9.236  1.00  0.00    -0.354 N 
ATOM     50  C   UNL     1      11.347  -0.112   7.888  1.00  0.00     0.074 A 
ATOM     51  C   UNL     1      10.961   0.176   6.532  1.00  0.00     0.031 C 
ATOM     52  C   UNL     1       5.608   2.485   9.310  1.00  0.00     0.029 A 
ATOM     53  C   UNL     1       6.913   3.084   9.536  1.00  0.00     0.049 A 
ATOM     54  H   UNL     1       8.757   2.103   9.363  1.00  0.00     0.167 HD
ATOM     55  C   UNL     1      12.453   0.248   8.594  1.00  0.00     0.037 A 
ATOM     56  C   UNL     1       7.235   4.328   9.997  1.00  0.00     0.037 A 
ATOM     57  C   UNL     1      12.302  -0.062  10.001  1.00  0.00     0.049 A 
ATOM     58  C   UNL     1       8.537   4.190  10.696  1.00  0.00     0.074 A 
ATOM     59  C   UNL     1      11.948  -1.193  10.717  1.00  0.00     0.029 A 
ATOM     60  N   UNL     1      12.113   0.989  10.870  1.00  0.00    -0.354 N 
ATOM     61  N   UNL     1       8.695   3.518  11.802  1.00  0.00    -0.248 NA
ATOM     62  C   UNL     1       9.748   4.437   9.934  1.00  0.00     0.031 C 
ATOM     63  C   UNL     1      11.094  -0.722  11.758  1.00  0.00     0.029 A 
ATOM     64  C   UNL     1      11.052   0.669  11.680  1.00  0.00     0.049 A 
ATOM     65  H   UNL     1      12.643   1.818  10.905  1.00  0.00     0.167 HD
ATOM     66  C   UNL     1       9.897   2.855  11.629  1.00  0.00     0.074 A 
ATOM     67  C   UNL     1      10.548   3.537  10.511  1.00  0.00     0.031 C 
ATOM     68  C   UNL     1      10.122   1.641  12.211  1.00  0.00     0.037 A 
BRANCH  55  69
ATOM     69  C   UNL     1      13.498   1.214   8.093  1.00  0.00     0.058 A 
ATOM     70  C   UNL     1      14.720   1.312   8.785  1.00  0.00     0.135 A 
ATOM     71  C   UNL     1      13.268   2.208   7.115  1.00  0.00     0.135 A 
ATOM     72  F   UNL     1      15.028   0.436   9.755  1.00  0.00    -0.206 F 
ATOM     73  C   UNL     1      15.623   2.349   8.557  1.00  0.00     0.059 A 
ATOM     74  C   UNL     1      14.185   3.208   6.824  1.00  0.00     0.059 A 
ATOM     75  F   UNL     1      12.106   2.325   6.463  1.00  0.00    -0.206 F 
ATOM     76  C   UNL     1      15.342   3.295   7.577  1.00  0.00     0.060 A 
BRANCH  76  77
ATOM     77  S   UNL     1      16.468   4.676   7.330  1.00  0.00     0.124 S 
ATOM     78  O   UNL     1      16.251   5.444   8.550  1.00  0.00    -0.237 OA
ATOM     79  O   UNL     1      17.755   3.998   7.217  1.00  0.00    -0.237 OA
ATOM     80  O   UNL     1      15.978   5.289   6.099  1.00  0.00    -0.744 OA
ENDBRANCH  76  77
ENDBRANCH  55  69
BRANCH  56  81
ATOM     81  C   UNL     1       6.661   5.682   9.725  1.00  0.00     0.058 A 
ATOM     82  C   UNL     1       7.042   6.811  10.486  1.00  0.00     0.135 A 
ATOM     83  C   UNL     1       6.006   5.959   8.511  1.00  0.00     0.135 A 
ATOM     84  F   UNL     1       7.683   6.653  11.655  1.00  0.00    -0.206 F 
ATOM     85  C   UNL     1       6.856   8.127  10.038  1.00  0.00     0.059 A 
ATOM     86  C   UNL     1       5.805   7.265   8.045  1.00  0.00     0.059 A 
ATOM     87  F   UNL     1       5.634   4.961   7.696  1.00  0.00    -0.206 F 
ATOM     88  C   UNL     1       6.261   8.344   8.798  1.00  0.00     0.060 A 
BRANCH  88  89
ATOM     89  S   UNL     1       6.208  10.026   8.118  1.00  0.00     0.124 S 
ATOM     90  O   UNL     1       5.217  10.670   8.973  1.00  0.00    -0.237 OA
ATOM     91  O   UNL     1       7.586  10.475   8.292  1.00  0.00    -0.237 OA
ATOM     92  O   UNL     1       5.797   9.816   6.733  1.00  0.00    -0.744 OA
ENDBRANCH  88  89
ENDBRANCH  56  81
BRANCH  68  93
ATOM     93  C   UNL     1       9.220   1.190  13.338  1.00  0.00     0.058 A 
ATOM     94  C   UNL     1       7.824   1.028  13.259  1.00  0.00     0.135 A 
ATOM     95  C   UNL     1       9.837   0.782  14.533  1.00  0.00     0.135 A 
ATOM     96  F   UNL     1       7.157   1.286  12.125  1.00  0.00    -0.206 F 
ATOM     97  C   UNL     1       7.077   0.534  14.333  1.00  0.00     0.059 A 
ATOM     98  C   UNL     1       9.118   0.252  15.600  1.00  0.00     0.059 A 
ATOM     99  F   UNL     1      11.172   0.860  14.662  1.00  0.00    -0.206 F 
ATOM    100  C   UNL     1       7.734   0.147  15.501  1.00  0.00     0.060 A 
BRANCH 100 101
ATOM    101  S   UNL     1       6.776  -0.544  16.867  1.00  0.00     0.124 S 
ATOM    102  O   UNL     1       6.037   0.621  17.342  1.00  0.00    -0.237 OA
ATOM    103  O   UNL     1       5.981  -1.574  16.206  1.00  0.00    -0.237 OA
ATOM    104  O   UNL     1       7.799  -1.048  17.780  1.00  0.00    -0.744 OA
ENDBRANCH 100 101
ENDBRANCH  68  93
ENDBRANCH  42  43
ENDBRANCH  35  37
ENDBRANCH  34  35
ENDBRANCH  33  34
ENDBRANCH   1  33
TORSDOF 21
