REMARK SMILES O=C1C[C@@H](C(=O)OCCOCCOC(=O)c2ccc(-c3c4nc(c(-c5c(F)cc(S(=O)(=O)[O-])cc5F)c5ccc([nH]5)c(-c5c(F)cc(S(=O)(=O)[O-])cc5F)c5nc(c(-c6c(F)cc(S(=O)(=O)[O-])cc6F)c6ccc3[nH]6)C=C5)C=C4)cc2)C2(CC[NH+](Cc3c[nH]nc3-c3ccc(Cl)cc3)CC2)N1
REMARK SMILES IDX 10 1 9 2 8 3 7 4 5 5 6 6 4 7 1 8 2 9 3 10 101 11 82 12 83 14
REMARK SMILES IDX 100 15 84 16 99 17 85 18 86 20 87 21 88 22 91 23 89 24 90 25
REMARK SMILES IDX 92 27 93 28 98 29 94 30 97 31 95 32 96 33 11 34 12 35 13 36
REMARK SMILES IDX 14 37 15 38 16 39 17 40 81 41 18 42 80 43 19 44 20 45 21 46
REMARK SMILES IDX 74 47 22 48 79 49 73 50 75 51 23 52 78 53 72 54 71 55 24 57
REMARK SMILES IDX 58 58 37 59 57 60 38 61 41 62 56 63 76 64 39 65 40 66 55 68
REMARK SMILES IDX 77 69 42 70 25 71 26 72 35 73 27 74 28 75 34 76 36 77 29 78
REMARK SMILES IDX 30 79 31 80 32 81 33 82 59 83 60 84 69 85 61 86 62 87 68 88
REMARK SMILES IDX 70 89 63 90 64 91 65 92 66 93 67 94 43 95 44 96 53 97 45 98
REMARK SMILES IDX 46 99 52 100 54 101 47 102 48 103 49 104 50 105 51 106
REMARK H PARENT 101 13 85 19 89 26 75 56 41 67
REMARK Flexibility Score: inf
ROOT
ATOM      1  O   UNL     1       4.656   3.127  -4.781  1.00  0.00    -0.374 OA
ENDROOT
BRANCH   1   2
ATOM      2  C   UNL     1       3.269   3.255  -4.476  1.00  0.00     0.202 C 
BRANCH   2   3
ATOM      3  C   UNL     1       2.569   2.015  -3.903  1.00  0.00     0.261 C 
BRANCH   3   4
ATOM      4  O   UNL     1       3.079   1.550  -2.637  1.00  0.00    -0.463 OA
BRANCH   4   5
ATOM      5  C   UNL     1       3.886   0.463  -2.697  1.00  0.00     0.311 C 
ATOM      6  O   UNL     1       4.301  -0.038  -3.738  1.00  0.00    -0.252 OA
BRANCH   5   7
ATOM      7  C   UNL     1       4.167  -0.195  -1.359  1.00  0.00     0.134 C 
ATOM      8  O   UNL     1       1.074  -0.824   0.321  1.00  0.00    -0.275 OA
ATOM      9  C   UNL     1       2.177  -0.487  -0.066  1.00  0.00     0.221 C 
ATOM     10  C   UNL     1       3.011  -1.185  -1.106  1.00  0.00     0.117 C 
ATOM     11  N   UNL     1       2.903   0.564   0.436  1.00  0.00    -0.349 N 
ATOM     12  C   UNL     1       4.275   0.602  -0.039  1.00  0.00     0.064 C 
ATOM     13  H   UNL     1       2.530   1.228   1.060  1.00  0.00     0.164 HD
ATOM     14  C   UNL     1       4.750   2.058  -0.106  1.00  0.00     0.091 C 
ATOM     15  C   UNL     1       5.142  -0.208   0.973  1.00  0.00     0.091 C 
ATOM     16  C   UNL     1       6.263   2.203  -0.184  1.00  0.00     0.264 C 
ATOM     17  C   UNL     1       6.637   0.132   0.987  1.00  0.00     0.264 C 
ATOM     18  N   UNL     1       6.955   1.548   0.910  1.00  0.00    -0.331 N 
ATOM     19  H   UNL     1       7.943   1.560   0.659  1.00  0.00     0.348 HD
BRANCH  18  20
ATOM     20  C   UNL     1       7.114   2.306   2.161  1.00  0.00     0.303 C 
BRANCH  20  21
ATOM     21  C   UNL     1       5.886   2.450   3.003  1.00  0.00     0.052 A 
ATOM     22  C   UNL     1       5.330   1.474   3.814  1.00  0.00     0.115 A 
ATOM     23  C   UNL     1       5.104   3.621   3.306  1.00  0.00     0.101 A 
ATOM     24  N   UNL     1       4.213   2.010   4.368  1.00  0.00    -0.285 N 
ATOM     25  N   UNL     1       4.068   3.307   4.103  1.00  0.00    -0.175 NA
ATOM     26  H   UNL     1       3.575   1.493   4.910  1.00  0.00     0.189 HD
BRANCH  23  27
ATOM     27  C   UNL     1       5.296   5.026   2.939  1.00  0.00     0.003 A 
ATOM     28  C   UNL     1       5.243   6.001   3.950  1.00  0.00     0.012 A 
ATOM     29  C   UNL     1       5.471   5.444   1.618  1.00  0.00     0.012 A 
ATOM     30  C   UNL     1       5.368   7.360   3.648  1.00  0.00     0.021 A 
ATOM     31  C   UNL     1       5.607   6.804   1.312  1.00  0.00     0.021 A 
ATOM     32  C   UNL     1       5.549   7.756   2.327  1.00  0.00     0.041 A 
ATOM     33  Cl  UNL     1       5.687   9.425   1.943  1.00  0.00    -0.084 Cl
ENDBRANCH  23  27
ENDBRANCH  20  21
ENDBRANCH  18  20
ENDBRANCH   5   7
ENDBRANCH   4   5
ENDBRANCH   3   4
ENDBRANCH   2   3
ENDBRANCH   1   2
BRANCH   1  34
ATOM     34  C   UNL     1       5.579   3.215  -3.696  1.00  0.00     0.202 C 
BRANCH  34  35
ATOM     35  C   UNL     1       5.667   4.582  -3.014  1.00  0.00     0.261 C 
BRANCH  35  36
ATOM     36  O   UNL     1       4.465   4.848  -2.269  1.00  0.00    -0.460 OA
BRANCH  36  37
ATOM     37  C   UNL     1       4.221   6.169  -2.107  1.00  0.00     0.338 C 
ATOM     38  O   UNL     1       5.015   7.079  -2.265  1.00  0.00    -0.246 OA
BRANCH  37  39
ATOM     39  C   UNL     1       2.784   6.380  -1.874  1.00  0.00     0.060 A 
ATOM     40  C   UNL     1       2.007   6.796  -2.961  1.00  0.00     0.016 A 
ATOM     41  C   UNL     1       2.238   6.307  -0.592  1.00  0.00     0.016 A 
ATOM     42  C   UNL     1       0.691   7.206  -2.753  1.00  0.00     0.010 A 
ATOM     43  C   UNL     1       0.916   6.717  -0.388  1.00  0.00     0.010 A 
ATOM     44  C   UNL     1       0.152   7.213  -1.459  1.00  0.00    -0.014 A 
BRANCH  44  45
ATOM     45  C   UNL     1      -1.158   7.870  -1.224  1.00  0.00     0.031 A 
ATOM     46  C   UNL     1      -1.191   9.280  -0.697  1.00  0.00     0.074 A 
ATOM     47  C   UNL     1      -2.304   7.231  -1.518  1.00  0.00     0.049 A 
ATOM     48  N   UNL     1      -2.219  10.061  -0.485  1.00  0.00    -0.248 NA
ATOM     49  C   UNL     1       0.106   9.892  -0.364  1.00  0.00     0.031 C 
ATOM     50  C   UNL     1      -2.397   5.865  -2.032  1.00  0.00     0.029 A 
ATOM     51  N   UNL     1      -3.608   7.646  -1.425  1.00  0.00    -0.354 N 
ATOM     52  C   UNL     1      -1.697  11.253   0.003  1.00  0.00     0.074 A 
ATOM     53  C   UNL     1      -0.263  11.082   0.087  1.00  0.00     0.031 C 
ATOM     54  C   UNL     1      -3.693   5.551  -2.202  1.00  0.00     0.029 A 
ATOM     55  C   UNL     1      -4.519   6.688  -1.797  1.00  0.00     0.049 A 
ATOM     56  H   UNL     1      -3.866   8.546  -1.121  1.00  0.00     0.167 HD
ATOM     57  C   UNL     1      -2.352  12.390   0.340  1.00  0.00     0.037 A 
ATOM     58  C   UNL     1      -5.867   6.720  -1.803  1.00  0.00     0.037 A 
ATOM     59  C   UNL     1      -3.781  12.553   0.257  1.00  0.00     0.049 A 
ATOM     60  C   UNL     1      -6.577   7.985  -1.402  1.00  0.00     0.074 A 
ATOM     61  C   UNL     1      -4.536  13.680   0.532  1.00  0.00     0.029 A 
ATOM     62  N   UNL     1      -4.671  11.556  -0.114  1.00  0.00    -0.354 N 
ATOM     63  N   UNL     1      -6.065   9.128  -1.010  1.00  0.00    -0.248 NA
ATOM     64  C   UNL     1      -8.045   7.972  -1.457  1.00  0.00     0.031 C 
ATOM     65  C   UNL     1      -5.887  13.350   0.372  1.00  0.00     0.029 A 
ATOM     66  C   UNL     1      -5.971  12.032  -0.048  1.00  0.00     0.049 A 
ATOM     67  H   UNL     1      -4.417  10.645  -0.385  1.00  0.00     0.167 HD
ATOM     68  C   UNL     1      -7.146   9.974  -0.786  1.00  0.00     0.074 A 
ATOM     69  C   UNL     1      -8.340   9.216  -1.102  1.00  0.00     0.031 C 
ATOM     70  C   UNL     1      -7.150  11.262  -0.361  1.00  0.00     0.037 A 
BRANCH  57  71
ATOM     71  C   UNL     1      -1.530  13.541   0.851  1.00  0.00     0.058 A 
ATOM     72  C   UNL     1      -0.706  14.296   0.001  1.00  0.00     0.135 A 
ATOM     73  C   UNL     1      -1.585  13.910   2.205  1.00  0.00     0.135 A 
ATOM     74  F   UNL     1      -0.605  13.978  -1.300  1.00  0.00    -0.206 F 
ATOM     75  C   UNL     1       0.056  15.358   0.480  1.00  0.00     0.059 A 
ATOM     76  C   UNL     1      -0.850  14.983   2.701  1.00  0.00     0.059 A 
ATOM     77  F   UNL     1      -2.357  13.223   3.062  1.00  0.00    -0.206 F 
ATOM     78  C   UNL     1      -0.020  15.691   1.833  1.00  0.00     0.060 A 
BRANCH  78  79
ATOM     79  S   UNL     1       0.976  17.070   2.442  1.00  0.00     0.124 S 
ATOM     80  O   UNL     1       2.310  16.480   2.462  1.00  0.00    -0.237 OA
ATOM     81  O   UNL     1       0.751  18.093   1.426  1.00  0.00    -0.237 OA
ATOM     82  O   UNL     1       0.397  17.355   3.752  1.00  0.00    -0.744 OA
ENDBRANCH  78  79
ENDBRANCH  57  71
BRANCH  58  83
ATOM     83  C   UNL     1      -6.627   5.508  -2.207  1.00  0.00     0.058 A 
ATOM     84  C   UNL     1      -7.307   5.447  -3.431  1.00  0.00     0.135 A 
ATOM     85  C   UNL     1      -6.656   4.370  -1.384  1.00  0.00     0.135 A 
ATOM     86  F   UNL     1      -7.316   6.512  -4.247  1.00  0.00    -0.206 F 
ATOM     87  C   UNL     1      -7.992   4.303  -3.827  1.00  0.00     0.059 A 
ATOM     88  C   UNL     1      -7.315   3.207  -1.768  1.00  0.00     0.059 A 
ATOM     89  F   UNL     1      -6.012   4.375  -0.207  1.00  0.00    -0.206 F 
ATOM     90  C   UNL     1      -7.985   3.184  -2.990  1.00  0.00     0.060 A 
BRANCH  90  91
ATOM     91  S   UNL     1      -8.814   1.679  -3.546  1.00  0.00     0.124 S 
ATOM     92  O   UNL     1     -10.217   2.030  -3.362  1.00  0.00    -0.237 OA
ATOM     93  O   UNL     1      -8.359   1.571  -4.929  1.00  0.00    -0.237 OA
ATOM     94  O   UNL     1      -8.294   0.657  -2.642  1.00  0.00    -0.744 OA
ENDBRANCH  90  91
ENDBRANCH  58  83
BRANCH  70  95
ATOM     95  C   UNL     1      -8.484  11.943  -0.224  1.00  0.00     0.058 A 
ATOM     96  C   UNL     1      -9.357  11.643   0.833  1.00  0.00     0.135 A 
ATOM     97  C   UNL     1      -8.870  12.944  -1.130  1.00  0.00     0.135 A 
ATOM     98  F   UNL     1      -9.038  10.690   1.723  1.00  0.00    -0.206 F 
ATOM     99  C   UNL     1     -10.577  12.297   0.976  1.00  0.00     0.059 A 
ATOM    100  C   UNL     1     -10.075  13.628  -0.993  1.00  0.00     0.059 A 
ATOM    101  F   UNL     1      -8.067  13.277  -2.153  1.00  0.00    -0.206 F 
ATOM    102  C   UNL     1     -10.927  13.289   0.058  1.00  0.00     0.060 A 
BRANCH 102 103
ATOM    103  S   UNL     1     -12.498  14.154   0.270  1.00  0.00     0.124 S 
ATOM    104  O   UNL     1     -13.450  13.154  -0.202  1.00  0.00    -0.237 OA
ATOM    105  O   UNL     1     -12.518  14.421   1.705  1.00  0.00    -0.237 OA
ATOM    106  O   UNL     1     -12.352  15.334  -0.577  1.00  0.00    -0.744 OA
ENDBRANCH 102 103
ENDBRANCH  70  95
ENDBRANCH  44  45
ENDBRANCH  37  39
ENDBRANCH  36  37
ENDBRANCH  35  36
ENDBRANCH  34  35
ENDBRANCH   1  34
TORSDOF 20
