REMARK SMILES Cc1ccc(S(=O)(=O)N2c3ccc(C(=O)OCCOCCOC(=O)c4ccc(-c5c6nc(c(-c7c(F)cc(S(=O)(=O)[O-])cc7F)c7ccc([nH]7)c(-c7c(F)cc(S(=O)(=O)[O-])cc7F)c7nc(c(-c8c(F)cc(S(=O)(=O)[O-])cc8F)c8ccc5[nH]8)C=C7)C=C6)cc4)cc3C[C@H]2C)cc1
REMARK SMILES IDX 20 1 19 2 18 3 17 4 16 5 14 6 15 7 13 8 9 9 10 10 94 11
REMARK SMILES IDX 11 12 92 13 93 14 95 15 12 16 91 17 6 18 7 19 8 20 5 21 1 22
REMARK SMILES IDX 2 23 3 24 97 25 4 26 96 27 21 28 22 29 23 30 24 31 25 32
REMARK SMILES IDX 26 33 90 34 27 35 89 36 28 37 29 38 30 39 83 40 31 41 88 42
REMARK SMILES IDX 82 43 84 44 32 45 87 46 81 47 80 48 33 50 67 51 46 52 66 53
REMARK SMILES IDX 47 54 50 55 65 56 85 57 48 58 49 59 64 61 86 62 51 63 34 64
REMARK SMILES IDX 35 65 44 66 36 67 37 68 43 69 45 70 38 71 39 72 40 73 41 74
REMARK SMILES IDX 42 75 68 76 69 77 78 78 70 79 71 80 77 81 79 82 72 83 73 84
REMARK SMILES IDX 74 85 75 86 76 87 52 88 53 89 62 90 54 91 55 92 61 93 63 94
REMARK SMILES IDX 56 95 57 96 58 97 59 98 60 99
REMARK H PARENT 84 49 50 60
REMARK Flexibility Score: inf
ROOT
ATOM      1  C   UNL     1      -9.783   6.289   1.060  1.00  0.00     0.202 C 
ENDROOT
BRANCH   1   2
ATOM      2  O   UNL     1     -10.059   4.948   0.726  1.00  0.00    -0.374 OA
BRANCH   2   3
ATOM      3  C   UNL     1     -10.310   4.107   1.848  1.00  0.00     0.202 C 
BRANCH   3   4
ATOM      4  C   UNL     1     -10.686   2.789   1.277  1.00  0.00     0.261 C 
BRANCH   4   5
ATOM      5  O   UNL     1      -9.544   2.104   0.773  1.00  0.00    -0.460 OA
BRANCH   5   6
ATOM      6  C   UNL     1      -9.075   2.405  -0.460  1.00  0.00     0.338 C 
ATOM      7  O   UNL     1      -9.591   3.037  -1.367  1.00  0.00    -0.246 OA
BRANCH   6   8
ATOM      8  C   UNL     1      -7.681   1.984  -0.403  1.00  0.00     0.060 A 
ATOM      9  N   UNL     1      -3.643   1.697   0.411  1.00  0.00    -0.263 N 
ATOM     10  C   UNL     1      -5.068   1.714   0.245  1.00  0.00     0.055 A 
ATOM     11  C   UNL     1      -3.201   2.988  -0.262  1.00  0.00     0.101 C 
ATOM     12  C   UNL     1      -5.958   0.875   0.879  1.00  0.00     0.028 A 
ATOM     13  C   UNL     1      -5.454   2.641  -0.728  1.00  0.00    -0.021 A 
ATOM     14  C   UNL     1      -4.286   3.369  -1.284  1.00  0.00     0.063 C 
ATOM     15  C   UNL     1      -3.098   4.052   0.847  1.00  0.00     0.032 C 
ATOM     16  C   UNL     1      -7.284   0.988   0.521  1.00  0.00     0.018 A 
ATOM     17  C   UNL     1      -6.768   2.783  -1.085  1.00  0.00     0.021 A 
BRANCH   9  18
ATOM     18  S   UNL     1      -3.063   0.204  -0.226  1.00  0.00     0.264 S 
ATOM     19  O   UNL     1      -3.224   0.233  -1.665  1.00  0.00    -0.201 OA
ATOM     20  O   UNL     1      -3.617  -0.876   0.571  1.00  0.00    -0.201 OA
BRANCH  18  21
ATOM     21  C   UNL     1      -1.325   0.115   0.061  1.00  0.00     0.088 A 
ATOM     22  C   UNL     1       2.929  -0.257   0.013  1.00  0.00     0.044 C 
ATOM     23  C   UNL     1       1.440  -0.138   0.087  1.00  0.00    -0.051 A 
ATOM     24  C   UNL     1       0.641  -1.268  -0.115  1.00  0.00     0.005 A 
ATOM     25  C   UNL     1       0.842   1.094   0.371  1.00  0.00     0.005 A 
ATOM     26  C   UNL     1      -0.741  -1.140  -0.141  1.00  0.00     0.022 A 
ATOM     27  C   UNL     1      -0.543   1.214   0.394  1.00  0.00     0.022 A 
ENDBRANCH  18  21
ENDBRANCH   9  18
ENDBRANCH   6   8
ENDBRANCH   5   6
ENDBRANCH   4   5
ENDBRANCH   3   4
ENDBRANCH   2   3
ENDBRANCH   1   2
BRANCH   1  28
ATOM     28  C   UNL     1     -10.882   6.945   1.910  1.00  0.00     0.261 C 
BRANCH  28  29
ATOM     29  O   UNL     1     -12.123   6.977   1.174  1.00  0.00    -0.460 OA
BRANCH  29  30
ATOM     30  C   UNL     1     -13.119   6.160   1.631  1.00  0.00     0.338 C 
ATOM     31  O   UNL     1     -13.622   6.232   2.736  1.00  0.00    -0.246 OA
BRANCH  30  32
ATOM     32  C   UNL     1     -13.415   5.113   0.609  1.00  0.00     0.060 A 
ATOM     33  C   UNL     1     -14.105   3.927   0.946  1.00  0.00     0.016 A 
ATOM     34  C   UNL     1     -12.771   5.218  -0.619  1.00  0.00     0.016 A 
ATOM     35  C   UNL     1     -14.045   2.804   0.100  1.00  0.00     0.010 A 
ATOM     36  C   UNL     1     -12.616   4.087  -1.380  1.00  0.00     0.010 A 
ATOM     37  C   UNL     1     -13.240   2.873  -1.032  1.00  0.00    -0.014 A 
BRANCH  37  38
ATOM     38  C   UNL     1     -12.860   1.778  -1.929  1.00  0.00     0.031 A 
ATOM     39  C   UNL     1     -13.234   1.960  -3.347  1.00  0.00     0.074 A 
ATOM     40  C   UNL     1     -11.882   0.916  -1.556  1.00  0.00     0.049 A 
ATOM     41  N   UNL     1     -12.971   1.129  -4.282  1.00  0.00    -0.248 NA
ATOM     42  C   UNL     1     -13.921   3.154  -3.840  1.00  0.00     0.031 C 
ATOM     43  C   UNL     1     -10.916   0.174  -2.368  1.00  0.00     0.029 A 
ATOM     44  N   UNL     1     -11.561   0.509  -0.265  1.00  0.00    -0.354 N 
ATOM     45  C   UNL     1     -13.113   1.786  -5.484  1.00  0.00     0.074 A 
ATOM     46  C   UNL     1     -13.747   3.035  -5.156  1.00  0.00     0.031 C 
ATOM     47  C   UNL     1     -10.337  -0.787  -1.619  1.00  0.00     0.029 A 
ATOM     48  C   UNL     1     -10.960  -0.752  -0.304  1.00  0.00     0.049 A 
ATOM     49  H   UNL     1     -11.731   1.030   0.552  1.00  0.00     0.167 HD
ATOM     50  C   UNL     1     -12.538   1.223  -6.585  1.00  0.00     0.037 A 
ATOM     51  C   UNL     1     -11.591  -1.746   0.371  1.00  0.00     0.037 A 
ATOM     52  C   UNL     1     -11.967  -0.090  -6.216  1.00  0.00     0.049 A 
ATOM     53  C   UNL     1     -12.244  -2.583  -0.703  1.00  0.00     0.074 A 
ATOM     54  C   UNL     1     -10.679  -0.522  -5.942  1.00  0.00     0.029 A 
ATOM     55  N   UNL     1     -12.812  -1.053  -5.643  1.00  0.00    -0.354 N 
ATOM     56  N   UNL     1     -12.581  -2.107  -1.880  1.00  0.00    -0.248 NA
ATOM     57  C   UNL     1     -12.297  -4.040  -0.651  1.00  0.00     0.031 C 
ATOM     58  C   UNL     1     -10.770  -1.668  -5.087  1.00  0.00     0.029 A 
ATOM     59  C   UNL     1     -12.110  -1.939  -4.833  1.00  0.00     0.049 A 
ATOM     60  H   UNL     1     -13.784  -1.095  -5.795  1.00  0.00     0.167 HD
ATOM     61  C   UNL     1     -12.699  -3.138  -2.763  1.00  0.00     0.074 A 
ATOM     62  C   UNL     1     -12.581  -4.332  -1.933  1.00  0.00     0.031 C 
ATOM     63  C   UNL     1     -12.804  -3.017  -4.122  1.00  0.00     0.037 A 
BRANCH  50  64
ATOM     64  C   UNL     1     -12.285   1.984  -7.879  1.00  0.00     0.058 A 
ATOM     65  C   UNL     1     -11.225   1.627  -8.740  1.00  0.00     0.135 A 
ATOM     66  C   UNL     1     -13.036   3.096  -8.327  1.00  0.00     0.135 A 
ATOM     67  F   UNL     1     -10.450   0.565  -8.483  1.00  0.00    -0.206 F 
ATOM     68  C   UNL     1     -10.914   2.334  -9.911  1.00  0.00     0.059 A 
ATOM     69  C   UNL     1     -12.704   3.861  -9.453  1.00  0.00     0.059 A 
ATOM     70  F   UNL     1     -14.185   3.451  -7.740  1.00  0.00    -0.206 F 
ATOM     71  C   UNL     1     -11.650   3.459 -10.255  1.00  0.00     0.060 A 
BRANCH  71  72
ATOM     72  S   UNL     1     -11.273   4.335 -11.787  1.00  0.00     0.124 S 
ATOM     73  O   UNL     1      -9.845   4.602 -11.653  1.00  0.00    -0.237 OA
ATOM     74  O   UNL     1     -11.644   3.348 -12.795  1.00  0.00    -0.237 OA
ATOM     75  O   UNL     1     -12.130   5.517 -11.727  1.00  0.00    -0.744 OA
ENDBRANCH  71  72
ENDBRANCH  50  64
BRANCH  51  76
ATOM     76  C   UNL     1     -12.021  -1.253   1.736  1.00  0.00     0.058 A 
ATOM     77  C   UNL     1     -10.967  -0.990   2.654  1.00  0.00     0.135 A 
ATOM     78  C   UNL     1     -13.228  -0.577   1.995  1.00  0.00     0.135 A 
ATOM     79  F   UNL     1      -9.762  -1.554   2.456  1.00  0.00    -0.206 F 
ATOM     80  C   UNL     1     -11.057  -0.041   3.682  1.00  0.00     0.059 A 
ATOM     81  C   UNL     1     -13.340   0.389   3.022  1.00  0.00     0.059 A 
ATOM     82  F   UNL     1     -14.273  -0.725   1.168  1.00  0.00    -0.206 F 
ATOM     83  C   UNL     1     -12.239   0.678   3.835  1.00  0.00     0.060 A 
BRANCH  83  84
ATOM     84  S   UNL     1     -12.219   2.137   4.929  1.00  0.00     0.124 S 
ATOM     85  O   UNL     1     -12.037   1.535   6.245  1.00  0.00    -0.237 OA
ATOM     86  O   UNL     1     -11.070   2.888   4.427  1.00  0.00    -0.237 OA
ATOM     87  O   UNL     1     -13.516   2.755   4.683  1.00  0.00    -0.744 OA
ENDBRANCH  83  84
ENDBRANCH  51  76
BRANCH  63  88
ATOM     88  C   UNL     1     -13.584  -4.032  -4.908  1.00  0.00     0.058 A 
ATOM     89  C   UNL     1     -14.604  -4.806  -4.325  1.00  0.00     0.135 A 
ATOM     90  C   UNL     1     -13.462  -4.119  -6.311  1.00  0.00     0.135 A 
ATOM     91  F   UNL     1     -14.915  -4.708  -3.023  1.00  0.00    -0.206 F 
ATOM     92  C   UNL     1     -15.373  -5.691  -5.062  1.00  0.00     0.059 A 
ATOM     93  C   UNL     1     -14.282  -4.933  -7.079  1.00  0.00     0.059 A 
ATOM     94  F   UNL     1     -12.556  -3.400  -6.991  1.00  0.00    -0.206 F 
ATOM     95  C   UNL     1     -15.202  -5.749  -6.439  1.00  0.00     0.060 A 
BRANCH  95  96
ATOM     96  S   UNL     1     -16.208  -6.893  -7.384  1.00  0.00     0.124 S 
ATOM     97  O   UNL     1     -15.459  -8.134  -7.212  1.00  0.00    -0.237 OA
ATOM     98  O   UNL     1     -17.494  -6.830  -6.697  1.00  0.00    -0.237 OA
ATOM     99  O   UNL     1     -16.192  -6.324  -8.727  1.00  0.00    -0.744 OA
ENDBRANCH  95  96
ENDBRANCH  63  88
ENDBRANCH  37  38
ENDBRANCH  30  32
ENDBRANCH  29  30
ENDBRANCH  28  29
ENDBRANCH   1  28
TORSDOF 19
