REMARK SMILES Cc1c(C)c2c(c(C)c1O)CC[C@@](C)(C(=O)OCCOCCOC(=O)c1ccc(-c3c4nc(c(-c5c(F)cc(S(=O)(=O)[O-])cc5F)c5ccc([nH]5)c(-c5c(F)cc(S(=O)(=O)[O-])cc5F)c5nc(c(-c6c(F)cc(S(=O)(=O)[O-])cc6F)c6ccc3[nH]6)C=C5)C=C4)cc1)O2
REMARK SMILES IDX 21 1 20 2 19 3 18 4 17 5 15 6 16 7 13 8 1 9 2 10 3 11 9 12
REMARK SMILES IDX 4 13 5 14 7 15 6 16 92 17 8 18 11 19 12 20 14 21 10 22 22 24
REMARK SMILES IDX 23 25 24 26 25 27 26 28 27 29 91 30 28 31 90 32 29 33 30 34
REMARK SMILES IDX 31 35 84 36 32 37 89 38 83 39 85 40 33 41 88 42 82 43 81 44
REMARK SMILES IDX 34 46 68 47 47 48 67 49 48 50 51 51 66 52 86 53 49 54 50 55
REMARK SMILES IDX 65 57 87 58 52 59 35 60 36 61 45 62 37 63 38 64 44 65 46 66
REMARK SMILES IDX 39 67 40 68 41 69 42 70 43 71 69 72 70 73 79 74 71 75 72 76
REMARK SMILES IDX 78 77 80 78 73 79 74 80 75 81 76 82 77 83 53 84 54 85 63 86
REMARK SMILES IDX 55 87 56 88 62 89 64 90 57 91 58 92 59 93 60 94 61 95
REMARK H PARENT 10 23 85 45 51 56
REMARK Flexibility Score: inf
ROOT
ATOM      1  C   UNL     1      -4.461   2.122   5.928  1.00  0.00     0.202 C 
ENDROOT
BRANCH   1   2
ATOM      2  O   UNL     1      -4.690   1.404   7.139  1.00  0.00    -0.374 OA
BRANCH   2   3
ATOM      3  C   UNL     1      -4.083   1.905   8.329  1.00  0.00     0.202 C 
BRANCH   3   4
ATOM      4  C   UNL     1      -2.590   1.628   8.527  1.00  0.00     0.261 C 
BRANCH   4   5
ATOM      5  O   UNL     1      -1.774   2.252   7.520  1.00  0.00    -0.460 OA
BRANCH   5   6
ATOM      6  C   UNL     1      -1.234   1.394   6.607  1.00  0.00     0.350 C 
ATOM      7  O   UNL     1      -1.379   0.175   6.647  1.00  0.00    -0.247 OA
BRANCH   6   8
ATOM      8  C   UNL     1      -0.393   2.119   5.542  1.00  0.00     0.203 C 
ATOM      9  C   UNL     1       0.978  -0.023  -0.058  1.00  0.00     0.049 C 
ATOM     10  C   UNL     1       0.689   1.026   0.985  1.00  0.00    -0.002 A 
ATOM     11  C   UNL     1       0.073   0.689   2.208  1.00  0.00    -0.002 A 
ATOM     12  C   UNL     1       1.065   2.369   0.771  1.00  0.00     0.122 A 
ATOM     13  C   UNL     1      -0.405  -0.717   2.486  1.00  0.00     0.049 C 
ATOM     14  C   UNL     1      -0.079   1.683   3.196  1.00  0.00     0.127 A 
ATOM     15  C   UNL     1       0.829   3.376   1.726  1.00  0.00    -0.002 A 
ATOM     16  C   UNL     1       0.224   3.028   2.951  1.00  0.00     0.001 A 
ATOM     17  O   UNL     1      -0.526   1.241   4.410  1.00  0.00    -0.475 OA
ATOM     18  C   UNL     1       1.228   4.805   1.456  1.00  0.00     0.049 C 
ATOM     19  C   UNL     1      -0.068   4.071   4.004  1.00  0.00     0.044 C 
ATOM     20  C   UNL     1      -0.899   3.508   5.155  1.00  0.00     0.065 C 
ATOM     21  C   UNL     1       1.049   2.122   6.065  1.00  0.00     0.069 C 
BRANCH  12  22
ATOM     22  O   UNL     1       1.684   2.751  -0.392  1.00  0.00    -0.507 OA
ATOM     23  H   UNL     1       1.863   2.116  -1.058  1.00  0.00     0.293 HD
ENDBRANCH  12  22
ENDBRANCH   6   8
ENDBRANCH   5   6
ENDBRANCH   4   5
ENDBRANCH   3   4
ENDBRANCH   2   3
ENDBRANCH   1   2
BRANCH   1  24
ATOM     24  C   UNL     1      -5.183   3.467   5.768  1.00  0.00     0.261 C 
BRANCH  24  25
ATOM     25  O   UNL     1      -4.697   4.463   6.687  1.00  0.00    -0.460 OA
BRANCH  25  26
ATOM     26  C   UNL     1      -5.610   4.893   7.593  1.00  0.00     0.338 C 
ATOM     27  O   UNL     1      -6.796   4.595   7.641  1.00  0.00    -0.246 OA
BRANCH  26  28
ATOM     28  C   UNL     1      -4.941   5.639   8.674  1.00  0.00     0.060 A 
ATOM     29  C   UNL     1      -5.098   5.156   9.980  1.00  0.00     0.016 A 
ATOM     30  C   UNL     1      -4.249   6.828   8.435  1.00  0.00     0.016 A 
ATOM     31  C   UNL     1      -4.603   5.887  11.056  1.00  0.00     0.010 A 
ATOM     32  C   UNL     1      -3.763   7.566   9.521  1.00  0.00     0.010 A 
ATOM     33  C   UNL     1      -3.971   7.118  10.838  1.00  0.00    -0.014 A 
BRANCH  33  34
ATOM     34  C   UNL     1      -3.691   7.990  12.006  1.00  0.00     0.031 A 
ATOM     35  C   UNL     1      -4.675   9.075  12.355  1.00  0.00     0.074 A 
ATOM     36  C   UNL     1      -2.627   7.763  12.796  1.00  0.00     0.049 A 
ATOM     37  N   UNL     1      -4.678   9.892  13.376  1.00  0.00    -0.248 NA
ATOM     38  C   UNL     1      -5.810   9.258  11.435  1.00  0.00     0.031 C 
ATOM     39  C   UNL     1      -1.626   6.718  12.583  1.00  0.00     0.029 A 
ATOM     40  N   UNL     1      -2.220   8.388  13.949  1.00  0.00    -0.354 N 
ATOM     41  C   UNL     1      -5.817  10.673  13.231  1.00  0.00     0.074 A 
ATOM     42  C   UNL     1      -6.458  10.266  12.000  1.00  0.00     0.031 C 
ATOM     43  C   UNL     1      -0.725   6.767  13.580  1.00  0.00     0.029 A 
ATOM     44  C   UNL     1      -1.074   7.856  14.492  1.00  0.00     0.049 A 
ATOM     45  H   UNL     1      -2.704   9.145  14.350  1.00  0.00     0.167 HD
ATOM     46  C   UNL     1      -6.300  11.628  14.060  1.00  0.00     0.037 A 
ATOM     47  C   UNL     1      -0.386   8.209  15.597  1.00  0.00     0.037 A 
ATOM     48  C   UNL     1      -5.662  12.031  15.285  1.00  0.00     0.049 A 
ATOM     49  C   UNL     1      -0.896   9.333  16.460  1.00  0.00     0.074 A 
ATOM     50  C   UNL     1      -6.083  12.979  16.201  1.00  0.00     0.029 A 
ATOM     51  N   UNL     1      -4.465  11.517  15.762  1.00  0.00    -0.354 N 
ATOM     52  N   UNL     1      -1.994  10.039  16.328  1.00  0.00    -0.248 NA
ATOM     53  C   UNL     1      -0.077   9.710  17.622  1.00  0.00     0.031 C 
ATOM     54  C   UNL     1      -5.116  13.073  17.206  1.00  0.00     0.029 A 
ATOM     55  C   UNL     1      -4.116  12.151  16.942  1.00  0.00     0.049 A 
ATOM     56  H   UNL     1      -3.942  10.807  15.325  1.00  0.00     0.167 HD
ATOM     57  C   UNL     1      -2.006  10.930  17.398  1.00  0.00     0.074 A 
ATOM     58  C   UNL     1      -0.812  10.667  18.174  1.00  0.00     0.031 C 
ATOM     59  C   UNL     1      -2.924  11.879  17.706  1.00  0.00     0.037 A 
BRANCH  46  60
ATOM     60  C   UNL     1      -7.581  12.310  13.669  1.00  0.00     0.058 A 
ATOM     61  C   UNL     1      -8.818  11.652  13.758  1.00  0.00     0.135 A 
ATOM     62  C   UNL     1      -7.578  13.648  13.245  1.00  0.00     0.135 A 
ATOM     63  F   UNL     1      -8.874  10.366  14.141  1.00  0.00    -0.206 F 
ATOM     64  C   UNL     1     -10.006  12.291  13.421  1.00  0.00     0.059 A 
ATOM     65  C   UNL     1      -8.757  14.315  12.927  1.00  0.00     0.059 A 
ATOM     66  F   UNL     1      -6.422  14.322  13.141  1.00  0.00    -0.206 F 
ATOM     67  C   UNL     1      -9.966  13.624  13.008  1.00  0.00     0.060 A 
BRANCH  67  68
ATOM     68  S   UNL     1     -11.519  14.440  12.585  1.00  0.00     0.124 S 
ATOM     69  O   UNL     1     -11.870  13.770  11.337  1.00  0.00    -0.237 OA
ATOM     70  O   UNL     1     -12.361  14.120  13.734  1.00  0.00    -0.237 OA
ATOM     71  O   UNL     1     -11.143  15.845  12.457  1.00  0.00    -0.744 OA
ENDBRANCH  67  68
ENDBRANCH  46  60
BRANCH  47  72
ATOM     72  C   UNL     1       0.861   7.480  15.954  1.00  0.00     0.058 A 
ATOM     73  C   UNL     1       0.908   6.626  17.064  1.00  0.00     0.135 A 
ATOM     74  C   UNL     1       2.024   7.609  15.178  1.00  0.00     0.135 A 
ATOM     75  F   UNL     1      -0.174   6.479  17.844  1.00  0.00    -0.206 F 
ATOM     76  C   UNL     1       2.064   5.925  17.396  1.00  0.00     0.059 A 
ATOM     77  C   UNL     1       3.185   6.903  15.476  1.00  0.00     0.059 A 
ATOM     78  F   UNL     1       2.028   8.410  14.101  1.00  0.00    -0.206 F 
ATOM     79  C   UNL     1       3.196   6.065  16.590  1.00  0.00     0.060 A 
BRANCH  79  80
ATOM     80  S   UNL     1       4.668   5.099  16.993  1.00  0.00     0.124 S 
ATOM     81  O   UNL     1       5.125   5.753  18.214  1.00  0.00    -0.237 OA
ATOM     82  O   UNL     1       4.116   3.758  17.153  1.00  0.00    -0.237 OA
ATOM     83  O   UNL     1       5.520   5.282  15.822  1.00  0.00    -0.744 OA
ENDBRANCH  79  80
ENDBRANCH  47  72
BRANCH  59  84
ATOM     84  C   UNL     1      -2.691  12.714  18.935  1.00  0.00     0.058 A 
ATOM     85  C   UNL     1      -1.742  13.746  18.945  1.00  0.00     0.135 A 
ATOM     86  C   UNL     1      -3.505  12.559  20.069  1.00  0.00     0.135 A 
ATOM     87  F   UNL     1      -0.934  13.932  17.889  1.00  0.00    -0.206 F 
ATOM     88  C   UNL     1      -1.608  14.599  20.036  1.00  0.00     0.059 A 
ATOM     89  C   UNL     1      -3.405  13.415  21.162  1.00  0.00     0.059 A 
ATOM     90  F   UNL     1      -4.436  11.592  20.106  1.00  0.00    -0.206 F 
ATOM     91  C   UNL     1      -2.453  14.433  21.136  1.00  0.00     0.060 A 
BRANCH  91  92
ATOM     92  S   UNL     1      -2.321  15.599  22.508  1.00  0.00     0.124 S 
ATOM     93  O   UNL     1      -1.042  15.216  23.099  1.00  0.00    -0.237 OA
ATOM     94  O   UNL     1      -2.341  16.888  21.823  1.00  0.00    -0.237 OA
ATOM     95  O   UNL     1      -3.499  15.308  23.319  1.00  0.00    -0.744 OA
ENDBRANCH  91  92
ENDBRANCH  59  84
ENDBRANCH  33  34
ENDBRANCH  26  28
ENDBRANCH  25  26
ENDBRANCH  24  25
ENDBRANCH   1  24
TORSDOF 18
