REMARK SMILES C[C@H](CNS(=O)(=O)c1ccc(C(=O)OCCOCCOC(=O)c2ccc(-c3c4nc(c(-c5c(F)cc(S(=O)(=O)[O-])cc5F)c5ccc([nH]5)c(-c5c(F)cc(S(=O)(=O)[O-])cc5F)c5nc(c(-c6c(F)cc(S(=O)(=O)[O-])cc6F)c6ccc3[nH]6)C=C5)C=C4)cc2)cc1F)[NH+](C)C
REMARK SMILES IDX 16 1 15 2 14 3 12 4 13 5 11 6 8 7 9 8 90 9 10 10 89 11 91 12
REMARK SMILES IDX 5 13 6 14 7 15 4 16 3 18 2 19 1 20 92 21 93 22 94 23 17 25
REMARK SMILES IDX 18 26 19 27 20 28 21 29 22 30 23 31 24 32 88 33 25 34 87 35
REMARK SMILES IDX 26 36 27 37 28 38 81 39 29 40 86 41 80 42 82 43 30 44 85 45
REMARK SMILES IDX 79 46 78 47 31 49 65 50 44 51 64 52 45 53 48 54 63 55 83 56
REMARK SMILES IDX 46 57 47 58 62 60 84 61 49 62 32 63 33 64 42 65 34 66 35 67
REMARK SMILES IDX 41 68 43 69 36 70 37 71 38 72 39 73 40 74 66 75 67 76 76 77
REMARK SMILES IDX 68 78 69 79 75 80 77 81 70 82 71 83 72 84 73 85 74 86 50 87
REMARK SMILES IDX 51 88 60 89 52 90 53 91 59 92 61 93 54 94 55 95 56 96 57 97
REMARK SMILES IDX 58 98
REMARK H PARENT 4 17 92 24 82 48 48 59
REMARK Flexibility Score: inf
ROOT
ATOM      1  C   UNL     1       9.368  -1.065  -3.899  1.00  0.00     0.202 C 
ENDROOT
BRANCH   1   2
ATOM      2  C   UNL     1       8.469  -0.499  -5.002  1.00  0.00     0.261 C 
BRANCH   2   3
ATOM      3  O   UNL     1       7.391   0.273  -4.441  1.00  0.00    -0.460 OA
BRANCH   3   4
ATOM      4  C   UNL     1       6.159  -0.248  -4.643  1.00  0.00     0.338 C 
ATOM      5  O   UNL     1       5.875  -1.197  -5.356  1.00  0.00    -0.246 OA
BRANCH   4   6
ATOM      6  C   UNL     1       5.151   0.395  -3.764  1.00  0.00     0.063 A 
ATOM      7  C   UNL     1       3.085   1.481  -2.212  1.00  0.00     0.118 A 
ATOM      8  C   UNL     1       2.989   0.170  -2.692  1.00  0.00     0.026 A 
ATOM      9  C   UNL     1       4.219   2.237  -2.497  1.00  0.00     0.144 A 
ATOM     10  C   UNL     1       4.023  -0.373  -3.450  1.00  0.00     0.017 A 
ATOM     11  C   UNL     1       5.260   1.699  -3.269  1.00  0.00     0.056 A 
ATOM     12  F   UNL     1       4.346   3.499  -2.072  1.00  0.00    -0.205 F 
BRANCH   7  13
ATOM     13  S   UNL     1       1.664   2.175  -1.422  1.00  0.00     0.243 S 
ATOM     14  O   UNL     1       0.503   1.775  -2.185  1.00  0.00    -0.207 OA
ATOM     15  O   UNL     1       1.902   3.565  -1.106  1.00  0.00    -0.207 OA
BRANCH  13  16
ATOM     16  N   UNL     1       1.592   1.398   0.069  1.00  0.00    -0.205 NA
ATOM     17  H   UNL     1       2.520   1.474   0.485  1.00  0.00     0.141 HD
BRANCH  16  18
ATOM     18  C   UNL     1       1.207  -0.019   0.148  1.00  0.00     0.163 C 
BRANCH  18  19
ATOM     19  C   UNL     1       0.519  -0.438   1.480  1.00  0.00     0.195 C 
ATOM     20  C   UNL     1       1.172   0.192   2.718  1.00  0.00     0.076 C 
BRANCH  19  21
ATOM     21  N   UNL     1      -0.957  -0.337   1.419  1.00  0.00    -0.337 N 
ATOM     22  C   UNL     1      -1.619  -1.075   2.493  1.00  0.00     0.332 C 
ATOM     23  C   UNL     1      -1.482   1.022   1.326  1.00  0.00     0.332 C 
ATOM     24  H   UNL     1      -1.188  -0.782   0.530  1.00  0.00     0.347 HD
ENDBRANCH  19  21
ENDBRANCH  18  19
ENDBRANCH  16  18
ENDBRANCH  13  16
ENDBRANCH   7  13
ENDBRANCH   4   6
ENDBRANCH   3   4
ENDBRANCH   2   3
ENDBRANCH   1   2
BRANCH   1  25
ATOM     25  O   UNL     1       8.722  -1.962  -2.992  1.00  0.00    -0.374 OA
BRANCH  25  26
ATOM     26  C   UNL     1       8.017  -1.363  -1.902  1.00  0.00     0.202 C 
BRANCH  26  27
ATOM     27  C   UNL     1       8.883  -0.934  -0.712  1.00  0.00     0.261 C 
BRANCH  27  28
ATOM     28  O   UNL     1       9.732   0.176  -1.055  1.00  0.00    -0.460 OA
BRANCH  28  29
ATOM     29  C   UNL     1      11.058  -0.108  -1.066  1.00  0.00     0.338 C 
ATOM     30  O   UNL     1      11.586  -1.145  -0.699  1.00  0.00    -0.246 OA
BRANCH  29  31
ATOM     31  C   UNL     1      11.805   0.960  -1.762  1.00  0.00     0.060 A 
ATOM     32  C   UNL     1      12.743   0.556  -2.719  1.00  0.00     0.016 A 
ATOM     33  C   UNL     1      11.645   2.316  -1.457  1.00  0.00     0.016 A 
ATOM     34  C   UNL     1      13.566   1.498  -3.330  1.00  0.00     0.010 A 
ATOM     35  C   UNL     1      12.479   3.262  -2.070  1.00  0.00     0.010 A 
ATOM     36  C   UNL     1      13.468   2.852  -2.980  1.00  0.00    -0.014 A 
BRANCH  36  37
ATOM     37  C   UNL     1      14.499   3.791  -3.488  1.00  0.00     0.031 A 
ATOM     38  C   UNL     1      15.683   4.123  -2.620  1.00  0.00     0.074 A 
ATOM     39  C   UNL     1      14.431   4.262  -4.746  1.00  0.00     0.049 A 
ATOM     40  N   UNL     1      16.751   4.819  -2.910  1.00  0.00    -0.248 NA
ATOM     41  C   UNL     1      15.663   3.596  -1.246  1.00  0.00     0.031 C 
ATOM     42  C   UNL     1      13.348   3.991  -5.690  1.00  0.00     0.029 A 
ATOM     43  N   UNL     1      15.305   5.050  -5.452  1.00  0.00    -0.354 N 
ATOM     44  C   UNL     1      17.539   4.800  -1.765  1.00  0.00     0.074 A 
ATOM     45  C   UNL     1      16.807   4.059  -0.761  1.00  0.00     0.031 C 
ATOM     46  C   UNL     1      13.630   4.590  -6.860  1.00  0.00     0.029 A 
ATOM     47  C   UNL     1      14.906   5.295  -6.744  1.00  0.00     0.049 A 
ATOM     48  H   UNL     1      16.139   5.406  -5.069  1.00  0.00     0.167 HD
ATOM     49  C   UNL     1      18.769   5.334  -1.574  1.00  0.00     0.037 A 
ATOM     50  C   UNL     1      15.505   5.998  -7.725  1.00  0.00     0.037 A 
ATOM     51  C   UNL     1      19.496   6.075  -2.571  1.00  0.00     0.049 A 
ATOM     52  C   UNL     1      16.851   6.624  -7.473  1.00  0.00     0.074 A 
ATOM     53  C   UNL     1      20.753   6.646  -2.473  1.00  0.00     0.029 A 
ATOM     54  N   UNL     1      19.032   6.352  -3.848  1.00  0.00    -0.354 N 
ATOM     55  N   UNL     1      17.591   6.578  -6.391  1.00  0.00    -0.248 NA
ATOM     56  C   UNL     1      17.444   7.391  -8.577  1.00  0.00     0.031 C 
ATOM     57  C   UNL     1      21.033   7.300  -3.678  1.00  0.00     0.029 A 
ATOM     58  C   UNL     1      19.968   7.103  -4.541  1.00  0.00     0.049 A 
ATOM     59  H   UNL     1      18.164   6.058  -4.210  1.00  0.00     0.167 HD
ATOM     60  C   UNL     1      18.742   7.301  -6.688  1.00  0.00     0.074 A 
ATOM     61  C   UNL     1      18.609   7.755  -8.057  1.00  0.00     0.031 C 
ATOM     62  C   UNL     1      19.813   7.564  -5.898  1.00  0.00     0.037 A 
BRANCH  49  63
ATOM     63  C   UNL     1      19.410   5.138  -0.230  1.00  0.00     0.058 A 
ATOM     64  C   UNL     1      19.528   6.208   0.670  1.00  0.00     0.135 A 
ATOM     65  C   UNL     1      19.952   3.899   0.149  1.00  0.00     0.135 A 
ATOM     66  F   UNL     1      19.017   7.410   0.361  1.00  0.00    -0.206 F 
ATOM     67  C   UNL     1      20.172   6.061   1.894  1.00  0.00     0.059 A 
ATOM     68  C   UNL     1      20.584   3.724   1.377  1.00  0.00     0.059 A 
ATOM     69  F   UNL     1      19.844   2.837  -0.666  1.00  0.00    -0.206 F 
ATOM     70  C   UNL     1      20.700   4.815   2.238  1.00  0.00     0.060 A 
BRANCH  70  71
ATOM     71  S   UNL     1      21.503   4.631   3.845  1.00  0.00     0.124 S 
ATOM     72  O   UNL     1      22.752   5.357   3.640  1.00  0.00    -0.237 OA
ATOM     73  O   UNL     1      20.540   5.261   4.744  1.00  0.00    -0.237 OA
ATOM     74  O   UNL     1      21.631   3.185   3.994  1.00  0.00    -0.744 OA
ENDBRANCH  70  71
ENDBRANCH  49  63
BRANCH  50  75
ATOM     75  C   UNL     1      14.840   6.129  -9.047  1.00  0.00     0.058 A 
ATOM     76  C   UNL     1      13.695   6.924  -9.204  1.00  0.00     0.135 A 
ATOM     77  C   UNL     1      15.320   5.440 -10.170  1.00  0.00     0.135 A 
ATOM     78  F   UNL     1      13.197   7.601  -8.157  1.00  0.00    -0.206 F 
ATOM     79  C   UNL     1      13.032   7.011 -10.422  1.00  0.00     0.059 A 
ATOM     80  C   UNL     1      14.685   5.528 -11.406  1.00  0.00     0.059 A 
ATOM     81  F   UNL     1      16.422   4.681 -10.071  1.00  0.00    -0.206 F 
ATOM     82  C   UNL     1      13.530   6.302 -11.516  1.00  0.00     0.060 A 
BRANCH  82  83
ATOM     83  S   UNL     1      12.640   6.406 -13.084  1.00  0.00     0.124 S 
ATOM     84  O   UNL     1      11.453   5.608 -12.795  1.00  0.00    -0.237 OA
ATOM     85  O   UNL     1      12.422   7.843 -13.219  1.00  0.00    -0.237 OA
ATOM     86  O   UNL     1      13.574   5.822 -14.040  1.00  0.00    -0.744 OA
ENDBRANCH  82  83
ENDBRANCH  50  75
BRANCH  62  87
ATOM     87  C   UNL     1      20.923   8.385  -6.492  1.00  0.00     0.058 A 
ATOM     88  C   UNL     1      22.148   7.793  -6.834  1.00  0.00     0.135 A 
ATOM     89  C   UNL     1      20.783   9.768  -6.693  1.00  0.00     0.135 A 
ATOM     90  F   UNL     1      22.337   6.476  -6.656  1.00  0.00    -0.206 F 
ATOM     91  C   UNL     1      23.198   8.543  -7.355  1.00  0.00     0.059 A 
ATOM     92  C   UNL     1      21.811  10.533  -7.235  1.00  0.00     0.059 A 
ATOM     93  F   UNL     1      19.626  10.379  -6.391  1.00  0.00    -0.206 F 
ATOM     94  C   UNL     1      23.019   9.913  -7.553  1.00  0.00     0.060 A 
BRANCH  94  95
ATOM     95  S   UNL     1      24.368  10.866  -8.285  1.00  0.00     0.124 S 
ATOM     96  O   UNL     1      25.277  11.013  -7.153  1.00  0.00    -0.237 OA
ATOM     97  O   UNL     1      24.826   9.988  -9.358  1.00  0.00    -0.237 OA
ATOM     98  O   UNL     1      23.711  12.092  -8.728  1.00  0.00    -0.744 OA
ENDBRANCH  94  95
ENDBRANCH  62  87
ENDBRANCH  36  37
ENDBRANCH  29  31
ENDBRANCH  28  29
ENDBRANCH  27  28
ENDBRANCH  26  27
ENDBRANCH  25  26
ENDBRANCH   1  25
TORSDOF 22
