REMARK SMILES O=C(OCCOCCOC(=O)[C@H]1C[N@H+](Cc2ccc(Cl)c(Cl)c2)CC12CCCCC2)c1ccc(-c2c3nc(c(-c4c(F)cc(S(=O)(=O)[O-])cc4F)c4ccc([nH]4)c(-c4c(F)cc(S(=O)(=O)[O-])cc4F)c4nc(c(-c5c(F)cc(S(=O)(=O)[O-])cc5F)c5ccc2[nH]5)C=C4)C=C3)cc1
REMARK SMILES IDX 5 1 4 2 3 3 2 4 1 5 31 6 32 7 96 8 33 9 95 10 34 11 35 12
REMARK SMILES IDX 36 13 89 14 37 15 94 16 88 17 90 18 38 19 93 20 87 21 86 22
REMARK SMILES IDX 39 24 73 25 52 26 72 27 53 28 56 29 71 30 91 31 54 32 55 33
REMARK SMILES IDX 70 35 92 36 57 37 40 38 41 39 50 40 42 41 43 42 49 43 51 44
REMARK SMILES IDX 44 45 45 46 46 47 47 48 48 49 74 50 75 51 84 52 76 53 77 54
REMARK SMILES IDX 83 55 85 56 78 57 79 58 80 59 81 60 82 61 58 62 59 63 68 64
REMARK SMILES IDX 60 65 61 66 67 67 69 68 62 69 63 70 64 71 65 72 66 73 6 74
REMARK SMILES IDX 7 75 8 76 9 77 10 78 11 79 12 80 13 81 25 82 14 83 24 84
REMARK SMILES IDX 26 85 30 86 27 88 29 89 28 90 15 91 16 92 17 93 23 94 18 95
REMARK SMILES IDX 21 96 19 97 22 98 20 99
REMARK H PARENT 90 23 56 34 14 87
REMARK Flexibility Score: inf
ROOT
ATOM      1  C   UNL     1       3.786  -0.847   0.043  1.00  0.00     0.202 C 
ENDROOT
BRANCH   1   2
ATOM      2  C   UNL     1       3.243   0.283   0.903  1.00  0.00     0.261 C 
BRANCH   2   3
ATOM      3  O   UNL     1       1.820   0.404   0.746  1.00  0.00    -0.460 OA
BRANCH   3   4
ATOM      4  C   UNL     1       1.239   1.247  -0.152  1.00  0.00     0.338 C 
ATOM      5  O   UNL     1       0.024   1.289  -0.290  1.00  0.00    -0.246 OA
BRANCH   4   6
ATOM      6  C   UNL     1       2.102   2.189  -0.898  1.00  0.00     0.060 A 
ATOM      7  C   UNL     1       3.051   1.728  -1.804  1.00  0.00     0.016 A 
ATOM      8  C   UNL     1       1.953   3.559  -0.717  1.00  0.00     0.016 A 
ATOM      9  C   UNL     1       4.017   2.551  -2.323  1.00  0.00     0.010 A 
ATOM     10  C   UNL     1       2.768   4.424  -1.450  1.00  0.00     0.010 A 
ATOM     11  C   UNL     1       3.807   3.913  -2.250  1.00  0.00    -0.014 A 
BRANCH  11  12
ATOM     12  C   UNL     1       4.657   4.780  -3.078  1.00  0.00     0.031 A 
ATOM     13  C   UNL     1       5.446   5.836  -2.393  1.00  0.00     0.074 A 
ATOM     14  C   UNL     1       4.691   4.592  -4.413  1.00  0.00     0.049 A 
ATOM     15  N   UNL     1       5.977   6.913  -2.888  1.00  0.00    -0.248 NA
ATOM     16  C   UNL     1       5.629   5.672  -0.940  1.00  0.00     0.031 C 
ATOM     17  C   UNL     1       4.044   3.489  -5.141  1.00  0.00     0.029 A 
ATOM     18  N   UNL     1       5.291   5.319  -5.404  1.00  0.00    -0.354 N 
ATOM     19  C   UNL     1       6.478   7.608  -1.798  1.00  0.00     0.074 A 
ATOM     20  C   UNL     1       6.207   6.818  -0.617  1.00  0.00     0.031 C 
ATOM     21  C   UNL     1       4.297   3.604  -6.450  1.00  0.00     0.029 A 
ATOM     22  C   UNL     1       4.994   4.859  -6.667  1.00  0.00     0.049 A 
ATOM     23  H   UNL     1       5.875   6.093  -5.232  1.00  0.00     0.167 HD
ATOM     24  C   UNL     1       7.075   8.820  -1.812  1.00  0.00     0.037 A 
ATOM     25  C   UNL     1       5.179   5.440  -7.865  1.00  0.00     0.037 A 
ATOM     26  C   UNL     1       7.314   9.534  -3.037  1.00  0.00     0.049 A 
ATOM     27  C   UNL     1       5.799   6.804  -7.860  1.00  0.00     0.074 A 
ATOM     28  C   UNL     1       7.865  10.785  -3.223  1.00  0.00     0.029 A 
ATOM     29  N   UNL     1       7.008   9.034  -4.302  1.00  0.00    -0.354 N 
ATOM     30  N   UNL     1       6.182   7.522  -6.828  1.00  0.00    -0.248 NA
ATOM     31  C   UNL     1       5.995   7.452  -9.158  1.00  0.00     0.031 C 
ATOM     32  C   UNL     1       7.853  11.057  -4.596  1.00  0.00     0.029 A 
ATOM     33  C   UNL     1       7.353   9.952  -5.274  1.00  0.00     0.049 A 
ATOM     34  H   UNL     1       6.604   8.153  -4.477  1.00  0.00     0.167 HD
ATOM     35  C   UNL     1       6.691   8.700  -7.349  1.00  0.00     0.074 A 
ATOM     36  C   UNL     1       6.563   8.596  -8.793  1.00  0.00     0.031 C 
ATOM     37  C   UNL     1       7.220   9.769  -6.703  1.00  0.00     0.037 A 
BRANCH  24  38
ATOM     38  C   UNL     1       7.381   9.444  -0.479  1.00  0.00     0.058 A 
ATOM     39  C   UNL     1       8.340   8.913   0.399  1.00  0.00     0.135 A 
ATOM     40  C   UNL     1       6.624  10.539  -0.029  1.00  0.00     0.135 A 
ATOM     41  F   UNL     1       9.071   7.846   0.037  1.00  0.00    -0.206 F 
ATOM     42  C   UNL     1       8.496   9.404   1.692  1.00  0.00     0.059 A 
ATOM     43  C   UNL     1       6.785  11.068   1.248  1.00  0.00     0.059 A 
ATOM     44  F   UNL     1       5.684  11.081  -0.819  1.00  0.00    -0.206 F 
ATOM     45  C   UNL     1       7.703  10.474   2.112  1.00  0.00     0.060 A 
BRANCH  45  46
ATOM     46  S   UNL     1       7.867  11.058   3.812  1.00  0.00     0.124 S 
ATOM     47  O   UNL     1       7.197   9.992   4.551  1.00  0.00    -0.237 OA
ATOM     48  O   UNL     1       9.315  11.131   3.980  1.00  0.00    -0.237 OA
ATOM     49  O   UNL     1       7.175  12.343   3.798  1.00  0.00    -0.744 OA
ENDBRANCH  45  46
ENDBRANCH  24  38
BRANCH  25  50
ATOM     50  C   UNL     1       4.709   4.758  -9.102  1.00  0.00     0.058 A 
ATOM     51  C   UNL     1       5.620   4.233 -10.028  1.00  0.00     0.135 A 
ATOM     52  C   UNL     1       3.341   4.532  -9.340  1.00  0.00     0.135 A 
ATOM     53  F   UNL     1       6.937   4.418  -9.851  1.00  0.00    -0.206 F 
ATOM     54  C   UNL     1       5.197   3.504 -11.138  1.00  0.00     0.059 A 
ATOM     55  C   UNL     1       2.894   3.784 -10.426  1.00  0.00     0.059 A 
ATOM     56  F   UNL     1       2.423   4.993  -8.476  1.00  0.00    -0.206 F 
ATOM     57  C   UNL     1       3.832   3.276 -11.323  1.00  0.00     0.060 A 
BRANCH  57  58
ATOM     58  S   UNL     1       3.303   2.263 -12.723  1.00  0.00     0.124 S 
ATOM     59  O   UNL     1       3.578   3.149 -13.848  1.00  0.00    -0.237 OA
ATOM     60  O   UNL     1       4.172   1.096 -12.602  1.00  0.00    -0.237 OA
ATOM     61  O   UNL     1       1.891   2.014 -12.446  1.00  0.00    -0.744 OA
ENDBRANCH  57  58
ENDBRANCH  25  50
BRANCH  37  62
ATOM     62  C   UNL     1       7.764  10.871  -7.557  1.00  0.00     0.058 A 
ATOM     63  C   UNL     1       6.926  11.803  -8.181  1.00  0.00     0.135 A 
ATOM     64  C   UNL     1       9.153  11.057  -7.640  1.00  0.00     0.135 A 
ATOM     65  F   UNL     1       5.593  11.653  -8.137  1.00  0.00    -0.206 F 
ATOM     66  C   UNL     1       7.449  12.899  -8.854  1.00  0.00     0.059 A 
ATOM     67  C   UNL     1       9.697  12.159  -8.283  1.00  0.00     0.059 A 
ATOM     68  F   UNL     1       9.989  10.187  -7.050  1.00  0.00    -0.206 F 
ATOM     69  C   UNL     1       8.836  13.075  -8.885  1.00  0.00     0.060 A 
BRANCH  69  70
ATOM     70  S   UNL     1       9.498  14.557  -9.671  1.00  0.00     0.124 S 
ATOM     71  O   UNL     1       9.293  14.256 -11.084  1.00  0.00    -0.237 OA
ATOM     72  O   UNL     1       8.650  15.607  -9.115  1.00  0.00    -0.237 OA
ATOM     73  O   UNL     1      10.889  14.583  -9.228  1.00  0.00    -0.744 OA
ENDBRANCH  69  70
ENDBRANCH  37  62
ENDBRANCH  11  12
ENDBRANCH   4   6
ENDBRANCH   3   4
ENDBRANCH   2   3
ENDBRANCH   1   2
BRANCH   1  74
ATOM     74  O   UNL     1       3.233  -0.955  -1.249  1.00  0.00    -0.374 OA
BRANCH  74  75
ATOM     75  C   UNL     1       2.191  -1.889  -1.459  1.00  0.00     0.202 C 
BRANCH  75  76
ATOM     76  C   UNL     1       2.776  -3.035  -2.277  1.00  0.00     0.261 C 
BRANCH  76  77
ATOM     77  O   UNL     1       3.606  -3.830  -1.414  1.00  0.00    -0.463 OA
BRANCH  77  78
ATOM     78  C   UNL     1       4.894  -3.422  -1.167  1.00  0.00     0.315 C 
ATOM     79  O   UNL     1       5.545  -2.624  -1.822  1.00  0.00    -0.252 OA
BRANCH  78  80
ATOM     80  C   UNL     1       5.362  -4.182   0.048  1.00  0.00     0.166 C 
ATOM     81  C   UNL     1       6.161  -5.368  -0.448  1.00  0.00     0.278 C 
ATOM     82  C   UNL     1       6.132  -3.606   1.274  1.00  0.00     0.038 C 
ATOM     83  N   UNL     1       6.748  -5.933   0.758  1.00  0.00    -0.330 N 
ATOM     84  C   UNL     1       7.096  -4.789   1.609  1.00  0.00     0.270 C 
ATOM     85  C   UNL     1       6.943  -2.306   1.065  1.00  0.00     0.014 C 
ATOM     86  C   UNL     1       5.126  -3.348   2.433  1.00  0.00     0.014 C 
ATOM     87  H   UNL     1       7.599  -6.452   0.545  1.00  0.00     0.348 HD
ATOM     88  C   UNL     1       7.517  -1.710   2.366  1.00  0.00     0.001 C 
ATOM     89  C   UNL     1       5.750  -2.858   3.728  1.00  0.00     0.001 C 
ATOM     90  C   UNL     1       6.481  -1.554   3.479  1.00  0.00     0.000 C 
BRANCH  83  91
ATOM     91  C   UNL     1       6.024  -7.058   1.365  1.00  0.00     0.299 C 
BRANCH  91  92
ATOM     92  C   UNL     1       4.703  -6.793   2.063  1.00  0.00     0.008 A 
ATOM     93  C   UNL     1       3.509  -6.620   1.343  1.00  0.00     0.011 A 
ATOM     94  C   UNL     1       4.663  -6.658   3.462  1.00  0.00     0.031 A 
ATOM     95  C   UNL     1       2.345  -6.180   1.985  1.00  0.00     0.022 A 
ATOM     96  C   UNL     1       3.490  -6.251   4.112  1.00  0.00     0.060 A 
ATOM     97  C   UNL     1       2.337  -5.978   3.367  1.00  0.00     0.059 A 
ATOM     98  Cl  UNL     1       3.560  -6.026   5.824  1.00  0.00    -0.083 Cl
ATOM     99  Cl  UNL     1       0.899  -5.343   4.081  1.00  0.00    -0.083 Cl
ENDBRANCH  91  92
ENDBRANCH  83  91
ENDBRANCH  78  80
ENDBRANCH  77  78
ENDBRANCH  76  77
ENDBRANCH  75  76
ENDBRANCH  74  75
ENDBRANCH   1  74
TORSDOF 19
