REMARK SMILES CCc1ccnc(C(=O)c2[nH]c3ccc(OC(F)(F)F)cc3c2CC(=O)OCCOCCOC(=O)c2ccc(-c3c4nc(c(-c5c(F)cc(S(=O)(=O)[O-])cc5F)c5ccc([nH]5)c(-c5c(F)cc(S(=O)(=O)[O-])cc5F)c5nc(c(-c6c(F)cc(S(=O)(=O)[O-])cc6F)c6ccc3[nH]6)C=C5)C=C4)cc2)c1
REMARK SMILES IDX 29 1 28 2 27 3 25 4 26 5 24 6 23 7 10 8 11 9 12 10 22 12
REMARK SMILES IDX 13 13 21 14 14 15 15 16 8 17 9 18 7 19 3 20 4 21 102 22 5 23
REMARK SMILES IDX 6 24 2 25 1 26 16 27 17 28 18 29 19 30 20 31 30 32 31 33
REMARK SMILES IDX 32 34 33 35 34 36 35 37 36 38 37 39 101 40 38 41 100 42
REMARK SMILES IDX 39 43 40 44 41 45 94 46 42 47 99 48 93 49 95 50 43 51 98 52
REMARK SMILES IDX 92 53 91 54 44 56 78 57 57 58 77 59 58 60 61 61 76 62 96 63
REMARK SMILES IDX 59 64 60 65 75 67 97 68 62 69 45 70 46 71 55 72 47 73 48 74
REMARK SMILES IDX 54 75 56 76 49 77 50 78 51 79 52 80 53 81 79 82 80 83 89 84
REMARK SMILES IDX 81 85 82 86 88 87 90 88 83 89 84 90 85 91 86 92 87 93 63 94
REMARK SMILES IDX 64 95 73 96 65 97 66 98 72 99 74 100 67 101 68 102 69 103
REMARK SMILES IDX 70 104 71 105
REMARK H PARENT 11 11 95 55 61 66
REMARK Flexibility Score: inf
ROOT
ATOM      1  C   UNL     1       4.361   0.259   9.034  1.00  0.00     0.202 C 
ENDROOT
BRANCH   1   2
ATOM      2  C   UNL     1       5.527   0.885   8.260  1.00  0.00     0.261 C 
BRANCH   2   3
ATOM      3  O   UNL     1       5.149   1.241   6.909  1.00  0.00    -0.463 OA
BRANCH   3   4
ATOM      4  C   UNL     1       6.043   0.901   5.943  1.00  0.00     0.310 C 
ATOM      5  O   UNL     1       7.149   0.412   6.171  1.00  0.00    -0.252 OA
BRANCH   4   6
ATOM      6  C   UNL     1       5.627   1.242   4.529  1.00  0.00     0.161 C 
BRANCH   6   7
ATOM      7  C   UNL     1       4.188   1.600   4.259  1.00  0.00     0.000 A 
ATOM      8  C   UNL     1       3.132   0.725   3.987  1.00  0.00     0.093 A 
ATOM      9  N   UNL     1       2.003   1.507   3.845  1.00  0.00    -0.352 N 
ATOM     10  C   UNL     1       2.350   2.829   3.695  1.00  0.00     0.046 A 
ATOM     11  H   UNL     1       1.079   1.166   3.849  1.00  0.00     0.167 HD
ATOM     12  C   UNL     1       3.707   2.923   3.984  1.00  0.00     0.008 A 
ATOM     13  C   UNL     1       1.578   3.937   3.325  1.00  0.00     0.030 A 
ATOM     14  C   UNL     1       4.324   4.187   3.888  1.00  0.00     0.057 A 
ATOM     15  C   UNL     1       2.230   5.172   3.187  1.00  0.00     0.049 A 
ATOM     16  C   UNL     1       3.593   5.299   3.446  1.00  0.00     0.130 A 
BRANCH   8  17
ATOM     17  C   UNL     1       3.184  -0.730   3.880  1.00  0.00     0.227 C 
ATOM     18  O   UNL     1       4.106  -1.385   4.362  1.00  0.00    -0.285 OA
BRANCH  17  19
ATOM     19  C   UNL     1       2.146  -1.473   3.096  1.00  0.00     0.113 A 
ATOM     20  C   UNL     1       0.837  -1.784   1.100  1.00  0.00    -0.044 A 
ATOM     21  C   UNL     1       0.483  -3.042   1.604  1.00  0.00     0.024 A 
ATOM     22  C   UNL     1       1.692  -0.988   1.870  1.00  0.00     0.036 A 
ATOM     23  C   UNL     1       0.975  -3.442   2.837  1.00  0.00     0.112 A 
ATOM     24  N   UNL     1       1.789  -2.683   3.596  1.00  0.00    -0.253 NA
BRANCH  20  25
ATOM     25  C   UNL     1       0.315  -1.383  -0.260  1.00  0.00     0.032 C 
ATOM     26  C   UNL     1       0.710   0.001  -0.760  1.00  0.00     0.009 C 
ENDBRANCH  20  25
ENDBRANCH  17  19
ENDBRANCH   8  17
BRANCH  16  27
ATOM     27  O   UNL     1       4.342   6.434   3.308  1.00  0.00    -0.406 OA
BRANCH  27  28
ATOM     28  C   UNL     1       3.795   7.493   2.542  1.00  0.00     0.573 C 
ATOM     29  F   UNL     1       3.379   7.062   1.330  1.00  0.00    -0.132 F 
ATOM     30  F   UNL     1       2.766   8.079   3.187  1.00  0.00    -0.132 F 
ATOM     31  F   UNL     1       4.755   8.424   2.340  1.00  0.00    -0.132 F 
ENDBRANCH  27  28
ENDBRANCH  16  27
ENDBRANCH   6   7
ENDBRANCH   4   6
ENDBRANCH   3   4
ENDBRANCH   2   3
ENDBRANCH   1   2
BRANCH   1  32
ATOM     32  O   UNL     1       4.019  -1.084   8.672  1.00  0.00    -0.374 OA
BRANCH  32  33
ATOM     33  C   UNL     1       3.436  -1.256   7.382  1.00  0.00     0.202 C 
BRANCH  33  34
ATOM     34  C   UNL     1       1.923  -1.027   7.304  1.00  0.00     0.261 C 
BRANCH  34  35
ATOM     35  O   UNL     1       1.537   0.244   7.851  1.00  0.00    -0.460 OA
BRANCH  35  36
ATOM     36  C   UNL     1       0.845   0.152   9.010  1.00  0.00     0.338 C 
ATOM     37  O   UNL     1       0.365  -0.862   9.504  1.00  0.00    -0.246 OA
BRANCH  36  38
ATOM     38  C   UNL     1       0.852   1.436   9.730  1.00  0.00     0.060 A 
ATOM     39  C   UNL     1       1.240   1.398  11.074  1.00  0.00     0.016 A 
ATOM     40  C   UNL     1       0.412   2.630   9.150  1.00  0.00     0.016 A 
ATOM     41  C   UNL     1       1.113   2.533  11.864  1.00  0.00     0.010 A 
ATOM     42  C   UNL     1       0.285   3.774   9.949  1.00  0.00     0.010 A 
ATOM     43  C   UNL     1       0.590   3.715  11.320  1.00  0.00    -0.014 A 
BRANCH  43  44
ATOM     44  C   UNL     1       0.252   4.817  12.253  1.00  0.00     0.031 A 
ATOM     45  C   UNL     1      -1.166   4.961  12.735  1.00  0.00     0.074 A 
ATOM     46  C   UNL     1       1.227   5.596  12.755  1.00  0.00     0.049 A 
ATOM     47  N   UNL     1      -1.647   5.731  13.677  1.00  0.00    -0.248 NA
ATOM     48  C   UNL     1      -2.177   4.121  12.072  1.00  0.00     0.031 C 
ATOM     49  C   UNL     1       2.636   5.535  12.366  1.00  0.00     0.029 A 
ATOM     50  N   UNL     1       1.186   6.570  13.719  1.00  0.00    -0.354 N 
ATOM     51  C   UNL     1      -3.010   5.459  13.732  1.00  0.00     0.074 A 
ATOM     52  C   UNL     1      -3.288   4.486  12.697  1.00  0.00     0.031 C 
ATOM     53  C   UNL     1       3.330   6.420  13.101  1.00  0.00     0.029 A 
ATOM     54  C   UNL     1       2.416   7.112  14.007  1.00  0.00     0.049 A 
ATOM     55  H   UNL     1       0.354   6.854  14.163  1.00  0.00     0.167 HD
ATOM     56  C   UNL     1      -3.940   5.961  14.579  1.00  0.00     0.037 A 
ATOM     57  C   UNL     1       2.765   8.047  14.911  1.00  0.00     0.037 A 
ATOM     58  C   UNL     1      -3.653   6.934  15.602  1.00  0.00     0.049 A 
ATOM     59  C   UNL     1       1.711   8.600  15.833  1.00  0.00     0.074 A 
ATOM     60  C   UNL     1      -4.519   7.507  16.517  1.00  0.00     0.029 A 
ATOM     61  N   UNL     1      -2.400   7.481  15.842  1.00  0.00    -0.354 N 
ATOM     62  N   UNL     1       0.433   8.307  15.896  1.00  0.00    -0.248 NA
ATOM     63  C   UNL     1       2.150   9.595  16.821  1.00  0.00     0.031 C 
ATOM     64  C   UNL     1      -3.797   8.429  17.285  1.00  0.00     0.029 A 
ATOM     65  C   UNL     1      -2.472   8.396  16.880  1.00  0.00     0.049 A 
ATOM     66  H   UNL     1      -1.580   7.252  15.348  1.00  0.00     0.167 HD
ATOM     67  C   UNL     1      -0.080   9.065  16.943  1.00  0.00     0.074 A 
ATOM     68  C   UNL     1       1.031   9.814  17.496  1.00  0.00     0.031 C 
ATOM     69  C   UNL     1      -1.354   9.137  17.408  1.00  0.00     0.037 A 
BRANCH  56  70
ATOM     70  C   UNL     1      -5.357   5.479  14.420  1.00  0.00     0.058 A 
ATOM     71  C   UNL     1      -5.740   4.180  14.792  1.00  0.00     0.135 A 
ATOM     72  C   UNL     1      -6.348   6.331  13.909  1.00  0.00     0.135 A 
ATOM     73  F   UNL     1      -4.830   3.317  15.270  1.00  0.00    -0.206 F 
ATOM     74  C   UNL     1      -7.050   3.734  14.637  1.00  0.00     0.059 A 
ATOM     75  C   UNL     1      -7.670   5.915  13.768  1.00  0.00     0.059 A 
ATOM     76  F   UNL     1      -6.037   7.582  13.535  1.00  0.00    -0.206 F 
ATOM     77  C   UNL     1      -8.008   4.609  14.120  1.00  0.00     0.060 A 
BRANCH  77  78
ATOM     78  S   UNL     1      -9.702   4.018  13.919  1.00  0.00     0.124 S 
ATOM     79  O   UNL     1      -9.571   3.147  12.755  1.00  0.00    -0.237 OA
ATOM     80  O   UNL     1      -9.953   3.345  15.190  1.00  0.00    -0.237 OA
ATOM     81  O   UNL     1     -10.466   5.243  13.702  1.00  0.00    -0.744 OA
ENDBRANCH  77  78
ENDBRANCH  56  70
BRANCH  57  82
ATOM     82  C   UNL     1       4.180   8.496  15.004  1.00  0.00     0.058 A 
ATOM     83  C   UNL     1       4.983   8.160  16.103  1.00  0.00     0.135 A 
ATOM     84  C   UNL     1       4.761   9.261  13.980  1.00  0.00     0.135 A 
ATOM     85  F   UNL     1       4.472   7.436  17.111  1.00  0.00    -0.206 F 
ATOM     86  C   UNL     1       6.308   8.576  16.192  1.00  0.00     0.059 A 
ATOM     87  C   UNL     1       6.090   9.667  14.034  1.00  0.00     0.059 A 
ATOM     88  F   UNL     1       4.038   9.597  12.900  1.00  0.00    -0.206 F 
ATOM     89  C   UNL     1       6.854   9.328  15.149  1.00  0.00     0.060 A 
BRANCH  89  90
ATOM     90  S   UNL     1       8.590   9.816  15.244  1.00  0.00     0.124 S 
ATOM     91  O   UNL     1       8.538  10.899  16.219  1.00  0.00    -0.237 OA
ATOM     92  O   UNL     1       9.233   8.584  15.690  1.00  0.00    -0.237 OA
ATOM     93  O   UNL     1       8.900  10.214  13.874  1.00  0.00    -0.744 OA
ENDBRANCH  89  90
ENDBRANCH  57  82
BRANCH  69  94
ATOM     94  C   UNL     1      -1.599  10.043  18.583  1.00  0.00     0.058 A 
ATOM     95  C   UNL     1      -1.573  11.440  18.454  1.00  0.00     0.135 A 
ATOM     96  C   UNL     1      -1.867   9.505  19.852  1.00  0.00     0.135 A 
ATOM     97  F   UNL     1      -1.319  12.005  17.262  1.00  0.00    -0.206 F 
ATOM     98  C   UNL     1      -1.757  12.274  19.552  1.00  0.00     0.059 A 
ATOM     99  C   UNL     1      -2.082  10.320  20.958  1.00  0.00     0.059 A 
ATOM    100  F   UNL     1      -1.920   8.175  20.026  1.00  0.00    -0.206 F 
ATOM    101  C   UNL     1      -2.002  11.704  20.802  1.00  0.00     0.060 A 
BRANCH 101 102
ATOM    102  S   UNL     1      -2.223  12.792  22.226  1.00  0.00     0.124 S 
ATOM    103  O   UNL     1      -0.845  13.168  22.523  1.00  0.00    -0.237 OA
ATOM    104  O   UNL     1      -3.067  13.853  21.684  1.00  0.00    -0.237 OA
ATOM    105  O   UNL     1      -2.868  11.931  23.213  1.00  0.00    -0.744 OA
ENDBRANCH 101 102
ENDBRANCH  69  94
ENDBRANCH  43  44
ENDBRANCH  36  38
ENDBRANCH  35  36
ENDBRANCH  34  35
ENDBRANCH  33  34
ENDBRANCH  32  33
ENDBRANCH   1  32
TORSDOF 23
