REMARK SMILES O=C(OCCOCCOC(=O)c1cc(S(=O)(=O)NNC(=O)[C@H]2C=C(c3ccccc3)N=N2)ccc1F)c1ccc(-c2c3nc(c(-c4c(F)cc(S(=O)(=O)[O-])cc4F)c4ccc([nH]4)c(-c4c(F)cc(S(=O)(=O)[O-])cc4F)c4nc(c(-c5c(F)cc(S(=O)(=O)[O-])cc5F)c5ccc2[nH]5)C=C4)C=C3)cc1
REMARK SMILES IDX 7 1 6 2 5 3 4 4 3 5 2 6 1 7 37 8 38 9 102 10 39 11 101 12
REMARK SMILES IDX 40 13 41 14 42 15 95 16 43 17 100 18 94 19 96 20 44 21 99 22
REMARK SMILES IDX 93 23 92 24 45 26 79 27 58 28 78 29 59 30 62 31 77 32 97 33
REMARK SMILES IDX 60 34 61 35 76 37 98 38 63 39 46 40 47 41 56 42 48 43 49 44
REMARK SMILES IDX 55 45 57 46 50 47 51 48 52 49 53 50 54 51 80 52 81 53 90 54
REMARK SMILES IDX 82 55 83 56 89 57 91 58 84 59 85 60 86 61 87 62 88 63 64 64
REMARK SMILES IDX 65 65 74 66 66 67 67 68 73 69 75 70 68 71 69 72 70 73 71 74
REMARK SMILES IDX 72 75 8 76 9 77 10 78 11 79 12 80 13 81 35 82 14 83 34 84
REMARK SMILES IDX 36 85 33 86 15 87 16 88 17 89 18 90 19 92 20 93 21 95 22 96
REMARK SMILES IDX 23 97 32 98 24 99 31 100 25 101 26 102 30 103 27 104 29 105
REMARK SMILES IDX 28 106
REMARK H PARENT 96 25 62 36 18 91 19 94
REMARK Flexibility Score: inf
ROOT
ATOM      1  C   UNL     1       6.984  -0.617  12.683  1.00  0.00     0.202 C 
ENDROOT
BRANCH   1   2
ATOM      2  O   UNL     1       7.168  -0.126  11.347  1.00  0.00    -0.374 OA
BRANCH   2   3
ATOM      3  C   UNL     1       7.871  -0.967  10.441  1.00  0.00     0.202 C 
BRANCH   3   4
ATOM      4  C   UNL     1       9.305  -0.572  10.091  1.00  0.00     0.261 C 
BRANCH   4   5
ATOM      5  O   UNL     1      10.239  -0.751  11.173  1.00  0.00    -0.460 OA
BRANCH   5   6
ATOM      6  C   UNL     1      10.134  -0.171  12.390  1.00  0.00     0.338 C 
ATOM      7  O   UNL     1      10.269  -0.843  13.409  1.00  0.00    -0.246 OA
BRANCH   6   8
ATOM      8  C   UNL     1      10.148   1.312  12.475  1.00  0.00     0.060 A 
ATOM      9  C   UNL     1       9.700   2.173  11.474  1.00  0.00     0.016 A 
ATOM     10  C   UNL     1      10.738   1.857  13.628  1.00  0.00     0.016 A 
ATOM     11  C   UNL     1      10.059   3.507  11.496  1.00  0.00     0.010 A 
ATOM     12  C   UNL     1      11.034   3.209  13.690  1.00  0.00     0.010 A 
ATOM     13  C   UNL     1      10.780   4.006  12.577  1.00  0.00    -0.014 A 
BRANCH  13  14
ATOM     14  C   UNL     1      11.205   5.395  12.503  1.00  0.00     0.031 A 
ATOM     15  C   UNL     1      10.104   6.392  12.411  1.00  0.00     0.074 A 
ATOM     16  C   UNL     1      12.500   5.751  12.594  1.00  0.00     0.049 A 
ATOM     17  N   UNL     1       9.865   7.251  11.473  1.00  0.00    -0.248 NA
ATOM     18  C   UNL     1       9.069   6.339  13.455  1.00  0.00     0.031 C 
ATOM     19  C   UNL     1      13.643   4.908  12.955  1.00  0.00     0.029 A 
ATOM     20  N   UNL     1      13.050   6.991  12.498  1.00  0.00    -0.354 N 
ATOM     21  C   UNL     1       8.759   7.983  11.902  1.00  0.00     0.074 A 
ATOM     22  C   UNL     1       8.226   7.286  13.044  1.00  0.00     0.031 C 
ATOM     23  C   UNL     1      14.685   5.699  13.289  1.00  0.00     0.029 A 
ATOM     24  C   UNL     1      14.324   7.084  13.039  1.00  0.00     0.049 A 
ATOM     25  H   UNL     1      12.587   7.753  12.082  1.00  0.00     0.167 HD
ATOM     26  C   UNL     1       8.475   9.224  11.422  1.00  0.00     0.037 A 
ATOM     27  C   UNL     1      14.980   8.228  13.353  1.00  0.00     0.037 A 
ATOM     28  C   UNL     1       9.141   9.486  10.176  1.00  0.00     0.049 A 
ATOM     29  C   UNL     1      14.347   9.327  12.576  1.00  0.00     0.074 A 
ATOM     30  C   UNL     1       9.109   8.912   8.920  1.00  0.00     0.029 A 
ATOM     31  N   UNL     1      10.261  10.280  10.196  1.00  0.00    -0.354 N 
ATOM     32  N   UNL     1      14.400   9.435  11.276  1.00  0.00    -0.248 NA
ATOM     33  C   UNL     1      13.290  10.095  13.218  1.00  0.00     0.031 C 
ATOM     34  C   UNL     1      10.444   9.011   8.433  1.00  0.00     0.029 A 
ATOM     35  C   UNL     1      11.200   9.672   9.403  1.00  0.00     0.049 A 
ATOM     36  H   UNL     1      10.369  11.127  10.686  1.00  0.00     0.167 HD
ATOM     37  C   UNL     1      13.160   9.937  10.906  1.00  0.00     0.074 A 
ATOM     38  C   UNL     1      12.561  10.418  12.147  1.00  0.00     0.031 C 
ATOM     39  C   UNL     1      12.620   9.670   9.681  1.00  0.00     0.037 A 
BRANCH  26  40
ATOM     40  C   UNL     1       7.849  10.316  12.253  1.00  0.00     0.058 A 
ATOM     41  C   UNL     1       7.962  10.372  13.660  1.00  0.00     0.135 A 
ATOM     42  C   UNL     1       7.362  11.485  11.633  1.00  0.00     0.135 A 
ATOM     43  F   UNL     1       8.513   9.379  14.370  1.00  0.00    -0.206 F 
ATOM     44  C   UNL     1       7.611  11.492  14.400  1.00  0.00     0.059 A 
ATOM     45  C   UNL     1       7.059  12.643  12.354  1.00  0.00     0.059 A 
ATOM     46  F   UNL     1       7.241  11.550  10.297  1.00  0.00    -0.206 F 
ATOM     47  C   UNL     1       7.192  12.636  13.738  1.00  0.00     0.060 A 
BRANCH  47  48
ATOM     48  S   UNL     1       6.952  14.127  14.719  1.00  0.00     0.124 S 
ATOM     49  O   UNL     1       5.744  13.793  15.466  1.00  0.00    -0.237 OA
ATOM     50  O   UNL     1       8.186  14.179  15.495  1.00  0.00    -0.237 OA
ATOM     51  O   UNL     1       6.803  15.172  13.711  1.00  0.00    -0.744 OA
ENDBRANCH  47  48
ENDBRANCH  26  40
BRANCH  27  52
ATOM     52  C   UNL     1      15.831   8.474  14.548  1.00  0.00     0.058 A 
ATOM     53  C   UNL     1      15.691   7.717  15.730  1.00  0.00     0.135 A 
ATOM     54  C   UNL     1      16.608   9.642  14.650  1.00  0.00     0.135 A 
ATOM     55  F   UNL     1      14.927   6.615  15.769  1.00  0.00    -0.206 F 
ATOM     56  C   UNL     1      16.247   8.112  16.943  1.00  0.00     0.059 A 
ATOM     57  C   UNL     1      17.164  10.067  15.862  1.00  0.00     0.059 A 
ATOM     58  F   UNL     1      16.778  10.433  13.579  1.00  0.00    -0.206 F 
ATOM     59  C   UNL     1      16.953   9.307  17.009  1.00  0.00     0.060 A 
BRANCH  59  60
ATOM     60  S   UNL     1      17.488   9.877  18.637  1.00  0.00     0.124 S 
ATOM     61  O   UNL     1      16.214  10.025  19.334  1.00  0.00    -0.237 OA
ATOM     62  O   UNL     1      18.327   8.769  19.086  1.00  0.00    -0.237 OA
ATOM     63  O   UNL     1      18.195  11.120  18.349  1.00  0.00    -0.744 OA
ENDBRANCH  59  60
ENDBRANCH  27  52
BRANCH  39  64
ATOM     64  C   UNL     1      13.509   9.081   8.616  1.00  0.00     0.058 A 
ATOM     65  C   UNL     1      13.618   9.759   7.393  1.00  0.00     0.135 A 
ATOM     66  C   UNL     1      14.100   7.806   8.698  1.00  0.00     0.135 A 
ATOM     67  F   UNL     1      13.027  10.955   7.231  1.00  0.00    -0.206 F 
ATOM     68  C   UNL     1      14.272   9.203   6.298  1.00  0.00     0.059 A 
ATOM     69  C   UNL     1      14.791   7.243   7.623  1.00  0.00     0.059 A 
ATOM     70  F   UNL     1      13.956   7.050   9.794  1.00  0.00    -0.206 F 
ATOM     71  C   UNL     1      14.855   7.942   6.420  1.00  0.00     0.060 A 
BRANCH  71  72
ATOM     72  S   UNL     1      15.659   7.228   4.970  1.00  0.00     0.124 S 
ATOM     73  O   UNL     1      14.523   6.980   4.087  1.00  0.00    -0.237 OA
ATOM     74  O   UNL     1      16.558   8.299   4.551  1.00  0.00    -0.237 OA
ATOM     75  O   UNL     1      16.316   6.031   5.488  1.00  0.00    -0.744 OA
ENDBRANCH  71  72
ENDBRANCH  39  64
ENDBRANCH  13  14
ENDBRANCH   6   8
ENDBRANCH   5   6
ENDBRANCH   4   5
ENDBRANCH   3   4
ENDBRANCH   2   3
ENDBRANCH   1   2
BRANCH   1  76
ATOM     76  C   UNL     1       6.112  -1.865  12.895  1.00  0.00     0.261 C 
BRANCH  76  77
ATOM     77  O   UNL     1       6.758  -3.071  12.438  1.00  0.00    -0.460 OA
BRANCH  77  78
ATOM     78  C   UNL     1       6.194  -3.683  11.363  1.00  0.00     0.341 C 
ATOM     79  O   UNL     1       5.183  -3.374  10.780  1.00  0.00    -0.246 OA
BRANCH  78  80
ATOM     80  C   UNL     1       7.165  -4.648  10.818  1.00  0.00     0.097 A 
ATOM     81  C   UNL     1       7.673  -4.419   9.536  1.00  0.00     0.040 A 
ATOM     82  C   UNL     1       7.592  -5.750  11.547  1.00  0.00     0.137 A 
ATOM     83  C   UNL     1       8.655  -5.271   9.019  1.00  0.00     0.085 A 
ATOM     84  C   UNL     1       8.538  -6.626  11.008  1.00  0.00     0.041 A 
ATOM     85  F   UNL     1       7.091  -6.005  12.763  1.00  0.00    -0.206 F 
ATOM     86  C   UNL     1       9.085  -6.384   9.743  1.00  0.00     0.025 A 
BRANCH  83  87
ATOM     87  S   UNL     1       9.325  -4.868   7.434  1.00  0.00     0.257 S 
ATOM     88  O   UNL     1       8.227  -4.444   6.592  1.00  0.00    -0.205 OA
ATOM     89  O   UNL     1      10.476  -4.030   7.673  1.00  0.00    -0.205 OA
BRANCH  87  90
ATOM     90  N   UNL     1       9.891  -6.335   6.789  1.00  0.00    -0.123 NA
ATOM     91  H   UNL     1      10.426  -6.801   7.522  1.00  0.00     0.167 HD
BRANCH  90  92
ATOM     92  N   UNL     1       8.925  -7.283   6.300  1.00  0.00    -0.275 N 
ATOM     93  C   UNL     1       8.988  -7.994   5.131  1.00  0.00     0.265 C 
ATOM     94  H   UNL     1       8.134  -7.437   6.865  1.00  0.00     0.186 HD
ATOM     95  O   UNL     1       8.177  -8.917   4.981  1.00  0.00    -0.271 OA
BRANCH  93  96
ATOM     96  C   UNL     1       9.979  -7.643   4.013  1.00  0.00     0.244 C 
ATOM     97  C   UNL     1      10.362  -6.222   3.818  1.00  0.00     0.042 C 
ATOM     98  N   UNL     1      11.282  -8.300   4.290  1.00  0.00    -0.171 NA
ATOM     99  C   UNL     1      11.695  -6.211   3.897  1.00  0.00     0.091 C 
ATOM    100  N   UNL     1      12.215  -7.456   4.157  1.00  0.00    -0.155 NA
BRANCH  99 101
ATOM    101  C   UNL     1      12.545  -5.023   3.835  1.00  0.00     0.002 A 
ATOM    102  C   UNL     1      13.557  -4.910   2.875  1.00  0.00     0.010 A 
ATOM    103  C   UNL     1      12.400  -4.004   4.784  1.00  0.00     0.010 A 
ATOM    104  C   UNL     1      14.408  -3.800   2.875  1.00  0.00     0.001 A 
ATOM    105  C   UNL     1      13.261  -2.907   4.798  1.00  0.00     0.001 A 
ATOM    106  C   UNL     1      14.267  -2.806   3.843  1.00  0.00     0.000 A 
ENDBRANCH  99 101
ENDBRANCH  93  96
ENDBRANCH  90  92
ENDBRANCH  87  90
ENDBRANCH  83  87
ENDBRANCH  78  80
ENDBRANCH  77  78
ENDBRANCH  76  77
ENDBRANCH   1  76
TORSDOF 22
