REMARK SMILES Cc1c(CC(=O)OCCOCCOC(=O)c2ccc(-c3c4nc(c(-c5c(F)cc(S(=O)(=O)[O-])cc5F)c5ccc([nH]5)c(-c5c(F)cc(S(=O)(=O)[O-])cc5F)c5nc(c(-c6c(F)cc(S(=O)(=O)[O-])cc6F)c6ccc3[nH]6)C=C5)C=C4)cc2)c(=O)oc2c(C)c3occ(-c4ccc5c(c4)OCCCO5)c3cc12
REMARK SMILES IDX 9 1 8 2 7 3 5 4 6 5 4 6 3 7 1 8 2 9 105 10 82 11 85 12
REMARK SMILES IDX 104 13 83 14 84 15 86 16 103 17 87 18 88 19 91 20 89 21
REMARK SMILES IDX 90 22 92 23 93 24 97 25 94 26 96 27 95 28 98 29 99 30 102 32
REMARK SMILES IDX 101 33 100 34 10 36 11 37 12 38 13 39 14 40 15 41 16 42
REMARK SMILES IDX 17 43 81 44 18 45 80 46 19 47 20 48 21 49 74 50 22 51 79 52
REMARK SMILES IDX 73 53 75 54 23 55 78 56 72 57 71 58 24 60 58 61 37 62 57 63
REMARK SMILES IDX 38 64 41 65 56 66 76 67 39 68 40 69 55 71 77 72 42 73 25 74
REMARK SMILES IDX 26 75 35 76 27 77 28 78 34 79 36 80 29 81 30 82 31 83 32 84
REMARK SMILES IDX 33 85 59 86 60 87 69 88 61 89 62 90 68 91 70 92 63 93 64 94
REMARK SMILES IDX 65 95 66 96 67 97 43 98 44 99 53 100 45 101 46 102 52 103
REMARK SMILES IDX 54 104 47 105 48 106 49 107 50 108 51 109
REMARK H PARENT 75 59 41 70
REMARK Flexibility Score: 90.00
ROOT
ATOM      1  C   UNL     1       3.561   3.505   1.042  1.00  0.00     0.202 C 
ENDROOT
BRANCH   1   2
ATOM      2  C   UNL     1       2.590   3.600   2.225  1.00  0.00     0.261 C 
BRANCH   2   3
ATOM      3  O   UNL     1       1.611   2.547   2.324  1.00  0.00    -0.463 OA
BRANCH   3   4
ATOM      4  C   UNL     1       0.320   2.954   2.176  1.00  0.00     0.310 C 
ATOM      5  O   UNL     1      -0.016   4.091   1.853  1.00  0.00    -0.252 OA
BRANCH   4   6
ATOM      6  C   UNL     1      -0.729   1.894   2.466  1.00  0.00     0.166 C 
BRANCH   6   7
ATOM      7  C   UNL     1      -0.278   0.460   2.488  1.00  0.00     0.052 A 
ATOM      8  C   UNL     1      -0.597   0.081  -0.002  1.00  0.00     0.046 C 
ATOM      9  C   UNL     1      -0.188  -0.322   1.397  1.00  0.00    -0.029 A 
ATOM     10  C   UNL     1       0.267  -1.703   1.580  1.00  0.00     0.022 A 
ATOM     11  C   UNL     1      -0.072  -0.108   3.851  1.00  0.00     0.340 A 
ATOM     12  C   UNL     1       0.222  -2.312   2.841  1.00  0.00     0.145 A 
ATOM     13  C   UNL     1       0.708  -2.441   0.493  1.00  0.00     0.025 A 
ATOM     14  O   UNL     1      -0.057   0.613   4.843  1.00  0.00    -0.246 OA
ATOM     15  O   UNL     1      -0.020  -1.493   3.965  1.00  0.00    -0.422 OA
ATOM     16  C   UNL     1       0.445  -3.694   3.058  1.00  0.00     0.036 A 
ATOM     17  C   UNL     1       0.947  -3.800   0.661  1.00  0.00     0.029 A 
ATOM     18  C   UNL     1       0.327  -4.385   4.377  1.00  0.00     0.052 C 
ATOM     19  C   UNL     1       0.772  -4.395   1.896  1.00  0.00     0.141 A 
ATOM     20  C   UNL     1       1.335  -4.810  -0.228  1.00  0.00     0.028 A 
ATOM     21  O   UNL     1       0.958  -5.742   1.777  1.00  0.00    -0.463 OA
ATOM     22  C   UNL     1       1.276  -5.991   0.473  1.00  0.00     0.205 A 
BRANCH  20  23
ATOM     23  C   UNL     1       1.591  -4.657  -1.629  1.00  0.00    -0.011 A 
ATOM     24  C   UNL     1       2.908  -4.590  -2.103  1.00  0.00     0.013 A 
ATOM     25  C   UNL     1       0.499  -4.544  -2.497  1.00  0.00     0.059 A 
ATOM     26  C   UNL     1       3.143  -4.664  -3.468  1.00  0.00     0.051 A 
ATOM     27  C   UNL     1       0.736  -4.619  -3.853  1.00  0.00     0.161 A 
ATOM     28  C   UNL     1       2.040  -4.830  -4.299  1.00  0.00     0.161 A 
BRANCH  27  29
ATOM     29  O   UNL     1      -0.280  -4.711  -4.759  1.00  0.00    -0.490 OA
BRANCH  29  30
ATOM     30  C   UNL     1      -0.792  -6.041  -4.804  1.00  0.00     0.233 CG0
ATOM     31  G   UNL     1       0.194  -7.156  -5.193  1.00  0.00     0.000 G0
ENDBRANCH  29  30
ENDBRANCH  27  29
BRANCH  28  32
ATOM     32  O   UNL     1       2.186  -5.687  -5.378  1.00  0.00    -0.490 OA
BRANCH  32  33
ATOM     33  C   UNL     1       1.683  -6.962  -4.902  1.00  0.00     0.233 C 
BRANCH  33  34
ATOM     34  C   UNL     1       0.194  -7.156  -5.193  1.00  0.00     0.083 CG0
ATOM     35  G   UNL     1      -0.792  -6.041  -4.804  1.00  0.00     0.000 G0
ENDBRANCH  33  34
ENDBRANCH  32  33
ENDBRANCH  28  32
ENDBRANCH  20  23
ENDBRANCH   6   7
ENDBRANCH   4   6
ENDBRANCH   3   4
ENDBRANCH   2   3
ENDBRANCH   1   2
BRANCH   1  36
ATOM     36  O   UNL     1       3.033   3.385  -0.274  1.00  0.00    -0.374 OA
BRANCH  36  37
ATOM     37  C   UNL     1       2.320   2.206  -0.630  1.00  0.00     0.202 C 
BRANCH  37  38
ATOM     38  C   UNL     1       3.081   0.887  -0.639  1.00  0.00     0.261 C 
BRANCH  38  39
ATOM     39  O   UNL     1       3.521   0.533   0.663  1.00  0.00    -0.460 OA
BRANCH  39  40
ATOM     40  C   UNL     1       4.852   0.585   0.843  1.00  0.00     0.338 C 
ATOM     41  O   UNL     1       5.680   1.131   0.101  1.00  0.00    -0.246 OA
BRANCH  40  42
ATOM     42  C   UNL     1       5.205  -0.265   1.972  1.00  0.00     0.060 A 
ATOM     43  C   UNL     1       6.555  -0.606   2.067  1.00  0.00     0.016 A 
ATOM     44  C   UNL     1       4.197  -0.984   2.638  1.00  0.00     0.016 A 
ATOM     45  C   UNL     1       6.864  -1.835   2.588  1.00  0.00     0.010 A 
ATOM     46  C   UNL     1       4.507  -2.221   3.141  1.00  0.00     0.010 A 
ATOM     47  C   UNL     1       5.819  -2.663   3.012  1.00  0.00    -0.014 A 
BRANCH  47  48
ATOM     48  C   UNL     1       6.166  -4.017   3.360  1.00  0.00     0.031 A 
ATOM     49  C   UNL     1       6.844  -4.111   4.666  1.00  0.00     0.074 A 
ATOM     50  C   UNL     1       5.841  -5.062   2.583  1.00  0.00     0.049 A 
ATOM     51  N   UNL     1       8.086  -4.372   4.901  1.00  0.00    -0.248 NA
ATOM     52  C   UNL     1       6.081  -3.652   5.837  1.00  0.00     0.031 C 
ATOM     53  C   UNL     1       4.930  -5.110   1.438  1.00  0.00     0.029 A 
ATOM     54  N   UNL     1       6.215  -6.355   2.731  1.00  0.00    -0.354 N 
ATOM     55  C   UNL     1       8.211  -4.310   6.282  1.00  0.00     0.074 A 
ATOM     56  C   UNL     1       7.021  -3.667   6.779  1.00  0.00     0.031 C 
ATOM     57  C   UNL     1       4.658  -6.405   1.149  1.00  0.00     0.029 A 
ATOM     58  C   UNL     1       5.455  -7.261   2.009  1.00  0.00     0.049 A 
ATOM     59  H   UNL     1       6.966  -6.629   3.305  1.00  0.00     0.167 HD
ATOM     60  C   UNL     1       9.164  -5.008   6.952  1.00  0.00     0.037 A 
ATOM     61  C   UNL     1       5.421  -8.598   2.236  1.00  0.00     0.037 A 
ATOM     62  C   UNL     1      10.212  -5.468   6.083  1.00  0.00     0.049 A 
ATOM     63  C   UNL     1       6.660  -8.936   2.995  1.00  0.00     0.074 A 
ATOM     64  C   UNL     1      11.148  -4.835   5.288  1.00  0.00     0.029 A 
ATOM     65  N   UNL     1      10.145  -6.762   5.623  1.00  0.00    -0.354 N 
ATOM     66  N   UNL     1       7.865  -8.832   2.500  1.00  0.00    -0.248 NA
ATOM     67  C   UNL     1       6.585  -8.925   4.450  1.00  0.00     0.031 C 
ATOM     68  C   UNL     1      11.241  -5.633   4.112  1.00  0.00     0.029 A 
ATOM     69  C   UNL     1      10.394  -6.731   4.272  1.00  0.00     0.049 A 
ATOM     70  H   UNL     1       9.954  -7.563   6.163  1.00  0.00     0.167 HD
ATOM     71  C   UNL     1       8.647  -8.350   3.543  1.00  0.00     0.074 A 
ATOM     72  C   UNL     1       7.816  -8.492   4.736  1.00  0.00     0.031 C 
ATOM     73  C   UNL     1       9.779  -7.622   3.310  1.00  0.00     0.037 A 
BRANCH  60  74
ATOM     74  C   UNL     1       8.943  -5.532   8.340  1.00  0.00     0.058 A 
ATOM     75  C   UNL     1      10.033  -5.903   9.142  1.00  0.00     0.135 A 
ATOM     76  C   UNL     1       7.663  -5.891   8.826  1.00  0.00     0.135 A 
ATOM     77  F   UNL     1      11.289  -5.645   8.747  1.00  0.00    -0.206 F 
ATOM     78  C   UNL     1       9.863  -6.599  10.340  1.00  0.00     0.059 A 
ATOM     79  C   UNL     1       7.467  -6.522  10.044  1.00  0.00     0.059 A 
ATOM     80  F   UNL     1       6.554  -5.729   8.092  1.00  0.00    -0.206 F 
ATOM     81  C   UNL     1       8.575  -6.905  10.779  1.00  0.00     0.060 A 
BRANCH  81  82
ATOM     82  S   UNL     1       8.355  -7.880  12.276  1.00  0.00     0.124 S 
ATOM     83  O   UNL     1       8.859  -9.181  11.851  1.00  0.00    -0.237 OA
ATOM     84  O   UNL     1       9.181  -7.154  13.234  1.00  0.00    -0.237 OA
ATOM     85  O   UNL     1       6.917  -7.807  12.516  1.00  0.00    -0.744 OA
ENDBRANCH  81  82
ENDBRANCH  60  74
BRANCH  61  86
ATOM     86  C   UNL     1       4.205  -9.456   2.264  1.00  0.00     0.058 A 
ATOM     87  C   UNL     1       4.297 -10.857   2.282  1.00  0.00     0.135 A 
ATOM     88  C   UNL     1       2.937  -8.917   2.557  1.00  0.00     0.135 A 
ATOM     89  F   UNL     1       5.476 -11.457   2.058  1.00  0.00    -0.206 F 
ATOM     90  C   UNL     1       3.203 -11.671   2.601  1.00  0.00     0.059 A 
ATOM     91  C   UNL     1       1.826  -9.704   2.851  1.00  0.00     0.059 A 
ATOM     92  F   UNL     1       2.764  -7.594   2.671  1.00  0.00    -0.206 F 
ATOM     93  C   UNL     1       1.973 -11.083   2.899  1.00  0.00     0.060 A 
BRANCH  93  94
ATOM     94  S   UNL     1       0.603 -12.118   3.466  1.00  0.00     0.124 S 
ATOM     95  O   UNL     1       0.333 -12.932   2.285  1.00  0.00    -0.237 OA
ATOM     96  O   UNL     1       1.199 -12.816   4.600  1.00  0.00    -0.237 OA
ATOM     97  O   UNL     1      -0.437 -11.151   3.806  1.00  0.00    -0.744 OA
ENDBRANCH  93  94
ENDBRANCH  61  86
BRANCH  73  98
ATOM     98  C   UNL     1      10.292  -7.543   1.892  1.00  0.00     0.058 A 
ATOM     99  C   UNL     1       9.609  -6.897   0.844  1.00  0.00     0.135 A 
ATOM    100  C   UNL     1      11.597  -7.982   1.626  1.00  0.00     0.135 A 
ATOM    101  F   UNL     1       8.400  -6.356   1.043  1.00  0.00    -0.206 F 
ATOM    102  C   UNL     1      10.183  -6.729  -0.418  1.00  0.00     0.059 A 
ATOM    103  C   UNL     1      12.201  -7.799   0.384  1.00  0.00     0.059 A 
ATOM    104  F   UNL     1      12.326  -8.550   2.601  1.00  0.00    -0.206 F 
ATOM    105  C   UNL     1      11.484  -7.179  -0.638  1.00  0.00     0.060 A 
BRANCH 105 106
ATOM    106  S   UNL     1      12.255  -6.882  -2.244  1.00  0.00     0.124 S 
ATOM    107  O   UNL     1      11.498  -7.773  -3.118  1.00  0.00    -0.237 OA
ATOM    108  O   UNL     1      12.026  -5.454  -2.445  1.00  0.00    -0.237 OA
ATOM    109  O   UNL     1      13.650  -7.256  -2.028  1.00  0.00    -0.744 OA
ENDBRANCH 105 106
ENDBRANCH  73  98
ENDBRANCH  47  48
ENDBRANCH  40  42
ENDBRANCH  39  40
ENDBRANCH  38  39
ENDBRANCH  37  38
ENDBRANCH  36  37
ENDBRANCH   1  36
TORSDOF 19
