REMARK SMILES COc1ccc(-c2noc(CC(=O)OCCOCCOC(=O)c3ccc(-c4c5nc(c(-c6c(F)cc(S(=O)(=O)[O-])cc6F)c6ccc([nH]6)c(-c6c(F)cc(S(=O)(=O)[O-])cc6F)c6nc(c(-c7c(F)cc(S(=O)(=O)[O-])cc7F)c7ccc4[nH]7)C=C6)C=C5)cc3)c2-c2ccc(OC)cc2)cc1
REMARK SMILES IDX 17 1 16 2 15 3 14 4 12 5 13 6 11 7 10 8 7 9 8 10 89 11 9 12
REMARK SMILES IDX 6 13 3 14 4 15 99 16 5 17 98 18 2 19 1 20 90 21 91 22 97 23
REMARK SMILES IDX 92 24 96 25 93 26 94 27 95 28 18 29 19 30 20 31 21 32 22 33
REMARK SMILES IDX 23 34 24 35 88 36 25 37 87 38 26 39 27 40 28 41 81 42 29 43
REMARK SMILES IDX 86 44 80 45 82 46 30 47 85 48 79 49 78 50 31 52 65 53 44 54
REMARK SMILES IDX 64 55 45 56 48 57 63 58 83 59 46 60 47 61 62 63 84 64 49 65
REMARK SMILES IDX 32 66 33 67 42 68 34 69 35 70 41 71 43 72 36 73 37 74 38 75
REMARK SMILES IDX 39 76 40 77 66 78 67 79 76 80 68 81 69 82 75 83 77 84 70 85
REMARK SMILES IDX 71 86 72 87 73 88 74 89 50 90 51 91 60 92 52 93 53 94 59 95
REMARK SMILES IDX 61 96 54 97 55 98 56 99 57 100 58 101
REMARK H PARENT 82 51 48 62
REMARK Flexibility Score: inf
ROOT
ATOM      1  O   UNL     1       1.089  -6.954 -10.630  1.00  0.00    -0.374 OA
ENDROOT
BRANCH   1   2
ATOM      2  C   UNL     1       0.736  -8.015  -9.742  1.00  0.00     0.202 C 
BRANCH   2   3
ATOM      3  C   UNL     1       1.832  -8.514  -8.797  1.00  0.00     0.261 C 
BRANCH   3   4
ATOM      4  O   UNL     1       2.322  -7.469  -7.937  1.00  0.00    -0.463 OA
BRANCH   4   5
ATOM      5  C   UNL     1       3.638  -7.174  -8.073  1.00  0.00     0.313 C 
ATOM      6  O   UNL     1       4.426  -7.811  -8.770  1.00  0.00    -0.252 OA
BRANCH   5   7
ATOM      7  C   UNL     1       4.103  -5.945  -7.343  1.00  0.00     0.201 C 
BRANCH   7   8
ATOM      8  C   UNL     1       3.108  -5.212  -6.521  1.00  0.00     0.156 A 
ATOM      9  C   UNL     1       1.948  -3.981  -5.082  1.00  0.00     0.122 A 
ATOM     10  N   UNL     1       1.510  -3.643  -6.302  1.00  0.00    -0.079 NA
ATOM     11  C   UNL     1       2.917  -5.026  -5.168  1.00  0.00     0.053 A 
ATOM     12  O   UNL     1       2.251  -4.394  -7.194  1.00  0.00    -0.359 OA
BRANCH   9  13
ATOM     13  C   UNL     1       1.537  -3.256  -3.886  1.00  0.00     0.005 A 
ATOM     14  C   UNL     1       0.822  -1.910  -1.529  1.00  0.00     0.118 A 
ATOM     15  C   UNL     1      -0.141  -2.596  -2.273  1.00  0.00     0.047 A 
ATOM     16  C   UNL     1       2.148  -1.906  -1.955  1.00  0.00     0.047 A 
ATOM     17  C   UNL     1       0.208  -3.254  -3.458  1.00  0.00     0.014 A 
ATOM     18  C   UNL     1       2.503  -2.574  -3.130  1.00  0.00     0.014 A 
BRANCH  14  19
ATOM     19  O   UNL     1       0.377  -1.323  -0.376  1.00  0.00    -0.497 OA
ATOM     20  C   UNL     1       1.030  -0.106  -0.029  1.00  0.00     0.278 C 
ENDBRANCH  14  19
ENDBRANCH   9  13
BRANCH  11  21
ATOM     21  C   UNL     1       3.664  -5.682  -4.120  1.00  0.00    -0.012 A 
ATOM     22  C   UNL     1       2.987  -6.396  -3.127  1.00  0.00     0.013 A 
ATOM     23  C   UNL     1       5.058  -5.579  -4.063  1.00  0.00     0.013 A 
ATOM     24  C   UNL     1       3.704  -7.016  -2.103  1.00  0.00     0.047 A 
ATOM     25  C   UNL     1       5.772  -6.213  -3.044  1.00  0.00     0.047 A 
ATOM     26  C   UNL     1       5.098  -6.938  -2.062  1.00  0.00     0.118 A 
BRANCH  26  27
ATOM     27  O   UNL     1       5.680  -7.592  -1.013  1.00  0.00    -0.497 OA
ATOM     28  C   UNL     1       7.098  -7.693  -1.034  1.00  0.00     0.278 C 
ENDBRANCH  26  27
ENDBRANCH  11  21
ENDBRANCH   7   8
ENDBRANCH   5   7
ENDBRANCH   4   5
ENDBRANCH   3   4
ENDBRANCH   2   3
ENDBRANCH   1   2
BRANCH   1  29
ATOM     29  C   UNL     1       1.198  -5.641 -10.077  1.00  0.00     0.202 C 
BRANCH  29  30
ATOM     30  C   UNL     1      -0.104  -4.944  -9.662  1.00  0.00     0.261 C 
BRANCH  30  31
ATOM     31  O   UNL     1      -0.769  -5.614  -8.575  1.00  0.00    -0.460 OA
BRANCH  31  32
ATOM     32  C   UNL     1      -1.995  -6.097  -8.880  1.00  0.00     0.338 C 
ATOM     33  O   UNL     1      -2.599  -5.957  -9.937  1.00  0.00    -0.246 OA
BRANCH  32  34
ATOM     34  C   UNL     1      -2.481  -7.003  -7.822  1.00  0.00     0.060 A 
ATOM     35  C   UNL     1      -2.941  -8.263  -8.227  1.00  0.00     0.016 A 
ATOM     36  C   UNL     1      -2.596  -6.601  -6.489  1.00  0.00     0.016 A 
ATOM     37  C   UNL     1      -3.595  -9.092  -7.321  1.00  0.00     0.010 A 
ATOM     38  C   UNL     1      -3.260  -7.436  -5.579  1.00  0.00     0.010 A 
ATOM     39  C   UNL     1      -3.808  -8.660  -6.005  1.00  0.00    -0.014 A 
BRANCH  39  40
ATOM     40  C   UNL     1      -4.772  -9.409  -5.160  1.00  0.00     0.031 A 
ATOM     41  C   UNL     1      -6.189  -8.906  -5.057  1.00  0.00     0.074 A 
ATOM     42  C   UNL     1      -4.422 -10.564  -4.564  1.00  0.00     0.049 A 
ATOM     43  N   UNL     1      -7.208  -9.417  -4.416  1.00  0.00    -0.248 NA
ATOM     44  C   UNL     1      -6.499  -7.661  -5.780  1.00  0.00     0.031 C 
ATOM     45  C   UNL     1      -3.098 -11.179  -4.626  1.00  0.00     0.029 A 
ATOM     46  N   UNL     1      -5.160 -11.430  -3.796  1.00  0.00    -0.354 N 
ATOM     47  C   UNL     1      -8.277  -8.561  -4.657  1.00  0.00     0.074 A 
ATOM     48  C   UNL     1      -7.775  -7.478  -5.475  1.00  0.00     0.031 C 
ATOM     49  C   UNL     1      -3.117 -12.326  -3.925  1.00  0.00     0.029 A 
ATOM     50  C   UNL     1      -4.447 -12.516  -3.348  1.00  0.00     0.049 A 
ATOM     51  H   UNL     1      -6.111 -11.287  -3.586  1.00  0.00     0.167 HD
ATOM     52  C   UNL     1      -9.564  -8.672  -4.249  1.00  0.00     0.037 A 
ATOM     53  C   UNL     1      -4.823 -13.540  -2.557  1.00  0.00     0.037 A 
ATOM     54  C   UNL     1     -10.065  -9.751  -3.439  1.00  0.00     0.049 A 
ATOM     55  C   UNL     1      -6.247 -13.614  -2.068  1.00  0.00     0.074 A 
ATOM     56  C   UNL     1     -11.351  -9.951  -2.969  1.00  0.00     0.029 A 
ATOM     57  N   UNL     1      -9.302 -10.815  -2.980  1.00  0.00    -0.354 N 
ATOM     58  N   UNL     1      -7.247 -12.800  -2.311  1.00  0.00    -0.248 NA
ATOM     59  C   UNL     1      -6.596 -14.752  -1.205  1.00  0.00     0.031 C 
ATOM     60  C   UNL     1     -11.358 -11.117  -2.195  1.00  0.00     0.029 A 
ATOM     61  C   UNL     1     -10.087 -11.667  -2.221  1.00  0.00     0.049 A 
ATOM     62  H   UNL     1      -8.344 -10.944  -3.166  1.00  0.00     0.167 HD
ATOM     63  C   UNL     1      -8.349 -13.344  -1.657  1.00  0.00     0.074 A 
ATOM     64  C   UNL     1      -7.894 -14.559  -1.014  1.00  0.00     0.031 C 
ATOM     65  C   UNL     1      -9.622 -12.881  -1.599  1.00  0.00     0.037 A 
BRANCH  52  66
ATOM     66  C   UNL     1     -10.516  -7.583  -4.658  1.00  0.00     0.058 A 
ATOM     67  C   UNL     1     -10.979  -7.467  -5.979  1.00  0.00     0.135 A 
ATOM     68  C   UNL     1     -10.989  -6.658  -3.714  1.00  0.00     0.135 A 
ATOM     69  F   UNL     1     -10.543  -8.314  -6.925  1.00  0.00    -0.206 F 
ATOM     70  C   UNL     1     -11.857  -6.455  -6.355  1.00  0.00     0.059 A 
ATOM     71  C   UNL     1     -11.886  -5.653  -4.063  1.00  0.00     0.059 A 
ATOM     72  F   UNL     1     -10.576  -6.723  -2.439  1.00  0.00    -0.206 F 
ATOM     73  C   UNL     1     -12.303  -5.551  -5.389  1.00  0.00     0.060 A 
BRANCH  73  74
ATOM     74  S   UNL     1     -13.443  -4.243  -5.890  1.00  0.00     0.124 S 
ATOM     75  O   UNL     1     -12.549  -3.336  -6.603  1.00  0.00    -0.237 OA
ATOM     76  O   UNL     1     -14.405  -4.964  -6.716  1.00  0.00    -0.237 OA
ATOM     77  O   UNL     1     -13.963  -3.742  -4.621  1.00  0.00    -0.744 OA
ENDBRANCH  73  74
ENDBRANCH  52  66
BRANCH  53  78
ATOM     78  C   UNL     1      -3.837 -14.586  -2.175  1.00  0.00     0.058 A 
ATOM     79  C   UNL     1      -3.930 -15.892  -2.678  1.00  0.00     0.135 A 
ATOM     80  C   UNL     1      -2.785 -14.298  -1.292  1.00  0.00     0.135 A 
ATOM     81  F   UNL     1      -4.924 -16.218  -3.517  1.00  0.00    -0.206 F 
ATOM     82  C   UNL     1      -3.024 -16.881  -2.307  1.00  0.00     0.059 A 
ATOM     83  C   UNL     1      -1.854 -15.264  -0.924  1.00  0.00     0.059 A 
ATOM     84  F   UNL     1      -2.647 -13.061  -0.790  1.00  0.00    -0.206 F 
ATOM     85  C   UNL     1      -1.988 -16.557  -1.429  1.00  0.00     0.060 A 
BRANCH  85  86
ATOM     86  S   UNL     1      -0.791 -17.834  -0.987  1.00  0.00     0.124 S 
ATOM     87  O   UNL     1      -1.558 -18.644  -0.048  1.00  0.00    -0.237 OA
ATOM     88  O   UNL     1      -0.506 -18.450  -2.279  1.00  0.00    -0.237 OA
ATOM     89  O   UNL     1       0.312 -17.072  -0.409  1.00  0.00    -0.744 OA
ENDBRANCH  85  86
ENDBRANCH  53  78
BRANCH  65  90
ATOM     90  C   UNL     1     -10.629 -13.713  -0.852  1.00  0.00     0.058 A 
ATOM     91  C   UNL     1     -10.643 -13.775   0.549  1.00  0.00     0.135 A 
ATOM     92  C   UNL     1     -11.621 -14.419  -1.551  1.00  0.00     0.135 A 
ATOM     93  F   UNL     1      -9.715 -13.120   1.264  1.00  0.00    -0.206 F 
ATOM     94  C   UNL     1     -11.591 -14.531   1.233  1.00  0.00     0.059 A 
ATOM     95  C   UNL     1     -12.593 -15.162  -0.887  1.00  0.00     0.059 A 
ATOM     96  F   UNL     1     -11.660 -14.383  -2.892  1.00  0.00    -0.206 F 
ATOM     97  C   UNL     1     -12.561 -15.223   0.505  1.00  0.00     0.060 A 
BRANCH  97  98
ATOM     98  S   UNL     1     -13.801 -16.181   1.402  1.00  0.00     0.124 S 
ATOM     99  O   UNL     1     -13.036 -17.362   1.788  1.00  0.00    -0.237 OA
ATOM    100  O   UNL     1     -14.170 -15.281   2.490  1.00  0.00    -0.237 OA
ATOM    101  O   UNL     1     -14.843 -16.406   0.404  1.00  0.00    -0.744 OA
ENDBRANCH  97  98
ENDBRANCH  65  90
ENDBRANCH  39  40
ENDBRANCH  32  34
ENDBRANCH  31  32
ENDBRANCH  30  31
ENDBRANCH  29  30
ENDBRANCH   1  29
TORSDOF 22
