REMARK SMILES O=C(Cc1ccc(NC(=O)c2ccc(N3C(=O)c4ccccc4C3=O)cc2)cc1)OCCOCCOC(=O)c1ccc(-c2c3nc(c(-c4c(F)cc(S(=O)(=O)[O-])cc4F)c4ccc([nH]4)c(-c4c(F)cc(S(=O)(=O)[O-])cc4F)c4nc(c(-c5c(F)cc(S(=O)(=O)[O-])cc5F)c5ccc2[nH]5)C=C4)C=C3)cc1
REMARK SMILES IDX 32 1 31 2 30 3 2 4 1 5 3 6 4 7 5 8 29 9 6 10 28 11 7 12 8 13
REMARK SMILES IDX 9 14 10 16 11 17 12 18 27 19 13 20 26 21 14 22 15 23 16 24
REMARK SMILES IDX 24 25 17 26 18 27 23 28 25 29 19 30 22 31 20 32 21 33 33 34
REMARK SMILES IDX 34 35 35 36 36 37 37 38 38 39 39 40 40 41 104 42 41 43
REMARK SMILES IDX 103 44 42 45 43 46 44 47 97 48 45 49 102 50 96 51 98 52
REMARK SMILES IDX 46 53 101 54 95 55 94 56 47 58 81 59 60 60 80 61 61 62 64 63
REMARK SMILES IDX 79 64 99 65 62 66 63 67 78 69 100 70 65 71 48 72 49 73 58 74
REMARK SMILES IDX 50 75 51 76 57 77 59 78 52 79 53 80 54 81 55 82 56 83 82 84
REMARK SMILES IDX 83 85 92 86 84 87 85 88 91 89 93 90 86 91 87 92 88 93 89 94
REMARK SMILES IDX 90 95 66 96 67 97 76 98 68 99 69 100 75 101 77 102 70 103
REMARK SMILES IDX 71 104 72 105 73 106 74 107
REMARK H PARENT 8 15 98 57 64 68
REMARK Flexibility Score: inf
ROOT
ATOM      1  C   UNL     1       4.668  -0.472   0.951  1.00  0.00     0.202 C 
ENDROOT
BRANCH   1   2
ATOM      2  C   UNL     1       4.016   0.841   0.511  1.00  0.00     0.261 C 
BRANCH   2   3
ATOM      3  O   UNL     1       2.581   0.861   0.484  1.00  0.00    -0.463 OA
BRANCH   3   4
ATOM      4  C   UNL     1       1.794   0.462  -0.542  1.00  0.00     0.310 C 
ATOM      5  O   UNL     1       0.577   0.641  -0.469  1.00  0.00    -0.252 OA
BRANCH   4   6
ATOM      6  C   UNL     1       2.365  -0.324  -1.700  1.00  0.00     0.158 C 
BRANCH   6   7
ATOM      7  C   UNL     1       3.518   0.295  -2.434  1.00  0.00    -0.037 A 
ATOM      8  C   UNL     1       4.730  -0.394  -2.531  1.00  0.00     0.006 A 
ATOM      9  C   UNL     1       3.420   1.584  -2.971  1.00  0.00     0.006 A 
ATOM     10  C   UNL     1       5.821   0.197  -3.162  1.00  0.00     0.026 A 
ATOM     11  C   UNL     1       4.507   2.151  -3.639  1.00  0.00     0.026 A 
ATOM     12  C   UNL     1       5.691   1.429  -3.804  1.00  0.00     0.041 A 
BRANCH  12  13
ATOM     13  N   UNL     1       6.672   1.981  -4.650  1.00  0.00    -0.322 N 
ATOM     14  C   UNL     1       7.695   1.385  -5.364  1.00  0.00     0.255 C 
ATOM     15  H   UNL     1       6.620   2.959  -4.751  1.00  0.00     0.170 HD
ATOM     16  O   UNL     1       8.511   2.073  -5.974  1.00  0.00    -0.269 OA
BRANCH  14  17
ATOM     17  C   UNL     1       7.798  -0.087  -5.463  1.00  0.00     0.040 A 
ATOM     18  C   UNL     1       8.994  -0.706  -5.110  1.00  0.00     0.016 A 
ATOM     19  C   UNL     1       6.699  -0.865  -5.823  1.00  0.00     0.016 A 
ATOM     20  C   UNL     1       9.046  -2.103  -4.987  1.00  0.00     0.028 A 
ATOM     21  C   UNL     1       6.753  -2.255  -5.671  1.00  0.00     0.028 A 
ATOM     22  C   UNL     1       7.914  -2.906  -5.215  1.00  0.00     0.052 A 
BRANCH  22  23
ATOM     23  N   UNL     1       7.922  -4.316  -4.970  1.00  0.00    -0.242 N 
ATOM     24  C   UNL     1       6.859  -5.163  -5.210  1.00  0.00     0.266 C 
ATOM     25  C   UNL     1       8.981  -5.029  -4.432  1.00  0.00     0.266 C 
ATOM     26  O   UNL     1       5.736  -4.973  -5.650  1.00  0.00    -0.268 OA
ATOM     27  C   UNL     1       7.274  -6.505  -4.830  1.00  0.00     0.053 A 
ATOM     28  C   UNL     1       8.557  -6.426  -4.343  1.00  0.00     0.053 A 
ATOM     29  O   UNL     1      10.089  -4.691  -4.066  1.00  0.00    -0.268 OA
ATOM     30  C   UNL     1       6.586  -7.701  -4.913  1.00  0.00     0.015 A 
ATOM     31  C   UNL     1       9.229  -7.546  -3.889  1.00  0.00     0.015 A 
ATOM     32  C   UNL     1       7.246  -8.850  -4.473  1.00  0.00     0.001 A 
ATOM     33  C   UNL     1       8.556  -8.773  -3.959  1.00  0.00     0.001 A 
ENDBRANCH  22  23
ENDBRANCH  14  17
ENDBRANCH  12  13
ENDBRANCH   6   7
ENDBRANCH   4   6
ENDBRANCH   3   4
ENDBRANCH   2   3
ENDBRANCH   1   2
BRANCH   1  34
ATOM     34  O   UNL     1       4.055  -1.707   0.605  1.00  0.00    -0.374 OA
BRANCH  34  35
ATOM     35  C   UNL     1       2.857  -2.087   1.288  1.00  0.00     0.202 C 
BRANCH  35  36
ATOM     36  C   UNL     1       2.935  -2.479   2.765  1.00  0.00     0.261 C 
BRANCH  36  37
ATOM     37  O   UNL     1       3.293  -1.371   3.602  1.00  0.00    -0.460 OA
BRANCH  37  38
ATOM     38  C   UNL     1       4.551  -1.436   4.099  1.00  0.00     0.338 C 
ATOM     39  O   UNL     1       5.356  -2.339   3.943  1.00  0.00    -0.246 OA
BRANCH  38  40
ATOM     40  C   UNL     1       4.918  -0.137   4.691  1.00  0.00     0.060 A 
ATOM     41  C   UNL     1       6.174   0.385   4.356  1.00  0.00     0.016 A 
ATOM     42  C   UNL     1       4.095   0.510   5.615  1.00  0.00     0.016 A 
ATOM     43  C   UNL     1       6.664   1.494   5.032  1.00  0.00     0.010 A 
ATOM     44  C   UNL     1       4.588   1.623   6.296  1.00  0.00     0.010 A 
ATOM     45  C   UNL     1       5.901   2.067   6.056  1.00  0.00    -0.014 A 
BRANCH  45  46
ATOM     46  C   UNL     1       6.584   2.947   7.031  1.00  0.00     0.031 A 
ATOM     47  C   UNL     1       7.012   2.349   8.346  1.00  0.00     0.074 A 
ATOM     48  C   UNL     1       6.885   4.218   6.717  1.00  0.00     0.049 A 
ATOM     49  N   UNL     1       7.646   2.905   9.344  1.00  0.00    -0.248 NA
ATOM     50  C   UNL     1       6.678   0.931   8.566  1.00  0.00     0.031 C 
ATOM     51  C   UNL     1       6.557   4.876   5.454  1.00  0.00     0.029 A 
ATOM     52  N   UNL     1       7.543   5.178   7.439  1.00  0.00    -0.354 N 
ATOM     53  C   UNL     1       7.770   1.914  10.312  1.00  0.00     0.074 A 
ATOM     54  C   UNL     1       7.116   0.733   9.799  1.00  0.00     0.031 C 
ATOM     55  C   UNL     1       7.020   6.138   5.488  1.00  0.00     0.029 A 
ATOM     56  C   UNL     1       7.649   6.381   6.785  1.00  0.00     0.049 A 
ATOM     57  H   UNL     1       7.906   5.021   8.341  1.00  0.00     0.167 HD
ATOM     58  C   UNL     1       8.386   1.982  11.515  1.00  0.00     0.037 A 
ATOM     59  C   UNL     1       8.185   7.545   7.197  1.00  0.00     0.037 A 
ATOM     60  C   UNL     1       9.045   3.163  12.006  1.00  0.00     0.049 A 
ATOM     61  C   UNL     1       8.827   7.609   8.559  1.00  0.00     0.074 A 
ATOM     62  C   UNL     1       9.719   3.341  13.200  1.00  0.00     0.029 A 
ATOM     63  N   UNL     1       9.107   4.372  11.326  1.00  0.00    -0.354 N 
ATOM     64  N   UNL     1       8.954   6.660   9.459  1.00  0.00    -0.248 NA
ATOM     65  C   UNL     1       9.410   8.896   8.956  1.00  0.00     0.031 C 
ATOM     66  C   UNL     1      10.138   4.674  13.268  1.00  0.00     0.029 A 
ATOM     67  C   UNL     1       9.788   5.308  12.086  1.00  0.00     0.049 A 
ATOM     68  H   UNL     1       8.724   4.540  10.435  1.00  0.00     0.167 HD
ATOM     69  C   UNL     1       9.669   7.226  10.510  1.00  0.00     0.074 A 
ATOM     70  C   UNL     1       9.950   8.595  10.129  1.00  0.00     0.031 C 
ATOM     71  C   UNL     1      10.066   6.664  11.681  1.00  0.00     0.037 A 
BRANCH  58  72
ATOM     72  C   UNL     1       8.344   0.760  12.394  1.00  0.00     0.058 A 
ATOM     73  C   UNL     1       9.049  -0.413  12.080  1.00  0.00     0.135 A 
ATOM     74  C   UNL     1       7.600   0.772  13.586  1.00  0.00     0.135 A 
ATOM     75  F   UNL     1       9.759  -0.492  10.943  1.00  0.00    -0.206 F 
ATOM     76  C   UNL     1       8.996  -1.538  12.899  1.00  0.00     0.059 A 
ATOM     77  C   UNL     1       7.558  -0.329  14.436  1.00  0.00     0.059 A 
ATOM     78  F   UNL     1       6.900   1.864  13.934  1.00  0.00    -0.206 F 
ATOM     79  C   UNL     1       8.249  -1.484  14.077  1.00  0.00     0.060 A 
BRANCH  79  80
ATOM     80  S   UNL     1       8.197  -2.947  15.134  1.00  0.00     0.124 S 
ATOM     81  O   UNL     1       7.372  -3.852  14.340  1.00  0.00    -0.237 OA
ATOM     82  O   UNL     1       9.608  -3.305  15.239  1.00  0.00    -0.237 OA
ATOM     83  O   UNL     1       7.584  -2.457  16.364  1.00  0.00    -0.744 OA
ENDBRANCH  79  80
ENDBRANCH  58  72
BRANCH  59  84
ATOM     84  C   UNL     1       8.150   8.737   6.308  1.00  0.00     0.058 A 
ATOM     85  C   UNL     1       9.325   9.263   5.751  1.00  0.00     0.135 A 
ATOM     86  C   UNL     1       6.938   9.372   5.993  1.00  0.00     0.135 A 
ATOM     87  F   UNL     1      10.509   8.696   6.026  1.00  0.00    -0.206 F 
ATOM     88  C   UNL     1       9.303  10.387   4.932  1.00  0.00     0.059 A 
ATOM     89  C   UNL     1       6.887  10.479   5.153  1.00  0.00     0.059 A 
ATOM     90  F   UNL     1       5.782   8.899   6.488  1.00  0.00    -0.206 F 
ATOM     91  C   UNL     1       8.078  10.987   4.636  1.00  0.00     0.060 A 
BRANCH  91  92
ATOM     92  S   UNL     1       8.058  12.419   3.537  1.00  0.00     0.124 S 
ATOM     93  O   UNL     1       8.649  13.448   4.384  1.00  0.00    -0.237 OA
ATOM     94  O   UNL     1       8.879  11.959   2.422  1.00  0.00    -0.237 OA
ATOM     95  O   UNL     1       6.640  12.589   3.233  1.00  0.00    -0.744 OA
ENDBRANCH  91  92
ENDBRANCH  59  84
BRANCH  71  96
ATOM     96  C   UNL     1      10.901   7.510  12.604  1.00  0.00     0.058 A 
ATOM     97  C   UNL     1      10.370   8.609  13.297  1.00  0.00     0.135 A 
ATOM     98  C   UNL     1      12.253   7.192  12.818  1.00  0.00     0.135 A 
ATOM     99  F   UNL     1       9.084   8.957  13.129  1.00  0.00    -0.206 F 
ATOM    100  C   UNL     1      11.161   9.391  14.133  1.00  0.00     0.059 A 
ATOM    101  C   UNL     1      13.053   7.938  13.677  1.00  0.00     0.059 A 
ATOM    102  F   UNL     1      12.809   6.140  12.195  1.00  0.00    -0.206 F 
ATOM    103  C   UNL     1      12.502   9.049  14.314  1.00  0.00     0.060 A 
BRANCH 103 104
ATOM    104  S   UNL     1      13.518  10.070  15.400  1.00  0.00     0.124 S 
ATOM    105  O   UNL     1      13.705  11.267  14.587  1.00  0.00    -0.237 OA
ATOM    106  O   UNL     1      12.662  10.227  16.572  1.00  0.00    -0.237 OA
ATOM    107  O   UNL     1      14.715   9.260  15.609  1.00  0.00    -0.744 OA
ENDBRANCH 103 104
ENDBRANCH  71  96
ENDBRANCH  45  46
ENDBRANCH  38  40
ENDBRANCH  37  38
ENDBRANCH  36  37
ENDBRANCH  35  36
ENDBRANCH  34  35
ENDBRANCH   1  34
TORSDOF 21
