REMARK SMILES O=C(Cc1ccccc1)Nc1cc(Cl)ccc1C(=O)OCCOCCOC(=O)c1ccc(-c2c3nc(c(-c4c(F)cc(S(=O)(=O)[O-])cc4F)c4ccc([nH]4)c(-c4c(F)cc(S(=O)(=O)[O-])cc4F)c4nc(c(-c5c(F)cc(S(=O)(=O)[O-])cc5F)c5ccc2[nH]5)C=C4)C=C3)cc1
REMARK SMILES IDX 23 1 22 2 21 3 20 4 18 5 19 6 17 7 11 8 12 9 13 10 16 11
REMARK SMILES IDX 14 12 15 13 10 14 1 15 2 16 3 18 4 19 5 20 9 21 6 22 8 23
REMARK SMILES IDX 7 24 24 25 25 26 26 27 27 28 28 29 29 30 30 31 94 32 31 33
REMARK SMILES IDX 93 34 32 35 33 36 34 37 87 38 35 39 92 40 86 41 88 42 36 43
REMARK SMILES IDX 91 44 85 45 84 46 37 48 71 49 50 50 70 51 51 52 54 53 69 54
REMARK SMILES IDX 89 55 52 56 53 57 68 59 90 60 55 61 38 62 39 63 48 64 40 65
REMARK SMILES IDX 41 66 47 67 49 68 42 69 43 70 44 71 45 72 46 73 72 74 73 75
REMARK SMILES IDX 82 76 74 77 75 78 81 79 83 80 76 81 77 82 78 83 79 84 80 85
REMARK SMILES IDX 56 86 57 87 66 88 58 89 59 90 65 91 67 92 60 93 61 94 62 95
REMARK SMILES IDX 63 96 64 97
REMARK H PARENT 10 17 88 47 54 58
REMARK Flexibility Score: inf
ROOT
ATOM      1  O   UNL     1      -0.037   0.085  -4.613  1.00  0.00    -0.374 OA
ENDROOT
BRANCH   1   2
ATOM      2  C   UNL     1       0.086   1.081  -3.595  1.00  0.00     0.202 C 
BRANCH   2   3
ATOM      3  C   UNL     1      -0.433   0.692  -2.210  1.00  0.00     0.261 C 
BRANCH   3   4
ATOM      4  O   UNL     1       0.372  -0.361  -1.659  1.00  0.00    -0.460 OA
BRANCH   4   5
ATOM      5  C   UNL     1      -0.307  -1.352  -1.030  1.00  0.00     0.340 C 
ATOM      6  O   UNL     1      -1.520  -1.423  -0.890  1.00  0.00    -0.246 OA
BRANCH   5   7
ATOM      7  C   UNL     1       0.596  -2.502  -0.757  1.00  0.00     0.083 A 
ATOM      8  C   UNL     1       1.953  -2.430  -0.384  1.00  0.00     0.057 A 
ATOM      9  C   UNL     1       2.705  -3.619  -0.324  1.00  0.00     0.047 A 
ATOM     10  C   UNL     1       2.114  -4.856  -0.582  1.00  0.00     0.043 A 
ATOM     11  C   UNL     1       0.025  -3.763  -1.036  1.00  0.00     0.019 A 
ATOM     12  Cl  UNL     1       3.045  -6.296  -0.440  1.00  0.00    -0.084 Cl
ATOM     13  C   UNL     1       0.776  -4.934  -0.944  1.00  0.00     0.021 A 
BRANCH   8  14
ATOM     14  N   UNL     1       2.671  -1.259  -0.058  1.00  0.00    -0.325 N 
ATOM     15  O   UNL     1       1.034  -0.072   1.070  1.00  0.00    -0.274 OA
ATOM     16  C   UNL     1       2.152  -0.137   0.569  1.00  0.00     0.228 C 
ATOM     17  H   UNL     1       3.625  -1.238  -0.296  1.00  0.00     0.169 HD
BRANCH  16  18
ATOM     18  C   UNL     1       3.147   1.008   0.640  1.00  0.00     0.135 C 
BRANCH  18  19
ATOM     19  C   UNL     1       3.974   1.048   1.904  1.00  0.00    -0.039 A 
ATOM     20  C   UNL     1       4.399  -0.110   2.573  1.00  0.00     0.004 A 
ATOM     21  C   UNL     1       4.398   2.293   2.393  1.00  0.00     0.004 A 
ATOM     22  C   UNL     1       5.202  -0.021   3.713  1.00  0.00     0.000 A 
ATOM     23  C   UNL     1       5.199   2.381   3.532  1.00  0.00     0.000 A 
ATOM     24  C   UNL     1       5.599   1.224   4.193  1.00  0.00     0.000 A 
ENDBRANCH  18  19
ENDBRANCH  16  18
ENDBRANCH   8  14
ENDBRANCH   5   7
ENDBRANCH   4   5
ENDBRANCH   3   4
ENDBRANCH   2   3
ENDBRANCH   1   2
BRANCH   1  25
ATOM     25  C   UNL     1       0.792  -1.070  -4.514  1.00  0.00     0.202 C 
BRANCH  25  26
ATOM     26  C   UNL     1       2.265  -0.910  -4.914  1.00  0.00     0.261 C 
BRANCH  26  27
ATOM     27  O   UNL     1       2.987   0.057  -4.131  1.00  0.00    -0.460 OA
BRANCH  27  28
ATOM     28  C   UNL     1       3.249   1.214  -4.788  1.00  0.00     0.338 C 
ATOM     29  O   UNL     1       2.934   1.498  -5.935  1.00  0.00    -0.246 OA
BRANCH  28  30
ATOM     30  C   UNL     1       3.886   2.195  -3.891  1.00  0.00     0.060 A 
ATOM     31  C   UNL     1       3.289   3.456  -3.776  1.00  0.00     0.016 A 
ATOM     32  C   UNL     1       5.124   1.938  -3.297  1.00  0.00     0.016 A 
ATOM     33  C   UNL     1       3.958   4.487  -3.120  1.00  0.00     0.010 A 
ATOM     34  C   UNL     1       5.796   2.976  -2.642  1.00  0.00     0.010 A 
ATOM     35  C   UNL     1       5.237   4.267  -2.591  1.00  0.00    -0.014 A 
BRANCH  35  36
ATOM     36  C   UNL     1       6.050   5.422  -2.135  1.00  0.00     0.031 A 
ATOM     37  C   UNL     1       7.107   5.980  -3.051  1.00  0.00     0.074 A 
ATOM     38  C   UNL     1       5.830   5.988  -0.935  1.00  0.00     0.049 A 
ATOM     39  N   UNL     1       7.950   6.959  -2.846  1.00  0.00    -0.248 NA
ATOM     40  C   UNL     1       7.229   5.351  -4.376  1.00  0.00     0.031 C 
ATOM     41  C   UNL     1       4.806   5.569   0.019  1.00  0.00     0.029 A 
ATOM     42  N   UNL     1       6.462   7.035  -0.314  1.00  0.00    -0.354 N 
ATOM     43  C   UNL     1       8.704   7.061  -4.009  1.00  0.00     0.074 A 
ATOM     44  C   UNL     1       8.241   6.023  -4.905  1.00  0.00     0.031 C 
ATOM     45  C   UNL     1       4.892   6.340   1.118  1.00  0.00     0.029 A 
ATOM     46  C   UNL     1       5.989   7.291   0.951  1.00  0.00     0.049 A 
ATOM     47  H   UNL     1       7.185   7.555  -0.734  1.00  0.00     0.167 HD
ATOM     48  C   UNL     1       9.686   7.946  -4.309  1.00  0.00     0.037 A 
ATOM     49  C   UNL     1       6.406   8.180   1.874  1.00  0.00     0.037 A 
ATOM     50  C   UNL     1      10.139   8.982  -3.419  1.00  0.00     0.049 A 
ATOM     51  C   UNL     1       7.536   9.119   1.541  1.00  0.00     0.074 A 
ATOM     52  C   UNL     1      11.118   9.937  -3.636  1.00  0.00     0.029 A 
ATOM     53  N   UNL     1       9.647   9.199  -2.140  1.00  0.00    -0.354 N 
ATOM     54  N   UNL     1       8.229   9.214   0.430  1.00  0.00    -0.248 NA
ATOM     55  C   UNL     1       7.936  10.078   2.580  1.00  0.00     0.031 C 
ATOM     56  C   UNL     1      11.245  10.705  -2.473  1.00  0.00     0.029 A 
ATOM     57  C   UNL     1      10.313  10.260  -1.550  1.00  0.00     0.049 A 
ATOM     58  H   UNL     1       8.929   8.676  -1.715  1.00  0.00     0.167 HD
ATOM     59  C   UNL     1       9.120  10.264   0.625  1.00  0.00     0.074 A 
ATOM     60  C   UNL     1       8.879  10.774   1.959  1.00  0.00     0.031 C 
ATOM     61  C   UNL     1      10.051  10.765  -0.225  1.00  0.00     0.037 A 
BRANCH  48  62
ATOM     62  C   UNL     1      10.351   7.817  -5.652  1.00  0.00     0.058 A 
ATOM     63  C   UNL     1       9.695   8.182  -6.838  1.00  0.00     0.135 A 
ATOM     64  C   UNL     1      11.670   7.347  -5.750  1.00  0.00     0.135 A 
ATOM     65  F   UNL     1       8.427   8.621  -6.803  1.00  0.00    -0.206 F 
ATOM     66  C   UNL     1      10.315   8.060  -8.078  1.00  0.00     0.059 A 
ATOM     67  C   UNL     1      12.319   7.241  -6.977  1.00  0.00     0.059 A 
ATOM     68  F   UNL     1      12.342   6.983  -4.646  1.00  0.00    -0.206 F 
ATOM     69  C   UNL     1      11.627   7.585  -8.137  1.00  0.00     0.060 A 
BRANCH  69  70
ATOM     70  S   UNL     1      12.418   7.428  -9.752  1.00  0.00     0.124 S 
ATOM     71  O   UNL     1      11.752   6.245 -10.287  1.00  0.00    -0.237 OA
ATOM     72  O   UNL     1      12.076   8.693 -10.394  1.00  0.00    -0.237 OA
ATOM     73  O   UNL     1      13.830   7.258  -9.423  1.00  0.00    -0.744 OA
ENDBRANCH  69  70
ENDBRANCH  48  62
BRANCH  49  74
ATOM     74  C   UNL     1       5.748   8.225   3.207  1.00  0.00     0.058 A 
ATOM     75  C   UNL     1       4.936   9.306   3.579  1.00  0.00     0.135 A 
ATOM     76  C   UNL     1       5.918   7.185   4.134  1.00  0.00     0.135 A 
ATOM     77  F   UNL     1       4.749  10.328   2.729  1.00  0.00    -0.206 F 
ATOM     78  C   UNL     1       4.329   9.365   4.829  1.00  0.00     0.059 A 
ATOM     79  C   UNL     1       5.304   7.210   5.381  1.00  0.00     0.059 A 
ATOM     80  F   UNL     1       6.671   6.119   3.820  1.00  0.00    -0.206 F 
ATOM     81  C   UNL     1       4.519   8.310   5.724  1.00  0.00     0.060 A 
BRANCH  81  82
ATOM     82  S   UNL     1       3.694   8.375   7.329  1.00  0.00     0.124 S 
ATOM     83  O   UNL     1       4.489   9.379   8.026  1.00  0.00    -0.237 OA
ATOM     84  O   UNL     1       2.339   8.775   6.960  1.00  0.00    -0.237 OA
ATOM     85  O   UNL     1       3.824   7.009   7.826  1.00  0.00    -0.744 OA
ENDBRANCH  81  82
ENDBRANCH  49  74
BRANCH  61  86
ATOM     86  C   UNL     1      10.850  11.952   0.239  1.00  0.00     0.058 A 
ATOM     87  C   UNL     1      11.869  11.831   1.195  1.00  0.00     0.135 A 
ATOM     88  C   UNL     1      10.627  13.219  -0.325  1.00  0.00     0.135 A 
ATOM     89  F   UNL     1      12.120  10.643   1.768  1.00  0.00    -0.206 F 
ATOM     90  C   UNL     1      12.625  12.929   1.594  1.00  0.00     0.059 A 
ATOM     91  C   UNL     1      11.387  14.326   0.040  1.00  0.00     0.059 A 
ATOM     92  F   UNL     1       9.671  13.387  -1.253  1.00  0.00    -0.206 F 
ATOM     93  C   UNL     1      12.377  14.173   1.010  1.00  0.00     0.060 A 
BRANCH  93  94
ATOM     94  S   UNL     1      13.387  15.584   1.509  1.00  0.00     0.124 S 
ATOM     95  O   UNL     1      12.821  15.901   2.816  1.00  0.00    -0.237 OA
ATOM     96  O   UNL     1      14.733  15.019   1.522  1.00  0.00    -0.237 OA
ATOM     97  O   UNL     1      13.137  16.568   0.460  1.00  0.00    -0.744 OA
ENDBRANCH  93  94
ENDBRANCH  61  86
ENDBRANCH  35  36
ENDBRANCH  28  30
ENDBRANCH  27  28
ENDBRANCH  26  27
ENDBRANCH  25  26
ENDBRANCH   1  25
TORSDOF 20
