REMARK SMILES CC(C)C[C@H](CNc1nc(-c2ccccc2)cs1)C(=O)OCCOCCOC(=O)c1ccc(-c2c3nc(c(-c4c(F)cc(S(=O)(=O)[O-])cc4F)c4ccc([nH]4)c(-c4c(F)cc(S(=O)(=O)[O-])cc4F)c4nc(c(-c5c(F)cc(S(=O)(=O)[O-])cc5F)c5ccc2[nH]5)C=C4)C=C3)cc1
REMARK SMILES IDX 23 1 22 2 21 3 19 4 20 5 5 6 4 7 2 8 1 9 3 10 6 11 7 12 8 14
REMARK SMILES IDX 9 15 18 16 10 17 17 18 11 19 12 20 16 21 13 22 15 23 14 24
REMARK SMILES IDX 24 25 25 26 26 27 27 28 28 29 29 30 30 31 31 32 95 33 32 34
REMARK SMILES IDX 94 35 33 36 34 37 35 38 88 39 36 40 93 41 87 42 89 43 37 44
REMARK SMILES IDX 92 45 86 46 85 47 38 49 72 50 51 51 71 52 52 53 55 54 70 55
REMARK SMILES IDX 90 56 53 57 54 58 69 60 91 61 56 62 39 63 40 64 49 65 41 66
REMARK SMILES IDX 42 67 48 68 50 69 43 70 44 71 45 72 46 73 47 74 73 75 74 76
REMARK SMILES IDX 83 77 75 78 76 79 82 80 84 81 77 82 78 83 79 84 80 85 81 86
REMARK SMILES IDX 57 87 58 88 67 89 59 90 60 91 66 92 68 93 61 94 62 95 63 96
REMARK SMILES IDX 64 97 65 98
REMARK H PARENT 7 13 89 48 55 59
REMARK Flexibility Score: inf
ROOT
ATOM      1  C   UNL     1      -5.800  -0.253   0.924  1.00  0.00     0.202 C 
ENDROOT
BRANCH   1   2
ATOM      2  C   UNL     1      -5.066  -1.501   1.425  1.00  0.00     0.261 C 
BRANCH   2   3
ATOM      3  O   UNL     1      -3.670  -1.302   1.701  1.00  0.00    -0.463 OA
BRANCH   3   4
ATOM      4  C   UNL     1      -2.845  -1.643   0.678  1.00  0.00     0.310 C 
ATOM      5  O   UNL     1      -3.223  -1.978  -0.440  1.00  0.00    -0.252 OA
BRANCH   4   6
ATOM      6  C   UNL     1      -1.381  -1.618   1.064  1.00  0.00     0.118 C 
BRANCH   6   7
ATOM      7  C   UNL     1      -0.966  -2.889   1.842  1.00  0.00     0.020 C 
BRANCH   7   8
ATOM      8  C   UNL     1      -1.747  -4.187   1.543  1.00  0.00    -0.017 C 
ATOM      9  C   UNL     1      -1.596  -4.689   0.108  1.00  0.00     0.007 C 
ATOM     10  C   UNL     1      -1.305  -5.285   2.516  1.00  0.00     0.007 C 
ENDBRANCH   7   8
ENDBRANCH   6   7
BRANCH   6  11
ATOM     11  C   UNL     1      -0.981  -0.253   1.688  1.00  0.00     0.130 C 
BRANCH  11  12
ATOM     12  N   UNL     1      -0.447  -0.371   3.029  1.00  0.00    -0.361 N 
ATOM     13  H   UNL     1      -1.041  -0.675   3.753  1.00  0.00     0.162 HD
BRANCH  12  14
ATOM     14  C   UNL     1       0.836  -0.079   3.321  1.00  0.00     0.183 A 
ATOM     15  N   UNL     1       1.563   0.860   2.759  1.00  0.00    -0.220 NA
ATOM     16  S   UNL     1       1.638  -0.987   4.550  1.00  0.00    -0.105 S 
ATOM     17  C   UNL     1       2.809   0.910   3.359  1.00  0.00     0.083 A 
ATOM     18  C   UNL     1       3.058  -0.071   4.296  1.00  0.00     0.097 A 
BRANCH  17  19
ATOM     19  C   UNL     1       3.759   1.975   3.103  1.00  0.00     0.001 A 
ATOM     20  C   UNL     1       4.959   1.730   2.428  1.00  0.00     0.010 A 
ATOM     21  C   UNL     1       3.502   3.253   3.616  1.00  0.00     0.010 A 
ATOM     22  C   UNL     1       5.901   2.752   2.284  1.00  0.00     0.001 A 
ATOM     23  C   UNL     1       4.449   4.270   3.479  1.00  0.00     0.001 A 
ATOM     24  C   UNL     1       5.650   4.017   2.816  1.00  0.00     0.000 A 
ENDBRANCH  17  19
ENDBRANCH  12  14
ENDBRANCH  11  12
ENDBRANCH   6  11
ENDBRANCH   4   6
ENDBRANCH   3   4
ENDBRANCH   2   3
ENDBRANCH   1   2
BRANCH   1  25
ATOM     25  O   UNL     1      -5.377   0.327  -0.306  1.00  0.00    -0.374 OA
BRANCH  25  26
ATOM     26  C   UNL     1      -4.205   1.140  -0.303  1.00  0.00     0.202 C 
BRANCH  26  27
ATOM     27  C   UNL     1      -4.298   2.513   0.370  1.00  0.00     0.261 C 
BRANCH  27  28
ATOM     28  O   UNL     1      -4.474   2.406   1.794  1.00  0.00    -0.460 OA
BRANCH  28  29
ATOM     29  C   UNL     1      -5.653   2.886   2.252  1.00  0.00     0.338 C 
ATOM     30  O   UNL     1      -6.520   3.456   1.596  1.00  0.00    -0.246 OA
BRANCH  29  31
ATOM     31  C   UNL     1      -5.879   2.464   3.644  1.00  0.00     0.060 A 
ATOM     32  C   UNL     1      -7.090   1.819   3.930  1.00  0.00     0.016 A 
ATOM     33  C   UNL     1      -4.980   2.774   4.666  1.00  0.00     0.016 A 
ATOM     34  C   UNL     1      -7.441   1.548   5.249  1.00  0.00     0.010 A 
ATOM     35  C   UNL     1      -5.340   2.511   5.993  1.00  0.00     0.010 A 
ATOM     36  C   UNL     1      -6.591   1.940   6.290  1.00  0.00    -0.014 A 
BRANCH  36  37
ATOM     37  C   UNL     1      -7.101   1.917   7.682  1.00  0.00     0.031 A 
ATOM     38  C   UNL     1      -7.647   3.190   8.272  1.00  0.00     0.074 A 
ATOM     39  C   UNL     1      -7.129   0.774   8.389  1.00  0.00     0.049 A 
ATOM     40  N   UNL     1      -8.137   3.409   9.464  1.00  0.00    -0.248 NA
ATOM     41  C   UNL     1      -7.641   4.375   7.398  1.00  0.00     0.031 C 
ATOM     42  C   UNL     1      -6.671  -0.528   7.907  1.00  0.00     0.029 A 
ATOM     43  N   UNL     1      -7.561   0.528   9.668  1.00  0.00    -0.354 N 
ATOM     44  C   UNL     1      -8.493   4.753   9.487  1.00  0.00     0.074 A 
ATOM     45  C   UNL     1      -8.137   5.307   8.199  1.00  0.00     0.031 C 
ATOM     46  C   UNL     1      -6.836  -1.436   8.884  1.00  0.00     0.029 A 
ATOM     47  C   UNL     1      -7.385  -0.775  10.066  1.00  0.00     0.049 A 
ATOM     48  H   UNL     1      -7.959   1.219  10.244  1.00  0.00     0.167 HD
ATOM     49  C   UNL     1      -9.071   5.458  10.487  1.00  0.00     0.037 A 
ATOM     50  C   UNL     1      -7.624  -1.360  11.257  1.00  0.00     0.037 A 
ATOM     51  C   UNL     1      -9.425   4.901  11.766  1.00  0.00     0.049 A 
ATOM     52  C   UNL     1      -8.210  -0.541  12.377  1.00  0.00     0.074 A 
ATOM     53  C   UNL     1     -10.027   5.528  12.842  1.00  0.00     0.029 A 
ATOM     54  N   UNL     1      -9.203   3.584  12.144  1.00  0.00    -0.354 N 
ATOM     55  N   UNL     1      -8.556   0.725  12.380  1.00  0.00    -0.248 NA
ATOM     56  C   UNL     1      -8.442  -1.229  13.655  1.00  0.00     0.031 C 
ATOM     57  C   UNL     1     -10.129   4.602  13.886  1.00  0.00     0.029 A 
ATOM     58  C   UNL     1      -9.634   3.385  13.444  1.00  0.00     0.049 A 
ATOM     59  H   UNL     1      -8.797   2.893  11.571  1.00  0.00     0.167 HD
ATOM     60  C   UNL     1      -9.069   0.978  13.648  1.00  0.00     0.074 A 
ATOM     61  C   UNL     1      -8.996  -0.269  14.383  1.00  0.00     0.031 C 
ATOM     62  C   UNL     1      -9.558   2.135  14.158  1.00  0.00     0.037 A 
BRANCH  49  63
ATOM     63  C   UNL     1      -9.333   6.918  10.246  1.00  0.00     0.058 A 
ATOM     64  C   UNL     1     -10.356   7.354   9.389  1.00  0.00     0.135 A 
ATOM     65  C   UNL     1      -8.566   7.895  10.901  1.00  0.00     0.135 A 
ATOM     66  F   UNL     1     -11.106   6.462   8.723  1.00  0.00    -0.206 F 
ATOM     67  C   UNL     1     -10.594   8.708   9.172  1.00  0.00     0.059 A 
ATOM     68  C   UNL     1      -8.803   9.254  10.717  1.00  0.00     0.059 A 
ATOM     69  F   UNL     1      -7.573   7.533  11.728  1.00  0.00    -0.206 F 
ATOM     70  C   UNL     1      -9.811   9.651   9.839  1.00  0.00     0.060 A 
BRANCH  70  71
ATOM     71  S   UNL     1     -10.132  11.404   9.550  1.00  0.00     0.124 S 
ATOM     72  O   UNL     1      -9.579  11.584   8.211  1.00  0.00    -0.237 OA
ATOM     73  O   UNL     1     -11.586  11.476   9.649  1.00  0.00    -0.237 OA
ATOM     74  O   UNL     1      -9.401  12.066  10.626  1.00  0.00    -0.744 OA
ENDBRANCH  70  71
ENDBRANCH  49  63
BRANCH  50  75
ATOM     75  C   UNL     1      -7.294  -2.796  11.455  1.00  0.00     0.058 A 
ATOM     76  C   UNL     1      -8.301  -3.761  11.597  1.00  0.00     0.135 A 
ATOM     77  C   UNL     1      -5.960  -3.231  11.500  1.00  0.00     0.135 A 
ATOM     78  F   UNL     1      -9.591  -3.393  11.571  1.00  0.00    -0.206 F 
ATOM     79  C   UNL     1      -8.000  -5.106  11.786  1.00  0.00     0.059 A 
ATOM     80  C   UNL     1      -5.633  -4.573  11.665  1.00  0.00     0.059 A 
ATOM     81  F   UNL     1      -4.959  -2.348  11.360  1.00  0.00    -0.206 F 
ATOM     82  C   UNL     1      -6.661  -5.503  11.815  1.00  0.00     0.060 A 
BRANCH  82  83
ATOM     83  S   UNL     1      -6.279  -7.258  12.004  1.00  0.00     0.124 S 
ATOM     84  O   UNL     1      -6.563  -7.470  13.418  1.00  0.00    -0.237 OA
ATOM     85  O   UNL     1      -7.208  -7.877  11.065  1.00  0.00    -0.237 OA
ATOM     86  O   UNL     1      -4.872  -7.336  11.623  1.00  0.00    -0.744 OA
ENDBRANCH  82  83
ENDBRANCH  50  75
BRANCH  62  87
ATOM     87  C   UNL     1     -10.083   2.105  15.567  1.00  0.00     0.058 A 
ATOM     88  C   UNL     1      -9.222   2.041  16.673  1.00  0.00     0.135 A 
ATOM     89  C   UNL     1     -11.463   2.198  15.814  1.00  0.00     0.135 A 
ATOM     90  F   UNL     1      -7.895   1.946  16.492  1.00  0.00    -0.206 F 
ATOM     91  C   UNL     1      -9.712   2.047  17.976  1.00  0.00     0.059 A 
ATOM     92  C   UNL     1     -11.973   2.231  17.108  1.00  0.00     0.059 A 
ATOM     93  F   UNL     1     -12.329   2.273  14.790  1.00  0.00    -0.206 F 
ATOM     94  C   UNL     1     -11.089   2.143  18.183  1.00  0.00     0.060 A 
BRANCH  94  95
ATOM     95  S   UNL     1     -11.711   2.184  19.877  1.00  0.00     0.124 S 
ATOM     96  O   UNL     1     -11.575   0.786  20.273  1.00  0.00    -0.237 OA
ATOM     97  O   UNL     1     -10.796   3.118  20.526  1.00  0.00    -0.237 OA
ATOM     98  O   UNL     1     -13.081   2.664  19.725  1.00  0.00    -0.744 OA
ENDBRANCH  94  95
ENDBRANCH  62  87
ENDBRANCH  36  37
ENDBRANCH  29  31
ENDBRANCH  28  29
ENDBRANCH  27  28
ENDBRANCH  26  27
ENDBRANCH  25  26
ENDBRANCH   1  25
TORSDOF 23
