REMARK SMILES C[C@H](Sc1ccccn1)C(=O)N[C@H](C(=O)OCCOCCOC(=O)c1ccc(-c2c3nc(c(-c4c(F)cc(S(=O)(=O)[O-])cc4F)c4ccc([nH]4)c(-c4c(F)cc(S(=O)(=O)[O-])cc4F)c4nc(c(-c5c(F)cc(S(=O)(=O)[O-])cc5F)c5ccc2[nH]5)C=C4)C=C3)cc1)c1ccc(F)cc1
REMARK SMILES IDX 18 1 17 2 16 3 14 4 15 5 13 6 12 7 10 8 11 9 2 11 1 12 3 13
REMARK SMILES IDX 4 14 5 15 9 16 6 17 8 18 7 19 91 20 92 21 97 22 93 23 96 24
REMARK SMILES IDX 94 25 95 26 19 27 20 28 21 29 22 30 23 31 24 32 25 33 26 34
REMARK SMILES IDX 90 35 27 36 89 37 28 38 29 39 30 40 83 41 31 42 88 43 82 44
REMARK SMILES IDX 84 45 32 46 87 47 81 48 80 49 33 51 67 52 46 53 66 54 47 55
REMARK SMILES IDX 50 56 65 57 85 58 48 59 49 60 64 62 86 63 51 64 34 65 35 66
REMARK SMILES IDX 44 67 36 68 37 69 43 70 45 71 38 72 39 73 40 74 41 75 42 76
REMARK SMILES IDX 68 77 69 78 78 79 70 80 71 81 77 82 79 83 72 84 73 85 74 86
REMARK SMILES IDX 75 87 76 88 52 89 53 90 62 91 54 92 55 93 61 94 63 95 56 96
REMARK SMILES IDX 57 97 58 98 59 99 60 100
REMARK H PARENT 12 10 84 50 50 61
REMARK Flexibility Score: inf
ROOT
ATOM      1  C   UNL     1      -4.891   0.469  -2.191  1.00  0.00     0.202 C 
ENDROOT
BRANCH   1   2
ATOM      2  C   UNL     1      -4.154  -0.743  -2.768  1.00  0.00     0.261 C 
BRANCH   2   3
ATOM      3  O   UNL     1      -3.124  -1.255  -1.899  1.00  0.00    -0.461 OA
BRANCH   3   4
ATOM      4  C   UNL     1      -1.828  -0.881  -2.159  1.00  0.00     0.333 C 
ATOM      5  O   UNL     1      -1.499  -0.088  -3.032  1.00  0.00    -0.249 OA
BRANCH   4   6
ATOM      6  C   UNL     1      -0.843  -1.834  -1.427  1.00  0.00     0.223 C 
BRANCH   6   7
ATOM      7  N   UNL     1      -1.205  -1.981   0.010  1.00  0.00    -0.338 N 
ATOM      8  C   UNL     1      -0.965  -1.437   1.221  1.00  0.00     0.234 C 
ATOM      9  O   UNL     1      -1.554  -2.073   2.120  1.00  0.00    -0.274 OA
ATOM     10  H   UNL     1      -1.835  -2.731   0.110  1.00  0.00     0.164 HD
BRANCH   8  11
ATOM     11  C   UNL     1      -0.192  -0.181   1.695  1.00  0.00     0.139 C 
ATOM     12  C   UNL     1      -0.987   1.119   1.873  1.00  0.00     0.030 C 
BRANCH  11  13
ATOM     13  S   UNL     1       1.438   0.129   0.970  1.00  0.00    -0.093 SA
BRANCH  13  14
ATOM     14  C   UNL     1       2.246   1.165   2.223  1.00  0.00     0.097 A 
ATOM     15  C   UNL     1       1.752   1.432   3.503  1.00  0.00     0.035 A 
ATOM     16  N   UNL     1       3.438   1.674   1.833  1.00  0.00    -0.250 NA
ATOM     17  C   UNL     1       2.462   2.254   4.381  1.00  0.00     0.004 A 
ATOM     18  C   UNL     1       4.128   2.440   2.717  1.00  0.00     0.112 A 
ATOM     19  C   UNL     1       3.685   2.761   3.987  1.00  0.00     0.020 A 
ENDBRANCH  13  14
ENDBRANCH  11  13
ENDBRANCH   8  11
ENDBRANCH   6   7
BRANCH   6  20
ATOM     20  C   UNL     1      -0.937  -3.232  -2.134  1.00  0.00    -0.014 A 
ATOM     21  C   UNL     1      -1.588  -3.399  -3.386  1.00  0.00     0.009 A 
ATOM     22  C   UNL     1      -0.436  -4.396  -1.522  1.00  0.00     0.009 A 
ATOM     23  C   UNL     1      -1.809  -4.660  -3.949  1.00  0.00     0.039 A 
ATOM     24  C   UNL     1      -0.639  -5.661  -2.101  1.00  0.00     0.039 A 
ATOM     25  C   UNL     1      -1.336  -5.783  -3.297  1.00  0.00     0.123 A 
ATOM     26  F   UNL     1      -1.549  -6.994  -3.829  1.00  0.00    -0.207 F 
ENDBRANCH   6  20
ENDBRANCH   4   6
ENDBRANCH   3   4
ENDBRANCH   2   3
ENDBRANCH   1   2
BRANCH   1  27
ATOM     27  O   UNL     1      -4.048   1.484  -1.662  1.00  0.00    -0.374 OA
BRANCH  27  28
ATOM     28  C   UNL     1      -3.427   1.229  -0.401  1.00  0.00     0.202 C 
BRANCH  28  29
ATOM     29  C   UNL     1      -4.009   0.115   0.470  1.00  0.00     0.261 C 
BRANCH  29  30
ATOM     30  O   UNL     1      -5.195   0.584   1.098  1.00  0.00    -0.460 OA
BRANCH  30  31
ATOM     31  C   UNL     1      -5.284   0.046   2.332  1.00  0.00     0.338 C 
ATOM     32  O   UNL     1      -4.517   0.268   3.263  1.00  0.00    -0.246 OA
BRANCH  31  33
ATOM     33  C   UNL     1      -6.256  -1.048   2.259  1.00  0.00     0.060 A 
ATOM     34  C   UNL     1      -7.456  -0.867   1.564  1.00  0.00     0.016 A 
ATOM     35  C   UNL     1      -5.929  -2.272   2.852  1.00  0.00     0.016 A 
ATOM     36  C   UNL     1      -8.388  -1.889   1.561  1.00  0.00     0.010 A 
ATOM     37  C   UNL     1      -6.850  -3.311   2.813  1.00  0.00     0.010 A 
ATOM     38  C   UNL     1      -8.105  -3.089   2.229  1.00  0.00    -0.014 A 
BRANCH  38  39
ATOM     39  C   UNL     1      -9.229  -4.005   2.487  1.00  0.00     0.031 A 
ATOM     40  C   UNL     1      -9.874  -3.955   3.843  1.00  0.00     0.074 A 
ATOM     41  C   UNL     1      -9.722  -4.741   1.478  1.00  0.00     0.049 A 
ATOM     42  N   UNL     1     -10.967  -4.533   4.258  1.00  0.00    -0.248 NA
ATOM     43  C   UNL     1      -9.202  -3.135   4.869  1.00  0.00     0.031 C 
ATOM     44  C   UNL     1      -9.149  -4.812   0.132  1.00  0.00     0.029 A 
ATOM     45  N   UNL     1     -10.832  -5.535   1.415  1.00  0.00    -0.354 N 
ATOM     46  C   UNL     1     -11.115  -4.144   5.585  1.00  0.00     0.074 A 
ATOM     47  C   UNL     1      -9.979  -3.321   5.924  1.00  0.00     0.031 C 
ATOM     48  C   UNL     1      -9.934  -5.586  -0.635  1.00  0.00     0.029 A 
ATOM     49  C   UNL     1     -11.047  -6.076   0.171  1.00  0.00     0.049 A 
ATOM     50  H   UNL     1     -11.420  -5.703   2.187  1.00  0.00     0.167 HD
ATOM     51  C   UNL     1     -12.125  -4.437   6.434  1.00  0.00     0.037 A 
ATOM     52  C   UNL     1     -12.045  -6.871  -0.257  1.00  0.00     0.037 A 
ATOM     53  C   UNL     1     -13.243  -5.260   6.060  1.00  0.00     0.049 A 
ATOM     54  C   UNL     1     -13.144  -7.204   0.715  1.00  0.00     0.074 A 
ATOM     55  C   UNL     1     -14.332  -5.639   6.820  1.00  0.00     0.029 A 
ATOM     56  N   UNL     1     -13.405  -5.834   4.804  1.00  0.00    -0.354 N 
ATOM     57  N   UNL     1     -13.286  -6.813   1.962  1.00  0.00    -0.248 NA
ATOM     58  C   UNL     1     -14.220  -8.072   0.227  1.00  0.00     0.031 C 
ATOM     59  C   UNL     1     -15.130  -6.482   6.037  1.00  0.00     0.029 A 
ATOM     60  C   UNL     1     -14.566  -6.585   4.774  1.00  0.00     0.049 A 
ATOM     61  H   UNL     1     -12.785  -5.723   4.048  1.00  0.00     0.167 HD
ATOM     62  C   UNL     1     -14.473  -7.380   2.407  1.00  0.00     0.074 A 
ATOM     63  C   UNL     1     -15.022  -8.116   1.282  1.00  0.00     0.031 C 
ATOM     64  C   UNL     1     -15.060  -7.311   3.630  1.00  0.00     0.037 A 
BRANCH  51  65
ATOM     65  C   UNL     1     -12.039  -3.893   7.834  1.00  0.00     0.058 A 
ATOM     66  C   UNL     1     -12.188  -2.523   8.111  1.00  0.00     0.135 A 
ATOM     67  C   UNL     1     -11.793  -4.752   8.916  1.00  0.00     0.135 A 
ATOM     68  F   UNL     1     -12.395  -1.650   7.112  1.00  0.00    -0.206 F 
ATOM     69  C   UNL     1     -12.073  -2.023   9.405  1.00  0.00     0.059 A 
ATOM     70  C   UNL     1     -11.700  -4.278  10.222  1.00  0.00     0.059 A 
ATOM     71  F   UNL     1     -11.626  -6.068   8.710  1.00  0.00    -0.206 F 
ATOM     72  C   UNL     1     -11.829  -2.909  10.455  1.00  0.00     0.060 A 
BRANCH  72  73
ATOM     73  S   UNL     1     -11.688  -2.248  12.129  1.00  0.00     0.124 S 
ATOM     74  O   UNL     1     -10.393  -1.578  12.072  1.00  0.00    -0.237 OA
ATOM     75  O   UNL     1     -12.851  -1.370  12.216  1.00  0.00    -0.237 OA
ATOM     76  O   UNL     1     -11.742  -3.439  12.972  1.00  0.00    -0.744 OA
ENDBRANCH  72  73
ENDBRANCH  51  65
BRANCH  52  77
ATOM     77  C   UNL     1     -12.043  -7.382  -1.654  1.00  0.00     0.058 A 
ATOM     78  C   UNL     1     -12.995  -6.959  -2.593  1.00  0.00     0.135 A 
ATOM     79  C   UNL     1     -11.059  -8.287  -2.087  1.00  0.00     0.135 A 
ATOM     80  F   UNL     1     -13.956  -6.095  -2.232  1.00  0.00    -0.206 F 
ATOM     81  C   UNL     1     -12.981  -7.423  -3.906  1.00  0.00     0.059 A 
ATOM     82  C   UNL     1     -11.008  -8.744  -3.399  1.00  0.00     0.059 A 
ATOM     83  F   UNL     1     -10.113  -8.710  -1.234  1.00  0.00    -0.206 F 
ATOM     84  C   UNL     1     -11.980  -8.314  -4.300  1.00  0.00     0.060 A 
BRANCH  84  85
ATOM     85  S   UNL     1     -11.938  -8.870  -6.018  1.00  0.00     0.124 S 
ATOM     86  O   UNL     1     -13.073  -9.784  -6.060  1.00  0.00    -0.237 OA
ATOM     87  O   UNL     1     -12.098  -7.617  -6.750  1.00  0.00    -0.237 OA
ATOM     88  O   UNL     1     -10.622  -9.491  -6.137  1.00  0.00    -0.744 OA
ENDBRANCH  84  85
ENDBRANCH  52  77
BRANCH  64  89
ATOM     89  C   UNL     1     -16.357  -8.050   3.793  1.00  0.00     0.058 A 
ATOM     90  C   UNL     1     -16.397  -9.451   3.854  1.00  0.00     0.135 A 
ATOM     91  C   UNL     1     -17.564  -7.347   3.921  1.00  0.00     0.135 A 
ATOM     92  F   UNL     1     -15.267 -10.166   3.733  1.00  0.00    -0.206 F 
ATOM     93  C   UNL     1     -17.598 -10.134   3.994  1.00  0.00     0.059 A 
ATOM     94  C   UNL     1     -18.774  -8.008   4.095  1.00  0.00     0.059 A 
ATOM     95  F   UNL     1     -17.573  -6.005   3.887  1.00  0.00    -0.206 F 
ATOM     96  C   UNL     1     -18.782  -9.402   4.111  1.00  0.00     0.060 A 
BRANCH  96  97
ATOM     97  S   UNL     1     -20.335 -10.299   4.297  1.00  0.00     0.124 S 
ATOM     98  O   UNL     1     -20.555 -10.785   2.939  1.00  0.00    -0.237 OA
ATOM     99  O   UNL     1     -19.994 -11.315   5.287  1.00  0.00    -0.237 OA
ATOM    100  O   UNL     1     -21.266  -9.273   4.756  1.00  0.00    -0.744 OA
ENDBRANCH  96  97
ENDBRANCH  64  89
ENDBRANCH  38  39
ENDBRANCH  31  33
ENDBRANCH  30  31
ENDBRANCH  29  30
ENDBRANCH  28  29
ENDBRANCH  27  28
ENDBRANCH   1  27
TORSDOF 22
