REMARK SMILES CC[NH2+][C@]1(C(=O)OCCOCCOC(=O)c2ccc(-c3c4nc(c(-c5c(F)cc(S(=O)(=O)[O-])cc5F)c5ccc([nH]5)c(-c5c(F)cc(S(=O)(=O)[O-])cc5F)c5nc(c(-c6c(F)cc(S(=O)(=O)[O-])cc6F)c6ccc3[nH]6)C=C5)C=C4)cc2)CC[C@@H]([N@@H+]2CCO[C@@H](CC)C2)C1
REMARK SMILES IDX 11 1 10 2 9 3 8 4 7 5 5 6 6 7 4 8 82 9 93 10 83 11 84 12
REMARK SMILES IDX 3 13 2 16 1 17 85 18 86 19 92 20 87 22 89 23 88 24 90 25
REMARK SMILES IDX 91 26 12 27 13 28 14 29 15 30 16 31 17 32 81 33 18 34 80 35
REMARK SMILES IDX 19 36 20 37 21 38 74 39 22 40 79 41 73 42 75 43 23 44 78 45
REMARK SMILES IDX 72 46 71 47 24 49 58 50 37 51 57 52 38 53 41 54 56 55 76 56
REMARK SMILES IDX 39 57 40 58 55 60 77 61 42 62 25 63 26 64 35 65 27 66 28 67
REMARK SMILES IDX 34 68 36 69 29 70 30 71 31 72 32 73 33 74 59 75 60 76 69 77
REMARK SMILES IDX 61 78 62 79 68 80 70 81 63 82 64 83 65 84 66 85 67 86 43 87
REMARK SMILES IDX 44 88 53 89 45 90 46 91 52 92 54 93 47 94 48 95 49 96 50 97
REMARK SMILES IDX 51 98
REMARK H PARENT 3 14 3 15 85 21 75 48 41 59
REMARK Flexibility Score: inf
ROOT
ATOM      1  C   UNL     1       0.587   0.106  -0.950  1.00  0.00     0.202 C 
ENDROOT
BRANCH   1   2
ATOM      2  O   UNL     1       1.889  -0.037  -1.521  1.00  0.00    -0.374 OA
BRANCH   2   3
ATOM      3  C   UNL     1       3.014   0.219  -0.687  1.00  0.00     0.202 C 
BRANCH   3   4
ATOM      4  C   UNL     1       3.408   1.681  -0.463  1.00  0.00     0.261 C 
BRANCH   4   5
ATOM      5  O   UNL     1       2.349   2.501   0.059  1.00  0.00    -0.459 OA
BRANCH   5   6
ATOM      6  C   UNL     1       1.710   3.227  -0.898  1.00  0.00     0.368 C 
ATOM      7  O   UNL     1       1.935   3.094  -2.095  1.00  0.00    -0.245 OA
BRANCH   6   8
ATOM      8  C   UNL     1       0.697   4.258  -0.357  1.00  0.00     0.200 C 
ATOM      9  C   UNL     1       1.274   5.652  -0.654  1.00  0.00     0.087 C 
ATOM     10  C   UNL     1      -0.602   4.199  -1.219  1.00  0.00     0.146 C 
ATOM     11  C   UNL     1       0.071   6.527  -0.944  1.00  0.00     0.072 C 
ATOM     12  C   UNL     1      -0.912   5.627  -1.709  1.00  0.00     0.191 C 
BRANCH   8  13
ATOM     13  N   UNL     1       0.256   3.991   1.037  1.00  0.00    -0.332 N 
ATOM     14  H   UNL     1      -0.690   4.360   1.138  1.00  0.00     0.347 HD
ATOM     15  H   UNL     1       0.332   2.981   1.155  1.00  0.00     0.347 HD
BRANCH  13  16
ATOM     16  C   UNL     1       1.072   4.567   2.101  1.00  0.00     0.257 C 
ATOM     17  C   UNL     1       0.484   4.172   3.450  1.00  0.00     0.071 C 
ENDBRANCH  13  16
ENDBRANCH   8  13
BRANCH  12  18
ATOM     18  N   UNL     1      -0.958   5.891  -3.155  1.00  0.00    -0.328 N 
ATOM     19  C   UNL     1      -2.105   5.303  -3.867  1.00  0.00     0.291 C 
ATOM     20  C   UNL     1       0.269   5.749  -3.956  1.00  0.00     0.294 C 
ATOM     21  H   UNL     1      -1.087   6.900  -3.087  1.00  0.00     0.348 HD
ATOM     22  C   UNL     1      -1.839   3.956  -4.562  1.00  0.00     0.222 C 
ATOM     23  C   UNL     1       0.483   4.348  -4.569  1.00  0.00     0.173 C 
ATOM     24  O   UNL     1      -0.660   3.997  -5.378  1.00  0.00    -0.367 OA
BRANCH  23  25
ATOM     25  C   UNL     1       1.740   4.239  -5.443  1.00  0.00     0.034 C 
ATOM     26  C   UNL     1       3.033   4.673  -4.765  1.00  0.00     0.007 C 
ENDBRANCH  23  25
ENDBRANCH  12  18
ENDBRANCH   6   8
ENDBRANCH   5   6
ENDBRANCH   4   5
ENDBRANCH   3   4
ENDBRANCH   2   3
ENDBRANCH   1   2
BRANCH   1  27
ATOM     27  C   UNL     1       0.193  -0.914   0.125  1.00  0.00     0.261 C 
BRANCH  27  28
ATOM     28  O   UNL     1       0.842  -0.627   1.380  1.00  0.00    -0.460 OA
BRANCH  28  29
ATOM     29  C   UNL     1       1.629  -1.619   1.860  1.00  0.00     0.338 C 
ATOM     30  O   UNL     1       1.773  -2.740   1.388  1.00  0.00    -0.246 OA
BRANCH  29  31
ATOM     31  C   UNL     1       2.484  -1.099   2.941  1.00  0.00     0.060 A 
ATOM     32  C   UNL     1       3.872  -1.192   2.776  1.00  0.00     0.016 A 
ATOM     33  C   UNL     1       1.940  -0.597   4.124  1.00  0.00     0.016 A 
ATOM     34  C   UNL     1       4.723  -0.818   3.813  1.00  0.00     0.010 A 
ATOM     35  C   UNL     1       2.797  -0.235   5.170  1.00  0.00     0.010 A 
ATOM     36  C   UNL     1       4.190  -0.373   5.030  1.00  0.00    -0.014 A 
BRANCH  36  37
ATOM     37  C   UNL     1       5.095  -0.171   6.186  1.00  0.00     0.031 A 
ATOM     38  C   UNL     1       5.223  -1.257   7.220  1.00  0.00     0.074 A 
ATOM     39  C   UNL     1       5.829   0.952   6.288  1.00  0.00     0.049 A 
ATOM     40  N   UNL     1       5.966  -1.294   8.295  1.00  0.00    -0.248 NA
ATOM     41  C   UNL     1       4.403  -2.462   7.012  1.00  0.00     0.031 C 
ATOM     42  C   UNL     1       5.809   2.061   5.335  1.00  0.00     0.029 A 
ATOM     43  N   UNL     1       6.734   1.343   7.242  1.00  0.00    -0.354 N 
ATOM     44  C   UNL     1       5.707  -2.522   8.893  1.00  0.00     0.074 A 
ATOM     45  C   UNL     1       4.713  -3.187   8.077  1.00  0.00     0.031 C 
ATOM     46  C   UNL     1       6.660   3.012   5.756  1.00  0.00     0.029 A 
ATOM     47  C   UNL     1       7.266   2.589   7.017  1.00  0.00     0.049 A 
ATOM     48  H   UNL     1       6.978   0.783   8.014  1.00  0.00     0.167 HD
ATOM     49  C   UNL     1       6.255  -3.051  10.013  1.00  0.00     0.037 A 
ATOM     50  C   UNL     1       8.134   3.311   7.753  1.00  0.00     0.037 A 
ATOM     51  C   UNL     1       7.242  -2.383  10.823  1.00  0.00     0.049 A 
ATOM     52  C   UNL     1       8.693   2.722   9.021  1.00  0.00     0.074 A 
ATOM     53  C   UNL     1       7.872  -2.842  11.967  1.00  0.00     0.029 A 
ATOM     54  N   UNL     1       7.736  -1.109  10.581  1.00  0.00    -0.354 N 
ATOM     55  N   UNL     1       8.459   1.548   9.560  1.00  0.00    -0.248 NA
ATOM     56  C   UNL     1       9.642   3.552   9.776  1.00  0.00     0.031 C 
ATOM     57  C   UNL     1       8.714  -1.828  12.441  1.00  0.00     0.029 A 
ATOM     58  C   UNL     1       8.645  -0.757  11.565  1.00  0.00     0.049 A 
ATOM     59  H   UNL     1       7.478  -0.539   9.821  1.00  0.00     0.167 HD
ATOM     60  C   UNL     1       9.246   1.492  10.706  1.00  0.00     0.074 A 
ATOM     61  C   UNL     1       9.976   2.742  10.771  1.00  0.00     0.031 C 
ATOM     62  C   UNL     1       9.357   0.496  11.621  1.00  0.00     0.037 A 
BRANCH  49  63
ATOM     63  C   UNL     1       5.783  -4.413  10.441  1.00  0.00     0.058 A 
ATOM     64  C   UNL     1       6.146  -5.574   9.741  1.00  0.00     0.135 A 
ATOM     65  C   UNL     1       4.980  -4.562  11.583  1.00  0.00     0.135 A 
ATOM     66  F   UNL     1       6.897  -5.488   8.631  1.00  0.00    -0.206 F 
ATOM     67  C   UNL     1       5.710  -6.833  10.143  1.00  0.00     0.059 A 
ATOM     68  C   UNL     1       4.552  -5.813  12.018  1.00  0.00     0.059 A 
ATOM     69  F   UNL     1       4.601  -3.484  12.288  1.00  0.00    -0.206 F 
ATOM     70  C   UNL     1       4.912  -6.942  11.283  1.00  0.00     0.060 A 
BRANCH  70  71
ATOM     71  S   UNL     1       4.355  -8.581  11.796  1.00  0.00     0.124 S 
ATOM     72  O   UNL     1       3.336  -8.869  10.791  1.00  0.00    -0.237 OA
ATOM     73  O   UNL     1       5.579  -9.371  11.701  1.00  0.00    -0.237 OA
ATOM     74  O   UNL     1       3.857  -8.363  13.150  1.00  0.00    -0.744 OA
ENDBRANCH  70  71
ENDBRANCH  49  63
BRANCH  50  75
ATOM     75  C   UNL     1       8.525   4.675   7.310  1.00  0.00     0.058 A 
ATOM     76  C   UNL     1       9.818   4.943   6.838  1.00  0.00     0.135 A 
ATOM     77  C   UNL     1       7.608   5.737   7.345  1.00  0.00     0.135 A 
ATOM     78  F   UNL     1      10.732   3.962   6.795  1.00  0.00    -0.206 F 
ATOM     79  C   UNL     1      10.193   6.218   6.427  1.00  0.00     0.059 A 
ATOM     80  C   UNL     1       7.952   7.014   6.917  1.00  0.00     0.059 A 
ATOM     81  F   UNL     1       6.354   5.529   7.777  1.00  0.00    -0.206 F 
ATOM     82  C   UNL     1       9.251   7.247   6.467  1.00  0.00     0.060 A 
BRANCH  82  83
ATOM     83  S   UNL     1       9.727   8.885   5.874  1.00  0.00     0.124 S 
ATOM     84  O   UNL     1      10.560   9.363   6.971  1.00  0.00    -0.237 OA
ATOM     85  O   UNL     1      10.425   8.570   4.631  1.00  0.00    -0.237 OA
ATOM     86  O   UNL     1       8.447   9.565   5.708  1.00  0.00    -0.744 OA
ENDBRANCH  82  83
ENDBRANCH  50  75
BRANCH  62  87
ATOM     87  C   UNL     1      10.318   0.715  12.758  1.00  0.00     0.058 A 
ATOM     88  C   UNL     1      10.042   1.623  13.792  1.00  0.00     0.135 A 
ATOM     89  C   UNL     1      11.523  -0.004  12.821  1.00  0.00     0.135 A 
ATOM     90  F   UNL     1       8.906   2.338  13.778  1.00  0.00    -0.206 F 
ATOM     91  C   UNL     1      10.946   1.843  14.826  1.00  0.00     0.059 A 
ATOM     92  C   UNL     1      12.429   0.179  13.861  1.00  0.00     0.059 A 
ATOM     93  F   UNL     1      11.829  -0.896  11.866  1.00  0.00    -0.206 F 
ATOM     94  C   UNL     1      12.140   1.121  14.849  1.00  0.00     0.060 A 
BRANCH  94  95
ATOM     95  S   UNL     1      13.310   1.416  16.192  1.00  0.00     0.124 S 
ATOM     96  O   UNL     1      13.904   2.686  15.788  1.00  0.00    -0.237 OA
ATOM     97  O   UNL     1      12.439   1.468  17.362  1.00  0.00    -0.237 OA
ATOM     98  O   UNL     1      14.197   0.258  16.130  1.00  0.00    -0.744 OA
ENDBRANCH  94  95
ENDBRANCH  62  87
ENDBRANCH  36  37
ENDBRANCH  29  31
ENDBRANCH  28  29
ENDBRANCH  27  28
ENDBRANCH   1  27
TORSDOF 21
