REMARK SMILES O=C(COc1cc(-c2ccncc2)nc(Nc2ccccc2Br)n1)OCCOCCOC(=O)c1ccc(-c2c3nc(c(-c4c(F)cc(S(=O)(=O)[O-])cc4F)c4ccc([nH]4)c(-c4c(F)cc(S(=O)(=O)[O-])cc4F)c4nc(c(-c5c(F)cc(S(=O)(=O)[O-])cc5F)c5ccc2[nH]5)C=C4)C=C3)cc1
REMARK SMILES IDX 27 1 26 2 25 3 2 4 1 5 3 6 4 7 5 8 6 9 24 10 7 11 15 12
REMARK SMILES IDX 14 13 8 14 9 15 13 16 10 17 12 18 11 19 16 20 17 22 18 23
REMARK SMILES IDX 22 24 19 25 21 26 23 27 20 28 28 29 29 30 30 31 31 32 32 33
REMARK SMILES IDX 33 34 34 35 35 36 99 37 36 38 98 39 37 40 38 41 39 42 92 43
REMARK SMILES IDX 40 44 97 45 91 46 93 47 41 48 96 49 90 50 89 51 42 53 76 54
REMARK SMILES IDX 55 55 75 56 56 57 59 58 74 59 94 60 57 61 58 62 73 64 95 65
REMARK SMILES IDX 60 66 43 67 44 68 53 69 45 70 46 71 52 72 54 73 47 74 48 75
REMARK SMILES IDX 49 76 50 77 51 78 77 79 78 80 87 81 79 82 80 83 86 84 88 85
REMARK SMILES IDX 81 86 82 87 83 88 84 89 85 90 61 91 62 92 71 93 63 94 64 95
REMARK SMILES IDX 70 96 72 97 65 98 66 99 67 100 68 101 69 102
REMARK H PARENT 16 21 93 52 59 63
REMARK Flexibility Score: inf
ROOT
ATOM      1  C   UNL     1       4.707  -1.099  -0.111  1.00  0.00     0.202 C 
ENDROOT
BRANCH   1   2
ATOM      2  C   UNL     1       4.073  -0.044   0.793  1.00  0.00     0.261 C 
BRANCH   2   3
ATOM      3  O   UNL     1       2.635  -0.042   0.796  1.00  0.00    -0.461 OA
BRANCH   3   4
ATOM      4  C   UNL     1       1.864   0.561  -0.142  1.00  0.00     0.344 C 
ATOM      5  O   UNL     1       0.641   0.428  -0.106  1.00  0.00    -0.248 OA
BRANCH   4   6
ATOM      6  C   UNL     1       2.526   1.393  -1.232  1.00  0.00     0.353 C 
BRANCH   6   7
ATOM      7  O   UNL     1       3.596   2.226  -0.831  1.00  0.00    -0.466 OA
BRANCH   7   8
ATOM      8  C   UNL     1       3.150   3.366  -0.239  1.00  0.00     0.219 A 
ATOM      9  C   UNL     1       2.357   3.380   0.869  1.00  0.00     0.097 A 
ATOM     10  N   UNL     1       3.543   4.463  -0.862  1.00  0.00    -0.177 NA
ATOM     11  C   UNL     1       1.843   4.606   1.224  1.00  0.00     0.080 A 
ATOM     12  C   UNL     1       3.071   5.633  -0.427  1.00  0.00     0.231 A 
ATOM     13  N   UNL     1       2.196   5.750   0.590  1.00  0.00    -0.212 NA
BRANCH  11  14
ATOM     14  C   UNL     1       0.751   4.635   2.210  1.00  0.00     0.004 A 
ATOM     15  C   UNL     1       0.857   3.961   3.438  1.00  0.00     0.030 A 
ATOM     16  C   UNL     1      -0.498   5.161   1.867  1.00  0.00     0.030 A 
ATOM     17  C   UNL     1      -0.271   3.816   4.231  1.00  0.00     0.111 A 
ATOM     18  C   UNL     1      -1.569   4.963   2.725  1.00  0.00     0.111 A 
ATOM     19  N   UNL     1      -1.484   4.298   3.896  1.00  0.00    -0.265 NA
ENDBRANCH  11  14
BRANCH  12  20
ATOM     20  N   UNL     1       3.562   6.780  -1.058  1.00  0.00    -0.323 N 
ATOM     21  H   UNL     1       3.206   7.653  -0.775  1.00  0.00     0.170 HD
BRANCH  20  22
ATOM     22  C   UNL     1       4.539   6.758  -2.077  1.00  0.00     0.055 A 
ATOM     23  C   UNL     1       5.831   7.220  -1.776  1.00  0.00     0.027 A 
ATOM     24  C   UNL     1       4.346   6.109  -3.317  1.00  0.00     0.041 A 
ATOM     25  C   UNL     1       6.894   7.028  -2.668  1.00  0.00     0.002 A 
ATOM     26  C   UNL     1       5.411   5.916  -4.206  1.00  0.00     0.018 A 
ATOM     27  Br  UNL     1       2.629   5.515  -3.899  1.00  0.00    -0.049 Br
ATOM     28  C   UNL     1       6.686   6.369  -3.877  1.00  0.00     0.001 A 
ENDBRANCH  20  22
ENDBRANCH  12  20
ENDBRANCH   7   8
ENDBRANCH   6   7
ENDBRANCH   4   6
ENDBRANCH   3   4
ENDBRANCH   2   3
ENDBRANCH   1   2
BRANCH   1  29
ATOM     29  O   UNL     1       4.156  -1.306  -1.406  1.00  0.00    -0.374 OA
BRANCH  29  30
ATOM     30  C   UNL     1       2.953  -2.071  -1.521  1.00  0.00     0.202 C 
BRANCH  30  31
ATOM     31  C   UNL     1       2.995  -3.580  -1.273  1.00  0.00     0.261 C 
BRANCH  31  32
ATOM     32  O   UNL     1       3.339  -3.901   0.082  1.00  0.00    -0.460 OA
BRANCH  32  33
ATOM     33  C   UNL     1       4.602  -4.359   0.238  1.00  0.00     0.338 C 
ATOM     34  O   UNL     1       5.423  -4.566  -0.647  1.00  0.00    -0.246 OA
BRANCH  33  35
ATOM     35  C   UNL     1       4.958  -4.360   1.667  1.00  0.00     0.060 A 
ATOM     36  C   UNL     1       6.194  -3.801   2.020  1.00  0.00     0.016 A 
ATOM     37  C   UNL     1       4.133  -4.940   2.633  1.00  0.00     0.016 A 
ATOM     38  C   UNL     1       6.651  -3.902   3.326  1.00  0.00     0.010 A 
ATOM     39  C   UNL     1       4.597  -5.048   3.945  1.00  0.00     0.010 A 
ATOM     40  C   UNL     1       5.880  -4.579   4.279  1.00  0.00    -0.014 A 
BRANCH  40  41
ATOM     41  C   UNL     1       6.518  -4.969   5.556  1.00  0.00     0.031 A 
ATOM     42  C   UNL     1       7.027  -6.378   5.701  1.00  0.00     0.074 A 
ATOM     43  C   UNL     1       6.705  -4.061   6.529  1.00  0.00     0.049 A 
ATOM     44  N   UNL     1       7.630  -6.941   6.714  1.00  0.00    -0.248 NA
ATOM     45  C   UNL     1       6.828  -7.273   4.548  1.00  0.00     0.031 C 
ATOM     46  C   UNL     1       6.281  -2.662   6.471  1.00  0.00     0.029 A 
ATOM     47  N   UNL     1       7.304  -4.182   7.755  1.00  0.00    -0.354 N 
ATOM     48  C   UNL     1       7.889  -8.248   6.319  1.00  0.00     0.074 A 
ATOM     49  C   UNL     1       7.334  -8.412   4.995  1.00  0.00     0.031 C 
ATOM     50  C   UNL     1       6.624  -2.056   7.620  1.00  0.00     0.029 A 
ATOM     51  C   UNL     1       7.267  -3.029   8.500  1.00  0.00     0.049 A 
ATOM     52  H   UNL     1       7.721  -5.016   8.071  1.00  0.00     0.167 HD
ATOM     53  C   UNL     1       8.550  -9.218   6.994  1.00  0.00     0.037 A 
ATOM     54  C   UNL     1       7.689  -2.797   9.758  1.00  0.00     0.037 A 
ATOM     55  C   UNL     1       9.091  -9.042   8.316  1.00  0.00     0.049 A 
ATOM     56  C   UNL     1       8.366  -3.912  10.514  1.00  0.00     0.074 A 
ATOM     57  C   UNL     1       9.768  -9.960   9.100  1.00  0.00     0.029 A 
ATOM     58  N   UNL     1       9.017  -7.866   9.050  1.00  0.00    -0.354 N 
ATOM     59  N   UNL     1       8.614  -5.141  10.126  1.00  0.00    -0.248 NA
ATOM     60  C   UNL     1       8.832  -3.604  11.872  1.00  0.00     0.031 C 
ATOM     61  C   UNL     1      10.063  -9.352  10.325  1.00  0.00     0.029 A 
ATOM     62  C   UNL     1       9.622  -8.038  10.283  1.00  0.00     0.049 A 
ATOM     63  H   UNL     1       8.596  -7.033   8.739  1.00  0.00     0.167 HD
ATOM     64  C   UNL     1       9.288  -5.746  11.182  1.00  0.00     0.074 A 
ATOM     65  C   UNL     1       9.427  -4.739  12.215  1.00  0.00     0.031 C 
ATOM     66  C   UNL     1       9.750  -7.017  11.293  1.00  0.00     0.037 A 
BRANCH  53  67
ATOM     67  C   UNL     1       8.712 -10.553   6.318  1.00  0.00     0.058 A 
ATOM     68  C   UNL     1       9.566 -10.721   5.215  1.00  0.00     0.135 A 
ATOM     69  C   UNL     1       8.034 -11.685   6.796  1.00  0.00     0.135 A 
ATOM     70  F   UNL     1      10.221  -9.669   4.701  1.00  0.00    -0.206 F 
ATOM     71  C   UNL     1       9.726 -11.959   4.600  1.00  0.00     0.059 A 
ATOM     72  C   UNL     1       8.201 -12.939   6.215  1.00  0.00     0.059 A 
ATOM     73  F   UNL     1       7.199 -11.581   7.843  1.00  0.00    -0.206 F 
ATOM     74  C   UNL     1       9.042 -13.063   5.110  1.00  0.00     0.060 A 
BRANCH  74  75
ATOM     75  S   UNL     1       9.278 -14.665   4.312  1.00  0.00     0.124 S 
ATOM     76  O   UNL     1       8.572 -14.469   3.049  1.00  0.00    -0.237 OA
ATOM     77  O   UNL     1      10.731 -14.755   4.218  1.00  0.00    -0.237 OA
ATOM     78  O   UNL     1       8.653 -15.603   5.239  1.00  0.00    -0.744 OA
ENDBRANCH  74  75
ENDBRANCH  53  67
BRANCH  54  79
ATOM     79  C   UNL     1       7.466  -1.467  10.386  1.00  0.00     0.058 A 
ATOM     80  C   UNL     1       8.536  -0.618  10.703  1.00  0.00     0.135 A 
ATOM     81  C   UNL     1       6.169  -1.024  10.691  1.00  0.00     0.135 A 
ATOM     82  F   UNL     1       9.796  -0.997  10.436  1.00  0.00    -0.206 F 
ATOM     83  C   UNL     1       8.332   0.611  11.323  1.00  0.00     0.059 A 
ATOM     84  C   UNL     1       5.938   0.213  11.283  1.00  0.00     0.059 A 
ATOM     85  F   UNL     1       5.108  -1.790  10.393  1.00  0.00    -0.206 F 
ATOM     86  C   UNL     1       7.028   1.017  11.610  1.00  0.00     0.060 A 
BRANCH  86  87
ATOM     87  S   UNL     1       6.770   2.627  12.386  1.00  0.00     0.124 S 
ATOM     88  O   UNL     1       7.229   2.372  13.747  1.00  0.00    -0.237 OA
ATOM     89  O   UNL     1       7.619   3.495  11.576  1.00  0.00    -0.237 OA
ATOM     90  O   UNL     1       5.335   2.846  12.233  1.00  0.00    -0.744 OA
ENDBRANCH  86  87
ENDBRANCH  54  79
BRANCH  66  91
ATOM     91  C   UNL     1      10.479  -7.374  12.560  1.00  0.00     0.058 A 
ATOM     92  C   UNL     1       9.812  -7.496  13.789  1.00  0.00     0.135 A 
ATOM     93  C   UNL     1      11.862  -7.621  12.537  1.00  0.00     0.135 A 
ATOM     94  F   UNL     1       8.491  -7.269  13.867  1.00  0.00    -0.206 F 
ATOM     95  C   UNL     1      10.497  -7.809  14.959  1.00  0.00     0.059 A 
ATOM     96  C   UNL     1      12.561  -7.968  13.689  1.00  0.00     0.059 A 
ATOM     97  F   UNL     1      12.546  -7.533  11.386  1.00  0.00    -0.206 F 
ATOM     98  C   UNL     1      11.873  -8.040  14.899  1.00  0.00     0.060 A 
BRANCH  98  99
ATOM     99  S   UNL     1      12.749  -8.446  16.423  1.00  0.00     0.124 S 
ATOM    100  O   UNL     1      12.777  -7.153  17.099  1.00  0.00    -0.237 OA
ATOM    101  O   UNL     1      11.882  -9.457  17.022  1.00  0.00    -0.237 OA
ATOM    102  O   UNL     1      14.040  -8.937  15.952  1.00  0.00    -0.744 OA
ENDBRANCH  98  99
ENDBRANCH  66  91
ENDBRANCH  40  41
ENDBRANCH  33  35
ENDBRANCH  32  33
ENDBRANCH  31  32
ENDBRANCH  30  31
ENDBRANCH  29  30
ENDBRANCH   1  29
TORSDOF 22
