REMARK SMILES Nc1ccc(C(=O)NC[C@@H]2CC[C@@H](C(=O)OCCOCCOC(=O)c3ccc(-c4c5nc(c(-c6c(F)cc(S(=O)(=O)[O-])cc6F)c6ccc([nH]6)c(-c6c(F)cc(S(=O)(=O)[O-])cc6F)c6nc(c(-c7c(F)cc(S(=O)(=O)[O-])cc7F)c7ccc4[nH]7)C=C6)C=C5)cc3)O2)cc1Cl
REMARK SMILES IDX 18 1 17 2 16 3 14 4 15 5 13 6 10 7 11 8 91 9 12 10 9 11 8 12
REMARK SMILES IDX 6 13 7 14 5 16 2 17 3 18 93 19 4 20 92 21 94 22 1 23 19 26
REMARK SMILES IDX 20 27 21 28 22 29 23 30 24 31 25 32 26 33 90 34 27 35 89 36
REMARK SMILES IDX 28 37 29 38 30 39 83 40 31 41 88 42 82 43 84 44 32 45 87 46
REMARK SMILES IDX 81 47 80 48 33 50 67 51 46 52 66 53 47 54 50 55 65 56 85 57
REMARK SMILES IDX 48 58 49 59 64 61 86 62 51 63 34 64 35 65 44 66 36 67 37 68
REMARK SMILES IDX 43 69 45 70 38 71 39 72 40 73 41 74 42 75 68 76 69 77 78 78
REMARK SMILES IDX 70 79 71 80 77 81 79 82 72 83 73 84 74 85 75 86 76 87 52 88
REMARK SMILES IDX 53 89 62 90 54 91 55 92 61 93 63 94 56 95 57 96 58 97 59 98
REMARK SMILES IDX 60 99
REMARK H PARENT 8 15 1 24 1 25 84 49 50 60
REMARK Flexibility Score: inf
ROOT
ATOM      1  C   UNL     1       7.200  -3.215  -5.604  1.00  0.00     0.202 C 
ENDROOT
BRANCH   1   2
ATOM      2  C   UNL     1       7.815  -2.657  -4.318  1.00  0.00     0.261 C 
BRANCH   2   3
ATOM      3  O   UNL     1       6.788  -2.038  -3.530  1.00  0.00    -0.461 OA
BRANCH   3   4
ATOM      4  C   UNL     1       7.069  -0.793  -3.058  1.00  0.00     0.335 C 
ATOM      5  O   UNL     1       8.182  -0.283  -3.017  1.00  0.00    -0.249 OA
BRANCH   4   6
ATOM      6  C   UNL     1       5.768  -0.076  -2.683  1.00  0.00     0.228 C 
ATOM      7  C   UNL     1       5.795   1.425  -0.919  1.00  0.00     0.138 C 
ATOM      8  C   UNL     1       5.298   2.197  -2.130  1.00  0.00     0.037 C 
ATOM      9  O   UNL     1       5.602   0.046  -1.267  1.00  0.00    -0.361 OA
ATOM     10  C   UNL     1       5.747   1.331  -3.280  1.00  0.00     0.047 C 
BRANCH   7  11
ATOM     11  C   UNL     1       5.125   1.737   0.431  1.00  0.00     0.148 C 
BRANCH  11  12
ATOM     12  N   UNL     1       4.001   2.658   0.347  1.00  0.00    -0.349 N 
ATOM     13  C   UNL     1       2.651   2.539   0.177  1.00  0.00     0.251 C 
ATOM     14  O   UNL     1       2.033   3.606   0.101  1.00  0.00    -0.269 OA
ATOM     15  H   UNL     1       4.283   3.597   0.434  1.00  0.00     0.163 HD
BRANCH  13  16
ATOM     16  C   UNL     1       1.879   1.264   0.086  1.00  0.00     0.041 A 
ATOM     17  C   UNL     1       0.181  -1.022  -0.029  1.00  0.00     0.050 A 
ATOM     18  C   UNL     1       1.570  -1.144  -0.107  1.00  0.00     0.028 A 
ATOM     19  C   UNL     1      -0.355   0.271   0.043  1.00  0.00     0.064 A 
ATOM     20  C   UNL     1       2.409  -0.018  -0.048  1.00  0.00     0.016 A 
ATOM     21  C   UNL     1       0.478   1.392   0.113  1.00  0.00     0.036 A 
ATOM     22  Cl  UNL     1      -2.068   0.519   0.070  1.00  0.00    -0.082 Cl
BRANCH  17  23
ATOM     23  N   UNL     1      -0.619  -2.151  -0.161  1.00  0.00    -0.398 N 
ATOM     24  H   UNL     1      -0.206  -3.044  -0.208  1.00  0.00     0.156 HD
ATOM     25  H   UNL     1      -1.598  -2.058  -0.206  1.00  0.00     0.156 HD
ENDBRANCH  17  23
ENDBRANCH  13  16
ENDBRANCH  11  12
ENDBRANCH   7  11
ENDBRANCH   4   6
ENDBRANCH   3   4
ENDBRANCH   2   3
ENDBRANCH   1   2
BRANCH   1  26
ATOM     26  O   UNL     1       6.688  -2.245  -6.524  1.00  0.00    -0.374 OA
BRANCH  26  27
ATOM     27  C   UNL     1       5.468  -1.585  -6.189  1.00  0.00     0.202 C 
BRANCH  27  28
ATOM     28  C   UNL     1       4.165  -2.380  -6.348  1.00  0.00     0.261 C 
BRANCH  28  29
ATOM     29  O   UNL     1       4.118  -3.557  -5.525  1.00  0.00    -0.460 OA
BRANCH  29  30
ATOM     30  C   UNL     1       4.163  -4.723  -6.213  1.00  0.00     0.338 C 
ATOM     31  O   UNL     1       4.173  -4.859  -7.431  1.00  0.00    -0.246 OA
BRANCH  30  32
ATOM     32  C   UNL     1       4.382  -5.856  -5.298  1.00  0.00     0.060 A 
ATOM     33  C   UNL     1       5.493  -6.672  -5.542  1.00  0.00     0.016 A 
ATOM     34  C   UNL     1       3.481  -6.170  -4.277  1.00  0.00     0.016 A 
ATOM     35  C   UNL     1       5.686  -7.829  -4.792  1.00  0.00     0.010 A 
ATOM     36  C   UNL     1       3.672  -7.340  -3.531  1.00  0.00     0.010 A 
ATOM     37  C   UNL     1       4.758  -8.191  -3.806  1.00  0.00    -0.014 A 
BRANCH  37  38
ATOM     38  C   UNL     1       4.878  -9.521  -3.159  1.00  0.00     0.031 A 
ATOM     39  C   UNL     1       4.031 -10.662  -3.656  1.00  0.00     0.074 A 
ATOM     40  C   UNL     1       5.781  -9.724  -2.183  1.00  0.00     0.049 A 
ATOM     41  N   UNL     1       3.998 -11.905  -3.252  1.00  0.00    -0.248 NA
ATOM     42  C   UNL     1       3.101 -10.362  -4.757  1.00  0.00     0.031 C 
ATOM     43  C   UNL     1       6.676  -8.705  -1.635  1.00  0.00     0.029 A 
ATOM     44  N   UNL     1       6.096 -10.860  -1.479  1.00  0.00    -0.354 N 
ATOM     45  C   UNL     1       3.058 -12.541  -4.055  1.00  0.00     0.074 A 
ATOM     46  C   UNL     1       2.513 -11.536  -4.943  1.00  0.00     0.031 C 
ATOM     47  C   UNL     1       7.431  -9.259  -0.671  1.00  0.00     0.029 A 
ATOM     48  C   UNL     1       7.062 -10.665  -0.521  1.00  0.00     0.049 A 
ATOM     49  H   UNL     1       5.669 -11.731  -1.645  1.00  0.00     0.167 HD
ATOM     50  C   UNL     1       2.694 -13.845  -4.064  1.00  0.00     0.037 A 
ATOM     51  C   UNL     1       7.577 -11.521   0.384  1.00  0.00     0.037 A 
ATOM     52  C   UNL     1       3.233 -14.843  -3.175  1.00  0.00     0.049 A 
ATOM     53  C   UNL     1       7.115 -12.955   0.391  1.00  0.00     0.074 A 
ATOM     54  C   UNL     1       2.921 -16.190  -3.102  1.00  0.00     0.029 A 
ATOM     55  N   UNL     1       4.194 -14.603  -2.205  1.00  0.00    -0.354 N 
ATOM     56  N   UNL     1       6.236 -13.542  -0.385  1.00  0.00    -0.248 NA
ATOM     57  C   UNL     1       7.723 -13.845   1.391  1.00  0.00     0.031 C 
ATOM     58  C   UNL     1       3.668 -16.757  -2.064  1.00  0.00     0.029 A 
ATOM     59  C   UNL     1       4.477 -15.773  -1.519  1.00  0.00     0.049 A 
ATOM     60  H   UNL     1       4.614 -13.730  -2.029  1.00  0.00     0.167 HD
ATOM     61  C   UNL     1       6.199 -14.873   0.020  1.00  0.00     0.074 A 
ATOM     62  C   UNL     1       7.160 -15.008   1.096  1.00  0.00     0.031 C 
ATOM     63  C   UNL     1       5.438 -15.891  -0.452  1.00  0.00     0.037 A 
BRANCH  50  64
ATOM     64  C   UNL     1       1.660 -14.275  -5.066  1.00  0.00     0.058 A 
ATOM     65  C   UNL     1       1.971 -14.398  -6.430  1.00  0.00     0.135 A 
ATOM     66  C   UNL     1       0.363 -14.622  -4.655  1.00  0.00     0.135 A 
ATOM     67  F   UNL     1       3.191 -14.061  -6.878  1.00  0.00    -0.206 F 
ATOM     68  C   UNL     1       1.028 -14.839  -7.353  1.00  0.00     0.059 A 
ATOM     69  C   UNL     1      -0.589 -15.086  -5.558  1.00  0.00     0.059 A 
ATOM     70  F   UNL     1       0.014 -14.518  -3.363  1.00  0.00    -0.206 F 
ATOM     71  C   UNL     1      -0.249 -15.184  -6.907  1.00  0.00     0.060 A 
BRANCH  71  72
ATOM     72  S   UNL     1      -1.452 -15.780  -8.114  1.00  0.00     0.124 S 
ATOM     73  O   UNL     1      -1.782 -14.550  -8.827  1.00  0.00    -0.237 OA
ATOM     74  O   UNL     1      -0.678 -16.761  -8.867  1.00  0.00    -0.237 OA
ATOM     75  O   UNL     1      -2.520 -16.331  -7.285  1.00  0.00    -0.744 OA
ENDBRANCH  71  72
ENDBRANCH  50  64
BRANCH  51  76
ATOM     76  C   UNL     1       8.574 -11.043   1.379  1.00  0.00     0.058 A 
ATOM     77  C   UNL     1       9.909 -11.468   1.340  1.00  0.00     0.135 A 
ATOM     78  C   UNL     1       8.196 -10.167   2.410  1.00  0.00     0.135 A 
ATOM     79  F   UNL     1      10.317 -12.312   0.380  1.00  0.00    -0.206 F 
ATOM     80  C   UNL     1      10.831 -11.064   2.302  1.00  0.00     0.059 A 
ATOM     81  C   UNL     1       9.104  -9.729   3.367  1.00  0.00     0.059 A 
ATOM     82  F   UNL     1       6.933  -9.720   2.484  1.00  0.00    -0.206 F 
ATOM     83  C   UNL     1      10.417 -10.196   3.314  1.00  0.00     0.060 A 
BRANCH  83  84
ATOM     84  S   UNL     1      11.621  -9.655   4.546  1.00  0.00     0.124 S 
ATOM     85  O   UNL     1      11.722 -10.836   5.395  1.00  0.00    -0.237 OA
ATOM     86  O   UNL     1      12.790  -9.356   3.724  1.00  0.00    -0.237 OA
ATOM     87  O   UNL     1      10.978  -8.493   5.152  1.00  0.00    -0.744 OA
ENDBRANCH  83  84
ENDBRANCH  51  76
BRANCH  63  88
ATOM     88  C   UNL     1       5.632 -17.244   0.176  1.00  0.00     0.058 A 
ATOM     89  C   UNL     1       5.164 -17.530   1.468  1.00  0.00     0.135 A 
ATOM     90  C   UNL     1       6.266 -18.276  -0.535  1.00  0.00     0.135 A 
ATOM     91  F   UNL     1       4.555 -16.577   2.191  1.00  0.00    -0.206 F 
ATOM     92  C   UNL     1       5.348 -18.781   2.047  1.00  0.00     0.059 A 
ATOM     93  C   UNL     1       6.437 -19.543   0.014  1.00  0.00     0.059 A 
ATOM     94  F   UNL     1       6.720 -18.060  -1.780  1.00  0.00    -0.206 F 
ATOM     95  C   UNL     1       5.990 -19.781   1.313  1.00  0.00     0.060 A 
BRANCH  95  96
ATOM     96  S   UNL     1       6.214 -21.404   2.071  1.00  0.00     0.124 S 
ATOM     97  O   UNL     1       7.317 -21.149   2.990  1.00  0.00    -0.237 OA
ATOM     98  O   UNL     1       4.915 -21.645   2.691  1.00  0.00    -0.237 OA
ATOM     99  O   UNL     1       6.529 -22.267   0.936  1.00  0.00    -0.744 OA
ENDBRANCH  95  96
ENDBRANCH  63  88
ENDBRANCH  37  38
ENDBRANCH  30  32
ENDBRANCH  29  30
ENDBRANCH  28  29
ENDBRANCH  27  28
ENDBRANCH  26  27
ENDBRANCH   1  26
TORSDOF 21
