REMARK SMILES CC1(C)S[C@H](c2ccc(-c3cccc([N+](=O)[O-])c3)o2)[NH2+][C@@H]1C(=O)OCCOCCOC(=O)c1ccc(-c2c3nc(c(-c4c(F)cc(S(=O)(=O)[O-])cc4F)c4ccc([nH]4)c(-c4c(F)cc(S(=O)(=O)[O-])cc4F)c4nc(c(-c5c(F)cc(S(=O)(=O)[O-])cc5F)c5ccc2[nH]5)C=C4)C=C3)cc1
REMARK SMILES IDX 27 1 26 2 25 3 24 4 22 5 23 6 21 7 1 8 2 9 3 10 4 11 5 12
REMARK SMILES IDX 20 13 6 16 7 17 19 18 8 19 9 20 10 21 11 22 18 23 12 24
REMARK SMILES IDX 14 25 13 26 15 27 16 28 17 29 28 30 29 31 30 32 31 33 32 34
REMARK SMILES IDX 33 35 34 36 98 37 35 38 97 39 36 40 37 41 38 42 91 43 39 44
REMARK SMILES IDX 96 45 90 46 92 47 40 48 95 49 89 50 88 51 41 53 75 54 54 55
REMARK SMILES IDX 74 56 55 57 58 58 73 59 93 60 56 61 57 62 72 64 94 65 59 66
REMARK SMILES IDX 42 67 43 68 52 69 44 70 45 71 51 72 53 73 46 74 47 75 48 76
REMARK SMILES IDX 49 77 50 78 76 79 77 80 86 81 78 82 79 83 85 84 87 85 80 86
REMARK SMILES IDX 81 87 82 88 83 89 84 90 60 91 61 92 70 93 62 94 63 95 69 96
REMARK SMILES IDX 71 97 64 98 65 99 66 100 67 101 68 102
REMARK H PARENT 20 14 20 15 92 52 58 63
REMARK Flexibility Score: inf
ROOT
ATOM      1  O   UNL     1       1.707   2.470  -4.350  1.00  0.00    -0.374 OA
ENDROOT
BRANCH   1   2
ATOM      2  C   UNL     1       0.489   2.238  -5.041  1.00  0.00     0.202 C 
BRANCH   2   3
ATOM      3  C   UNL     1      -0.638   1.511  -4.305  1.00  0.00     0.261 C 
BRANCH   3   4
ATOM      4  O   UNL     1      -0.647   1.662  -2.891  1.00  0.00    -0.459 OA
BRANCH   4   5
ATOM      5  C   UNL     1      -0.160   0.583  -2.204  1.00  0.00     0.366 C 
ATOM      6  O   UNL     1       0.308  -0.421  -2.725  1.00  0.00    -0.245 OA
BRANCH   5   7
ATOM      7  C   UNL     1      -0.264   0.850  -0.693  1.00  0.00     0.310 C 
ATOM      8  C   UNL     1       0.757   0.498   1.613  1.00  0.00     0.030 C 
ATOM      9  C   UNL     1       0.511  -0.125   0.222  1.00  0.00     0.079 C 
ATOM     10  C   UNL     1       1.866  -0.601  -0.315  1.00  0.00     0.030 C 
ATOM     11  S   UNL     1      -0.668  -1.504   0.430  1.00  0.00    -0.078 SA
ATOM     12  C   UNL     1      -2.121  -0.543  -0.144  1.00  0.00     0.311 C 
ATOM     13  N   UNL     1      -1.695   0.857  -0.280  1.00  0.00    -0.316 N 
ATOM     14  H   UNL     1      -1.798   1.341   0.612  1.00  0.00     0.348 HD
ATOM     15  H   UNL     1      -2.266   1.341  -0.972  1.00  0.00     0.348 HD
BRANCH  12  16
ATOM     16  C   UNL     1      -2.769  -1.155  -1.359  1.00  0.00     0.172 A 
ATOM     17  C   UNL     1      -3.214  -2.445  -1.592  1.00  0.00     0.054 A 
ATOM     18  O   UNL     1      -3.094  -0.366  -2.445  1.00  0.00    -0.454 OA
ATOM     19  C   UNL     1      -3.847  -2.447  -2.854  1.00  0.00     0.051 A 
ATOM     20  C   UNL     1      -3.750  -1.164  -3.345  1.00  0.00     0.134 A 
BRANCH  20  21
ATOM     21  C   UNL     1      -4.204  -0.567  -4.594  1.00  0.00     0.024 A 
ATOM     22  C   UNL     1      -3.282  -0.225  -5.591  1.00  0.00     0.012 A 
ATOM     23  C   UNL     1      -5.568  -0.469  -4.889  1.00  0.00     0.097 A 
ATOM     24  C   UNL     1      -3.688   0.298  -6.823  1.00  0.00     0.008 A 
ATOM     25  C   UNL     1      -5.978  -0.021  -6.158  1.00  0.00     0.270 A 
ATOM     26  C   UNL     1      -5.043   0.404  -7.111  1.00  0.00     0.085 A 
BRANCH  25  27
ATOM     27  N   UNL     1      -7.396  -0.083  -6.529  1.00  0.00     0.062 N 
ATOM     28  O   UNL     1      -7.706   0.273  -7.674  1.00  0.00    -0.258 OA
ATOM     29  O   UNL     1      -8.189  -0.504  -5.677  1.00  0.00    -0.258 OA
ENDBRANCH  25  27
ENDBRANCH  20  21
ENDBRANCH  12  16
ENDBRANCH   5   7
ENDBRANCH   4   5
ENDBRANCH   3   4
ENDBRANCH   2   3
ENDBRANCH   1   2
BRANCH   1  30
ATOM     30  C   UNL     1       1.684   3.311  -3.200  1.00  0.00     0.202 C 
BRANCH  30  31
ATOM     31  C   UNL     1       1.016   4.690  -3.294  1.00  0.00     0.261 C 
BRANCH  31  32
ATOM     32  O   UNL     1      -0.406   4.647  -3.530  1.00  0.00    -0.460 OA
BRANCH  32  33
ATOM     33  C   UNL     1      -0.815   5.279  -4.655  1.00  0.00     0.338 C 
ATOM     34  O   UNL     1      -0.097   5.830  -5.487  1.00  0.00    -0.246 OA
BRANCH  33  35
ATOM     35  C   UNL     1      -2.263   5.139  -4.870  1.00  0.00     0.060 A 
ATOM     36  C   UNL     1      -2.700   4.523  -6.050  1.00  0.00     0.016 A 
ATOM     37  C   UNL     1      -3.174   5.778  -4.025  1.00  0.00     0.016 A 
ATOM     38  C   UNL     1      -4.045   4.590  -6.415  1.00  0.00     0.010 A 
ATOM     39  C   UNL     1      -4.521   5.856  -4.401  1.00  0.00     0.010 A 
ATOM     40  C   UNL     1      -4.955   5.300  -5.617  1.00  0.00    -0.014 A 
BRANCH  40  41
ATOM     41  C   UNL     1      -6.319   5.570  -6.135  1.00  0.00     0.031 A 
ATOM     42  C   UNL     1      -6.587   6.848  -6.883  1.00  0.00     0.074 A 
ATOM     43  C   UNL     1      -7.311   4.681  -5.951  1.00  0.00     0.049 A 
ATOM     44  N   UNL     1      -7.693   7.262  -7.445  1.00  0.00    -0.248 NA
ATOM     45  C   UNL     1      -5.465   7.793  -6.991  1.00  0.00     0.031 C 
ATOM     46  C   UNL     1      -7.188   3.438  -5.195  1.00  0.00     0.029 A 
ATOM     47  N   UNL     1      -8.612   4.685  -6.389  1.00  0.00    -0.354 N 
ATOM     48  C   UNL     1      -7.415   8.531  -7.939  1.00  0.00     0.074 A 
ATOM     49  C   UNL     1      -6.032   8.814  -7.618  1.00  0.00     0.031 C 
ATOM     50  C   UNL     1      -8.361   2.786  -5.248  1.00  0.00     0.029 A 
ATOM     51  C   UNL     1      -9.307   3.545  -6.062  1.00  0.00     0.049 A 
ATOM     52  H   UNL     1      -9.010   5.434  -6.889  1.00  0.00     0.167 HD
ATOM     53  C   UNL     1      -8.244   9.388  -8.583  1.00  0.00     0.037 A 
ATOM     54  C   UNL     1     -10.551   3.150  -6.401  1.00  0.00     0.037 A 
ATOM     55  C   UNL     1      -9.621   9.106  -8.896  1.00  0.00     0.049 A 
ATOM     56  C   UNL     1     -11.424   4.084  -7.201  1.00  0.00     0.074 A 
ATOM     57  C   UNL     1     -10.544   9.916  -9.536  1.00  0.00     0.029 A 
ATOM     58  N   UNL     1     -10.276   7.921  -8.592  1.00  0.00    -0.354 N 
ATOM     59  N   UNL     1     -11.144   5.276  -7.673  1.00  0.00    -0.248 NA
ATOM     60  C   UNL     1     -12.795   3.634  -7.485  1.00  0.00     0.031 C 
ATOM     61  C   UNL     1     -11.765   9.235  -9.588  1.00  0.00     0.029 A 
ATOM     62  C   UNL     1     -11.592   7.983  -9.021  1.00  0.00     0.049 A 
ATOM     63  H   UNL     1      -9.866   7.150  -8.138  1.00  0.00     0.167 HD
ATOM     64  C   UNL     1     -12.305   5.721  -8.296  1.00  0.00     0.074 A 
ATOM     65  C   UNL     1     -13.278   4.654  -8.181  1.00  0.00     0.031 C 
ATOM     66  C   UNL     1     -12.553   6.916  -8.888  1.00  0.00     0.037 A 
BRANCH  53  67
ATOM     67  C   UNL     1      -7.692  10.738  -8.945  1.00  0.00     0.058 A 
ATOM     68  C   UNL     1      -6.775  10.908  -9.994  1.00  0.00     0.135 A 
ATOM     69  C   UNL     1      -8.096  11.882  -8.237  1.00  0.00     0.135 A 
ATOM     70  F   UNL     1      -6.341   9.845 -10.691  1.00  0.00    -0.206 F 
ATOM     71  C   UNL     1      -6.257  12.160 -10.310  1.00  0.00     0.059 A 
ATOM     72  C   UNL     1      -7.609  13.147  -8.550  1.00  0.00     0.059 A 
ATOM     73  F   UNL     1      -8.968  11.775  -7.222  1.00  0.00    -0.206 F 
ATOM     74  C   UNL     1      -6.676  13.273  -9.579  1.00  0.00     0.060 A 
BRANCH  74  75
ATOM     75  S   UNL     1      -5.986  14.890  -9.988  1.00  0.00     0.124 S 
ATOM     76  O   UNL     1      -4.646  14.787  -9.418  1.00  0.00    -0.237 OA
ATOM     77  O   UNL     1      -6.054  14.901 -11.446  1.00  0.00    -0.237 OA
ATOM     78  O   UNL     1      -6.884  15.823  -9.316  1.00  0.00    -0.744 OA
ENDBRANCH  74  75
ENDBRANCH  53  67
BRANCH  54  79
ATOM     79  C   UNL     1     -11.043   1.794  -6.025  1.00  0.00     0.058 A 
ATOM     80  C   UNL     1     -11.274   0.819  -7.010  1.00  0.00     0.135 A 
ATOM     81  C   UNL     1     -11.297   1.440  -4.692  1.00  0.00     0.135 A 
ATOM     82  F   UNL     1     -11.071   1.113  -8.304  1.00  0.00    -0.206 F 
ATOM     83  C   UNL     1     -11.752  -0.449  -6.691  1.00  0.00     0.059 A 
ATOM     84  C   UNL     1     -11.751   0.170  -4.345  1.00  0.00     0.059 A 
ATOM     85  F   UNL     1     -11.087   2.330  -3.709  1.00  0.00    -0.206 F 
ATOM     86  C   UNL     1     -11.988  -0.765  -5.352  1.00  0.00     0.060 A 
BRANCH  86  87
ATOM     87  S   UNL     1     -12.582  -2.418  -4.929  1.00  0.00     0.124 S 
ATOM     88  O   UNL     1     -14.008  -2.298  -5.214  1.00  0.00    -0.237 OA
ATOM     89  O   UNL     1     -11.824  -3.276  -5.835  1.00  0.00    -0.237 OA
ATOM     90  O   UNL     1     -12.231  -2.549  -3.518  1.00  0.00    -0.744 OA
ENDBRANCH  86  87
ENDBRANCH  54  79
BRANCH  66  91
ATOM     91  C   UNL     1     -13.934   7.141  -9.441  1.00  0.00     0.058 A 
ATOM     92  C   UNL     1     -15.033   7.362  -8.595  1.00  0.00     0.135 A 
ATOM     93  C   UNL     1     -14.155   7.185 -10.827  1.00  0.00     0.135 A 
ATOM     94  F   UNL     1     -14.876   7.331  -7.262  1.00  0.00    -0.206 F 
ATOM     95  C   UNL     1     -16.308   7.595  -9.102  1.00  0.00     0.059 A 
ATOM     96  C   UNL     1     -15.418   7.439 -11.357  1.00  0.00     0.059 A 
ATOM     97  F   UNL     1     -13.138   6.993 -11.680  1.00  0.00    -0.206 F 
ATOM     98  C   UNL     1     -16.491   7.630 -10.486  1.00  0.00     0.060 A 
BRANCH  98  99
ATOM     99  S   UNL     1     -18.143   7.961 -11.134  1.00  0.00     0.124 S 
ATOM    100  O   UNL     1     -18.805   6.678 -10.922  1.00  0.00    -0.237 OA
ATOM    101  O   UNL     1     -18.601   9.057 -10.286  1.00  0.00    -0.237 OA
ATOM    102  O   UNL     1     -17.896   8.318 -12.528  1.00  0.00    -0.744 OA
ENDBRANCH  98  99
ENDBRANCH  66  91
ENDBRANCH  40  41
ENDBRANCH  33  35
ENDBRANCH  32  33
ENDBRANCH  31  32
ENDBRANCH  30  31
ENDBRANCH   1  30
TORSDOF 20
