REMARK SMILES O=C(OCCOCCOC(=O)c1cc(SCC(=O)N2CCOCC2)ccn1)c1ccc(-c2c3nc(c(-c4c(F)cc(S(=O)(=O)[O-])cc4F)c4ccc([nH]4)c(-c4c(F)cc(S(=O)(=O)[O-])cc4F)c4nc(c(-c5c(F)cc(S(=O)(=O)[O-])cc5F)c5ccc2[nH]5)C=C4)C=C3)cc1
REMARK SMILES IDX 6 1 5 2 4 3 3 4 2 5 1 6 28 7 29 8 93 9 30 10 92 11 31 12
REMARK SMILES IDX 32 13 33 14 86 15 34 16 91 17 85 18 87 19 35 20 90 21 84 22
REMARK SMILES IDX 83 23 36 25 70 26 49 27 69 28 50 29 53 30 68 31 88 32 51 33
REMARK SMILES IDX 52 34 67 36 89 37 54 38 37 39 38 40 47 41 39 42 40 43 46 44
REMARK SMILES IDX 48 45 41 46 42 47 43 48 44 49 45 50 71 51 72 52 81 53 73 54
REMARK SMILES IDX 74 55 80 56 82 57 75 58 76 59 77 60 78 61 79 62 55 63 56 64
REMARK SMILES IDX 65 65 57 66 58 67 64 68 66 69 59 70 60 71 61 72 62 73 63 74
REMARK SMILES IDX 7 75 8 76 9 77 10 78 11 79 12 80 13 81 27 82 14 83 26 84
REMARK SMILES IDX 25 85 15 86 16 87 17 88 18 89 19 90 20 91 24 92 21 93 23 94
REMARK SMILES IDX 22 95
REMARK H PARENT 87 24 53 35
REMARK Flexibility Score: inf
ROOT
ATOM      1  O   UNL     1       4.108  -1.047   1.418  1.00  0.00    -0.374 OA
ENDROOT
BRANCH   1   2
ATOM      2  C   UNL     1       4.414   0.295   1.781  1.00  0.00     0.202 C 
BRANCH   2   3
ATOM      3  C   UNL     1       4.207   1.298   0.645  1.00  0.00     0.261 C 
BRANCH   3   4
ATOM      4  O   UNL     1       2.838   1.279   0.208  1.00  0.00    -0.460 OA
BRANCH   4   5
ATOM      5  C   UNL     1       2.319   0.689  -0.893  1.00  0.00     0.338 C 
ATOM      6  O   UNL     1       1.116   0.833  -1.113  1.00  0.00    -0.246 OA
BRANCH   5   7
ATOM      7  C   UNL     1       3.112  -0.131  -1.863  1.00  0.00     0.060 A 
ATOM      8  C   UNL     1       4.276  -0.840  -1.559  1.00  0.00     0.016 A 
ATOM      9  C   UNL     1       2.571  -0.286  -3.152  1.00  0.00     0.016 A 
ATOM     10  C   UNL     1       4.894  -1.666  -2.485  1.00  0.00     0.010 A 
ATOM     11  C   UNL     1       3.173  -1.133  -4.088  1.00  0.00     0.010 A 
ATOM     12  C   UNL     1       4.335  -1.831  -3.746  1.00  0.00    -0.014 A 
BRANCH  12  13
ATOM     13  C   UNL     1       5.028  -2.712  -4.696  1.00  0.00     0.031 A 
ATOM     14  C   UNL     1       5.872  -2.088  -5.758  1.00  0.00     0.074 A 
ATOM     15  C   UNL     1       4.959  -4.045  -4.521  1.00  0.00     0.049 A 
ATOM     16  N   UNL     1       6.505  -2.656  -6.744  1.00  0.00    -0.248 NA
ATOM     17  C   UNL     1       6.035  -0.624  -5.696  1.00  0.00     0.031 C 
ATOM     18  C   UNL     1       4.248  -4.715  -3.427  1.00  0.00     0.029 A 
ATOM     19  N   UNL     1       5.498  -5.074  -5.245  1.00  0.00    -0.354 N 
ATOM     20  C   UNL     1       7.109  -1.621  -7.444  1.00  0.00     0.074 A 
ATOM     21  C   UNL     1       6.785  -0.389  -6.763  1.00  0.00     0.031 C 
ATOM     22  C   UNL     1       4.388  -6.044  -3.559  1.00  0.00     0.029 A 
ATOM     23  C   UNL     1       5.136  -6.318  -4.780  1.00  0.00     0.049 A 
ATOM     24  H   UNL     1       6.086  -4.938  -6.022  1.00  0.00     0.167 HD
ATOM     25  C   UNL     1       7.850  -1.710  -8.571  1.00  0.00     0.037 A 
ATOM     26  C   UNL     1       5.344  -7.532  -5.323  1.00  0.00     0.037 A 
ATOM     27  C   UNL     1       8.155  -2.962  -9.208  1.00  0.00     0.049 A 
ATOM     28  C   UNL     1       6.099  -7.592  -6.625  1.00  0.00     0.074 A 
ATOM     29  C   UNL     1       8.885  -3.189 -10.357  1.00  0.00     0.029 A 
ATOM     30  N   UNL     1       7.730  -4.202  -8.745  1.00  0.00    -0.354 N 
ATOM     31  N   UNL     1       6.655  -6.610  -7.298  1.00  0.00    -0.248 NA
ATOM     32  C   UNL     1       6.237  -8.909  -7.258  1.00  0.00     0.031 C 
ATOM     33  C   UNL     1       8.854  -4.562 -10.621  1.00  0.00     0.029 A 
ATOM     34  C   UNL     1       8.148  -5.197  -9.608  1.00  0.00     0.049 A 
ATOM     35  H   UNL     1       7.209  -4.350  -7.923  1.00  0.00     0.167 HD
ATOM     36  C   UNL     1       7.210  -7.189  -8.431  1.00  0.00     0.074 A 
ATOM     37  C   UNL     1       6.948  -8.612  -8.338  1.00  0.00     0.031 C 
ATOM     38  C   UNL     1       7.867  -6.604  -9.463  1.00  0.00     0.037 A 
BRANCH  25  39
ATOM     39  C   UNL     1       8.299  -0.433  -9.216  1.00  0.00     0.058 A 
ATOM     40  C   UNL     1       9.335   0.352  -8.691  1.00  0.00     0.135 A 
ATOM     41  C   UNL     1       7.682   0.002 -10.401  1.00  0.00     0.135 A 
ATOM     42  F   UNL     1       9.936   0.001  -7.543  1.00  0.00    -0.206 F 
ATOM     43  C   UNL     1       9.742   1.529  -9.315  1.00  0.00     0.059 A 
ATOM     44  C   UNL     1       8.085   1.163 -11.053  1.00  0.00     0.059 A 
ATOM     45  F   UNL     1       6.671  -0.702 -10.934  1.00  0.00    -0.206 F 
ATOM     46  C   UNL     1       9.113   1.923 -10.498  1.00  0.00     0.060 A 
BRANCH  46  47
ATOM     47  S   UNL     1       9.667   3.438 -11.310  1.00  0.00     0.124 S 
ATOM     48  O   UNL     1       9.160   4.460 -10.399  1.00  0.00    -0.237 OA
ATOM     49  O   UNL     1      11.116   3.269 -11.327  1.00  0.00    -0.237 OA
ATOM     50  O   UNL     1       9.016   3.384 -12.615  1.00  0.00    -0.744 OA
ENDBRANCH  46  47
ENDBRANCH  25  39
BRANCH  26  51
ATOM     51  C   UNL     1       4.755  -8.754  -4.705  1.00  0.00     0.058 A 
ATOM     52  C   UNL     1       5.559  -9.792  -4.212  1.00  0.00     0.135 A 
ATOM     53  C   UNL     1       3.361  -8.921  -4.623  1.00  0.00     0.135 A 
ATOM     54  F   UNL     1       6.896  -9.691  -4.271  1.00  0.00    -0.206 F 
ATOM     55  C   UNL     1       5.007 -10.959  -3.688  1.00  0.00     0.059 A 
ATOM     56  C   UNL     1       2.786 -10.064  -4.075  1.00  0.00     0.059 A 
ATOM     57  F   UNL     1       2.539  -7.960  -5.071  1.00  0.00    -0.206 F 
ATOM     58  C   UNL     1       3.618 -11.088  -3.629  1.00  0.00     0.060 A 
BRANCH  58  59
ATOM     59  S   UNL     1       2.908 -12.606  -2.955  1.00  0.00     0.124 S 
ATOM     60  O   UNL     1       3.165 -13.553  -4.034  1.00  0.00    -0.237 OA
ATOM     61  O   UNL     1       3.689 -12.799  -1.738  1.00  0.00    -0.237 OA
ATOM     62  O   UNL     1       1.506 -12.257  -2.743  1.00  0.00    -0.744 OA
ENDBRANCH  58  59
ENDBRANCH  26  51
BRANCH  38  63
ATOM     63  C   UNL     1       8.351  -7.504 -10.562  1.00  0.00     0.058 A 
ATOM     64  C   UNL     1       7.464  -8.029 -11.513  1.00  0.00     0.135 A 
ATOM     65  C   UNL     1       9.722  -7.756 -10.720  1.00  0.00     0.135 A 
ATOM     66  F   UNL     1       6.143  -7.822 -11.395  1.00  0.00    -0.206 F 
ATOM     67  C   UNL     1       7.923  -8.777 -12.590  1.00  0.00     0.059 A 
ATOM     68  C   UNL     1      10.205  -8.478 -11.804  1.00  0.00     0.059 A 
ATOM     69  F   UNL     1      10.607  -7.264  -9.837  1.00  0.00    -0.206 F 
ATOM     70  C   UNL     1       9.297  -8.986 -12.732  1.00  0.00     0.060 A 
BRANCH  70  71
ATOM     71  S   UNL     1       9.885  -9.888 -14.179  1.00  0.00     0.124 S 
ATOM     72  O   UNL     1       9.498 -11.256 -13.850  1.00  0.00    -0.237 OA
ATOM     73  O   UNL     1       9.137  -9.260 -15.264  1.00  0.00    -0.237 OA
ATOM     74  O   UNL     1      11.321  -9.626 -14.183  1.00  0.00    -0.744 OA
ENDBRANCH  70  71
ENDBRANCH  38  63
ENDBRANCH  12  13
ENDBRANCH   5   7
ENDBRANCH   4   5
ENDBRANCH   3   4
ENDBRANCH   2   3
ENDBRANCH   1   2
BRANCH   1  75
ATOM     75  C   UNL     1       2.773  -1.496   1.659  1.00  0.00     0.202 C 
BRANCH  75  76
ATOM     76  C   UNL     1       2.842  -2.887   2.298  1.00  0.00     0.261 C 
BRANCH  76  77
ATOM     77  O   UNL     1       3.490  -2.763   3.573  1.00  0.00    -0.459 OA
BRANCH  77  78
ATOM     78  C   UNL     1       4.855  -2.752   3.530  1.00  0.00     0.357 C 
ATOM     79  O   UNL     1       5.570  -3.243   2.685  1.00  0.00    -0.244 OA
BRANCH  78  80
ATOM     80  C   UNL     1       5.295  -1.857   4.638  1.00  0.00     0.149 A 
ATOM     81  C   UNL     1       4.643  -1.916   5.861  1.00  0.00     0.051 A 
ATOM     82  N   UNL     1       6.259  -0.946   4.341  1.00  0.00    -0.249 NA
ATOM     83  C   UNL     1       4.962  -0.969   6.822  1.00  0.00     0.012 A 
ATOM     84  C   UNL     1       6.561  -0.049   5.296  1.00  0.00     0.113 A 
ATOM     85  C   UNL     1       5.943  -0.018   6.533  1.00  0.00     0.035 A 
BRANCH  83  86
ATOM     86  S   UNL     1       4.209  -0.919   8.433  1.00  0.00    -0.116 SA
BRANCH  86  87
ATOM     87  C   UNL     1       2.572  -1.648   8.173  1.00  0.00     0.175 C 
BRANCH  87  88
ATOM     88  C   UNL     1       1.660  -1.061   7.101  1.00  0.00     0.233 C 
ATOM     89  O   UNL     1       1.168  -1.830   6.266  1.00  0.00    -0.274 OA
ATOM     90  N   UNL     1       1.189   0.232   7.216  1.00  0.00    -0.337 N 
ATOM     91  C   UNL     1       1.851   1.380   7.826  1.00  0.00     0.148 C 
ATOM     92  C   UNL     1      -0.227   0.494   6.950  1.00  0.00     0.148 C 
ATOM     93  C   UNL     1       1.163   1.712   9.146  1.00  0.00     0.181 C 
ATOM     94  C   UNL     1      -0.901   0.888   8.279  1.00  0.00     0.181 C 
ATOM     95  O   UNL     1      -0.231   1.993   8.921  1.00  0.00    -0.378 OA
ENDBRANCH  87  88
ENDBRANCH  86  87
ENDBRANCH  83  86
ENDBRANCH  78  80
ENDBRANCH  77  78
ENDBRANCH  76  77
ENDBRANCH  75  76
ENDBRANCH   1  75
TORSDOF 20
