REMARK SMILES CCN(CC(C)(C)O)C(=O)Nc1ccc(C(=O)OCCOCCOC(=O)c2ccc(-c3c4nc(c(-c5c(F)cc(S(=O)(=O)[O-])cc5F)c5ccc([nH]5)c(-c5c(F)cc(S(=O)(=O)[O-])cc5F)c5nc(c(-c6c(F)cc(S(=O)(=O)[O-])cc6F)c6ccc3[nH]6)C=C5)C=C4)cc2)c(O)c1
REMARK SMILES IDX 20 1 19 2 18 3 16 4 17 5 15 6 12 7 13 8 95 9 14 10 93 11
REMARK SMILES IDX 11 12 9 13 10 14 3 16 2 17 1 18 4 19 5 20 6 21 7 22 8 23
REMARK SMILES IDX 94 25 21 27 22 28 23 29 24 30 25 31 26 32 27 33 28 34 92 35
REMARK SMILES IDX 29 36 91 37 30 38 31 39 32 40 85 41 33 42 90 43 84 44 86 45
REMARK SMILES IDX 34 46 89 47 83 48 82 49 35 51 69 52 48 53 68 54 49 55 52 56
REMARK SMILES IDX 67 57 87 58 50 59 51 60 66 62 88 63 53 64 36 65 37 66 46 67
REMARK SMILES IDX 38 68 39 69 45 70 47 71 40 72 41 73 42 74 43 75 44 76 70 77
REMARK SMILES IDX 71 78 80 79 72 80 73 81 79 82 81 83 74 84 75 85 76 86 77 87
REMARK SMILES IDX 78 88 54 89 55 90 64 91 56 92 57 93 63 94 65 95 58 96 59 97
REMARK SMILES IDX 60 98 61 99 62 100
REMARK H PARENT 11 15 8 24 94 26 86 50 52 61
REMARK Flexibility Score: inf
ROOT
ATOM      1  C   UNL     1      -2.825   7.283  -7.224  1.00  0.00     0.202 C 
ENDROOT
BRANCH   1   2
ATOM      2  C   UNL     1      -1.381   7.794  -7.247  1.00  0.00     0.261 C 
BRANCH   2   3
ATOM      3  O   UNL     1      -0.461   6.707  -7.053  1.00  0.00    -0.460 OA
BRANCH   3   4
ATOM      4  C   UNL     1       0.699   7.072  -6.458  1.00  0.00     0.341 C 
ATOM      5  O   UNL     1       1.156   8.194  -6.349  1.00  0.00    -0.246 OA
BRANCH   4   6
ATOM      6  C   UNL     1       1.154   5.931  -5.655  1.00  0.00     0.101 A 
ATOM      7  C   UNL     1       1.862   3.841  -3.889  1.00  0.00     0.046 A 
ATOM      8  C   UNL     1       1.147   4.940  -3.459  1.00  0.00     0.027 A 
ATOM      9  C   UNL     1       2.253   3.820  -5.239  1.00  0.00     0.073 A 
ATOM     10  C   UNL     1       0.786   5.977  -4.314  1.00  0.00     0.022 A 
ATOM     11  C   UNL     1       1.895   4.853  -6.124  1.00  0.00     0.132 A 
BRANCH   7  12
ATOM     12  N   UNL     1       2.330   2.820  -3.047  1.00  0.00    -0.308 N 
ATOM     13  C   UNL     1       2.234   2.368  -1.779  1.00  0.00     0.321 C 
ATOM     14  O   UNL     1       3.212   1.683  -1.438  1.00  0.00    -0.248 OA
ATOM     15  H   UNL     1       2.935   2.234  -3.555  1.00  0.00     0.171 HD
BRANCH  13  16
ATOM     16  N   UNL     1       1.168   2.504  -0.928  1.00  0.00    -0.322 N 
BRANCH  16  17
ATOM     17  C   UNL     1       1.248   1.717   0.319  1.00  0.00     0.118 C 
ATOM     18  C   UNL     1       1.085   0.216   0.084  1.00  0.00     0.027 C 
ENDBRANCH  16  17
BRANCH  16  19
ATOM     19  C   UNL     1      -0.126   3.174  -1.122  1.00  0.00     0.155 C 
BRANCH  19  20
ATOM     20  C   UNL     1      -0.344   4.466  -0.244  1.00  0.00     0.077 C 
ATOM     21  C   UNL     1       0.924   5.280   0.082  1.00  0.00     0.043 C 
ATOM     22  C   UNL     1      -1.430   5.348  -0.885  1.00  0.00     0.043 C 
BRANCH  20  23
ATOM     23  O   UNL     1      -0.875   4.065   1.037  1.00  0.00    -0.389 OA
ATOM     24  H   UNL     1      -0.230   3.502   1.493  1.00  0.00     0.211 HD
ENDBRANCH  20  23
ENDBRANCH  19  20
ENDBRANCH  16  19
ENDBRANCH  13  16
ENDBRANCH   7  12
BRANCH  11  25
ATOM     25  O   UNL     1       2.330   4.725  -7.411  1.00  0.00    -0.507 OA
ATOM     26  H   UNL     1       2.122   5.384  -8.044  1.00  0.00     0.293 HD
ENDBRANCH  11  25
ENDBRANCH   4   6
ENDBRANCH   3   4
ENDBRANCH   2   3
ENDBRANCH   1   2
BRANCH   1  27
ATOM     27  O   UNL     1      -3.297   6.812  -5.958  1.00  0.00    -0.374 OA
BRANCH  27  28
ATOM     28  C   UNL     1      -2.757   5.587  -5.462  1.00  0.00     0.202 C 
BRANCH  28  29
ATOM     29  C   UNL     1      -3.199   4.300  -6.168  1.00  0.00     0.261 C 
BRANCH  29  30
ATOM     30  O   UNL     1      -2.618   4.184  -7.478  1.00  0.00    -0.460 OA
BRANCH  30  31
ATOM     31  C   UNL     1      -3.510   4.136  -8.498  1.00  0.00     0.338 C 
ATOM     32  O   UNL     1      -4.726   4.113  -8.415  1.00  0.00    -0.246 OA
BRANCH  31  33
ATOM     33  C   UNL     1      -2.801   4.319  -9.777  1.00  0.00     0.060 A 
ATOM     34  C   UNL     1      -3.196   5.389 -10.591  1.00  0.00     0.016 A 
ATOM     35  C   UNL     1      -1.814   3.428 -10.202  1.00  0.00     0.016 A 
ATOM     36  C   UNL     1      -2.624   5.555 -11.850  1.00  0.00     0.010 A 
ATOM     37  C   UNL     1      -1.253   3.586 -11.473  1.00  0.00     0.010 A 
ATOM     38  C   UNL     1      -1.675   4.634 -12.312  1.00  0.00    -0.014 A 
BRANCH  38  39
ATOM     39  C   UNL     1      -1.227   4.695 -13.723  1.00  0.00     0.031 A 
ATOM     40  C   UNL     1      -1.891   3.805 -14.737  1.00  0.00     0.074 A 
ATOM     41  C   UNL     1      -0.259   5.550 -14.097  1.00  0.00     0.049 A 
ATOM     42  N   UNL     1      -1.642   3.677 -16.014  1.00  0.00    -0.248 NA
ATOM     43  C   UNL     1      -2.980   2.946 -14.245  1.00  0.00     0.031 C 
ATOM     44  C   UNL     1       0.433   6.483 -13.208  1.00  0.00     0.029 A 
ATOM     45  N   UNL     1       0.316   5.764 -15.324  1.00  0.00    -0.354 N 
ATOM     46  C   UNL     1      -2.537   2.721 -16.479  1.00  0.00     0.074 A 
ATOM     47  C   UNL     1      -3.320   2.285 -15.342  1.00  0.00     0.031 C 
ATOM     48  C   UNL     1       1.353   7.159 -13.918  1.00  0.00     0.029 A 
ATOM     49  C   UNL     1       1.331   6.689 -15.303  1.00  0.00     0.049 A 
ATOM     50  H   UNL     1       0.027   5.299 -16.142  1.00  0.00     0.167 HD
ATOM     51  C   UNL     1      -2.696   2.255 -17.740  1.00  0.00     0.037 A 
ATOM     52  C   UNL     1       2.160   7.094 -16.285  1.00  0.00     0.037 A 
ATOM     53  C   UNL     1      -1.914   2.691 -18.867  1.00  0.00     0.049 A 
ATOM     54  C   UNL     1       2.001   6.522 -17.669  1.00  0.00     0.074 A 
ATOM     55  C   UNL     1      -2.013   2.295 -20.189  1.00  0.00     0.029 A 
ATOM     56  N   UNL     1      -0.882   3.616 -18.803  1.00  0.00    -0.354 N 
ATOM     57  N   UNL     1       1.130   5.640 -18.101  1.00  0.00    -0.248 NA
ATOM     58  C   UNL     1       2.932   7.002 -18.700  1.00  0.00     0.031 C 
ATOM     59  C   UNL     1      -1.014   2.950 -20.917  1.00  0.00     0.029 A 
ATOM     60  C   UNL     1      -0.321   3.787 -20.057  1.00  0.00     0.049 A 
ATOM     61  H   UNL     1      -0.592   4.082 -17.986  1.00  0.00     0.167 HD
ATOM     62  C   UNL     1       1.394   5.477 -19.457  1.00  0.00     0.074 A 
ATOM     63  C   UNL     1       2.498   6.358 -19.776  1.00  0.00     0.031 C 
ATOM     64  C   UNL     1       0.775   4.673 -20.358  1.00  0.00     0.037 A 
BRANCH  51  65
ATOM     65  C   UNL     1      -3.741   1.199 -17.962  1.00  0.00     0.058 A 
ATOM     66  C   UNL     1      -5.111   1.503 -17.947  1.00  0.00     0.135 A 
ATOM     67  C   UNL     1      -3.366  -0.129 -18.220  1.00  0.00     0.135 A 
ATOM     68  F   UNL     1      -5.523   2.754 -17.686  1.00  0.00    -0.206 F 
ATOM     69  C   UNL     1      -6.075   0.522 -18.158  1.00  0.00     0.059 A 
ATOM     70  C   UNL     1      -4.312  -1.122 -18.456  1.00  0.00     0.059 A 
ATOM     71  F   UNL     1      -2.069  -0.473 -18.241  1.00  0.00    -0.206 F 
ATOM     72  C   UNL     1      -5.665  -0.789 -18.410  1.00  0.00     0.060 A 
BRANCH  72  73
ATOM     73  S   UNL     1      -6.926  -2.051 -18.683  1.00  0.00     0.124 S 
ATOM     74  O   UNL     1      -7.426  -2.260 -17.328  1.00  0.00    -0.237 OA
ATOM     75  O   UNL     1      -7.845  -1.384 -19.601  1.00  0.00    -0.237 OA
ATOM     76  O   UNL     1      -6.174  -3.164 -19.254  1.00  0.00    -0.744 OA
ENDBRANCH  72  73
ENDBRANCH  51  65
BRANCH  52  77
ATOM     77  C   UNL     1       3.228   8.085 -15.990  1.00  0.00     0.058 A 
ATOM     78  C   UNL     1       3.158   9.396 -16.483  1.00  0.00     0.135 A 
ATOM     79  C   UNL     1       4.338   7.739 -15.204  1.00  0.00     0.135 A 
ATOM     80  F   UNL     1       2.121   9.770 -17.247  1.00  0.00    -0.206 F 
ATOM     81  C   UNL     1       4.157  10.328 -16.218  1.00  0.00     0.059 A 
ATOM     82  C   UNL     1       5.338   8.659 -14.907  1.00  0.00     0.059 A 
ATOM     83  F   UNL     1       4.446   6.500 -14.700  1.00  0.00    -0.206 F 
ATOM     84  C   UNL     1       5.243   9.949 -15.426  1.00  0.00     0.060 A 
BRANCH  84  85
ATOM     85  S   UNL     1       6.508  11.180 -15.042  1.00  0.00     0.124 S 
ATOM     86  O   UNL     1       7.239  11.252 -16.302  1.00  0.00    -0.237 OA
ATOM     87  O   UNL     1       5.706  12.350 -14.700  1.00  0.00    -0.237 OA
ATOM     88  O   UNL     1       7.231  10.578 -13.925  1.00  0.00    -0.744 OA
ENDBRANCH  84  85
ENDBRANCH  52  77
BRANCH  64  89
ATOM     89  C   UNL     1       1.256   4.729 -21.781  1.00  0.00     0.058 A 
ATOM     90  C   UNL     1       2.465   4.133 -22.173  1.00  0.00     0.135 A 
ATOM     91  C   UNL     1       0.470   5.336 -22.773  1.00  0.00     0.135 A 
ATOM     92  F   UNL     1       3.255   3.545 -21.262  1.00  0.00    -0.206 F 
ATOM     93  C   UNL     1       2.887   4.154 -23.499  1.00  0.00     0.059 A 
ATOM     94  C   UNL     1       0.861   5.348 -24.108  1.00  0.00     0.059 A 
ATOM     95  F   UNL     1      -0.700   5.911 -22.451  1.00  0.00    -0.206 F 
ATOM     96  C   UNL     1       2.078   4.764 -24.460  1.00  0.00     0.060 A 
BRANCH  96  97
ATOM     97  S   UNL     1       2.617   4.754 -26.183  1.00  0.00     0.124 S 
ATOM     98  O   UNL     1       3.647   5.787 -26.173  1.00  0.00    -0.237 OA
ATOM     99  O   UNL     1       3.094   3.385 -26.356  1.00  0.00    -0.237 OA
ATOM    100  O   UNL     1       1.402   5.085 -26.920  1.00  0.00    -0.744 OA
ENDBRANCH  96  97
ENDBRANCH  64  89
ENDBRANCH  38  39
ENDBRANCH  31  33
ENDBRANCH  30  31
ENDBRANCH  29  30
ENDBRANCH  28  29
ENDBRANCH  27  28
ENDBRANCH   1  27
TORSDOF 24
