REMARK SMILES NC(=O)[C@@H]1CCC[N@@H+]1[C@@H](C(=O)OCCOCCOC(=O)c1ccc(-c2c3nc(c(-c4c(F)cc(S(=O)(=O)[O-])cc4F)c4ccc([nH]4)c(-c4c(F)cc(S(=O)(=O)[O-])cc4F)c4nc(c(-c5c(F)cc(S(=O)(=O)[O-])cc5F)c5ccc2[nH]5)C=C4)C=C3)cc1)c1c[nH]c2cc(OCc3ccccc3)ccc12
REMARK SMILES IDX 14 1 13 2 12 3 10 4 11 5 9 6 8 7 4 8 5 9 6 10 7 11 2 13 1 14
REMARK SMILES IDX 3 17 87 18 88 19 103 20 89 21 90 22 102 23 91 25 101 26
REMARK SMILES IDX 92 27 93 28 94 29 95 30 96 31 100 32 97 33 99 34 98 35 15 36
REMARK SMILES IDX 16 37 17 38 18 39 19 40 20 41 21 42 22 43 86 44 23 45 85 46
REMARK SMILES IDX 24 47 25 48 26 49 79 50 27 51 84 52 78 53 80 54 28 55 83 56
REMARK SMILES IDX 77 57 76 58 29 60 63 61 42 62 62 63 43 64 46 65 61 66 81 67
REMARK SMILES IDX 44 68 45 69 60 71 82 72 47 73 30 74 31 75 40 76 32 77 33 78
REMARK SMILES IDX 39 79 41 80 34 81 35 82 36 83 37 84 38 85 64 86 65 87 74 88
REMARK SMILES IDX 66 89 67 90 73 91 75 92 68 93 69 94 70 95 71 96 72 97 48 98
REMARK SMILES IDX 49 99 58 100 50 101 51 102 57 103 59 104 52 105 53 106
REMARK SMILES IDX 54 107 55 108 56 109
REMARK H PARENT 8 12 1 15 1 16 89 24 80 59 46 70
REMARK Flexibility Score: inf
ROOT
ATOM      1  C   UNL     1      -3.006  -4.313   2.036  1.00  0.00     0.202 C 
ENDROOT
BRANCH   1   2
ATOM      2  C   UNL     1      -3.011  -2.781   2.077  1.00  0.00     0.261 C 
BRANCH   2   3
ATOM      3  O   UNL     1      -1.835  -2.257   2.732  1.00  0.00    -0.459 OA
BRANCH   3   4
ATOM      4  C   UNL     1      -2.043  -1.384   3.764  1.00  0.00     0.370 C 
ATOM      5  O   UNL     1      -3.156  -1.146   4.234  1.00  0.00    -0.245 OA
BRANCH   4   6
ATOM      6  C   UNL     1      -0.765  -0.707   4.275  1.00  0.00     0.329 C 
BRANCH   6   7
ATOM      7  N   UNL     1       0.533  -1.100   3.648  1.00  0.00    -0.309 N 
ATOM      8  C   UNL     1       0.909  -0.881   2.247  1.00  0.00     0.275 C 
ATOM      9  C   UNL     1       1.266  -2.280   1.748  1.00  0.00     0.081 C 
ATOM     10  C   UNL     1       1.967  -2.884   2.944  1.00  0.00     0.068 C 
ATOM     11  C   UNL     1       1.242  -2.280   4.135  1.00  0.00     0.264 C 
ATOM     12  H   UNL     1       0.813  -0.227   4.095  1.00  0.00     0.349 HD
BRANCH   8  13
ATOM     13  C   UNL     1      -0.030  -0.131   1.308  1.00  0.00     0.275 C 
ATOM     14  N   UNL     1       0.476   0.041   0.043  1.00  0.00    -0.365 N 
ATOM     15  H   UNL     1      -0.053   0.514  -0.639  1.00  0.00     0.159 HD
ATOM     16  H   UNL     1       1.369  -0.308  -0.181  1.00  0.00     0.159 HD
ATOM     17  O   UNL     1      -1.111   0.361   1.608  1.00  0.00    -0.268 OA
ENDBRANCH   8  13
ENDBRANCH   6   7
BRANCH   6  18
ATOM     18  C   UNL     1      -0.568  -0.784   5.808  1.00  0.00     0.046 A 
ATOM     19  C   UNL     1       0.159   0.176   6.501  1.00  0.00     0.094 A 
ATOM     20  C   UNL     1      -0.636  -1.897   6.726  1.00  0.00     0.009 A 
ATOM     21  N   UNL     1       1.011  -0.538   7.305  1.00  0.00    -0.361 N 
ATOM     22  C   UNL     1       0.599  -1.845   7.370  1.00  0.00     0.050 A 
ATOM     23  C   UNL     1      -1.419  -3.049   6.950  1.00  0.00     0.015 A 
ATOM     24  H   UNL     1       1.799  -0.169   7.765  1.00  0.00     0.166 HD
ATOM     25  C   UNL     1       1.228  -2.985   7.874  1.00  0.00     0.073 A 
ATOM     26  C   UNL     1      -0.861  -4.168   7.612  1.00  0.00     0.047 A 
ATOM     27  C   UNL     1       0.485  -4.166   7.961  1.00  0.00     0.121 A 
BRANCH  27  28
ATOM     28  O   UNL     1       1.224  -5.263   8.314  1.00  0.00    -0.489 OA
BRANCH  28  29
ATOM     29  C   UNL     1       0.654  -6.221   9.206  1.00  0.00     0.265 C 
BRANCH  29  30
ATOM     30  C   UNL     1       0.854  -5.869  10.667  1.00  0.00    -0.011 A 
ATOM     31  C   UNL     1       0.397  -6.753  11.655  1.00  0.00     0.007 A 
ATOM     32  C   UNL     1       1.491  -4.689  11.078  1.00  0.00     0.007 A 
ATOM     33  C   UNL     1       0.543  -6.444  13.009  1.00  0.00     0.000 A 
ATOM     34  C   UNL     1       1.624  -4.371  12.428  1.00  0.00     0.000 A 
ATOM     35  C   UNL     1       1.145  -5.247  13.395  1.00  0.00     0.000 A 
ENDBRANCH  29  30
ENDBRANCH  28  29
ENDBRANCH  27  28
ENDBRANCH   6  18
ENDBRANCH   4   6
ENDBRANCH   3   4
ENDBRANCH   2   3
ENDBRANCH   1   2
BRANCH   1  36
ATOM     36  O   UNL     1      -3.294  -5.012   3.251  1.00  0.00    -0.374 OA
BRANCH  36  37
ATOM     37  C   UNL     1      -2.452  -4.744   4.362  1.00  0.00     0.202 C 
BRANCH  37  38
ATOM     38  C   UNL     1      -1.076  -5.417   4.400  1.00  0.00     0.261 C 
BRANCH  38  39
ATOM     39  O   UNL     1      -0.432  -5.471   3.131  1.00  0.00    -0.460 OA
BRANCH  39  40
ATOM     40  C   UNL     1      -0.492  -6.696   2.560  1.00  0.00     0.338 C 
ATOM     41  O   UNL     1      -0.911  -7.729   3.048  1.00  0.00    -0.246 OA
BRANCH  40  42
ATOM     42  C   UNL     1      -0.118  -6.567   1.148  1.00  0.00     0.060 A 
ATOM     43  C   UNL     1      -1.079  -6.943   0.206  1.00  0.00     0.016 A 
ATOM     44  C   UNL     1       1.153  -6.138   0.761  1.00  0.00     0.016 A 
ATOM     45  C   UNL     1      -0.750  -6.942  -1.142  1.00  0.00     0.010 A 
ATOM     46  C   UNL     1       1.482  -6.138  -0.594  1.00  0.00     0.010 A 
ATOM     47  C   UNL     1       0.544  -6.579  -1.543  1.00  0.00    -0.014 A 
BRANCH  47  48
ATOM     48  C   UNL     1       0.950  -6.835  -2.941  1.00  0.00     0.031 A 
ATOM     49  C   UNL     1       1.706  -8.095  -3.251  1.00  0.00     0.074 A 
ATOM     50  C   UNL     1       0.584  -5.991  -3.921  1.00  0.00     0.049 A 
ATOM     51  N   UNL     1       2.123  -8.547  -4.404  1.00  0.00    -0.248 NA
ATOM     52  C   UNL     1       2.033  -8.965  -2.109  1.00  0.00     0.031 C 
ATOM     53  C   UNL     1      -0.194  -4.767  -3.733  1.00  0.00     0.029 A 
ATOM     54  N   UNL     1       0.809  -6.046  -5.271  1.00  0.00    -0.354 N 
ATOM     55  C   UNL     1       2.749  -9.756  -4.130  1.00  0.00     0.074 A 
ATOM     56  C   UNL     1       2.699  -9.947  -2.697  1.00  0.00     0.031 C 
ATOM     57  C   UNL     1      -0.390  -4.189  -4.931  1.00  0.00     0.029 A 
ATOM     58  C   UNL     1       0.272  -4.988  -5.962  1.00  0.00     0.049 A 
ATOM     59  H   UNL     1       1.308  -6.776  -5.705  1.00  0.00     0.167 HD
ATOM     60  C   UNL     1       3.302 -10.636  -4.998  1.00  0.00     0.037 A 
ATOM     61  C   UNL     1       0.318  -4.698  -7.277  1.00  0.00     0.037 A 
ATOM     62  C   UNL     1       3.355 -10.433  -6.420  1.00  0.00     0.049 A 
ATOM     63  C   UNL     1       1.025  -5.644  -8.211  1.00  0.00     0.074 A 
ATOM     64  C   UNL     1       3.891 -11.262  -7.390  1.00  0.00     0.029 A 
ATOM     65  N   UNL     1       2.863  -9.314  -7.077  1.00  0.00    -0.354 N 
ATOM     66  N   UNL     1       1.597  -6.795  -7.943  1.00  0.00    -0.248 NA
ATOM     67  C   UNL     1       1.095  -5.253  -9.626  1.00  0.00     0.031 C 
ATOM     68  C   UNL     1       3.766 -10.621  -8.627  1.00  0.00     0.029 A 
ATOM     69  C   UNL     1       3.109  -9.415  -8.435  1.00  0.00     0.049 A 
ATOM     70  H   UNL     1       2.406  -8.559  -6.641  1.00  0.00     0.167 HD
ATOM     71  C   UNL     1       2.073  -7.276  -9.158  1.00  0.00     0.074 A 
ATOM     72  C   UNL     1       1.715  -6.296 -10.163  1.00  0.00     0.031 C 
ATOM     73  C   UNL     1       2.743  -8.427  -9.420  1.00  0.00     0.037 A 
BRANCH  60  74
ATOM     74  C   UNL     1       3.914 -11.880  -4.419  1.00  0.00     0.058 A 
ATOM     75  C   UNL     1       3.125 -12.910  -3.881  1.00  0.00     0.135 A 
ATOM     76  C   UNL     1       5.308 -12.045  -4.400  1.00  0.00     0.135 A 
ATOM     77  F   UNL     1       1.788 -12.794  -3.857  1.00  0.00    -0.206 F 
ATOM     78  C   UNL     1       3.697 -14.043  -3.312  1.00  0.00     0.059 A 
ATOM     79  C   UNL     1       5.901 -13.182  -3.859  1.00  0.00     0.059 A 
ATOM     80  F   UNL     1       6.109 -11.090  -4.897  1.00  0.00    -0.206 F 
ATOM     81  C   UNL     1       5.088 -14.167  -3.300  1.00  0.00     0.060 A 
BRANCH  81  82
ATOM     82  S   UNL     1       5.819 -15.631  -2.538  1.00  0.00     0.124 S 
ATOM     83  O   UNL     1       5.622 -15.348  -1.120  1.00  0.00    -0.237 OA
ATOM     84  O   UNL     1       5.005 -16.710  -3.088  1.00  0.00    -0.237 OA
ATOM     85  O   UNL     1       7.204 -15.597  -2.998  1.00  0.00    -0.744 OA
ENDBRANCH  81  82
ENDBRANCH  60  74
BRANCH  61  86
ATOM     86  C   UNL     1      -0.322  -3.457  -7.785  1.00  0.00     0.058 A 
ATOM     87  C   UNL     1      -1.472  -3.511  -8.585  1.00  0.00     0.135 A 
ATOM     88  C   UNL     1       0.200  -2.192  -7.472  1.00  0.00     0.135 A 
ATOM     89  F   UNL     1      -2.002  -4.697  -8.918  1.00  0.00    -0.206 F 
ATOM     90  C   UNL     1      -2.078  -2.355  -9.067  1.00  0.00     0.059 A 
ATOM     91  C   UNL     1      -0.401  -1.022  -7.923  1.00  0.00     0.059 A 
ATOM     92  F   UNL     1       1.292  -2.086  -6.700  1.00  0.00    -0.206 F 
ATOM     93  C   UNL     1      -1.536  -1.114  -8.727  1.00  0.00     0.060 A 
BRANCH  93  94
ATOM     94  S   UNL     1      -2.359   0.383  -9.314  1.00  0.00     0.124 S 
ATOM     95  O   UNL     1      -2.002   0.378 -10.728  1.00  0.00    -0.237 OA
ATOM     96  O   UNL     1      -3.757   0.104  -9.005  1.00  0.00    -0.237 OA
ATOM     97  O   UNL     1      -1.745   1.437  -8.511  1.00  0.00    -0.744 OA
ENDBRANCH  93  94
ENDBRANCH  61  86
BRANCH  73  98
ATOM     98  C   UNL     1       3.117  -8.702 -10.850  1.00  0.00     0.058 A 
ATOM     99  C   UNL     1       4.166  -8.016 -11.479  1.00  0.00     0.135 A 
ATOM    100  C   UNL     1       2.466  -9.716 -11.572  1.00  0.00     0.135 A 
ATOM    101  F   UNL     1       4.814  -7.034 -10.834  1.00  0.00    -0.206 F 
ATOM    102  C   UNL     1       4.550  -8.317 -12.782  1.00  0.00     0.059 A 
ATOM    103  C   UNL     1       2.850 -10.050 -12.867  1.00  0.00     0.059 A 
ATOM    104  F   UNL     1       1.462 -10.408 -11.012  1.00  0.00    -0.206 F 
ATOM    105  C   UNL     1       3.890  -9.340 -13.466  1.00  0.00     0.060 A 
BRANCH 105 106
ATOM    106  S   UNL     1       4.435  -9.756 -15.136  1.00  0.00     0.124 S 
ATOM    107  O   UNL     1       3.910  -8.633 -15.905  1.00  0.00    -0.237 OA
ATOM    108  O   UNL     1       5.886  -9.800 -14.989  1.00  0.00    -0.237 OA
ATOM    109  O   UNL     1       3.798 -11.045 -15.390  1.00  0.00    -0.744 OA
ENDBRANCH 105 106
ENDBRANCH  73  98
ENDBRANCH  47  48
ENDBRANCH  40  42
ENDBRANCH  39  40
ENDBRANCH  38  39
ENDBRANCH  37  38
ENDBRANCH  36  37
ENDBRANCH   1  36
TORSDOF 23
