REMARK SMILES N#C/C(=C\c1cn(CC(=O)OCCOCCOC(=O)c2ccc(-c3c4nc(c(-c5c(F)cc(S(=O)(=O)[O-])cc5F)c5ccc([nH]5)c(-c5c(F)cc(S(=O)(=O)[O-])cc5F)c5nc(c(-c6c(F)cc(S(=O)(=O)[O-])cc6F)c6ccc3[nH]6)C=C5)C=C4)cc2)c2ccccc12)C(=O)N1CCCC[C@@H]1C#N
REMARK SMILES IDX 13 1 12 2 11 3 9 4 10 5 8 6 7 7 5 8 6 9 91 10 86 11 90 12
REMARK SMILES IDX 87 13 89 14 88 15 4 16 3 17 2 18 1 19 92 20 93 21 94 22
REMARK SMILES IDX 95 23 99 24 96 25 98 26 97 27 100 28 101 29 14 30 15 31
REMARK SMILES IDX 16 32 17 33 18 34 19 35 20 36 21 37 85 38 22 39 84 40 23 41
REMARK SMILES IDX 24 42 25 43 78 44 26 45 83 46 77 47 79 48 27 49 82 50 76 51
REMARK SMILES IDX 75 52 28 54 62 55 41 56 61 57 42 58 45 59 60 60 80 61 43 62
REMARK SMILES IDX 44 63 59 65 81 66 46 67 29 68 30 69 39 70 31 71 32 72 38 73
REMARK SMILES IDX 40 74 33 75 34 76 35 77 36 78 37 79 63 80 64 81 73 82 65 83
REMARK SMILES IDX 66 84 72 85 74 86 67 87 68 88 69 89 70 90 71 91 47 92 48 93
REMARK SMILES IDX 57 94 49 95 50 96 56 97 58 98 51 99 52 100 53 101 54 102
REMARK SMILES IDX 55 103
REMARK H PARENT 79 53 45 64
REMARK Flexibility Score: inf
ROOT
ATOM      1  C   UNL     1      -0.683  -5.636  -3.828  1.00  0.00     0.202 C 
ENDROOT
BRANCH   1   2
ATOM      2  C   UNL     1       0.759  -6.033  -3.462  1.00  0.00     0.261 C 
BRANCH   2   3
ATOM      3  O   UNL     1       1.720  -4.960  -3.469  1.00  0.00    -0.462 OA
BRANCH   3   4
ATOM      4  C   UNL     1       2.513  -4.929  -4.573  1.00  0.00     0.326 C 
ATOM      5  O   UNL     1       2.445  -5.738  -5.495  1.00  0.00    -0.250 OA
BRANCH   4   6
ATOM      6  C   UNL     1       3.525  -3.815  -4.620  1.00  0.00     0.244 C 
BRANCH   6   7
ATOM      7  N   UNL     1       3.333  -2.650  -3.758  1.00  0.00    -0.336 N 
ATOM      8  C   UNL     1       3.713  -1.224  -2.083  1.00  0.00     0.002 A 
ATOM      9  C   UNL     1       4.016  -2.472  -2.576  1.00  0.00     0.095 A 
ATOM     10  C   UNL     1       2.819  -0.597  -3.004  1.00  0.00     0.007 A 
ATOM     11  C   UNL     1       2.655  -1.482  -4.080  1.00  0.00     0.049 A 
ATOM     12  C   UNL     1       2.148   0.649  -3.049  1.00  0.00     0.011 A 
ATOM     13  C   UNL     1       1.886  -1.125  -5.206  1.00  0.00     0.027 A 
ATOM     14  C   UNL     1       1.269   0.940  -4.093  1.00  0.00     0.001 A 
ATOM     15  C   UNL     1       1.153   0.069  -5.165  1.00  0.00     0.002 A 
BRANCH   8  16
ATOM     16  C   UNL     1       4.308  -0.705  -0.889  1.00  0.00     0.035 C 
ATOM     17  C   UNL     1       3.739   0.055   0.072  1.00  0.00     0.118 C 
BRANCH  17  18
ATOM     18  C   UNL     1       2.219   0.055   0.072  1.00  0.00     0.105 C 
ATOM     19  N   UNL     1       0.958   0.055   0.072  1.00  0.00    -0.192 NA
ENDBRANCH  17  18
BRANCH  17  20
ATOM     20  C   UNL     1       4.513   0.515   1.264  1.00  0.00     0.265 C 
ATOM     21  O   UNL     1       3.905   0.726   2.313  1.00  0.00    -0.268 OA
BRANCH  20  22
ATOM     22  N   UNL     1       5.906   0.616   1.206  1.00  0.00    -0.322 N 
ATOM     23  C   UNL     1       6.653   0.386   2.444  1.00  0.00     0.121 C 
ATOM     24  C   UNL     1       6.745   1.004   0.039  1.00  0.00     0.189 C 
ATOM     25  C   UNL     1       7.671  -0.733   2.226  1.00  0.00     0.022 C 
ATOM     26  C   UNL     1       7.832  -0.066  -0.212  1.00  0.00     0.041 C 
ATOM     27  C   UNL     1       8.609  -0.428   1.058  1.00  0.00     0.005 C 
BRANCH  24  28
ATOM     28  C   UNL     1       7.394   2.326   0.229  1.00  0.00     0.087 C 
ATOM     29  N   UNL     1       7.948   3.346   0.370  1.00  0.00    -0.196 NA
ENDBRANCH  24  28
ENDBRANCH  20  22
ENDBRANCH  17  20
ENDBRANCH   8  16
ENDBRANCH   6   7
ENDBRANCH   4   6
ENDBRANCH   3   4
ENDBRANCH   2   3
ENDBRANCH   1   2
BRANCH   1  30
ATOM     30  O   UNL     1      -0.956  -4.693  -4.856  1.00  0.00    -0.374 OA
BRANCH  30  31
ATOM     31  C   UNL     1      -0.429  -3.381  -4.723  1.00  0.00     0.202 C 
BRANCH  31  32
ATOM     32  C   UNL     1      -0.788  -2.492  -3.514  1.00  0.00     0.261 C 
BRANCH  32  33
ATOM     33  O   UNL     1      -0.747  -3.167  -2.264  1.00  0.00    -0.460 OA
BRANCH  33  34
ATOM     34  C   UNL     1      -1.858  -3.003  -1.496  1.00  0.00     0.338 C 
ATOM     35  O   UNL     1      -2.715  -2.143  -1.587  1.00  0.00    -0.246 OA
BRANCH  34  36
ATOM     36  C   UNL     1      -2.050  -4.314  -0.853  1.00  0.00     0.060 A 
ATOM     37  C   UNL     1      -0.973  -4.977  -0.255  1.00  0.00     0.016 A 
ATOM     38  C   UNL     1      -3.216  -4.997  -1.229  1.00  0.00     0.016 A 
ATOM     39  C   UNL     1      -1.022  -6.362  -0.161  1.00  0.00     0.010 A 
ATOM     40  C   UNL     1      -3.256  -6.379  -1.133  1.00  0.00     0.010 A 
ATOM     41  C   UNL     1      -2.137  -7.066  -0.663  1.00  0.00    -0.014 A 
BRANCH  41  42
ATOM     42  C   UNL     1      -2.220  -8.513  -0.442  1.00  0.00     0.031 A 
ATOM     43  C   UNL     1      -2.219  -8.820   1.020  1.00  0.00     0.074 A 
ATOM     44  C   UNL     1      -2.434  -9.458  -1.389  1.00  0.00     0.049 A 
ATOM     45  N   UNL     1      -1.303  -9.433   1.693  1.00  0.00    -0.248 NA
ATOM     46  C   UNL     1      -3.242  -8.171   1.863  1.00  0.00     0.031 C 
ATOM     47  C   UNL     1      -2.658  -9.307  -2.829  1.00  0.00     0.029 A 
ATOM     48  N   UNL     1      -2.553 -10.812  -1.228  1.00  0.00    -0.354 N 
ATOM     49  C   UNL     1      -1.746  -9.444   3.013  1.00  0.00     0.074 A 
ATOM     50  C   UNL     1      -2.838  -8.511   3.087  1.00  0.00     0.031 C 
ATOM     51  C   UNL     1      -3.108 -10.476  -3.355  1.00  0.00     0.029 A 
ATOM     52  C   UNL     1      -3.074 -11.503  -2.330  1.00  0.00     0.049 A 
ATOM     53  H   UNL     1      -2.291 -11.269  -0.396  1.00  0.00     0.167 HD
ATOM     54  C   UNL     1      -1.322 -10.389   3.896  1.00  0.00     0.037 A 
ATOM     55  C   UNL     1      -3.426 -12.823  -2.382  1.00  0.00     0.037 A 
ATOM     56  C   UNL     1      -0.131 -11.043   3.425  1.00  0.00     0.049 A 
ATOM     57  C   UNL     1      -2.688 -13.490  -1.277  1.00  0.00     0.074 A 
ATOM     58  C   UNL     1       1.171 -10.647   3.194  1.00  0.00     0.029 A 
ATOM     59  N   UNL     1      -0.292 -12.220   2.738  1.00  0.00    -0.354 N 
ATOM     60  N   UNL     1      -1.388 -13.600  -1.251  1.00  0.00    -0.248 NA
ATOM     61  C   UNL     1      -3.359 -13.561   0.011  1.00  0.00     0.031 C 
ATOM     62  C   UNL     1       1.560 -11.332   2.005  1.00  0.00     0.029 A 
ATOM     63  C   UNL     1       0.510 -12.168   1.625  1.00  0.00     0.049 A 
ATOM     64  H   UNL     1      -0.878 -12.967   2.996  1.00  0.00     0.167 HD
ATOM     65  C   UNL     1      -1.042 -13.319   0.061  1.00  0.00     0.074 A 
ATOM     66  C   UNL     1      -2.307 -13.325   0.798  1.00  0.00     0.031 C 
ATOM     67  C   UNL     1       0.190 -12.824   0.378  1.00  0.00     0.037 A 
BRANCH  54  68
ATOM     68  C   UNL     1      -2.189 -10.969   4.984  1.00  0.00     0.058 A 
ATOM     69  C   UNL     1      -1.610 -11.788   5.972  1.00  0.00     0.135 A 
ATOM     70  C   UNL     1      -3.602 -10.985   4.925  1.00  0.00     0.135 A 
ATOM     71  F   UNL     1      -0.276 -11.858   6.105  1.00  0.00    -0.206 F 
ATOM     72  C   UNL     1      -2.376 -12.607   6.803  1.00  0.00     0.059 A 
ATOM     73  C   UNL     1      -4.386 -11.756   5.775  1.00  0.00     0.059 A 
ATOM     74  F   UNL     1      -4.282 -10.327   3.978  1.00  0.00    -0.206 F 
ATOM     75  C   UNL     1      -3.764 -12.591   6.688  1.00  0.00     0.060 A 
BRANCH  75  76
ATOM     76  S   UNL     1      -4.744 -13.710   7.704  1.00  0.00     0.124 S 
ATOM     77  O   UNL     1      -4.310 -15.012   7.209  1.00  0.00    -0.237 OA
ATOM     78  O   UNL     1      -4.301 -13.357   9.049  1.00  0.00    -0.237 OA
ATOM     79  O   UNL     1      -6.119 -13.339   7.384  1.00  0.00    -0.744 OA
ENDBRANCH  75  76
ENDBRANCH  54  68
BRANCH  55  80
ATOM     80  C   UNL     1      -4.665 -13.455  -2.948  1.00  0.00     0.058 A 
ATOM     81  C   UNL     1      -4.811 -14.860  -3.010  1.00  0.00     0.135 A 
ATOM     82  C   UNL     1      -5.850 -12.714  -3.110  1.00  0.00     0.135 A 
ATOM     83  F   UNL     1      -3.740 -15.655  -2.854  1.00  0.00    -0.206 F 
ATOM     84  C   UNL     1      -6.059 -15.488  -3.150  1.00  0.00     0.059 A 
ATOM     85  C   UNL     1      -7.105 -13.318  -3.249  1.00  0.00     0.059 A 
ATOM     86  F   UNL     1      -5.833 -11.376  -3.037  1.00  0.00    -0.206 F 
ATOM     87  C   UNL     1      -7.209 -14.705  -3.237  1.00  0.00     0.060 A 
BRANCH  87  88
ATOM     88  S   UNL     1      -8.840 -15.501  -3.216  1.00  0.00     0.124 S 
ATOM     89  O   UNL     1      -8.846 -16.221  -4.485  1.00  0.00    -0.237 OA
ATOM     90  O   UNL     1      -8.766 -16.327  -2.016  1.00  0.00    -0.237 OA
ATOM     91  O   UNL     1      -9.765 -14.373  -3.137  1.00  0.00    -0.744 OA
ENDBRANCH  87  88
ENDBRANCH  55  80
BRANCH  67  92
ATOM     92  C   UNL     1       1.246 -12.805  -0.700  1.00  0.00     0.058 A 
ATOM     93  C   UNL     1       1.200 -12.008  -1.861  1.00  0.00     0.135 A 
ATOM     94  C   UNL     1       2.425 -13.525  -0.469  1.00  0.00     0.135 A 
ATOM     95  F   UNL     1       0.149 -11.213  -2.110  1.00  0.00    -0.206 F 
ATOM     96  C   UNL     1       2.266 -11.962  -2.766  1.00  0.00     0.059 A 
ATOM     97  C   UNL     1       3.509 -13.472  -1.340  1.00  0.00     0.059 A 
ATOM     98  F   UNL     1       2.555 -14.257   0.649  1.00  0.00    -0.206 F 
ATOM     99  C   UNL     1       3.419 -12.698  -2.494  1.00  0.00     0.060 A 
BRANCH  99 100
ATOM    100  S   UNL     1       4.822 -12.602  -3.629  1.00  0.00     0.124 S 
ATOM    101  O   UNL     1       4.298 -13.252  -4.825  1.00  0.00    -0.237 OA
ATOM    102  O   UNL     1       5.045 -11.163  -3.734  1.00  0.00    -0.237 OA
ATOM    103  O   UNL     1       5.877 -13.336  -2.932  1.00  0.00    -0.744 OA
ENDBRANCH  99 100
ENDBRANCH  67  92
ENDBRANCH  41  42
ENDBRANCH  34  36
ENDBRANCH  33  34
ENDBRANCH  32  33
ENDBRANCH  31  32
ENDBRANCH  30  31
ENDBRANCH   1  30
TORSDOF 23
