REMARK SMILES COc1cc2ccccc2cc1C(=O)Nc1cc(C(=O)OCCOCCOC(=O)c2ccc(-c3c4nc(c(-c5c(F)cc(S(=O)(=O)[O-])cc5F)c5ccc([nH]5)c(-c5c(F)cc(S(=O)(=O)[O-])cc5F)c5nc(c(-c6c(F)cc(S(=O)(=O)[O-])cc6F)c6ccc3[nH]6)C=C5)C=C4)cc2)ccc1C
REMARK SMILES IDX 24 1 23 2 22 3 21 4 19 5 20 6 18 7 16 8 17 9 98 10 97 11
REMARK SMILES IDX 99 12 96 13 15 14 13 15 14 16 12 18 3 19 4 20 5 21 11 22
REMARK SMILES IDX 6 23 10 24 7 25 9 26 8 27 2 28 1 29 25 30 26 31 27 32 28 33
REMARK SMILES IDX 29 34 30 35 31 36 95 37 32 38 94 39 33 40 34 41 35 42 88 43
REMARK SMILES IDX 36 44 93 45 87 46 89 47 37 48 92 49 86 50 85 51 38 53 72 54
REMARK SMILES IDX 51 55 71 56 52 57 55 58 70 59 90 60 53 61 54 62 69 64 91 65
REMARK SMILES IDX 56 66 39 67 40 68 49 69 41 70 42 71 48 72 50 73 43 74 44 75
REMARK SMILES IDX 45 76 46 77 47 78 73 79 74 80 83 81 75 82 76 83 82 84 84 85
REMARK SMILES IDX 77 86 78 87 79 88 80 89 81 90 57 91 58 92 67 93 59 94 60 95
REMARK SMILES IDX 66 96 68 97 61 98 62 99 63 100 64 101 65 102
REMARK H PARENT 15 17 89 52 55 63
REMARK Flexibility Score: inf
ROOT
ATOM      1  O   UNL     1      -1.187   2.221  -4.819  1.00  0.00    -0.374 OA
ENDROOT
BRANCH   1   2
ATOM      2  C   UNL     1      -0.073   3.103  -4.848  1.00  0.00     0.202 C 
BRANCH   2   3
ATOM      3  C   UNL     1       0.106   3.374  -3.414  1.00  0.00     0.261 C 
BRANCH   3   4
ATOM      4  O   UNL     1       0.370   2.221  -2.685  1.00  0.00    -0.460 OA
BRANCH   4   5
ATOM      5  C   UNL     1      -0.602   1.275  -2.575  1.00  0.00     0.338 C 
ATOM      6  O   UNL     1      -1.806   1.313  -2.434  1.00  0.00    -0.246 OA
BRANCH   5   7
ATOM      7  C   UNL     1       0.168   0.057  -2.614  1.00  0.00     0.062 A 
ATOM      8  C   UNL     1       2.139  -0.576  -1.688  1.00  0.00     0.045 A 
ATOM      9  C   UNL     1       1.540   0.225  -2.581  1.00  0.00     0.042 A 
ATOM     10  C   UNL     1       1.625  -1.836  -1.408  1.00  0.00    -0.027 A 
ATOM     11  C   UNL     1       0.320  -2.149  -1.816  1.00  0.00     0.006 A 
ATOM     12  C   UNL     1       2.370  -2.751  -0.505  1.00  0.00     0.046 C 
ATOM     13  C   UNL     1      -0.469  -1.138  -2.320  1.00  0.00     0.016 A 
BRANCH   8  14
ATOM     14  N   UNL     1       2.848   0.102  -0.717  1.00  0.00    -0.322 N 
ATOM     15  C   UNL     1       2.339   1.037   0.181  1.00  0.00     0.259 C 
ATOM     16  O   UNL     1       3.210   1.420   0.981  1.00  0.00    -0.269 OA
ATOM     17  H   UNL     1       3.810  -0.096  -0.652  1.00  0.00     0.170 HD
BRANCH  15  18
ATOM     18  C   UNL     1       0.906   1.738   0.180  1.00  0.00     0.082 A 
ATOM     19  C   UNL     1      -0.716   1.496   0.251  1.00  0.00     0.132 A 
ATOM     20  C   UNL     1      -1.982   2.802   0.512  1.00  0.00     0.056 A 
ATOM     21  C   UNL     1      -1.717   4.668   0.810  1.00  0.00    -0.015 A 
ATOM     22  C   UNL     1       1.200   3.203   0.426  1.00  0.00     0.026 A 
ATOM     23  C   UNL     1      -2.318   6.259   1.322  1.00  0.00     0.009 A 
ATOM     24  C   UNL     1       0.088   4.947   0.597  1.00  0.00    -0.017 A 
ATOM     25  C   UNL     1      -1.456   7.777   1.705  1.00  0.00     0.001 A 
ATOM     26  C   UNL     1       1.158   6.707   0.909  1.00  0.00     0.009 A 
ATOM     27  C   UNL     1       0.236   8.063   1.536  1.00  0.00     0.001 A 
BRANCH  19  28
ATOM     28  O   UNL     1      -1.141   0.189   0.530  1.00  0.00    -0.496 OA
ATOM     29  C   UNL     1      -0.185  -0.586   1.276  1.00  0.00     0.278 C 
ENDBRANCH  19  28
ENDBRANCH  15  18
ENDBRANCH   8  14
ENDBRANCH   5   7
ENDBRANCH   4   5
ENDBRANCH   3   4
ENDBRANCH   2   3
ENDBRANCH   1   2
BRANCH   1  30
ATOM     30  C   UNL     1      -1.299   1.053  -5.539  1.00  0.00     0.202 C 
BRANCH  30  31
ATOM     31  C   UNL     1      -0.821   1.402  -6.892  1.00  0.00     0.261 C 
BRANCH  31  32
ATOM     32  O   UNL     1      -1.569   2.536  -7.526  1.00  0.00    -0.460 OA
BRANCH  32  33
ATOM     33  C   UNL     1      -1.978   3.827  -7.202  1.00  0.00     0.338 C 
ATOM     34  O   UNL     1      -1.753   4.706  -8.034  1.00  0.00    -0.246 OA
BRANCH  33  35
ATOM     35  C   UNL     1      -2.767   4.235  -5.943  1.00  0.00     0.060 A 
ATOM     36  C   UNL     1      -2.698   5.491  -5.330  1.00  0.00     0.016 A 
ATOM     37  C   UNL     1      -3.421   3.335  -5.163  1.00  0.00     0.016 A 
ATOM     38  C   UNL     1      -2.654   5.607  -3.890  1.00  0.00     0.010 A 
ATOM     39  C   UNL     1      -3.123   3.410  -3.777  1.00  0.00     0.010 A 
ATOM     40  C   UNL     1      -2.442   4.488  -3.097  1.00  0.00    -0.014 A 
BRANCH  40  41
ATOM     41  C   UNL     1      -1.840   4.112  -1.443  1.00  0.00     0.031 A 
ATOM     42  C   UNL     1      -3.699   3.829  -1.085  1.00  0.00     0.074 A 
ATOM     43  C   UNL     1      -0.323   3.746  -0.582  1.00  0.00     0.049 A 
ATOM     44  N   UNL     1      -4.338   3.196  -0.129  1.00  0.00    -0.248 NA
ATOM     45  C   UNL     1      -4.896   4.191  -2.020  1.00  0.00     0.031 C 
ATOM     46  C   UNL     1      -0.319   3.270   1.494  1.00  0.00     0.029 A 
ATOM     47  N   UNL     1       1.403   4.749  -0.382  1.00  0.00    -0.354 N 
ATOM     48  C   UNL     1      -5.688   2.836  -0.416  1.00  0.00     0.074 A 
ATOM     49  C   UNL     1      -5.941   3.404  -1.687  1.00  0.00     0.031 C 
ATOM     50  C   UNL     1       0.721   3.738   2.425  1.00  0.00     0.029 A 
ATOM     51  C   UNL     1       1.476   4.948   1.641  1.00  0.00     0.049 A 
ATOM     52  H   UNL     1       2.036   5.058  -1.070  1.00  0.00     0.167 HD
ATOM     53  C   UNL     1      -6.434   2.094   0.482  1.00  0.00     0.037 A 
ATOM     54  C   UNL     1      -0.009   5.975   2.007  1.00  0.00     0.037 A 
ATOM     55  C   UNL     1      -5.699   2.192   1.730  1.00  0.00     0.049 A 
ATOM     56  C   UNL     1      -0.948   5.592   3.276  1.00  0.00     0.074 A 
ATOM     57  C   UNL     1      -4.740   1.367   2.270  1.00  0.00     0.029 A 
ATOM     58  N   UNL     1      -5.585   3.429   2.346  1.00  0.00    -0.354 N 
ATOM     59  N   UNL     1      -1.774   4.570   3.384  1.00  0.00    -0.248 NA
ATOM     60  C   UNL     1      -1.064   6.503   4.410  1.00  0.00     0.031 C 
ATOM     61  C   UNL     1      -3.935   2.180   3.114  1.00  0.00     0.029 A 
ATOM     62  C   UNL     1      -4.466   3.461   3.171  1.00  0.00     0.049 A 
ATOM     63  H   UNL     1      -6.208   4.180   2.217  1.00  0.00     0.167 HD
ATOM     64  C   UNL     1      -2.819   5.007   4.149  1.00  0.00     0.074 A 
ATOM     65  C   UNL     1      -2.229   6.090   4.927  1.00  0.00     0.031 C 
ATOM     66  C   UNL     1      -4.131   4.678   3.899  1.00  0.00     0.037 A 
BRANCH  53  67
ATOM     67  C   UNL     1      -7.738   1.191   0.449  1.00  0.00     0.058 A 
ATOM     68  C   UNL     1      -8.037   0.422   1.620  1.00  0.00     0.135 A 
ATOM     69  C   UNL     1      -8.627   0.893  -0.615  1.00  0.00     0.135 A 
ATOM     70  F   UNL     1      -7.354   0.592   2.759  1.00  0.00    -0.206 F 
ATOM     71  C   UNL     1      -9.023  -0.575   1.715  1.00  0.00     0.059 A 
ATOM     72  C   UNL     1      -9.666  -0.104  -0.530  1.00  0.00     0.059 A 
ATOM     73  F   UNL     1      -8.530   1.543  -1.787  1.00  0.00    -0.206 F 
ATOM     74  C   UNL     1      -9.834  -0.854   0.636  1.00  0.00     0.060 A 
BRANCH  74  75
ATOM     75  S   UNL     1     -11.050  -2.196   0.837  1.00  0.00     0.124 S 
ATOM     76  O   UNL     1     -10.197  -3.360   1.064  1.00  0.00    -0.237 OA
ATOM     77  O   UNL     1     -11.822  -1.756   1.996  1.00  0.00    -0.237 OA
ATOM     78  O   UNL     1     -11.780  -2.201  -0.427  1.00  0.00    -0.744 OA
ENDBRANCH  74  75
ENDBRANCH  53  67
BRANCH  54  79
ATOM     79  C   UNL     1      -0.458   6.705  -0.004  1.00  0.00     0.058 A 
ATOM     80  C   UNL     1       0.897   6.864  -1.138  1.00  0.00     0.135 A 
ATOM     81  C   UNL     1      -1.376   7.179  -1.006  1.00  0.00     0.135 A 
ATOM     82  F   UNL     1       2.183   7.202  -0.754  1.00  0.00    -0.206 F 
ATOM     83  C   UNL     1       1.139   6.669  -2.471  1.00  0.00     0.059 A 
ATOM     84  C   UNL     1      -1.016   7.440  -2.526  1.00  0.00     0.059 A 
ATOM     85  F   UNL     1      -2.657   7.490  -0.750  1.00  0.00    -0.206 F 
ATOM     86  C   UNL     1       0.140   7.023  -3.244  1.00  0.00     0.060 A 
BRANCH  86  87
ATOM     87  S   UNL     1       0.679   6.971  -4.974  1.00  0.00     0.124 S 
ATOM     88  O   UNL     1       1.724   7.990  -5.021  1.00  0.00    -0.237 OA
ATOM     89  O   UNL     1       1.205   5.609  -5.114  1.00  0.00    -0.237 OA
ATOM     90  O   UNL     1      -0.522   7.275  -5.724  1.00  0.00    -0.744 OA
ENDBRANCH  86  87
ENDBRANCH  54  79
BRANCH  66  91
ATOM     91  C   UNL     1      -5.211   5.541   4.480  1.00  0.00     0.058 A 
ATOM     92  C   UNL     1      -5.032   6.914   4.691  1.00  0.00     0.135 A 
ATOM     93  C   UNL     1      -6.406   4.983   4.959  1.00  0.00     0.135 A 
ATOM     94  F   UNL     1      -4.113   7.617   4.008  1.00  0.00    -0.206 F 
ATOM     95  C   UNL     1      -5.724   7.566   5.690  1.00  0.00     0.059 A 
ATOM     96  C   UNL     1      -7.212   5.667   5.848  1.00  0.00     0.059 A 
ATOM     97  F   UNL     1      -6.802   3.750   4.618  1.00  0.00    -0.206 F 
ATOM     98  C   UNL     1      -6.786   6.908   6.298  1.00  0.00     0.060 A 
BRANCH  98  99
ATOM     99  S   UNL     1      -7.592   7.699   7.684  1.00  0.00     0.124 S 
ATOM    100  O   UNL     1      -6.588   7.539   8.732  1.00  0.00    -0.237 OA
ATOM    101  O   UNL     1      -7.778   9.059   7.189  1.00  0.00    -0.237 OA
ATOM    102  O   UNL     1      -8.813   6.920   7.855  1.00  0.00    -0.744 OA
ENDBRANCH  98  99
ENDBRANCH  66  91
ENDBRANCH  40  41
ENDBRANCH  33  35
ENDBRANCH  32  33
ENDBRANCH  31  32
ENDBRANCH  30  31
ENDBRANCH   1  30
TORSDOF 20
