REMARK SMILES Cc1ncccc1C(=O)N1CC[C@@H](C(=O)OCCOCCOC(=O)c2ccc(-c3c4nc(c(-c5c(F)cc(S(=O)(=O)[O-])cc5F)c5ccc([nH]5)c(-c5c(F)cc(S(=O)(=O)[O-])cc5F)c5nc(c(-c6c(F)cc(S(=O)(=O)[O-])cc6F)c6ccc3[nH]6)C=C5)C=C4)cc2)C1
REMARK SMILES IDX 20 1 19 2 18 3 17 4 16 5 14 6 15 7 13 8 10 9 11 10 91 11
REMARK SMILES IDX 12 12 8 13 9 14 7 15 1 16 2 17 3 18 4 19 6 20 5 21 21 22
REMARK SMILES IDX 22 23 23 24 24 25 25 26 26 27 90 28 27 29 89 30 28 31 29 32
REMARK SMILES IDX 30 33 83 34 31 35 88 36 82 37 84 38 32 39 87 40 81 41 80 42
REMARK SMILES IDX 33 44 67 45 46 46 66 47 47 48 50 49 65 50 85 51 48 52 49 53
REMARK SMILES IDX 64 55 86 56 51 57 34 58 35 59 44 60 36 61 37 62 43 63 45 64
REMARK SMILES IDX 38 65 39 66 40 67 41 68 42 69 68 70 69 71 78 72 70 73 71 74
REMARK SMILES IDX 77 75 79 76 72 77 73 78 74 79 75 80 76 81 52 82 53 83 62 84
REMARK SMILES IDX 54 85 55 86 61 87 63 88 56 89 57 90 58 91 59 92 60 93
REMARK H PARENT 84 43 50 54
REMARK Flexibility Score: inf
ROOT
ATOM      1  C   UNL     1       4.857  -6.189   0.484  1.00  0.00     0.202 C 
ENDROOT
BRANCH   1   2
ATOM      2  O   UNL     1       6.216  -6.611   0.568  1.00  0.00    -0.374 OA
BRANCH   2   3
ATOM      3  C   UNL     1       7.110  -5.741   1.266  1.00  0.00     0.202 C 
BRANCH   3   4
ATOM      4  C   UNL     1       7.571  -4.504   0.490  1.00  0.00     0.261 C 
BRANCH   4   5
ATOM      5  O   UNL     1       6.531  -3.508   0.444  1.00  0.00    -0.463 OA
BRANCH   5   6
ATOM      6  C   UNL     1       5.997  -3.230  -0.771  1.00  0.00     0.310 C 
ATOM      7  O   UNL     1       6.325  -3.763  -1.824  1.00  0.00    -0.252 OA
BRANCH   6   8
ATOM      8  C   UNL     1       4.876  -2.222  -0.694  1.00  0.00     0.120 C 
ATOM      9  N   UNL     1       2.594  -2.248  -0.141  1.00  0.00    -0.338 N 
ATOM     10  C   UNL     1       3.247  -1.857   1.091  1.00  0.00     0.121 C 
ATOM     11  C   UNL     1       3.543  -2.889  -1.023  1.00  0.00     0.135 C 
ATOM     12  C   UNL     1       4.657  -1.488   0.646  1.00  0.00     0.039 C 
BRANCH   9  13
ATOM     13  C   UNL     1       1.252  -2.243  -0.443  1.00  0.00     0.255 C 
ATOM     14  O   UNL     1       0.740  -3.139  -1.115  1.00  0.00    -0.269 OA
BRANCH  13  15
ATOM     15  C   UNL     1       0.406  -1.075  -0.081  1.00  0.00     0.061 A 
ATOM     16  C   UNL     1       2.178   0.699  -0.626  1.00  0.00     0.067 C 
ATOM     17  C   UNL     1       0.800   0.261  -0.235  1.00  0.00     0.050 A 
ATOM     18  N   UNL     1      -0.068   1.299  -0.066  1.00  0.00    -0.261 NA
ATOM     19  C   UNL     1      -1.358   1.016   0.199  1.00  0.00     0.111 A 
ATOM     20  C   UNL     1      -0.948  -1.326   0.193  1.00  0.00     0.017 A 
ATOM     21  C   UNL     1      -1.844  -0.269   0.331  1.00  0.00     0.021 A 
ENDBRANCH  13  15
ENDBRANCH   9  13
ENDBRANCH   6   8
ENDBRANCH   5   6
ENDBRANCH   4   5
ENDBRANCH   3   4
ENDBRANCH   2   3
ENDBRANCH   1   2
BRANCH   1  22
ATOM     22  C   UNL     1       3.961  -6.550   1.673  1.00  0.00     0.261 C 
BRANCH  22  23
ATOM     23  O   UNL     1       4.359  -5.856   2.869  1.00  0.00    -0.460 OA
BRANCH  23  24
ATOM     24  C   UNL     1       5.010  -6.621   3.776  1.00  0.00     0.338 C 
ATOM     25  O   UNL     1       5.225  -7.825   3.710  1.00  0.00    -0.246 OA
BRANCH  24  26
ATOM     26  C   UNL     1       5.608  -5.763   4.813  1.00  0.00     0.060 A 
ATOM     27  C   UNL     1       6.982  -5.893   5.049  1.00  0.00     0.016 A 
ATOM     28  C   UNL     1       4.836  -4.883   5.575  1.00  0.00     0.016 A 
ATOM     29  C   UNL     1       7.587  -5.162   6.068  1.00  0.00     0.010 A 
ATOM     30  C   UNL     1       5.444  -4.158   6.605  1.00  0.00     0.010 A 
ATOM     31  C   UNL     1       6.817  -4.310   6.871  1.00  0.00    -0.014 A 
BRANCH  31  32
ATOM     32  C   UNL     1       7.434  -3.644   8.043  1.00  0.00     0.031 A 
ATOM     33  C   UNL     1       7.202  -4.204   9.418  1.00  0.00     0.074 A 
ATOM     34  C   UNL     1       8.200  -2.551   7.875  1.00  0.00     0.049 A 
ATOM     35  N   UNL     1       7.598  -3.745  10.576  1.00  0.00    -0.248 NA
ATOM     36  C   UNL     1       6.417  -5.446   9.499  1.00  0.00     0.031 C 
ATOM     37  C   UNL     1       8.522  -1.938   6.587  1.00  0.00     0.029 A 
ATOM     38  N   UNL     1       8.835  -1.755   8.795  1.00  0.00    -0.354 N 
ATOM     39  C   UNL     1       7.107  -4.633  11.525  1.00  0.00     0.074 A 
ATOM     40  C   UNL     1       6.362  -5.646  10.809  1.00  0.00     0.031 C 
ATOM     41  C   UNL     1       9.280  -0.849   6.800  1.00  0.00     0.029 A 
ATOM     42  C   UNL     1       9.465  -0.668   8.238  1.00  0.00     0.049 A 
ATOM     43  H   UNL     1       8.838  -1.944   9.761  1.00  0.00     0.167 HD
ATOM     44  C   UNL     1       7.269  -4.607  12.870  1.00  0.00     0.037 A 
ATOM     45  C   UNL     1      10.092   0.372   8.824  1.00  0.00     0.037 A 
ATOM     46  C   UNL     1       8.013  -3.594  13.573  1.00  0.00     0.049 A 
ATOM     47  C   UNL     1      10.198   0.417  10.325  1.00  0.00     0.074 A 
ATOM     48  C   UNL     1       8.265  -3.500  14.931  1.00  0.00     0.029 A 
ATOM     49  N   UNL     1       8.611  -2.492  12.979  1.00  0.00    -0.354 N 
ATOM     50  N   UNL     1       9.761  -0.449  11.209  1.00  0.00    -0.248 NA
ATOM     51  C   UNL     1      10.880   1.581  10.910  1.00  0.00     0.031 C 
ATOM     52  C   UNL     1       8.966  -2.311  15.164  1.00  0.00     0.029 A 
ATOM     53  C   UNL     1       9.199  -1.692  13.946  1.00  0.00     0.049 A 
ATOM     54  H   UNL     1       8.616  -2.305  12.013  1.00  0.00     0.167 HD
ATOM     55  C   UNL     1      10.128   0.057  12.452  1.00  0.00     0.074 A 
ATOM     56  C   UNL     1      10.839   1.295  12.205  1.00  0.00     0.031 C 
ATOM     57  C   UNL     1       9.897  -0.457  13.686  1.00  0.00     0.037 A 
BRANCH  44  58
ATOM     58  C   UNL     1       6.604  -5.690  13.675  1.00  0.00     0.058 A 
ATOM     59  C   UNL     1       7.067  -7.015  13.662  1.00  0.00     0.135 A 
ATOM     60  C   UNL     1       5.512  -5.387  14.505  1.00  0.00     0.135 A 
ATOM     61  F   UNL     1       8.098  -7.363  12.876  1.00  0.00    -0.206 F 
ATOM     62  C   UNL     1       6.456  -8.006  14.424  1.00  0.00     0.059 A 
ATOM     63  C   UNL     1       4.902  -6.357  15.296  1.00  0.00     0.059 A 
ATOM     64  F   UNL     1       5.027  -4.136  14.555  1.00  0.00    -0.206 F 
ATOM     65  C   UNL     1       5.373  -7.667  15.238  1.00  0.00     0.060 A 
BRANCH  65  66
ATOM     66  S   UNL     1       4.595  -8.964  16.224  1.00  0.00     0.124 S 
ATOM     67  O   UNL     1       3.902  -9.734  15.196  1.00  0.00    -0.237 OA
ATOM     68  O   UNL     1       5.744  -9.619  16.840  1.00  0.00    -0.237 OA
ATOM     69  O   UNL     1       3.733  -8.224  17.141  1.00  0.00    -0.744 OA
ENDBRANCH  65  66
ENDBRANCH  44  58
BRANCH  45  70
ATOM     70  C   UNL     1      10.643   1.469   7.985  1.00  0.00     0.058 A 
ATOM     71  C   UNL     1      12.026   1.663   7.856  1.00  0.00     0.135 A 
ATOM     72  C   UNL     1       9.793   2.339   7.283  1.00  0.00     0.135 A 
ATOM     73  F   UNL     1      12.879   0.866   8.518  1.00  0.00    -0.206 F 
ATOM     74  C   UNL     1      12.548   2.682   7.067  1.00  0.00     0.059 A 
ATOM     75  C   UNL     1      10.291   3.349   6.467  1.00  0.00     0.059 A 
ATOM     76  F   UNL     1       8.462   2.189   7.364  1.00  0.00    -0.206 F 
ATOM     77  C   UNL     1      11.671   3.517   6.371  1.00  0.00     0.060 A 
BRANCH  77  78
ATOM     78  S   UNL     1      12.360   4.795   5.297  1.00  0.00     0.124 S 
ATOM     79  O   UNL     1      12.855   5.761   6.270  1.00  0.00    -0.237 OA
ATOM     80  O   UNL     1      13.376   4.055   4.554  1.00  0.00    -0.237 OA
ATOM     81  O   UNL     1      11.209   5.225   4.508  1.00  0.00    -0.744 OA
ENDBRANCH  77  78
ENDBRANCH  45  70
BRANCH  57  82
ATOM     82  C   UNL     1      10.426   0.310  14.868  1.00  0.00     0.058 A 
ATOM     83  C   UNL     1       9.835   1.512  15.288  1.00  0.00     0.135 A 
ATOM     84  C   UNL     1      11.498  -0.192  15.624  1.00  0.00     0.135 A 
ATOM     85  F   UNL     1       8.812   2.040  14.596  1.00  0.00    -0.206 F 
ATOM     86  C   UNL     1      10.299   2.199  16.405  1.00  0.00     0.059 A 
ATOM     87  C   UNL     1      11.960   0.464  16.761  1.00  0.00     0.059 A 
ATOM     88  F   UNL     1      12.093  -1.342  15.272  1.00  0.00    -0.206 F 
ATOM     89  C   UNL     1      11.361   1.664  17.138  1.00  0.00     0.060 A 
BRANCH  89  90
ATOM     90  S   UNL     1      11.927   2.546  18.609  1.00  0.00     0.124 S 
ATOM     91  O   UNL     1      12.615   3.690  18.020  1.00  0.00    -0.237 OA
ATOM     92  O   UNL     1      10.673   2.844  19.295  1.00  0.00    -0.237 OA
ATOM     93  O   UNL     1      12.785   1.574  19.279  1.00  0.00    -0.744 OA
ENDBRANCH  89  90
ENDBRANCH  57  82
ENDBRANCH  31  32
ENDBRANCH  24  26
ENDBRANCH  23  24
ENDBRANCH  22  23
ENDBRANCH   1  22
TORSDOF 19
