REMARK SMILES C[C@H]1CC=C(C2=NN=C(C(=O)OCCOCCOC(=O)c3ccc(-c4c5nc(c(-c6c(F)cc(S(=O)(=O)[O-])cc6F)c6ccc([nH]6)c(-c6c(F)cc(S(=O)(=O)[O-])cc6F)c6nc(c(-c7c(F)cc(S(=O)(=O)[O-])cc7F)c7ccc4[nH]7)C=C6)C=C5)cc3)C2)O1
REMARK SMILES IDX 16 1 15 2 14 3 13 4 12 5 10 6 11 7 9 8 6 9 7 10 87 11 8 12
REMARK SMILES IDX 5 13 1 14 2 15 3 16 88 17 4 18 17 19 18 20 19 21 20 22 21 23
REMARK SMILES IDX 22 24 86 25 23 26 85 27 24 28 25 29 26 30 79 31 27 32 84 33
REMARK SMILES IDX 78 34 80 35 28 36 83 37 77 38 76 39 29 41 63 42 42 43 62 44
REMARK SMILES IDX 43 45 46 46 61 47 81 48 44 49 45 50 60 52 82 53 47 54 30 55
REMARK SMILES IDX 31 56 40 57 32 58 33 59 39 60 41 61 34 62 35 63 36 64 37 65
REMARK SMILES IDX 38 66 64 67 65 68 74 69 66 70 67 71 73 72 75 73 68 74 69 75
REMARK SMILES IDX 70 76 71 77 72 78 48 79 49 80 58 81 50 82 51 83 57 84 59 85
REMARK SMILES IDX 52 86 53 87 54 88 55 89 56 90
REMARK H PARENT 80 40 46 51
REMARK Flexibility Score: inf
ROOT
ATOM      1  C   UNL     1       6.922  -5.250  -1.877  1.00  0.00     0.202 C 
ENDROOT
BRANCH   1   2
ATOM      2  O   UNL     1       8.152  -5.699  -1.318  1.00  0.00    -0.374 OA
BRANCH   2   3
ATOM      3  C   UNL     1       8.257  -7.014  -0.773  1.00  0.00     0.202 C 
BRANCH   3   4
ATOM      4  C   UNL     1       7.461  -7.344   0.491  1.00  0.00     0.261 C 
BRANCH   4   5
ATOM      5  O   UNL     1       6.048  -7.164   0.321  1.00  0.00    -0.459 OA
BRANCH   5   6
ATOM      6  C   UNL     1       5.521  -6.171   1.057  1.00  0.00     0.355 C 
ATOM      7  O   UNL     1       6.085  -5.431   1.846  1.00  0.00    -0.245 OA
BRANCH   6   8
ATOM      8  C   UNL     1       4.103  -5.897   0.677  1.00  0.00     0.154 C 
ATOM      9  C   UNL     1       2.252  -4.759   0.217  1.00  0.00     0.111 C 
ATOM     10  N   UNL     1       1.914  -5.972   0.535  1.00  0.00    -0.151 NA
ATOM     11  C   UNL     1       3.728  -4.555   0.173  1.00  0.00     0.128 C 
ATOM     12  N   UNL     1       3.108  -6.715   0.824  1.00  0.00    -0.147 NA
BRANCH   9  13
ATOM     13  C   UNL     1       1.356  -3.614   0.006  1.00  0.00     0.139 C 
ATOM     14  C   UNL     1       0.045  -0.987  -1.822  1.00  0.00     0.053 C 
ATOM     15  C   UNL     1       0.755  -1.557  -0.604  1.00  0.00     0.174 C 
ATOM     16  C   UNL     1      -0.225  -2.038   0.475  1.00  0.00     0.076 C 
ATOM     17  O   UNL     1       1.596  -2.672  -0.986  1.00  0.00    -0.489 OA
ATOM     18  C   UNL     1       0.383  -3.326   0.864  1.00  0.00     0.025 C 
ENDBRANCH   9  13
ENDBRANCH   6   8
ENDBRANCH   5   6
ENDBRANCH   4   5
ENDBRANCH   3   4
ENDBRANCH   2   3
ENDBRANCH   1   2
BRANCH   1  19
ATOM     19  C   UNL     1       6.408  -5.886  -3.161  1.00  0.00     0.261 C 
BRANCH  19  20
ATOM     20  O   UNL     1       6.219  -7.282  -3.015  1.00  0.00    -0.460 OA
BRANCH  20  21
ATOM     21  C   UNL     1       7.195  -8.030  -3.568  1.00  0.00     0.338 C 
ATOM     22  O   UNL     1       8.293  -7.640  -3.958  1.00  0.00    -0.246 OA
BRANCH  21  23
ATOM     23  C   UNL     1       6.696  -9.392  -3.751  1.00  0.00     0.060 A 
ATOM     24  C   UNL     1       7.529 -10.255  -4.464  1.00  0.00     0.016 A 
ATOM     25  C   UNL     1       5.330  -9.648  -3.562  1.00  0.00     0.016 A 
ATOM     26  C   UNL     1       6.933 -11.208  -5.252  1.00  0.00     0.010 A 
ATOM     27  C   UNL     1       4.737 -10.592  -4.356  1.00  0.00     0.010 A 
ATOM     28  C   UNL     1       5.537 -11.266  -5.272  1.00  0.00    -0.014 A 
BRANCH  28  29
ATOM     29  C   UNL     1       4.904 -12.093  -6.271  1.00  0.00     0.031 A 
ATOM     30  C   UNL     1       4.976 -13.527  -5.927  1.00  0.00     0.074 A 
ATOM     31  C   UNL     1       4.248 -11.554  -7.316  1.00  0.00     0.049 A 
ATOM     32  N   UNL     1       5.697 -14.438  -6.489  1.00  0.00    -0.248 NA
ATOM     33  C   UNL     1       4.357 -13.948  -4.658  1.00  0.00     0.031 C 
ATOM     34  C   UNL     1       3.915 -10.148  -7.572  1.00  0.00     0.029 A 
ATOM     35  N   UNL     1       3.647 -12.197  -8.349  1.00  0.00    -0.354 N 
ATOM     36  C   UNL     1       5.427 -15.603  -5.782  1.00  0.00     0.074 A 
ATOM     37  C   UNL     1       4.806 -15.197  -4.551  1.00  0.00     0.031 C 
ATOM     38  C   UNL     1       2.978 -10.080  -8.548  1.00  0.00     0.029 A 
ATOM     39  C   UNL     1       2.754 -11.413  -9.077  1.00  0.00     0.049 A 
ATOM     40  H   UNL     1       3.827 -13.140  -8.566  1.00  0.00     0.167 HD
ATOM     41  C   UNL     1       5.488 -16.822  -6.381  1.00  0.00     0.037 A 
ATOM     42  C   UNL     1       1.847 -11.895  -9.967  1.00  0.00     0.037 A 
ATOM     43  C   UNL     1       6.220 -16.754  -7.621  1.00  0.00     0.049 A 
ATOM     44  C   UNL     1       2.331 -13.252 -10.366  1.00  0.00     0.074 A 
ATOM     45  C   UNL     1       7.525 -16.444  -7.951  1.00  0.00     0.029 A 
ATOM     46  N   UNL     1       5.494 -16.622  -8.781  1.00  0.00    -0.354 N 
ATOM     47  N   UNL     1       3.444 -13.453 -11.023  1.00  0.00    -0.248 NA
ATOM     48  C   UNL     1       1.859 -14.386  -9.582  1.00  0.00     0.031 C 
ATOM     49  C   UNL     1       7.432 -15.689  -9.156  1.00  0.00     0.029 A 
ATOM     50  C   UNL     1       6.090 -15.644  -9.539  1.00  0.00     0.049 A 
ATOM     51  H   UNL     1       4.691 -17.137  -9.025  1.00  0.00     0.167 HD
ATOM     52  C   UNL     1       4.021 -14.568 -10.426  1.00  0.00     0.074 A 
ATOM     53  C   UNL     1       2.974 -15.124  -9.571  1.00  0.00     0.031 C 
ATOM     54  C   UNL     1       5.373 -14.771 -10.446  1.00  0.00     0.037 A 
BRANCH  41  55
ATOM     55  C   UNL     1       4.582 -17.973  -6.028  1.00  0.00     0.058 A 
ATOM     56  C   UNL     1       4.843 -19.245  -6.572  1.00  0.00     0.135 A 
ATOM     57  C   UNL     1       3.326 -17.827  -5.395  1.00  0.00     0.135 A 
ATOM     58  F   UNL     1       6.002 -19.494  -7.204  1.00  0.00    -0.206 F 
ATOM     59  C   UNL     1       3.901 -20.273  -6.548  1.00  0.00     0.059 A 
ATOM     60  C   UNL     1       2.397 -18.854  -5.307  1.00  0.00     0.059 A 
ATOM     61  F   UNL     1       2.890 -16.656  -4.915  1.00  0.00    -0.206 F 
ATOM     62  C   UNL     1       2.674 -20.061  -5.924  1.00  0.00     0.060 A 
BRANCH  62  63
ATOM     63  S   UNL     1       1.417 -21.346  -5.981  1.00  0.00     0.124 S 
ATOM     64  O   UNL     1       1.080 -21.360  -7.400  1.00  0.00    -0.237 OA
ATOM     65  O   UNL     1       2.150 -22.506  -5.484  1.00  0.00    -0.237 OA
ATOM     66  O   UNL     1       0.377 -20.840  -5.090  1.00  0.00    -0.744 OA
ENDBRANCH  62  63
ENDBRANCH  41  55
BRANCH  42  67
ATOM     67  C   UNL     1       0.425 -11.472 -10.117  1.00  0.00     0.058 A 
ATOM     68  C   UNL     1      -0.354 -11.873 -11.218  1.00  0.00     0.135 A 
ATOM     69  C   UNL     1      -0.283 -10.896  -9.041  1.00  0.00     0.135 A 
ATOM     70  F   UNL     1       0.228 -12.457 -12.277  1.00  0.00    -0.206 F 
ATOM     71  C   UNL     1      -1.751 -11.744 -11.236  1.00  0.00     0.059 A 
ATOM     72  C   UNL     1      -1.670 -10.753  -9.037  1.00  0.00     0.059 A 
ATOM     73  F   UNL     1       0.348 -10.535  -7.914  1.00  0.00    -0.206 F 
ATOM     74  C   UNL     1      -2.403 -11.198 -10.130  1.00  0.00     0.060 A 
BRANCH  74  75
ATOM     75  S   UNL     1      -4.213 -11.175 -10.073  1.00  0.00     0.124 S 
ATOM     76  O   UNL     1      -4.535 -10.187 -11.097  1.00  0.00    -0.237 OA
ATOM     77  O   UNL     1      -4.550 -12.558 -10.394  1.00  0.00    -0.237 OA
ATOM     78  O   UNL     1      -4.505 -10.768  -8.701  1.00  0.00    -0.744 OA
ENDBRANCH  74  75
ENDBRANCH  42  67
BRANCH  54  79
ATOM     79  C   UNL     1       6.221 -13.884 -11.327  1.00  0.00     0.058 A 
ATOM     80  C   UNL     1       6.413 -12.504 -11.120  1.00  0.00     0.135 A 
ATOM     81  C   UNL     1       7.020 -14.498 -12.301  1.00  0.00     0.135 A 
ATOM     82  F   UNL     1       5.761 -11.859 -10.142  1.00  0.00    -0.206 F 
ATOM     83  C   UNL     1       7.338 -11.768 -11.866  1.00  0.00     0.059 A 
ATOM     84  C   UNL     1       7.968 -13.791 -13.036  1.00  0.00     0.059 A 
ATOM     85  F   UNL     1       6.930 -15.823 -12.504  1.00  0.00    -0.206 F 
ATOM     86  C   UNL     1       8.116 -12.423 -12.820  1.00  0.00     0.060 A 
BRANCH  86  87
ATOM     87  S   UNL     1       9.373 -11.495 -13.730  1.00  0.00     0.124 S 
ATOM     88  O   UNL     1       8.561 -10.653 -14.601  1.00  0.00    -0.237 OA
ATOM     89  O   UNL     1      10.089 -10.801 -12.664  1.00  0.00    -0.237 OA
ATOM     90  O   UNL     1      10.141 -12.536 -14.408  1.00  0.00    -0.744 OA
ENDBRANCH  86  87
ENDBRANCH  54  79
ENDBRANCH  28  29
ENDBRANCH  21  23
ENDBRANCH  20  21
ENDBRANCH  19  20
ENDBRANCH   1  19
TORSDOF 18
