REMARK SMILES O=C(C[C@H]1CN(S(=O)(=O)c2ccc(F)c(F)c2)CCO1)OCCOCCOC(=O)c1ccc(-c2c3nc(c(-c4c(F)cc(S(=O)(=O)[O-])cc4F)c4ccc([nH]4)c(-c4c(F)cc(S(=O)(=O)[O-])cc4F)c4nc(c(-c5c(F)cc(S(=O)(=O)[O-])cc5F)c5ccc2[nH]5)C=C4)C=C3)cc1
REMARK SMILES IDX 24 1 23 2 22 3 21 4 2 5 1 6 3 7 4 8 5 9 20 10 6 11 19 12
REMARK SMILES IDX 18 13 7 14 8 15 9 16 10 17 11 18 17 19 12 20 15 21 13 22
REMARK SMILES IDX 16 23 14 24 25 25 26 26 27 27 28 28 29 29 30 30 31 31 95 32
REMARK SMILES IDX 32 33 94 34 33 35 34 36 35 37 88 38 36 39 93 40 87 41 89 42
REMARK SMILES IDX 37 43 92 44 86 45 85 46 38 48 72 49 51 50 71 51 52 52 55 53
REMARK SMILES IDX 70 54 90 55 53 56 54 57 69 59 91 60 56 61 39 62 40 63 49 64
REMARK SMILES IDX 41 65 42 66 48 67 50 68 43 69 44 70 45 71 46 72 47 73 73 74
REMARK SMILES IDX 74 75 83 76 75 77 76 78 82 79 84 80 77 81 78 82 79 83 80 84
REMARK SMILES IDX 81 85 57 86 58 87 67 88 59 89 60 90 66 91 68 92 61 93 62 94
REMARK SMILES IDX 63 95 64 96 65 97
REMARK H PARENT 89 47 55 58
REMARK Flexibility Score: inf
ROOT
ATOM      1  O   UNL     1       5.741   3.889  -4.406  1.00  0.00    -0.374 OA
ENDROOT
BRANCH   1   2
ATOM      2  C   UNL     1       5.514   4.449  -3.126  1.00  0.00     0.202 C 
BRANCH   2   3
ATOM      3  C   UNL     1       5.176   3.473  -2.003  1.00  0.00     0.261 C 
BRANCH   3   4
ATOM      4  O   UNL     1       5.734   2.164  -2.143  1.00  0.00    -0.463 OA
BRANCH   4   5
ATOM      5  C   UNL     1       5.024   1.025  -1.998  1.00  0.00     0.308 C 
ATOM      6  O   UNL     1       5.583  -0.067  -2.104  1.00  0.00    -0.252 OA
BRANCH   5   7
ATOM      7  C   UNL     1       3.545   1.084  -1.689  1.00  0.00     0.156 C 
BRANCH   7   8
ATOM      8  C   UNL     1       3.165   1.068  -0.199  1.00  0.00     0.144 C 
ATOM      9  C   UNL     1       4.290   0.724   0.784  1.00  0.00     0.135 C 
ATOM     10  O   UNL     1       2.430   2.230   0.219  1.00  0.00    -0.375 OA
ATOM     11  N   UNL     1       5.247   1.862   0.828  1.00  0.00    -0.193 NA
ATOM     12  C   UNL     1       3.198   3.344   0.683  1.00  0.00     0.177 C 
ATOM     13  C   UNL     1       4.501   3.029   1.439  1.00  0.00     0.131 C 
BRANCH  11  14
ATOM     14  S   UNL     1       6.738   1.602   1.654  1.00  0.00     0.243 S 
ATOM     15  O   UNL     1       7.440   2.863   1.581  1.00  0.00    -0.207 OA
ATOM     16  O   UNL     1       6.406   1.001   2.933  1.00  0.00    -0.207 OA
BRANCH  14  17
ATOM     17  C   UNL     1       7.729   0.408   0.766  1.00  0.00     0.085 A 
ATOM     18  C   UNL     1       7.282  -0.900   0.537  1.00  0.00     0.025 A 
ATOM     19  C   UNL     1       9.061   0.735   0.468  1.00  0.00     0.064 A 
ATOM     20  C   UNL     1       8.119  -1.845  -0.064  1.00  0.00     0.044 A 
ATOM     21  C   UNL     1       9.906  -0.233  -0.074  1.00  0.00     0.160 A 
ATOM     22  C   UNL     1       9.434  -1.510  -0.355  1.00  0.00     0.158 A 
ATOM     23  F   UNL     1      11.194   0.064  -0.294  1.00  0.00    -0.204 F 
ATOM     24  F   UNL     1      10.249  -2.439  -0.872  1.00  0.00    -0.204 F 
ENDBRANCH  14  17
ENDBRANCH  11  14
ENDBRANCH   7   8
ENDBRANCH   5   7
ENDBRANCH   4   5
ENDBRANCH   3   4
ENDBRANCH   2   3
ENDBRANCH   1   2
BRANCH   1  25
ATOM     25  C   UNL     1       6.966   3.172  -4.587  1.00  0.00     0.202 C 
BRANCH  25  26
ATOM     26  C   UNL     1       8.273   3.934  -4.327  1.00  0.00     0.261 C 
BRANCH  26  27
ATOM     27  O   UNL     1       8.563   4.141  -2.926  1.00  0.00    -0.460 OA
BRANCH  27  28
ATOM     28  C   UNL     1       8.692   5.440  -2.556  1.00  0.00     0.338 C 
ATOM     29  O   UNL     1       8.466   6.423  -3.245  1.00  0.00    -0.246 OA
BRANCH  28  30
ATOM     30  C   UNL     1       9.091   5.573  -1.145  1.00  0.00     0.060 A 
ATOM     31  C   UNL     1       8.213   6.196  -0.250  1.00  0.00     0.016 A 
ATOM     32  C   UNL     1      10.415   5.322  -0.783  1.00  0.00     0.016 A 
ATOM     33  C   UNL     1       8.682   6.633   0.993  1.00  0.00     0.010 A 
ATOM     34  C   UNL     1      10.881   5.762   0.461  1.00  0.00     0.010 A 
ATOM     35  C   UNL     1      10.032   6.466   1.334  1.00  0.00    -0.014 A 
BRANCH  35  36
ATOM     36  C   UNL     1      10.609   7.176   2.507  1.00  0.00     0.031 A 
ATOM     37  C   UNL     1      11.396   8.444   2.280  1.00  0.00     0.074 A 
ATOM     38  C   UNL     1      10.446   6.705   3.756  1.00  0.00     0.049 A 
ATOM     39  N   UNL     1      12.062   9.175   3.137  1.00  0.00    -0.248 NA
ATOM     40  C   UNL     1      11.440   8.950   0.899  1.00  0.00     0.031 C 
ATOM     41  C   UNL     1       9.687   5.510   4.118  1.00  0.00     0.029 A 
ATOM     42  N   UNL     1      10.933   7.171   4.954  1.00  0.00    -0.354 N 
ATOM     43  C   UNL     1      12.605  10.224   2.402  1.00  0.00     0.074 A 
ATOM     44  C   UNL     1      12.220  10.014   1.023  1.00  0.00     0.031 C 
ATOM     45  C   UNL     1       9.778   5.322   5.447  1.00  0.00     0.029 A 
ATOM     46  C   UNL     1      10.625   6.366   6.024  1.00  0.00     0.049 A 
ATOM     47  H   UNL     1      11.453   8.003   5.037  1.00  0.00     0.167 HD
ATOM     48  C   UNL     1      13.346  11.274   2.835  1.00  0.00     0.037 A 
ATOM     49  C   UNL     1      11.005   6.447   7.315  1.00  0.00     0.037 A 
ATOM     50  C   UNL     1      13.737  11.481   4.206  1.00  0.00     0.049 A 
ATOM     51  C   UNL     1      11.886   7.588   7.764  1.00  0.00     0.074 A 
ATOM     52  C   UNL     1      14.492  12.512   4.741  1.00  0.00     0.029 A 
ATOM     53  N   UNL     1      13.407  10.642   5.259  1.00  0.00    -0.354 N 
ATOM     54  N   UNL     1      12.381   8.579   7.061  1.00  0.00    -0.248 NA
ATOM     55  C   UNL     1      12.254   7.624   9.188  1.00  0.00     0.031 C 
ATOM     56  C   UNL     1      14.648  12.276   6.111  1.00  0.00     0.029 A 
ATOM     57  C   UNL     1      13.951  11.125   6.439  1.00  0.00     0.049 A 
ATOM     58  H   UNL     1      12.866   9.823   5.181  1.00  0.00     0.167 HD
ATOM     59  C   UNL     1      13.090   9.370   7.961  1.00  0.00     0.074 A 
ATOM     60  C   UNL     1      12.951   8.749   9.261  1.00  0.00     0.031 C 
ATOM     61  C   UNL     1      13.793  10.507   7.732  1.00  0.00     0.037 A 
BRANCH  48  62
ATOM     62  C   UNL     1      13.790  12.281   1.809  1.00  0.00     0.058 A 
ATOM     63  C   UNL     1      12.883  13.176   1.219  1.00  0.00     0.135 A 
ATOM     64  C   UNL     1      15.141  12.379   1.437  1.00  0.00     0.135 A 
ATOM     65  F   UNL     1      11.578  13.117   1.527  1.00  0.00    -0.206 F 
ATOM     66  C   UNL     1      13.295  14.116   0.279  1.00  0.00     0.059 A 
ATOM     67  C   UNL     1      15.579  13.329   0.518  1.00  0.00     0.059 A 
ATOM     68  F   UNL     1      16.051  11.549   1.970  1.00  0.00    -0.206 F 
ATOM     69  C   UNL     1      14.646  14.184  -0.066  1.00  0.00     0.060 A 
BRANCH  69  70
ATOM     70  S   UNL     1      15.164  15.413  -1.283  1.00  0.00     0.124 S 
ATOM     71  O   UNL     1      14.639  14.839  -2.518  1.00  0.00    -0.237 OA
ATOM     72  O   UNL     1      14.493  16.621  -0.812  1.00  0.00    -0.237 OA
ATOM     73  O   UNL     1      16.618  15.420  -1.163  1.00  0.00    -0.744 OA
ENDBRANCH  69  70
ENDBRANCH  48  62
BRANCH  49  74
ATOM     74  C   UNL     1      10.573   5.407   8.288  1.00  0.00     0.058 A 
ATOM     75  C   UNL     1       9.669   5.709   9.317  1.00  0.00     0.135 A 
ATOM     76  C   UNL     1      11.079   4.100   8.225  1.00  0.00     0.135 A 
ATOM     77  F   UNL     1       9.167   6.948   9.428  1.00  0.00    -0.206 F 
ATOM     78  C   UNL     1       9.302   4.760  10.266  1.00  0.00     0.059 A 
ATOM     79  C   UNL     1      10.705   3.125   9.146  1.00  0.00     0.059 A 
ATOM     80  F   UNL     1      11.941   3.757   7.255  1.00  0.00    -0.206 F 
ATOM     81  C   UNL     1       9.827   3.470  10.172  1.00  0.00     0.060 A 
BRANCH  81  82
ATOM     82  S   UNL     1       9.326   2.238  11.395  1.00  0.00     0.124 S 
ATOM     83  O   UNL     1      10.079   2.665  12.568  1.00  0.00    -0.237 OA
ATOM     84  O   UNL     1       7.881   2.437  11.457  1.00  0.00    -0.237 OA
ATOM     85  O   UNL     1       9.752   0.978  10.794  1.00  0.00    -0.744 OA
ENDBRANCH  81  82
ENDBRANCH  49  74
BRANCH  61  86
ATOM     86  C   UNL     1      14.427  11.186   8.918  1.00  0.00     0.058 A 
ATOM     87  C   UNL     1      15.554  10.653   9.563  1.00  0.00     0.135 A 
ATOM     88  C   UNL     1      13.921  12.408   9.390  1.00  0.00     0.135 A 
ATOM     89  F   UNL     1      16.077   9.486   9.155  1.00  0.00    -0.206 F 
ATOM     90  C   UNL     1      16.137  11.291  10.654  1.00  0.00     0.059 A 
ATOM     91  C   UNL     1      14.505  13.078  10.461  1.00  0.00     0.059 A 
ATOM     92  F   UNL     1      12.853  12.970   8.802  1.00  0.00    -0.206 F 
ATOM     93  C   UNL     1      15.604  12.503  11.097  1.00  0.00     0.060 A 
BRANCH  93  94
ATOM     94  S   UNL     1      16.380  13.332  12.502  1.00  0.00     0.124 S 
ATOM     95  O   UNL     1      15.919  12.513  13.618  1.00  0.00    -0.237 OA
ATOM     96  O   UNL     1      17.801  13.227  12.183  1.00  0.00    -0.237 OA
ATOM     97  O   UNL     1      15.831  14.683  12.445  1.00  0.00    -0.744 OA
ENDBRANCH  93  94
ENDBRANCH  61  86
ENDBRANCH  35  36
ENDBRANCH  28  30
ENDBRANCH  27  28
ENDBRANCH  26  27
ENDBRANCH  25  26
ENDBRANCH   1  25
TORSDOF 20
