REMARK SMILES O=C1O[C@@H](c2ccc(O)c(O)c2)[C@H](C(=O)OCCOCCOC(=O)c2ccc(-c3c4nc(c(-c5c(F)cc(S(=O)(=O)[O-])cc5F)c5ccc([nH]5)c(-c5c(F)cc(S(=O)(=O)[O-])cc5F)c5nc(c(-c6c(F)cc(S(=O)(=O)[O-])cc6F)c6ccc3[nH]6)C=C5)C=C4)cc2)/C1=C\c1ccc(O)c(O)c1
REMARK SMILES IDX 20 1 19 2 18 3 17 4 16 5 14 6 15 7 13 8 1 9 2 10 3 11 91 12
REMARK SMILES IDX 4 13 92 14 5 15 6 16 12 17 7 18 10 19 8 20 11 21 9 23 93 25
REMARK SMILES IDX 94 26 100 27 95 28 98 29 96 30 99 31 97 33 21 35 22 36 23 37
REMARK SMILES IDX 24 38 25 39 26 40 90 41 27 42 89 43 28 44 29 45 30 46 83 47
REMARK SMILES IDX 31 48 88 49 82 50 84 51 32 52 87 53 81 54 80 55 33 57 67 58
REMARK SMILES IDX 46 59 66 60 47 61 50 62 65 63 85 64 48 65 49 66 64 68 86 69
REMARK SMILES IDX 51 70 34 71 35 72 44 73 36 74 37 75 43 76 45 77 38 78 39 79
REMARK SMILES IDX 40 80 41 81 42 82 68 83 69 84 78 85 70 86 71 87 77 88 79 89
REMARK SMILES IDX 72 90 73 91 74 92 75 93 76 94 52 95 53 96 62 97 54 98 55 99
REMARK SMILES IDX 61 100 63 101 56 102 57 103 58 104 59 105 60 106
REMARK H PARENT 11 22 9 24 99 32 97 34 84 56 50 67
REMARK Flexibility Score: inf
ROOT
ATOM      1  C   UNL     1       1.681   3.874   2.359  1.00  0.00     0.202 C 
ENDROOT
BRANCH   1   2
ATOM      2  O   UNL     1       1.839   3.553   3.735  1.00  0.00    -0.374 OA
BRANCH   2   3
ATOM      3  C   UNL     1       2.766   2.537   4.103  1.00  0.00     0.202 C 
BRANCH   3   4
ATOM      4  C   UNL     1       2.423   1.086   3.766  1.00  0.00     0.261 C 
BRANCH   4   5
ATOM      5  O   UNL     1       2.354   0.889   2.343  1.00  0.00    -0.463 OA
BRANCH   5   6
ATOM      6  C   UNL     1       1.113   0.592   1.861  1.00  0.00     0.317 C 
ATOM      7  O   UNL     1       0.135   0.341   2.550  1.00  0.00    -0.251 OA
BRANCH   6   8
ATOM      8  C   UNL     1       1.117   0.683   0.343  1.00  0.00     0.182 C 
ATOM      9  O   UNL     1      -1.860  -1.076  -0.449  1.00  0.00    -0.247 OA
ATOM     10  C   UNL     1      -0.718  -0.679  -0.287  1.00  0.00     0.335 C 
ATOM     11  O   UNL     1       0.394  -1.463  -0.232  1.00  0.00    -0.453 OA
ATOM     12  C   UNL     1      -0.292   0.729  -0.135  1.00  0.00     0.056 C 
ATOM     13  C   UNL     1       1.585  -0.650  -0.207  1.00  0.00     0.226 C 
ATOM     14  C   UNL     1      -1.129   1.742  -0.412  1.00  0.00     0.020 C 
BRANCH  13  15
ATOM     15  C   UNL     1       2.236  -0.576  -1.585  1.00  0.00    -0.002 A 
ATOM     16  C   UNL     1       3.363   0.244  -1.803  1.00  0.00     0.012 A 
ATOM     17  C   UNL     1       1.777  -1.372  -2.648  1.00  0.00     0.057 A 
ATOM     18  C   UNL     1       3.998   0.287  -3.052  1.00  0.00     0.050 A 
ATOM     19  C   UNL     1       2.412  -1.325  -3.881  1.00  0.00     0.157 A 
ATOM     20  C   UNL     1       3.515  -0.503  -4.087  1.00  0.00     0.157 A 
BRANCH  19  21
ATOM     21  O   UNL     1       1.951  -2.114  -4.895  1.00  0.00    -0.504 OA
ATOM     22  H   UNL     1       2.369  -2.093  -5.733  1.00  0.00     0.293 HD
ENDBRANCH  19  21
BRANCH  20  23
ATOM     23  O   UNL     1       4.098  -0.520  -5.323  1.00  0.00    -0.504 OA
ATOM     24  H   UNL     1       4.843   0.021  -5.497  1.00  0.00     0.293 HD
ENDBRANCH  20  23
ENDBRANCH  13  15
BRANCH  14  25
ATOM     25  C   UNL     1      -0.816   3.173  -0.341  1.00  0.00    -0.021 A 
ATOM     26  C   UNL     1       0.096   3.756  -1.235  1.00  0.00     0.012 A 
ATOM     27  C   UNL     1      -1.485   3.987   0.582  1.00  0.00     0.058 A 
ATOM     28  C   UNL     1       0.360   5.132  -1.196  1.00  0.00     0.051 A 
ATOM     29  C   UNL     1      -1.211   5.351   0.620  1.00  0.00     0.157 A 
ATOM     30  C   UNL     1      -0.290   5.921  -0.255  1.00  0.00     0.157 A 
BRANCH  29  31
ATOM     31  O   UNL     1      -1.832   6.130   1.554  1.00  0.00    -0.504 OA
ATOM     32  H   UNL     1      -1.656   7.050   1.588  1.00  0.00     0.293 HD
ENDBRANCH  29  31
BRANCH  30  33
ATOM     33  O   UNL     1      -0.042   7.259  -0.133  1.00  0.00    -0.504 OA
ATOM     34  H   UNL     1       0.573   7.676  -0.704  1.00  0.00     0.293 HD
ENDBRANCH  30  33
ENDBRANCH  14  25
ENDBRANCH   6   8
ENDBRANCH   5   6
ENDBRANCH   4   5
ENDBRANCH   3   4
ENDBRANCH   2   3
ENDBRANCH   1   2
BRANCH   1  35
ATOM     35  C   UNL     1       2.785   4.651   1.629  1.00  0.00     0.261 C 
BRANCH  35  36
ATOM     36  O   UNL     1       4.093   4.096   1.788  1.00  0.00    -0.460 OA
BRANCH  36  37
ATOM     37  C   UNL     1       4.847   4.742   2.713  1.00  0.00     0.338 C 
ATOM     38  O   UNL     1       4.548   5.733   3.355  1.00  0.00    -0.246 OA
BRANCH  37  39
ATOM     39  C   UNL     1       6.057   3.949   2.971  1.00  0.00     0.060 A 
ATOM     40  C   UNL     1       6.274   3.495   4.278  1.00  0.00     0.016 A 
ATOM     41  C   UNL     1       6.977   3.693   1.955  1.00  0.00     0.016 A 
ATOM     42  C   UNL     1       7.439   2.802   4.584  1.00  0.00     0.010 A 
ATOM     43  C   UNL     1       8.152   3.013   2.268  1.00  0.00     0.010 A 
ATOM     44  C   UNL     1       8.400   2.593   3.588  1.00  0.00    -0.014 A 
BRANCH  44  45
ATOM     45  C   UNL     1       9.736   2.076   3.950  1.00  0.00     0.031 A 
ATOM     46  C   UNL     1      10.875   3.050   4.053  1.00  0.00     0.074 A 
ATOM     47  C   UNL     1       9.925   0.764   4.171  1.00  0.00     0.049 A 
ATOM     48  N   UNL     1      12.146   2.819   4.238  1.00  0.00    -0.248 NA
ATOM     49  C   UNL     1      10.533   4.476   3.920  1.00  0.00     0.031 C 
ATOM     50  C   UNL     1       8.878  -0.256   4.143  1.00  0.00     0.029 A 
ATOM     51  N   UNL     1      11.071   0.065   4.445  1.00  0.00    -0.354 N 
ATOM     52  C   UNL     1      12.760   4.066   4.226  1.00  0.00     0.074 A 
ATOM     53  C   UNL     1      11.726   5.048   3.988  1.00  0.00     0.031 C 
ATOM     54  C   UNL     1       9.435  -1.458   4.369  1.00  0.00     0.029 A 
ATOM     55  C   UNL     1      10.881  -1.294   4.512  1.00  0.00     0.049 A 
ATOM     56  H   UNL     1      11.947   0.494   4.580  1.00  0.00     0.167 HD
ATOM     57  C   UNL     1      14.069   4.359   4.403  1.00  0.00     0.037 A 
ATOM     58  C   UNL     1      11.778  -2.291   4.639  1.00  0.00     0.037 A 
ATOM     59  C   UNL     1      15.083   3.365   4.643  1.00  0.00     0.049 A 
ATOM     60  C   UNL     1      13.240  -1.947   4.761  1.00  0.00     0.074 A 
ATOM     61  C   UNL     1      16.436   3.554   4.858  1.00  0.00     0.029 A 
ATOM     62  N   UNL     1      14.855   1.997   4.692  1.00  0.00    -0.354 N 
ATOM     63  N   UNL     1      13.810  -0.764   4.765  1.00  0.00    -0.248 NA
ATOM     64  C   UNL     1      14.182  -3.067   4.894  1.00  0.00     0.031 C 
ATOM     65  C   UNL     1      17.036   2.296   4.974  1.00  0.00     0.029 A 
ATOM     66  C   UNL     1      16.047   1.327   4.903  1.00  0.00     0.049 A 
ATOM     67  H   UNL     1      13.975   1.567   4.591  1.00  0.00     0.167 HD
ATOM     68  C   UNL     1      15.171  -0.997   4.938  1.00  0.00     0.074 A 
ATOM     69  C   UNL     1      15.338  -2.433   5.035  1.00  0.00     0.031 C 
ATOM     70  C   UNL     1      16.189  -0.104   5.015  1.00  0.00     0.037 A 
BRANCH  57  71
ATOM     71  C   UNL     1      14.485   5.801   4.311  1.00  0.00     0.058 A 
ATOM     72  C   UNL     1      14.131   6.742   5.291  1.00  0.00     0.135 A 
ATOM     73  C   UNL     1      15.281   6.241   3.240  1.00  0.00     0.135 A 
ATOM     74  F   UNL     1      13.354   6.382   6.325  1.00  0.00    -0.206 F 
ATOM     75  C   UNL     1      14.531   8.071   5.201  1.00  0.00     0.059 A 
ATOM     76  C   UNL     1      15.718   7.558   3.146  1.00  0.00     0.059 A 
ATOM     77  F   UNL     1      15.643   5.385   2.271  1.00  0.00    -0.206 F 
ATOM     78  C   UNL     1      15.327   8.469   4.125  1.00  0.00     0.060 A 
BRANCH  78  79
ATOM     79  S   UNL     1      15.843  10.196   4.027  1.00  0.00     0.124 S 
ATOM     80  O   UNL     1      14.583  10.857   3.700  1.00  0.00    -0.237 OA
ATOM     81  O   UNL     1      16.358  10.443   5.369  1.00  0.00    -0.237 OA
ATOM     82  O   UNL     1      16.843  10.193   2.964  1.00  0.00    -0.744 OA
ENDBRANCH  78  79
ENDBRANCH  57  71
BRANCH  58  83
ATOM     83  C   UNL     1      11.320  -3.706   4.637  1.00  0.00     0.058 A 
ATOM     84  C   UNL     1      11.410  -4.498   5.791  1.00  0.00     0.135 A 
ATOM     85  C   UNL     1      10.774  -4.292   3.484  1.00  0.00     0.135 A 
ATOM     86  F   UNL     1      11.933  -3.987   6.916  1.00  0.00    -0.206 F 
ATOM     87  C   UNL     1      10.989  -5.824   5.799  1.00  0.00     0.059 A 
ATOM     88  C   UNL     1      10.319  -5.606   3.475  1.00  0.00     0.059 A 
ATOM     89  F   UNL     1      10.652  -3.574   2.356  1.00  0.00    -0.206 F 
ATOM     90  C   UNL     1      10.440  -6.368   4.636  1.00  0.00     0.060 A 
BRANCH  90  91
ATOM     91  S   UNL     1       9.853  -8.075   4.674  1.00  0.00     0.124 S 
ATOM     92  O   UNL     1      11.108  -8.814   4.748  1.00  0.00    -0.237 OA
ATOM     93  O   UNL     1       9.031  -8.086   5.880  1.00  0.00    -0.237 OA
ATOM     94  O   UNL     1       9.117  -8.203   3.420  1.00  0.00    -0.744 OA
ENDBRANCH  90  91
ENDBRANCH  58  83
BRANCH  70  95
ATOM     95  C   UNL     1      17.573  -0.637   5.266  1.00  0.00     0.058 A 
ATOM     96  C   UNL     1      18.302  -1.307   4.272  1.00  0.00     0.135 A 
ATOM     97  C   UNL     1      18.212  -0.386   6.492  1.00  0.00     0.135 A 
ATOM     98  F   UNL     1      17.736  -1.580   3.086  1.00  0.00    -0.206 F 
ATOM     99  C   UNL     1      19.615  -1.715   4.487  1.00  0.00     0.059 A 
ATOM    100  C   UNL     1      19.534  -0.757   6.717  1.00  0.00     0.059 A 
ATOM    101  F   UNL     1      17.562   0.260   7.474  1.00  0.00    -0.206 F 
ATOM    102  C   UNL     1      20.226  -1.425   5.709  1.00  0.00     0.060 A 
BRANCH 102 103
ATOM    103  S   UNL     1      21.952  -1.896   5.945  1.00  0.00     0.124 S 
ATOM    104  O   UNL     1      21.850  -3.348   6.048  1.00  0.00    -0.237 OA
ATOM    105  O   UNL     1      22.581  -1.389   4.730  1.00  0.00    -0.237 OA
ATOM    106  O   UNL     1      22.329  -1.205   7.175  1.00  0.00    -0.744 OA
ENDBRANCH 102 103
ENDBRANCH  70  95
ENDBRANCH  44  45
ENDBRANCH  37  39
ENDBRANCH  36  37
ENDBRANCH  35  36
ENDBRANCH   1  35
TORSDOF 23
