REMARK SMILES CC(=O)N[C@H]1[C@H](OCC(=O)OCCOCCOC(=O)c2ccc(-c3c4nc(c(-c5c(F)cc(S(=O)(=O)[O-])cc5F)c5ccc([nH]5)c(-c5c(F)cc(S(=O)(=O)[O-])cc5F)c5nc(c(-c6c(F)cc(S(=O)(=O)[O-])cc6F)c6ccc3[nH]6)C=C5)C=C4)cc2)[C@H]2O[C@@H](c3ccco3)OC[C@H]2O[C@@H]1Sc1ccc(Cl)cc1
REMARK SMILES IDX 13 1 12 2 11 3 9 4 10 5 8 6 7 7 6 8 5 9 98 10 86 11 97 12
REMARK SMILES IDX 87 13 96 14 88 15 95 16 94 17 4 18 1 19 2 20 3 21 99 23
REMARK SMILES IDX 100 24 101 25 106 26 102 27 105 28 103 29 104 30 89 31 90 32
REMARK SMILES IDX 93 33 91 34 92 35 14 36 15 37 16 38 17 39 18 40 19 41 20 42
REMARK SMILES IDX 21 43 85 44 22 45 84 46 23 47 24 48 25 49 78 50 26 51 83 52
REMARK SMILES IDX 77 53 79 54 27 55 82 56 76 57 75 58 28 60 62 61 41 62 61 63
REMARK SMILES IDX 42 64 45 65 60 66 80 67 43 68 44 69 59 71 81 72 46 73 29 74
REMARK SMILES IDX 30 75 39 76 31 77 32 78 38 79 40 80 33 81 34 82 35 83 36 84
REMARK SMILES IDX 37 85 63 86 64 87 73 88 65 89 66 90 72 91 74 92 67 93 68 94
REMARK SMILES IDX 69 95 70 96 71 97 47 98 48 99 57 100 49 101 50 102 56 103
REMARK SMILES IDX 58 104 51 105 52 106 53 107 54 108 55 109
REMARK H PARENT 4 22 79 59 45 70
REMARK Flexibility Score: inf
ROOT
ATOM      1  C   UNL     1       0.749  -1.976   8.916  1.00  0.00     0.202 C 
ENDROOT
BRANCH   1   2
ATOM      2  C   UNL     1       1.415  -2.900   7.892  1.00  0.00     0.261 C 
BRANCH   2   3
ATOM      3  O   UNL     1       2.168  -2.139   6.912  1.00  0.00    -0.462 OA
BRANCH   3   4
ATOM      4  C   UNL     1       2.698  -2.916   5.926  1.00  0.00     0.332 C 
ATOM      5  O   UNL     1       2.516  -4.126   5.839  1.00  0.00    -0.250 OA
BRANCH   4   6
ATOM      6  C   UNL     1       3.566  -2.137   4.909  1.00  0.00     0.283 C 
BRANCH   6   7
ATOM      7  O   UNL     1       3.356  -0.838   4.409  1.00  0.00    -0.361 OA
BRANCH   7   8
ATOM      8  C   UNL     1       2.235  -0.446   3.609  1.00  0.00     0.176 C 
ATOM      9  C   UNL     1       2.310  -0.554   2.046  1.00  0.00     0.153 C 
ATOM     10  C   UNL     1       1.710  -1.910   1.542  1.00  0.00     0.206 C 
ATOM     11  C   UNL     1       0.859  -0.887   4.093  1.00  0.00     0.184 C 
ATOM     12  O   UNL     1       0.466  -2.256   2.144  1.00  0.00    -0.356 OA
ATOM     13  O   UNL     1      -0.086   0.085   3.668  1.00  0.00    -0.337 OA
ATOM     14  C   UNL     1       0.465  -2.237   3.564  1.00  0.00     0.177 C 
ATOM     15  C   UNL     1      -1.446  -0.188   3.962  1.00  0.00     0.319 C 
ATOM     16  C   UNL     1      -0.923  -2.580   4.081  1.00  0.00     0.199 C 
ATOM     17  O   UNL     1      -1.867  -1.530   4.139  1.00  0.00    -0.343 OA
BRANCH   9  18
ATOM     18  N   UNL     1       1.589   0.654   1.504  1.00  0.00    -0.347 N 
ATOM     19  C   UNL     1       1.382   0.228  -0.922  1.00  0.00     0.114 C 
ATOM     20  C   UNL     1       1.230   1.102   0.279  1.00  0.00     0.217 C 
ATOM     21  O   UNL     1       0.737   2.226   0.178  1.00  0.00    -0.275 OA
ATOM     22  H   UNL     1       1.309   1.269   2.219  1.00  0.00     0.163 HD
ENDBRANCH   9  18
BRANCH  10  23
ATOM     23  S   UNL     1       2.993  -3.237   1.453  1.00  0.00    -0.092 SA
BRANCH  23  24
ATOM     24  C   UNL     1       2.301  -4.731   2.144  1.00  0.00     0.010 A 
ATOM     25  C   UNL     1       0.969  -5.133   2.024  1.00  0.00     0.016 A 
ATOM     26  C   UNL     1       3.195  -5.583   2.814  1.00  0.00     0.016 A 
ATOM     27  C   UNL     1       0.525  -6.326   2.610  1.00  0.00     0.021 A 
ATOM     28  C   UNL     1       2.764  -6.789   3.377  1.00  0.00     0.021 A 
ATOM     29  C   UNL     1       1.426  -7.152   3.277  1.00  0.00     0.041 A 
ATOM     30  Cl  UNL     1       0.888  -8.640   3.952  1.00  0.00    -0.084 Cl
ENDBRANCH  23  24
ENDBRANCH  10  23
BRANCH  15  31
ATOM     31  C   UNL     1      -2.287   0.331   2.840  1.00  0.00     0.159 A 
ATOM     32  C   UNL     1      -3.646   0.568   2.738  1.00  0.00     0.051 A 
ATOM     33  O   UNL     1      -1.688   0.586   1.638  1.00  0.00    -0.464 OA
ATOM     34  C   UNL     1      -3.887   0.973   1.405  1.00  0.00     0.042 A 
ATOM     35  C   UNL     1      -2.662   0.989   0.783  1.00  0.00     0.195 A 
ENDBRANCH  15  31
ENDBRANCH   7   8
ENDBRANCH   6   7
ENDBRANCH   4   6
ENDBRANCH   3   4
ENDBRANCH   2   3
ENDBRANCH   1   2
BRANCH   1  36
ATOM     36  O   UNL     1      -0.499  -1.394   8.524  1.00  0.00    -0.374 OA
BRANCH  36  37
ATOM     37  C   UNL     1      -0.554  -0.737   7.265  1.00  0.00     0.202 C 
BRANCH  37  38
ATOM     38  C   UNL     1       0.288   0.547   7.143  1.00  0.00     0.261 C 
BRANCH  38  39
ATOM     39  O   UNL     1      -0.432   1.709   7.579  1.00  0.00    -0.460 OA
BRANCH  39  40
ATOM     40  C   UNL     1      -0.991   1.611   8.804  1.00  0.00     0.338 C 
ATOM     41  O   UNL     1      -2.184   1.725   9.009  1.00  0.00    -0.246 OA
BRANCH  40  42
ATOM     42  C   UNL     1       0.011   1.386   9.862  1.00  0.00     0.060 A 
ATOM     43  C   UNL     1      -0.367   0.583  10.937  1.00  0.00     0.016 A 
ATOM     44  C   UNL     1       1.282   1.984   9.803  1.00  0.00     0.016 A 
ATOM     45  C   UNL     1       0.481   0.473  12.021  1.00  0.00     0.010 A 
ATOM     46  C   UNL     1       2.144   1.859  10.881  1.00  0.00     0.010 A 
ATOM     47  C   UNL     1       1.687   1.188  12.021  1.00  0.00    -0.014 A 
BRANCH  47  48
ATOM     48  C   UNL     1       2.252   1.511  13.339  1.00  0.00     0.031 A 
ATOM     49  C   UNL     1       1.831   2.817  13.957  1.00  0.00     0.074 A 
ATOM     50  C   UNL     1       2.966   0.585  13.994  1.00  0.00     0.049 A 
ATOM     51  N   UNL     1       2.049   3.272  15.159  1.00  0.00    -0.248 NA
ATOM     52  C   UNL     1       1.041   3.733  13.109  1.00  0.00     0.031 C 
ATOM     53  C   UNL     1       3.354  -0.717  13.449  1.00  0.00     0.029 A 
ATOM     54  N   UNL     1       3.457   0.584  15.266  1.00  0.00    -0.354 N 
ATOM     55  C   UNL     1       1.421   4.513  15.210  1.00  0.00     0.074 A 
ATOM     56  C   UNL     1       0.851   4.766  13.911  1.00  0.00     0.031 C 
ATOM     57  C   UNL     1       4.012  -1.404  14.397  1.00  0.00     0.029 A 
ATOM     58  C   UNL     1       4.108  -0.578  15.597  1.00  0.00     0.049 A 
ATOM     59  H   UNL     1       3.355   1.342  15.886  1.00  0.00     0.167 HD
ATOM     60  C   UNL     1       1.321   5.355  16.262  1.00  0.00     0.037 A 
ATOM     61  C   UNL     1       4.712  -0.917  16.750  1.00  0.00     0.037 A 
ATOM     62  C   UNL     1       1.907   5.059  17.540  1.00  0.00     0.049 A 
ATOM     63  C   UNL     1       4.629   0.057  17.893  1.00  0.00     0.074 A 
ATOM     64  C   UNL     1       1.903   5.822  18.691  1.00  0.00     0.029 A 
ATOM     65  N   UNL     1       2.614   3.896  17.826  1.00  0.00    -0.354 N 
ATOM     66  N   UNL     1       4.033   1.229  17.934  1.00  0.00    -0.248 NA
ATOM     67  C   UNL     1       5.282  -0.334  19.145  1.00  0.00     0.031 C 
ATOM     68  C   UNL     1       2.656   5.144  19.656  1.00  0.00     0.029 A 
ATOM     69  C   UNL     1       3.073   3.929  19.128  1.00  0.00     0.049 A 
ATOM     70  H   UNL     1       2.764   3.157  17.193  1.00  0.00     0.167 HD
ATOM     71  C   UNL     1       4.223   1.710  19.223  1.00  0.00     0.074 A 
ATOM     72  C   UNL     1       4.971   0.687  19.933  1.00  0.00     0.031 C 
ATOM     73  C   UNL     1       3.823   2.882  19.779  1.00  0.00     0.037 A 
BRANCH  60  74
ATOM     74  C   UNL     1       0.607   6.663  16.053  1.00  0.00     0.058 A 
ATOM     75  C   UNL     1      -0.782   6.737  15.848  1.00  0.00     0.135 A 
ATOM     76  C   UNL     1       1.326   7.869  16.059  1.00  0.00     0.135 A 
ATOM     77  F   UNL     1      -1.519   5.616  15.798  1.00  0.00    -0.206 F 
ATOM     78  C   UNL     1      -1.426   7.955  15.640  1.00  0.00     0.059 A 
ATOM     79  C   UNL     1       0.700   9.100  15.882  1.00  0.00     0.059 A 
ATOM     80  F   UNL     1       2.657   7.859  16.231  1.00  0.00    -0.206 F 
ATOM     81  C   UNL     1      -0.676   9.132  15.663  1.00  0.00     0.060 A 
BRANCH  81  82
ATOM     82  S   UNL     1      -1.526  10.706  15.415  1.00  0.00     0.124 S 
ATOM     83  O   UNL     1      -1.870  10.633  13.998  1.00  0.00    -0.237 OA
ATOM     84  O   UNL     1      -2.646  10.604  16.345  1.00  0.00    -0.237 OA
ATOM     85  O   UNL     1      -0.514  11.699  15.763  1.00  0.00    -0.744 OA
ENDBRANCH  81  82
ENDBRANCH  60  74
BRANCH  61  86
ATOM     86  C   UNL     1       5.430  -2.214  16.854  1.00  0.00     0.058 A 
ATOM     87  C   UNL     1       4.974  -3.248  17.684  1.00  0.00     0.135 A 
ATOM     88  C   UNL     1       6.576  -2.459  16.078  1.00  0.00     0.135 A 
ATOM     89  F   UNL     1       3.884  -3.068  18.443  1.00  0.00    -0.206 F 
ATOM     90  C   UNL     1       5.634  -4.473  17.751  1.00  0.00     0.059 A 
ATOM     91  C   UNL     1       7.234  -3.683  16.106  1.00  0.00     0.059 A 
ATOM     92  F   UNL     1       7.043  -1.512  15.250  1.00  0.00    -0.206 F 
ATOM     93  C   UNL     1       6.761  -4.682  16.953  1.00  0.00     0.060 A 
BRANCH  93  94
ATOM     94  S   UNL     1       7.578  -6.291  17.005  1.00  0.00     0.124 S 
ATOM     95  O   UNL     1       8.206  -6.260  18.321  1.00  0.00    -0.237 OA
ATOM     96  O   UNL     1       6.454  -7.210  16.853  1.00  0.00    -0.237 OA
ATOM     97  O   UNL     1       8.493  -6.240  15.868  1.00  0.00    -0.744 OA
ENDBRANCH  93  94
ENDBRANCH  61  86
BRANCH  73  98
ATOM     98  C   UNL     1       4.172   3.094  21.224  1.00  0.00     0.058 A 
ATOM     99  C   UNL     1       5.491   3.337  21.634  1.00  0.00     0.135 A 
ATOM    100  C   UNL     1       3.164   3.086  22.201  1.00  0.00     0.135 A 
ATOM    101  F   UNL     1       6.488   3.352  20.735  1.00  0.00    -0.206 F 
ATOM    102  C   UNL     1       5.807   3.521  22.974  1.00  0.00     0.059 A 
ATOM    103  C   UNL     1       3.452   3.304  23.542  1.00  0.00     0.059 A 
ATOM    104  F   UNL     1       1.885   2.876  21.854  1.00  0.00    -0.206 F 
ATOM    105  C   UNL     1       4.780   3.501  23.920  1.00  0.00     0.060 A 
BRANCH 105 106
ATOM    106  S   UNL     1       5.203   3.744  25.655  1.00  0.00     0.124 S 
ATOM    107  O   UNL     1       5.828   2.467  25.984  1.00  0.00    -0.237 OA
ATOM    108  O   UNL     1       6.100   4.894  25.600  1.00  0.00    -0.237 OA
ATOM    109  O   UNL     1       3.912   3.992  26.289  1.00  0.00    -0.744 OA
ENDBRANCH 105 106
ENDBRANCH  73  98
ENDBRANCH  47  48
ENDBRANCH  40  42
ENDBRANCH  39  40
ENDBRANCH  38  39
ENDBRANCH  37  38
ENDBRANCH  36  37
ENDBRANCH   1  36
TORSDOF 23
