REMARK SMILES O=C(OCCOCCOC(=O)C1CCN(C2=[NH+]C(Cl)=[NH+]C3=[NH+]C=N[C@@H]32)CC1)c1ccc(-c2c3nc(c(-c4c(F)cc(S(=O)(=O)[O-])cc4F)c4ccc([nH]4)c(-c4c(F)cc(S(=O)(=O)[O-])cc4F)c4nc(c(-c5c(F)cc(S(=O)(=O)[O-])cc5F)c5ccc2[nH]5)C=C4)C=C3)cc1
REMARK SMILES IDX 4 1 3 2 2 3 1 4 28 5 29 6 93 7 30 8 92 9 31 10 32 11 33 12
REMARK SMILES IDX 86 13 34 14 91 15 85 16 87 17 35 18 90 19 84 20 83 21 36 23
REMARK SMILES IDX 70 24 49 25 69 26 50 27 53 28 68 29 88 30 51 31 52 32 67 34
REMARK SMILES IDX 89 35 54 36 37 37 38 38 47 39 39 40 40 41 46 42 48 43 41 44
REMARK SMILES IDX 42 45 43 46 44 47 45 48 71 49 72 50 81 51 73 52 74 53 80 54
REMARK SMILES IDX 82 55 75 56 76 57 77 58 78 59 79 60 55 61 56 62 65 63 57 64
REMARK SMILES IDX 58 65 64 66 66 67 59 68 60 69 61 70 62 71 63 72 5 73 6 74
REMARK SMILES IDX 7 75 8 76 9 77 10 78 11 79 12 80 13 81 27 82 14 83 26 84
REMARK SMILES IDX 15 85 16 86 17 87 25 88 18 89 21 91 24 92 19 93 20 94 22 95
REMARK SMILES IDX 23 96
REMARK H PARENT 87 22 53 33 17 90 20 97 22 98
REMARK Flexibility Score: inf
ROOT
ATOM      1  C   UNL     1       3.988   0.864   0.546  1.00  0.00     0.261 C 
ENDROOT
BRANCH   1   2
ATOM      2  O   UNL     1       2.602   0.737   0.870  1.00  0.00    -0.460 OA
BRANCH   2   3
ATOM      3  C   UNL     1       1.545   0.732   0.016  1.00  0.00     0.338 C 
ATOM      4  O   UNL     1       0.464   0.349   0.430  1.00  0.00    -0.246 OA
BRANCH   3   5
ATOM      5  C   UNL     1       1.636   1.246  -1.380  1.00  0.00     0.060 A 
ATOM      6  C   UNL     1       2.798   1.371  -2.137  1.00  0.00     0.016 A 
ATOM      7  C   UNL     1       0.420   1.659  -1.944  1.00  0.00     0.016 A 
ATOM      8  C   UNL     1       2.798   2.148  -3.281  1.00  0.00     0.010 A 
ATOM      9  C   UNL     1       0.395   2.331  -3.158  1.00  0.00     0.010 A 
ATOM     10  C   UNL     1       1.598   2.661  -3.772  1.00  0.00    -0.014 A 
BRANCH  10  11
ATOM     11  C   UNL     1       1.669   3.439  -5.003  1.00  0.00     0.031 A 
ATOM     12  C   UNL     1       2.380   2.769  -6.129  1.00  0.00     0.074 A 
ATOM     13  C   UNL     1       1.069   4.632  -5.172  1.00  0.00     0.049 A 
ATOM     14  N   UNL     1       3.443   3.156  -6.756  1.00  0.00    -0.248 NA
ATOM     15  C   UNL     1       1.914   1.426  -6.508  1.00  0.00     0.031 C 
ATOM     16  C   UNL     1       0.112   5.296  -4.285  1.00  0.00     0.029 A 
ATOM     17  N   UNL     1       1.107   5.451  -6.260  1.00  0.00    -0.354 N 
ATOM     18  C   UNL     1       3.666   2.203  -7.748  1.00  0.00     0.074 A 
ATOM     19  C   UNL     1       2.799   1.095  -7.447  1.00  0.00     0.031 C 
ATOM     20  C   UNL     1      -0.518   6.272  -4.973  1.00  0.00     0.029 A 
ATOM     21  C   UNL     1       0.083   6.385  -6.292  1.00  0.00     0.049 A 
ATOM     22  H   UNL     1       1.798   5.387  -6.958  1.00  0.00     0.167 HD
ATOM     23  C   UNL     1       4.395   2.479  -8.864  1.00  0.00     0.037 A 
ATOM     24  C   UNL     1      -0.300   7.125  -7.360  1.00  0.00     0.037 A 
ATOM     25  C   UNL     1       5.252   3.619  -8.671  1.00  0.00     0.049 A 
ATOM     26  C   UNL     1       0.836   7.159  -8.318  1.00  0.00     0.074 A 
ATOM     27  C   UNL     1       6.263   3.934  -7.782  1.00  0.00     0.029 A 
ATOM     28  N   UNL     1       4.911   4.805  -9.274  1.00  0.00    -0.354 N 
ATOM     29  N   UNL     1       1.964   7.778  -8.102  1.00  0.00    -0.248 NA
ATOM     30  C   UNL     1       0.871   6.160  -9.376  1.00  0.00     0.031 C 
ATOM     31  C   UNL     1       6.135   5.334  -7.551  1.00  0.00     0.029 A 
ATOM     32  C   UNL     1       5.079   5.793  -8.339  1.00  0.00     0.049 A 
ATOM     33  H   UNL     1       4.603   4.922 -10.202  1.00  0.00     0.167 HD
ATOM     34  C   UNL     1       2.930   6.975  -8.688  1.00  0.00     0.074 A 
ATOM     35  C   UNL     1       2.191   6.059  -9.549  1.00  0.00     0.031 C 
ATOM     36  C   UNL     1       4.212   6.943  -8.216  1.00  0.00     0.037 A 
BRANCH  23  37
ATOM     37  C   UNL     1       4.066   1.932 -10.237  1.00  0.00     0.058 A 
ATOM     38  C   UNL     1       4.941   2.188 -11.314  1.00  0.00     0.135 A 
ATOM     39  C   UNL     1       2.794   1.431 -10.598  1.00  0.00     0.135 A 
ATOM     40  F   UNL     1       6.178   2.660 -11.093  1.00  0.00    -0.206 F 
ATOM     41  C   UNL     1       4.545   2.058 -12.647  1.00  0.00     0.059 A 
ATOM     42  C   UNL     1       2.400   1.240 -11.916  1.00  0.00     0.059 A 
ATOM     43  F   UNL     1       1.830   1.199  -9.699  1.00  0.00    -0.206 F 
ATOM     44  C   UNL     1       3.261   1.609 -12.934  1.00  0.00     0.060 A 
BRANCH  44  45
ATOM     45  S   UNL     1       2.684   1.591 -14.640  1.00  0.00     0.124 S 
ATOM     46  O   UNL     1       2.516   3.016 -14.899  1.00  0.00    -0.237 OA
ATOM     47  O   UNL     1       3.792   0.939 -15.330  1.00  0.00    -0.237 OA
ATOM     48  O   UNL     1       1.452   0.810 -14.567  1.00  0.00    -0.744 OA
ENDBRANCH  44  45
ENDBRANCH  23  37
BRANCH  24  49
ATOM     49  C   UNL     1      -1.681   7.526  -7.731  1.00  0.00     0.058 A 
ATOM     50  C   UNL     1      -1.910   8.494  -8.723  1.00  0.00     0.135 A 
ATOM     51  C   UNL     1      -2.806   6.784  -7.314  1.00  0.00     0.135 A 
ATOM     52  F   UNL     1      -0.892   9.227  -9.198  1.00  0.00    -0.206 F 
ATOM     53  C   UNL     1      -3.169   8.684  -9.300  1.00  0.00     0.059 A 
ATOM     54  C   UNL     1      -4.074   6.970  -7.859  1.00  0.00     0.059 A 
ATOM     55  F   UNL     1      -2.694   5.785  -6.426  1.00  0.00    -0.206 F 
ATOM     56  C   UNL     1      -4.242   7.903  -8.873  1.00  0.00     0.060 A 
BRANCH  56  57
ATOM     57  S   UNL     1      -5.826   8.018  -9.735  1.00  0.00     0.124 S 
ATOM     58  O   UNL     1      -6.300   9.334  -9.320  1.00  0.00    -0.237 OA
ATOM     59  O   UNL     1      -5.426   7.895 -11.132  1.00  0.00    -0.237 OA
ATOM     60  O   UNL     1      -6.583   6.887  -9.205  1.00  0.00    -0.744 OA
ENDBRANCH  56  57
ENDBRANCH  24  49
BRANCH  36  61
ATOM     61  C   UNL     1       4.668   8.041  -7.292  1.00  0.00     0.058 A 
ATOM     62  C   UNL     1       4.110   8.299  -6.028  1.00  0.00     0.135 A 
ATOM     63  C   UNL     1       5.817   8.767  -7.646  1.00  0.00     0.135 A 
ATOM     64  F   UNL     1       3.083   7.572  -5.564  1.00  0.00    -0.206 F 
ATOM     65  C   UNL     1       4.641   9.270  -5.177  1.00  0.00     0.059 A 
ATOM     66  C   UNL     1       6.383   9.715  -6.799  1.00  0.00     0.059 A 
ATOM     67  F   UNL     1       6.436   8.520  -8.813  1.00  0.00    -0.206 F 
ATOM     68  C   UNL     1       5.780   9.973  -5.571  1.00  0.00     0.060 A 
BRANCH  68  69
ATOM     69  S   UNL     1       6.514  11.165  -4.431  1.00  0.00     0.124 S 
ATOM     70  O   UNL     1       5.578  12.282  -4.511  1.00  0.00    -0.237 OA
ATOM     71  O   UNL     1       6.523  10.434  -3.167  1.00  0.00    -0.237 OA
ATOM     72  O   UNL     1       7.835  11.416  -5.003  1.00  0.00    -0.744 OA
ENDBRANCH  68  69
ENDBRANCH  36  61
ENDBRANCH  10  11
ENDBRANCH   3   5
ENDBRANCH   2   3
ENDBRANCH   1   2
BRANCH   1  73
ATOM     73  C   UNL     1       4.657  -0.493   0.263  1.00  0.00     0.202 C 
BRANCH  73  74
ATOM     74  O   UNL     1       3.991  -1.414  -0.594  1.00  0.00    -0.374 OA
BRANCH  74  75
ATOM     75  C   UNL     1       2.890  -2.163  -0.068  1.00  0.00     0.202 C 
BRANCH  75  76
ATOM     76  C   UNL     1       3.136  -3.166   1.063  1.00  0.00     0.261 C 
BRANCH  76  77
ATOM     77  O   UNL     1       3.597  -2.548   2.282  1.00  0.00    -0.463 OA
BRANCH  77  78
ATOM     78  C   UNL     1       4.853  -2.899   2.666  1.00  0.00     0.309 C 
ATOM     79  O   UNL     1       5.563  -3.690   2.057  1.00  0.00    -0.252 OA
BRANCH  78  80
ATOM     80  C   UNL     1       5.270  -2.249   3.981  1.00  0.00     0.108 C 
ATOM     81  C   UNL     1       4.979  -0.744   4.124  1.00  0.00     0.070 C 
ATOM     82  C   UNL     1       6.760  -2.536   4.223  1.00  0.00     0.070 C 
ATOM     83  C   UNL     1       6.034   0.202   3.547  1.00  0.00     0.277 C 
ATOM     84  C   UNL     1       7.631  -1.660   3.325  1.00  0.00     0.277 C 
ATOM     85  N   UNL     1       7.394  -0.280   3.718  1.00  0.00    -0.230 N 
ATOM     86  C   UNL     1       8.447   0.588   3.954  1.00  0.00     0.383 C 
ATOM     87  N   UNL     1       9.567   0.509   3.290  1.00  0.00    -0.155 N 
ATOM     88  C   UNL     1       8.304   1.650   5.027  1.00  0.00     0.523 C 
ATOM     89  C   UNL     1      10.572   1.401   3.585  1.00  0.00     0.414 C 
ATOM     90  H   UNL     1       9.690  -0.174   2.592  1.00  0.00     0.367 HD
ATOM     91  C   UNL     1       9.677   1.844   5.541  1.00  0.00     0.389 C 
ATOM     92  N   UNL     1       7.614   1.160   6.244  1.00  0.00     0.003 NA
ATOM     93  Cl  UNL     1      11.768   1.600   2.378  1.00  0.00     0.028 Cl
ATOM     94  N   UNL     1      10.694   2.075   4.683  1.00  0.00    -0.155 N 
ATOM     95  N   UNL     1       9.792   1.637   6.804  1.00  0.00    -0.169 N 
ATOM     96  C   UNL     1       8.532   1.225   7.163  1.00  0.00     0.532 C 
ATOM     97  H   UNL     1      11.443   2.685   4.872  1.00  0.00     0.367 HD
ATOM     98  H   UNL     1      10.587   1.746   7.374  1.00  0.00     0.365 HD
ENDBRANCH  78  80
ENDBRANCH  77  78
ENDBRANCH  76  77
ENDBRANCH  75  76
ENDBRANCH  74  75
ENDBRANCH  73  74
ENDBRANCH   1  73
TORSDOF 17
