REMARK SMILES CCCc1cc(OC(F)(F)F)cc2c1O[C@H](C(F)(F)F)C(C(=O)OCCOCCOC(=O)c1ccc(-c3c4nc(c(-c5c(F)cc(S(=O)(=O)[O-])cc5F)c5ccc([nH]5)c(-c5c(F)cc(S(=O)(=O)[O-])cc5F)c5nc(c(-c6c(F)cc(S(=O)(=O)[O-])cc6F)c6ccc3[nH]6)C=C5)C=C4)cc1)=C2
REMARK SMILES IDX 28 1 27 2 26 3 25 4 24 5 22 6 23 7 21 8 4 9 5 10 14 11 6 12
REMARK SMILES IDX 13 13 15 14 12 15 99 16 16 17 3 18 2 19 1 20 7 21 8 22 9 23
REMARK SMILES IDX 10 24 11 25 17 26 18 27 19 28 20 29 29 30 30 31 31 32 32 33
REMARK SMILES IDX 33 34 34 35 98 36 35 37 97 38 36 39 37 40 38 41 91 42 39 43
REMARK SMILES IDX 96 44 90 45 92 46 40 47 95 48 89 49 88 50 41 52 75 53 54 54
REMARK SMILES IDX 74 55 55 56 58 57 73 58 93 59 56 60 57 61 72 63 94 64 59 65
REMARK SMILES IDX 42 66 43 67 52 68 44 69 45 70 51 71 53 72 46 73 47 74 48 75
REMARK SMILES IDX 49 76 50 77 76 78 77 79 86 80 78 81 79 82 85 83 87 84 80 85
REMARK SMILES IDX 81 86 82 87 83 88 84 89 60 90 61 91 70 92 62 93 63 94 69 95
REMARK SMILES IDX 71 96 64 97 65 98 66 99 67 100 68 101
REMARK H PARENT 92 51 58 62
REMARK Flexibility Score: inf
ROOT
ATOM      1  C   UNL     1       2.024  -8.423  -5.525  1.00  0.00     0.202 C 
ENDROOT
BRANCH   1   2
ATOM      2  O   UNL     1       3.135  -9.314  -5.506  1.00  0.00    -0.374 OA
BRANCH   2   3
ATOM      3  C   UNL     1       3.502  -9.879  -4.246  1.00  0.00     0.202 C 
BRANCH   3   4
ATOM      4  C   UNL     1       4.226  -8.957  -3.261  1.00  0.00     0.261 C 
BRANCH   4   5
ATOM      5  O   UNL     1       3.344  -7.955  -2.716  1.00  0.00    -0.460 OA
BRANCH   5   6
ATOM      6  C   UNL     1       3.596  -6.688  -3.119  1.00  0.00     0.338 C 
ATOM      7  O   UNL     1       4.507  -6.334  -3.853  1.00  0.00    -0.246 OA
BRANCH   6   8
ATOM      8  C   UNL     1       2.553  -5.742  -2.673  1.00  0.00     0.087 C 
ATOM      9  C   UNL     1       0.529  -2.337  -1.381  1.00  0.00    -0.002 A 
ATOM     10  C   UNL     1      -0.488  -2.473  -0.428  1.00  0.00     0.054 A 
ATOM     11  C   UNL     1       1.220  -3.493  -1.766  1.00  0.00     0.131 A 
ATOM     12  C   UNL     1      -0.745  -3.706   0.185  1.00  0.00     0.130 A 
ATOM     13  C   UNL     1       0.973  -4.745  -1.177  1.00  0.00     0.021 A 
ATOM     14  O   UNL     1       2.186  -3.335  -2.729  1.00  0.00    -0.475 OA
ATOM     15  C   UNL     1      -0.017  -4.841  -0.199  1.00  0.00     0.058 A 
ATOM     16  C   UNL     1       1.823  -5.883  -1.554  1.00  0.00     0.027 C 
ATOM     17  C   UNL     1       2.410  -4.510  -3.536  1.00  0.00     0.316 C 
BRANCH   9  18
ATOM     18  C   UNL     1       0.868  -1.018  -2.048  1.00  0.00     0.039 C 
BRANCH  18  19
ATOM     19  C   UNL     1       0.528   0.275  -1.302  1.00  0.00     0.001 C 
ATOM     20  C   UNL     1       1.286   0.426   0.011  1.00  0.00     0.004 C 
ENDBRANCH  18  19
ENDBRANCH   9  18
BRANCH  12  21
ATOM     21  O   UNL     1      -1.675  -3.923   1.165  1.00  0.00    -0.406 OA
BRANCH  21  22
ATOM     22  C   UNL     1      -2.182  -2.783   1.841  1.00  0.00     0.573 C 
ATOM     23  F   UNL     1      -1.185  -1.995   2.302  1.00  0.00    -0.132 F 
ATOM     24  F   UNL     1      -2.986  -2.058   1.032  1.00  0.00    -0.132 F 
ATOM     25  F   UNL     1      -2.916  -3.189   2.901  1.00  0.00    -0.132 F 
ENDBRANCH  21  22
ENDBRANCH  12  21
BRANCH  17  26
ATOM     26  C   UNL     1       1.331  -4.645  -4.627  1.00  0.00     0.430 C 
ATOM     27  F   UNL     1       1.156  -3.476  -5.292  1.00  0.00    -0.167 F 
ATOM     28  F   UNL     1       1.671  -5.568  -5.556  1.00  0.00    -0.167 F 
ATOM     29  F   UNL     1       0.123  -5.008  -4.138  1.00  0.00    -0.167 F 
ENDBRANCH  17  26
ENDBRANCH   6   8
ENDBRANCH   5   6
ENDBRANCH   4   5
ENDBRANCH   3   4
ENDBRANCH   2   3
ENDBRANCH   1   2
BRANCH   1  30
ATOM     30  C   UNL     1       0.619  -9.034  -5.541  1.00  0.00     0.261 C 
BRANCH  30  31
ATOM     31  O   UNL     1       0.401  -9.937  -4.449  1.00  0.00    -0.460 OA
BRANCH  31  32
ATOM     32  C   UNL     1       0.460 -11.242  -4.802  1.00  0.00     0.338 C 
ATOM     33  O   UNL     1       0.568 -11.695  -5.936  1.00  0.00    -0.246 OA
BRANCH  32  34
ATOM     34  C   UNL     1       0.554 -12.093  -3.605  1.00  0.00     0.060 A 
ATOM     35  C   UNL     1       1.576 -13.050  -3.587  1.00  0.00     0.016 A 
ATOM     36  C   UNL     1      -0.369 -12.016  -2.558  1.00  0.00     0.016 A 
ATOM     37  C   UNL     1       1.636 -13.983  -2.558  1.00  0.00     0.010 A 
ATOM     38  C   UNL     1      -0.309 -12.960  -1.526  1.00  0.00     0.010 A 
ATOM     39  C   UNL     1       0.665 -13.974  -1.549  1.00  0.00    -0.014 A 
BRANCH  39  40
ATOM     40  C   UNL     1       0.589 -15.136  -0.631  1.00  0.00     0.031 A 
ATOM     41  C   UNL     1      -0.412 -16.223  -0.918  1.00  0.00     0.074 A 
ATOM     42  C   UNL     1       1.453 -15.259   0.392  1.00  0.00     0.049 A 
ATOM     43  N   UNL     1      -0.607 -17.355  -0.294  1.00  0.00    -0.248 NA
ATOM     44  C   UNL     1      -1.313 -16.005  -2.063  1.00  0.00     0.031 C 
ATOM     45  C   UNL     1       2.481 -14.282   0.750  1.00  0.00     0.029 A 
ATOM     46  N   UNL     1       1.608 -16.264   1.312  1.00  0.00    -0.354 N 
ATOM     47  C   UNL     1      -1.648 -17.984  -0.968  1.00  0.00     0.074 A 
ATOM     48  C   UNL     1      -2.068 -17.093  -2.026  1.00  0.00     0.031 C 
ATOM     49  C   UNL     1       3.161 -14.737   1.818  1.00  0.00     0.029 A 
ATOM     50  C   UNL     1       2.605 -16.025   2.227  1.00  0.00     0.049 A 
ATOM     51  H   UNL     1       1.056 -17.079   1.317  1.00  0.00     0.167 HD
ATOM     52  C   UNL     1      -2.193 -19.201  -0.734  1.00  0.00     0.037 A 
ATOM     53  C   UNL     1       3.016 -16.762   3.278  1.00  0.00     0.037 A 
ATOM     54  C   UNL     1      -1.763 -20.089   0.314  1.00  0.00     0.049 A 
ATOM     55  C   UNL     1       2.366 -18.095   3.542  1.00  0.00     0.074 A 
ATOM     56  C   UNL     1      -2.230 -21.357   0.613  1.00  0.00     0.029 A 
ATOM     57  N   UNL     1      -0.771 -19.800   1.239  1.00  0.00    -0.354 N 
ATOM     58  N   UNL     1       1.412 -18.695   2.870  1.00  0.00    -0.248 NA
ATOM     59  C   UNL     1       2.855 -18.856   4.700  1.00  0.00     0.031 C 
ATOM     60  C   UNL     1      -1.552 -21.816   1.748  1.00  0.00     0.029 A 
ATOM     61  C   UNL     1      -0.629 -20.854   2.126  1.00  0.00     0.049 A 
ATOM     62  H   UNL     1      -0.245 -18.968   1.261  1.00  0.00     0.167 HD
ATOM     63  C   UNL     1       1.200 -19.911   3.513  1.00  0.00     0.074 A 
ATOM     64  C   UNL     1       2.138 -19.968   4.615  1.00  0.00     0.031 C 
ATOM     65  C   UNL     1       0.310 -20.892   3.220  1.00  0.00     0.037 A 
BRANCH  52  66
ATOM     66  C   UNL     1      -3.326 -19.640  -1.618  1.00  0.00     0.058 A 
ATOM     67  C   UNL     1      -3.117 -20.028  -2.951  1.00  0.00     0.135 A 
ATOM     68  C   UNL     1      -4.635 -19.710  -1.114  1.00  0.00     0.135 A 
ATOM     69  F   UNL     1      -1.889 -19.960  -3.490  1.00  0.00    -0.206 F 
ATOM     70  C   UNL     1      -4.167 -20.453  -3.758  1.00  0.00     0.059 A 
ATOM     71  C   UNL     1      -5.697 -20.155  -1.895  1.00  0.00     0.059 A 
ATOM     72  F   UNL     1      -4.891 -19.346   0.153  1.00  0.00    -0.206 F 
ATOM     73  C   UNL     1      -5.454 -20.515  -3.220  1.00  0.00     0.060 A 
BRANCH  73  74
ATOM     74  S   UNL     1      -6.805 -21.084  -4.274  1.00  0.00     0.124 S 
ATOM     75  O   UNL     1      -6.989 -19.936  -5.157  1.00  0.00    -0.237 OA
ATOM     76  O   UNL     1      -6.235 -22.275  -4.896  1.00  0.00    -0.237 OA
ATOM     77  O   UNL     1      -7.891 -21.332  -3.332  1.00  0.00    -0.744 OA
ENDBRANCH  73  74
ENDBRANCH  52  66
BRANCH  53  78
ATOM     78  C   UNL     1       4.094 -16.252   4.167  1.00  0.00     0.058 A 
ATOM     79  C   UNL     1       5.360 -16.853   4.198  1.00  0.00     0.135 A 
ATOM     80  C   UNL     1       3.870 -15.153   5.012  1.00  0.00     0.135 A 
ATOM     81  F   UNL     1       5.620 -17.911   3.416  1.00  0.00    -0.206 F 
ATOM     82  C   UNL     1       6.363 -16.395   5.048  1.00  0.00     0.059 A 
ATOM     83  C   UNL     1       4.864 -14.662   5.852  1.00  0.00     0.059 A 
ATOM     84  F   UNL     1       2.679 -14.536   5.011  1.00  0.00    -0.206 F 
ATOM     85  C   UNL     1       6.104 -15.298   5.872  1.00  0.00     0.060 A 
BRANCH  85  86
ATOM     86  S   UNL     1       7.423 -14.683   6.941  1.00  0.00     0.124 S 
ATOM     87  O   UNL     1       7.446 -15.694   7.990  1.00  0.00    -0.237 OA
ATOM     88  O   UNL     1       8.570 -14.672   6.038  1.00  0.00    -0.237 OA
ATOM     89  O   UNL     1       6.940 -13.365   7.342  1.00  0.00    -0.744 OA
ENDBRANCH  85  86
ENDBRANCH  53  78
BRANCH  65  90
ATOM     90  C   UNL     1       0.320 -22.117   4.092  1.00  0.00     0.058 A 
ATOM     91  C   UNL     1      -0.181 -22.090   5.403  1.00  0.00     0.135 A 
ATOM     92  C   UNL     1       0.797 -23.341   3.596  1.00  0.00     0.135 A 
ATOM     93  F   UNL     1      -0.645 -20.944   5.925  1.00  0.00    -0.206 F 
ATOM     94  C   UNL     1      -0.181 -23.227   6.203  1.00  0.00     0.059 A 
ATOM     95  C   UNL     1       0.781 -24.497   4.370  1.00  0.00     0.059 A 
ATOM     96  F   UNL     1       1.275 -23.424   2.345  1.00  0.00    -0.206 F 
ATOM     97  C   UNL     1       0.304 -24.427   5.678  1.00  0.00     0.060 A 
BRANCH  97  98
ATOM     98  S   UNL     1       0.281 -25.901   6.720  1.00  0.00     0.124 S 
ATOM     99  O   UNL     1       1.401 -25.643   7.618  1.00  0.00    -0.237 OA
ATOM    100  O   UNL     1      -1.046 -25.837   7.326  1.00  0.00    -0.237 OA
ATOM    101  O   UNL     1       0.476 -26.992   5.769  1.00  0.00    -0.744 OA
ENDBRANCH  97  98
ENDBRANCH  65  90
ENDBRANCH  39  40
ENDBRANCH  32  34
ENDBRANCH  31  32
ENDBRANCH  30  31
ENDBRANCH   1  30
TORSDOF 22
