REMARK SMILES CCCC[C@H](C(=O)OCCOCCOC(=O)c1ccc(-c2c3nc(c(-c4c(F)cc(S(=O)(=O)[O-])cc4F)c4ccc([nH]4)c(-c4c(F)cc(S(=O)(=O)[O-])cc4F)c4nc(c(-c5c(F)cc(S(=O)(=O)[O-])cc5F)c5ccc2[nH]5)C=C4)C=C3)cc1)[C@H](O)c1ccc(C(F)(F)F)cc1
REMARK SMILES IDX 11 1 10 2 9 3 8 4 6 5 7 6 5 7 4 8 3 9 2 10 1 11 83 12 85 13
REMARK SMILES IDX 86 14 94 15 87 16 93 17 88 18 89 19 90 20 91 21 92 22 84 23
REMARK SMILES IDX 12 25 13 26 14 27 15 28 16 29 17 30 18 31 82 32 19 33 81 34
REMARK SMILES IDX 20 35 21 36 22 37 75 38 23 39 80 40 74 41 76 42 24 43 79 44
REMARK SMILES IDX 73 45 72 46 25 48 59 49 38 50 58 51 39 52 42 53 57 54 77 55
REMARK SMILES IDX 40 56 41 57 56 59 78 60 43 61 26 62 27 63 36 64 28 65 29 66
REMARK SMILES IDX 35 67 37 68 30 69 31 70 32 71 33 72 34 73 60 74 61 75 70 76
REMARK SMILES IDX 62 77 63 78 69 79 71 80 64 81 65 82 66 83 67 84 68 85 44 86
REMARK SMILES IDX 45 87 54 88 46 89 47 90 53 91 55 92 48 93 49 94 50 95 51 96
REMARK SMILES IDX 52 97
REMARK H PARENT 84 24 76 47 42 58
REMARK Flexibility Score: inf
ROOT
ATOM      1  O   UNL     1      -4.440   3.679  -4.904  1.00  0.00    -0.374 OA
ENDROOT
BRANCH   1   2
ATOM      2  C   UNL     1      -3.624   4.720  -5.448  1.00  0.00     0.202 C 
BRANCH   2   3
ATOM      3  C   UNL     1      -2.811   5.538  -4.440  1.00  0.00     0.261 C 
BRANCH   3   4
ATOM      4  O   UNL     1      -1.867   4.690  -3.774  1.00  0.00    -0.463 OA
BRANCH   4   5
ATOM      5  C   UNL     1      -1.448   5.120  -2.555  1.00  0.00     0.312 C 
ATOM      6  O   UNL     1      -1.600   6.253  -2.120  1.00  0.00    -0.252 OA
BRANCH   5   7
ATOM      7  C   UNL     1      -0.819   3.972  -1.795  1.00  0.00     0.132 C 
BRANCH   7   8
ATOM      8  C   UNL     1       0.719   4.044  -1.804  1.00  0.00     0.018 C 
BRANCH   8   9
ATOM      9  C   UNL     1       1.396   4.054  -3.183  1.00  0.00     0.001 C 
BRANCH   9  10
ATOM     10  C   UNL     1       1.354   5.359  -3.987  1.00  0.00    -0.003 C 
ATOM     11  C   UNL     1       1.702   6.609  -3.195  1.00  0.00     0.004 C 
ENDBRANCH   9  10
ENDBRANCH   8   9
ENDBRANCH   7   8
BRANCH   7  12
ATOM     12  C   UNL     1      -1.375   3.992  -0.351  1.00  0.00     0.158 C 
BRANCH  12  13
ATOM     13  C   UNL     1      -2.889   3.861  -0.261  1.00  0.00    -0.019 A 
ATOM     14  C   UNL     1      -3.678   5.009  -0.098  1.00  0.00     0.007 A 
ATOM     15  C   UNL     1      -3.529   2.618  -0.367  1.00  0.00     0.007 A 
ATOM     16  C   UNL     1      -5.071   4.922  -0.061  1.00  0.00     0.013 A 
ATOM     17  C   UNL     1      -4.925   2.528  -0.320  1.00  0.00     0.013 A 
ATOM     18  C   UNL     1      -5.711   3.680  -0.172  1.00  0.00     0.056 A 
BRANCH  18  19
ATOM     19  C   UNL     1      -7.218   3.609  -0.145  1.00  0.00     0.416 C 
ATOM     20  F   UNL     1      -7.745   4.173   0.979  1.00  0.00    -0.166 F 
ATOM     21  F   UNL     1      -7.794   4.261  -1.192  1.00  0.00    -0.166 F 
ATOM     22  F   UNL     1      -7.706   2.337  -0.182  1.00  0.00    -0.166 F 
ENDBRANCH  18  19
ENDBRANCH  12  13
BRANCH  12  23
ATOM     23  O   UNL     1      -0.788   2.928   0.410  1.00  0.00    -0.388 OA
ATOM     24  H   UNL     1      -1.045   2.076   0.025  1.00  0.00     0.211 HD
ENDBRANCH  12  23
ENDBRANCH   7  12
ENDBRANCH   5   7
ENDBRANCH   4   5
ENDBRANCH   3   4
ENDBRANCH   2   3
ENDBRANCH   1   2
BRANCH   1  25
ATOM     25  C   UNL     1      -3.787   2.617  -4.210  1.00  0.00     0.202 C 
BRANCH  25  26
ATOM     26  C   UNL     1      -2.926   1.650  -5.038  1.00  0.00     0.261 C 
BRANCH  26  27
ATOM     27  O   UNL     1      -1.854   2.278  -5.768  1.00  0.00    -0.460 OA
BRANCH  27  28
ATOM     28  C   UNL     1      -1.924   2.111  -7.114  1.00  0.00     0.338 C 
ATOM     29  O   UNL     1      -2.777   1.498  -7.735  1.00  0.00    -0.246 OA
BRANCH  28  30
ATOM     30  C   UNL     1      -0.862   2.859  -7.810  1.00  0.00     0.060 A 
ATOM     31  C   UNL     1      -1.241   3.948  -8.602  1.00  0.00     0.016 A 
ATOM     32  C   UNL     1       0.446   2.369  -7.859  1.00  0.00     0.016 A 
ATOM     33  C   UNL     1      -0.324   4.519  -9.485  1.00  0.00     0.010 A 
ATOM     34  C   UNL     1       1.364   2.946  -8.749  1.00  0.00     0.010 A 
ATOM     35  C   UNL     1       0.973   3.996  -9.598  1.00  0.00    -0.014 A 
BRANCH  35  36
ATOM     36  C   UNL     1       1.855   4.485 -10.691  1.00  0.00     0.031 A 
ATOM     37  C   UNL     1       1.999   3.681 -11.957  1.00  0.00     0.074 A 
ATOM     38  C   UNL     1       2.472   5.676 -10.583  1.00  0.00     0.049 A 
ATOM     39  N   UNL     1       2.647   3.975 -13.057  1.00  0.00    -0.248 NA
ATOM     40  C   UNL     1       1.326   2.373 -11.991  1.00  0.00     0.031 C 
ATOM     41  C   UNL     1       2.410   6.556  -9.417  1.00  0.00     0.029 A 
ATOM     42  N   UNL     1       3.264   6.355 -11.475  1.00  0.00    -0.354 N 
ATOM     43  C   UNL     1       2.456   2.897 -13.914  1.00  0.00     0.074 A 
ATOM     44  C   UNL     1       1.662   1.925 -13.192  1.00  0.00     0.031 C 
ATOM     45  C   UNL     1       3.129   7.663  -9.667  1.00  0.00     0.029 A 
ATOM     46  C   UNL     1       3.711   7.567 -11.005  1.00  0.00     0.049 A 
ATOM     47  H   UNL     1       3.491   6.007 -12.368  1.00  0.00     0.167 HD
ATOM     48  C   UNL     1       2.888   2.735 -15.189  1.00  0.00     0.037 A 
ATOM     49  C   UNL     1       4.497   8.495 -11.585  1.00  0.00     0.037 A 
ATOM     50  C   UNL     1       3.676   3.702 -15.912  1.00  0.00     0.049 A 
ATOM     51  C   UNL     1       4.979   8.286 -12.996  1.00  0.00     0.074 A 
ATOM     52  C   UNL     1       4.140   3.635 -17.215  1.00  0.00     0.029 A 
ATOM     53  N   UNL     1       4.122   4.909 -15.394  1.00  0.00    -0.354 N 
ATOM     54  N   UNL     1       4.755   7.278 -13.805  1.00  0.00    -0.248 NA
ATOM     55  C   UNL     1       5.809   9.351 -13.578  1.00  0.00     0.031 C 
ATOM     56  C   UNL     1       4.896   4.785 -17.473  1.00  0.00     0.029 A 
ATOM     57  C   UNL     1       4.868   5.587 -16.345  1.00  0.00     0.049 A 
ATOM     58  H   UNL     1       3.935   5.236 -14.485  1.00  0.00     0.167 HD
ATOM     59  C   UNL     1       5.397   7.598 -14.998  1.00  0.00     0.074 A 
ATOM     60  C   UNL     1       6.005   8.899 -14.809  1.00  0.00     0.031 C 
ATOM     61  C   UNL     1       5.473   6.880 -16.146  1.00  0.00     0.037 A 
BRANCH  48  62
ATOM     62  C   UNL     1       2.525   1.453 -15.887  1.00  0.00     0.058 A 
ATOM     63  C   UNL     1       1.219   1.206 -16.339  1.00  0.00     0.135 A 
ATOM     64  C   UNL     1       3.502   0.476 -16.139  1.00  0.00     0.135 A 
ATOM     65  F   UNL     1       0.245   2.101 -16.112  1.00  0.00    -0.206 F 
ATOM     66  C   UNL     1       0.888   0.023 -16.993  1.00  0.00     0.059 A 
ATOM     67  C   UNL     1       3.198  -0.704 -16.812  1.00  0.00     0.059 A 
ATOM     68  F   UNL     1       4.766   0.663 -15.730  1.00  0.00    -0.206 F 
ATOM     69  C   UNL     1       1.884  -0.927 -17.223  1.00  0.00     0.060 A 
BRANCH  69  70
ATOM     70  S   UNL     1       1.442  -2.458 -18.073  1.00  0.00     0.124 S 
ATOM     71  O   UNL     1       0.742  -3.185 -17.018  1.00  0.00    -0.237 OA
ATOM     72  O   UNL     1       0.609  -1.978 -19.172  1.00  0.00    -0.237 OA
ATOM     73  O   UNL     1       2.733  -3.013 -18.467  1.00  0.00    -0.744 OA
ENDBRANCH  69  70
ENDBRANCH  48  62
BRANCH  49  74
ATOM     74  C   UNL     1       4.864   9.723 -10.834  1.00  0.00     0.058 A 
ATOM     75  C   UNL     1       4.319  10.970 -11.170  1.00  0.00     0.135 A 
ATOM     76  C   UNL     1       5.764   9.669  -9.759  1.00  0.00     0.135 A 
ATOM     77  F   UNL     1       3.461  11.073 -12.197  1.00  0.00    -0.206 F 
ATOM     78  C   UNL     1       4.661  12.125 -10.474  1.00  0.00     0.059 A 
ATOM     79  C   UNL     1       6.104  10.805  -9.034  1.00  0.00     0.059 A 
ATOM     80  F   UNL     1       6.304   8.496  -9.393  1.00  0.00    -0.206 F 
ATOM     81  C   UNL     1       5.554  12.031  -9.405  1.00  0.00     0.060 A 
BRANCH  81  82
ATOM     82  S   UNL     1       5.948  13.524  -8.468  1.00  0.00     0.124 S 
ATOM     83  O   UNL     1       6.880  14.196  -9.366  1.00  0.00    -0.237 OA
ATOM     84  O   UNL     1       4.638  14.151  -8.319  1.00  0.00    -0.237 OA
ATOM     85  O   UNL     1       6.525  12.999  -7.234  1.00  0.00    -0.744 OA
ENDBRANCH  81  82
ENDBRANCH  49  74
BRANCH  61  86
ATOM     86  C   UNL     1       6.218   7.502 -17.296  1.00  0.00     0.058 A 
ATOM     87  C   UNL     1       7.618   7.606 -17.297  1.00  0.00     0.135 A 
ATOM     88  C   UNL     1       5.524   7.993 -18.413  1.00  0.00     0.135 A 
ATOM     89  F   UNL     1       8.330   7.154 -16.252  1.00  0.00    -0.206 F 
ATOM     90  C   UNL     1       8.302   8.212 -18.348  1.00  0.00     0.059 A 
ATOM     91  C   UNL     1       6.189   8.581 -19.486  1.00  0.00     0.059 A 
ATOM     92  F   UNL     1       4.186   7.907 -18.470  1.00  0.00    -0.206 F 
ATOM     93  C   UNL     1       7.577   8.704 -19.434  1.00  0.00     0.060 A 
BRANCH  93  94
ATOM     94  S   UNL     1       8.468   9.498 -20.789  1.00  0.00     0.124 S 
ATOM     95  O   UNL     1       8.737  10.818 -20.229  1.00  0.00    -0.237 OA
ATOM     96  O   UNL     1       9.631   8.631 -20.954  1.00  0.00    -0.237 OA
ATOM     97  O   UNL     1       7.510   9.465 -21.890  1.00  0.00    -0.744 OA
ENDBRANCH  93  94
ENDBRANCH  61  86
ENDBRANCH  35  36
ENDBRANCH  28  30
ENDBRANCH  27  28
ENDBRANCH  26  27
ENDBRANCH  25  26
ENDBRANCH   1  25
TORSDOF 24
