REMARK SMILES CCOC(=O)[C@@]1(C)C/C(=N/c2cccc(C(=O)OCCOCCOC(=O)c3ccc(-c4c5nc(c(-c6c(F)cc(S(=O)(=O)[O-])cc6F)c6ccc([nH]6)c(-c6c(F)cc(S(=O)(=O)[O-])cc6F)c6nc(c(-c7c(F)cc(S(=O)(=O)[O-])cc7F)c7ccc4[nH]7)C=C6)C=C5)cc3)c2)C(=O)N1c1ccccc1
REMARK SMILES IDX 20 1 19 2 18 3 16 4 17 5 15 6 11 7 12 8 93 9 13 10 14 11
REMARK SMILES IDX 10 12 6 13 7 14 8 15 96 16 9 17 94 18 95 19 4 20 5 21 3 22
REMARK SMILES IDX 2 23 1 24 97 25 98 26 102 27 99 28 101 29 100 30 21 31 22 32
REMARK SMILES IDX 23 33 24 34 25 35 26 36 27 37 28 38 92 39 29 40 91 41 30 42
REMARK SMILES IDX 31 43 32 44 85 45 33 46 90 47 84 48 86 49 34 50 89 51 83 52
REMARK SMILES IDX 82 53 35 55 69 56 48 57 68 58 49 59 52 60 67 61 87 62 50 63
REMARK SMILES IDX 51 64 66 66 88 67 53 68 36 69 37 70 46 71 38 72 39 73 45 74
REMARK SMILES IDX 47 75 40 76 41 77 42 78 43 79 44 80 70 81 71 82 80 83 72 84
REMARK SMILES IDX 73 85 79 86 81 87 74 88 75 89 76 90 77 91 78 92 54 93 55 94
REMARK SMILES IDX 64 95 56 96 57 97 63 98 65 99 58 100 59 101 60 102 61 103
REMARK SMILES IDX 62 104
REMARK H PARENT 86 54 52 65
REMARK Flexibility Score: inf
ROOT
ATOM      1  C   UNL     1       6.773   5.435  -8.691  1.00  0.00     0.202 C 
ENDROOT
BRANCH   1   2
ATOM      2  C   UNL     1       7.676   5.404  -7.458  1.00  0.00     0.261 C 
BRANCH   2   3
ATOM      3  O   UNL     1       6.960   5.931  -6.327  1.00  0.00    -0.460 OA
BRANCH   3   4
ATOM      4  C   UNL     1       7.349   7.144  -5.867  1.00  0.00     0.338 C 
ATOM      5  O   UNL     1       8.298   7.803  -6.259  1.00  0.00    -0.246 OA
BRANCH   4   6
ATOM      6  C   UNL     1       6.410   7.616  -4.814  1.00  0.00     0.062 A 
ATOM      7  C   UNL     1       4.462   7.329  -3.389  1.00  0.00     0.064 A 
ATOM      8  C   UNL     1       4.689   8.596  -2.846  1.00  0.00     0.028 A 
ATOM      9  C   UNL     1       5.309   6.856  -4.396  1.00  0.00     0.044 A 
ATOM     10  C   UNL     1       5.771   9.370  -3.269  1.00  0.00     0.003 A 
ATOM     11  C   UNL     1       6.634   8.877  -4.247  1.00  0.00     0.016 A 
BRANCH   7  12
ATOM     12  N   UNL     1       3.333   6.608  -2.980  1.00  0.00    -0.248 NA
ATOM     13  C   UNL     1       2.853   3.222  -2.059  1.00  0.00     0.148 C 
ATOM     14  C   UNL     1       2.540   2.614  -3.440  1.00  0.00     0.048 C 
ATOM     15  C   UNL     1       2.268   4.653  -2.023  1.00  0.00     0.103 C 
ATOM     16  N   UNL     1       4.316   3.374  -1.863  1.00  0.00    -0.290 N 
ATOM     17  C   UNL     1       3.459   5.465  -2.380  1.00  0.00     0.109 C 
ATOM     18  C   UNL     1       4.704   4.707  -1.988  1.00  0.00     0.273 C 
ATOM     19  O   UNL     1       5.774   5.259  -1.838  1.00  0.00    -0.267 OA
BRANCH  13  20
ATOM     20  C   UNL     1       2.183   2.516  -0.860  1.00  0.00     0.332 C 
ATOM     21  O   UNL     1       2.456   2.748   0.312  1.00  0.00    -0.249 OA
BRANCH  20  22
ATOM     22  O   UNL     1       1.189   1.681  -1.270  1.00  0.00    -0.464 OA
BRANCH  22  23
ATOM     23  C   UNL     1       0.488   0.966  -0.240  1.00  0.00     0.229 C 
ATOM     24  C   UNL     1       1.164  -0.369   0.005  1.00  0.00     0.049 C 
ENDBRANCH  22  23
ENDBRANCH  20  22
ENDBRANCH  13  20
BRANCH  16  25
ATOM     25  C   UNL     1       5.216   2.279  -1.632  1.00  0.00     0.045 A 
ATOM     26  C   UNL     1       6.590   2.490  -1.434  1.00  0.00     0.026 A 
ATOM     27  C   UNL     1       4.778   0.943  -1.617  1.00  0.00     0.026 A 
ATOM     28  C   UNL     1       7.483   1.426  -1.245  1.00  0.00     0.002 A 
ATOM     29  C   UNL     1       5.669  -0.124  -1.434  1.00  0.00     0.002 A 
ATOM     30  C   UNL     1       7.022   0.117  -1.250  1.00  0.00     0.000 A 
ENDBRANCH  16  25
ENDBRANCH   7  12
ENDBRANCH   4   6
ENDBRANCH   3   4
ENDBRANCH   2   3
ENDBRANCH   1   2
BRANCH   1  31
ATOM     31  O   UNL     1       6.613   6.769  -9.180  1.00  0.00    -0.374 OA
BRANCH  31  32
ATOM     32  C   UNL     1       5.429   7.430  -8.729  1.00  0.00     0.202 C 
BRANCH  32  33
ATOM     33  C   UNL     1       4.312   7.346  -9.770  1.00  0.00     0.261 C 
BRANCH  33  34
ATOM     34  O   UNL     1       3.730   6.030  -9.758  1.00  0.00    -0.460 OA
BRANCH  34  35
ATOM     35  C   UNL     1       4.097   5.203 -10.766  1.00  0.00     0.338 C 
ATOM     36  O   UNL     1       4.812   5.484 -11.713  1.00  0.00    -0.246 OA
BRANCH  35  37
ATOM     37  C   UNL     1       3.557   3.839 -10.527  1.00  0.00     0.060 A 
ATOM     38  C   UNL     1       4.083   2.785 -11.285  1.00  0.00     0.016 A 
ATOM     39  C   UNL     1       2.554   3.581  -9.582  1.00  0.00     0.016 A 
ATOM     40  C   UNL     1       3.601   1.486 -11.112  1.00  0.00     0.010 A 
ATOM     41  C   UNL     1       2.069   2.281  -9.412  1.00  0.00     0.010 A 
ATOM     42  C   UNL     1       2.582   1.231 -10.185  1.00  0.00    -0.014 A 
BRANCH  42  43
ATOM     43  C   UNL     1       2.014  -0.131 -10.084  1.00  0.00     0.031 A 
ATOM     44  C   UNL     1       0.923  -0.549 -11.023  1.00  0.00     0.074 A 
ATOM     45  C   UNL     1       2.484  -0.995  -9.168  1.00  0.00     0.049 A 
ATOM     46  N   UNL     1       0.373  -1.725 -11.176  1.00  0.00    -0.248 NA
ATOM     47  C   UNL     1       0.382   0.495 -11.907  1.00  0.00     0.031 C 
ATOM     48  C   UNL     1       3.525  -0.703  -8.184  1.00  0.00     0.029 A 
ATOM     49  N   UNL     1       2.141  -2.299  -8.922  1.00  0.00    -0.354 N 
ATOM     50  C   UNL     1      -0.557  -1.574 -12.195  1.00  0.00     0.074 A 
ATOM     51  C   UNL     1      -0.520  -0.183 -12.601  1.00  0.00     0.031 C 
ATOM     52  C   UNL     1       3.732  -1.798  -7.432  1.00  0.00     0.029 A 
ATOM     53  C   UNL     1       2.849  -2.868  -7.895  1.00  0.00     0.049 A 
ATOM     54  H   UNL     1       1.452  -2.781  -9.434  1.00  0.00     0.167 HD
ATOM     55  C   UNL     1      -1.356  -2.511 -12.757  1.00  0.00     0.037 A 
ATOM     56  C   UNL     1       2.799  -4.115  -7.391  1.00  0.00     0.037 A 
ATOM     57  C   UNL     1      -1.408  -3.889 -12.354  1.00  0.00     0.049 A 
ATOM     58  C   UNL     1       1.881  -5.132  -8.002  1.00  0.00     0.074 A 
ATOM     59  C   UNL     1      -2.149  -4.924 -12.896  1.00  0.00     0.029 A 
ATOM     60  N   UNL     1      -0.696  -4.421 -11.290  1.00  0.00    -0.354 N 
ATOM     61  N   UNL     1       1.062  -4.995  -9.017  1.00  0.00    -0.248 NA
ATOM     62  C   UNL     1       1.887  -6.476  -7.407  1.00  0.00     0.031 C 
ATOM     63  C   UNL     1      -1.895  -6.082 -12.147  1.00  0.00     0.029 A 
ATOM     64  C   UNL     1      -0.994  -5.765 -11.143  1.00  0.00     0.049 A 
ATOM     65  H   UNL     1      -0.070  -3.917 -10.722  1.00  0.00     0.167 HD
ATOM     66  C   UNL     1       0.464  -6.236  -9.192  1.00  0.00     0.074 A 
ATOM     67  C   UNL     1       1.009  -7.112  -8.173  1.00  0.00     0.031 C 
ATOM     68  C   UNL     1      -0.448  -6.617 -10.119  1.00  0.00     0.037 A 
BRANCH  55  69
ATOM     69  C   UNL     1      -2.221  -2.050 -13.888  1.00  0.00     0.058 A 
ATOM     70  C   UNL     1      -1.723  -2.011 -15.199  1.00  0.00     0.135 A 
ATOM     71  C   UNL     1      -3.524  -1.587 -13.658  1.00  0.00     0.135 A 
ATOM     72  F   UNL     1      -0.474  -2.427 -15.460  1.00  0.00    -0.206 F 
ATOM     73  C   UNL     1      -2.480  -1.497 -16.246  1.00  0.00     0.059 A 
ATOM     74  C   UNL     1      -4.300  -1.071 -14.691  1.00  0.00     0.059 A 
ATOM     75  F   UNL     1      -4.033  -1.589 -12.416  1.00  0.00    -0.206 F 
ATOM     76  C   UNL     1      -3.760  -1.011 -15.977  1.00  0.00     0.060 A 
BRANCH  76  77
ATOM     77  S   UNL     1      -4.728  -0.280 -17.315  1.00  0.00     0.124 S 
ATOM     78  O   UNL     1      -4.310   1.116 -17.241  1.00  0.00    -0.237 OA
ATOM     79  O   UNL     1      -4.270  -1.016 -18.490  1.00  0.00    -0.237 OA
ATOM     80  O   UNL     1      -6.104  -0.550 -16.911  1.00  0.00    -0.744 OA
ENDBRANCH  76  77
ENDBRANCH  55  69
BRANCH  56  81
ATOM     81  C   UNL     1       3.663  -4.461  -6.240  1.00  0.00     0.058 A 
ATOM     82  C   UNL     1       4.929  -5.030  -6.432  1.00  0.00     0.135 A 
ATOM     83  C   UNL     1       3.259  -4.163  -4.932  1.00  0.00     0.135 A 
ATOM     84  F   UNL     1       5.349  -5.329  -7.670  1.00  0.00    -0.206 F 
ATOM     85  C   UNL     1       5.781  -5.279  -5.361  1.00  0.00     0.059 A 
ATOM     86  C   UNL     1       4.093  -4.400  -3.847  1.00  0.00     0.059 A 
ATOM     87  F   UNL     1       2.057  -3.610  -4.708  1.00  0.00    -0.206 F 
ATOM     88  C   UNL     1       5.355  -4.953  -4.072  1.00  0.00     0.060 A 
BRANCH  88  89
ATOM     89  S   UNL     1       6.468  -5.154  -2.664  1.00  0.00     0.124 S 
ATOM     90  O   UNL     1       5.939  -6.362  -2.043  1.00  0.00    -0.237 OA
ATOM     91  O   UNL     1       7.779  -5.281  -3.292  1.00  0.00    -0.237 OA
ATOM     92  O   UNL     1       6.254  -3.911  -1.925  1.00  0.00    -0.744 OA
ENDBRANCH  88  89
ENDBRANCH  56  81
BRANCH  68  93
ATOM     93  C   UNL     1      -0.913  -8.040 -10.070  1.00  0.00     0.058 A 
ATOM     94  C   UNL     1      -1.990  -8.418  -9.256  1.00  0.00     0.135 A 
ATOM     95  C   UNL     1      -0.303  -9.023 -10.864  1.00  0.00     0.135 A 
ATOM     96  F   UNL     1      -2.599  -7.511  -8.476  1.00  0.00    -0.206 F 
ATOM     97  C   UNL     1      -2.446  -9.732  -9.224  1.00  0.00     0.059 A 
ATOM     98  C   UNL     1      -0.746 -10.341 -10.850  1.00  0.00     0.059 A 
ATOM     99  F   UNL     1       0.732  -8.704 -11.657  1.00  0.00    -0.206 F 
ATOM    100  C   UNL     1      -1.813 -10.688 -10.020  1.00  0.00     0.060 A 
BRANCH 100 101
ATOM    101  S   UNL     1      -2.411 -12.392 -10.012  1.00  0.00     0.124 S 
ATOM    102  O   UNL     1      -1.569 -12.992  -8.983  1.00  0.00    -0.237 OA
ATOM    103  O   UNL     1      -3.822 -12.245  -9.667  1.00  0.00    -0.237 OA
ATOM    104  O   UNL     1      -2.152 -12.835 -11.379  1.00  0.00    -0.744 OA
ENDBRANCH 100 101
ENDBRANCH  68  93
ENDBRANCH  42  43
ENDBRANCH  35  37
ENDBRANCH  34  35
ENDBRANCH  33  34
ENDBRANCH  32  33
ENDBRANCH  31  32
ENDBRANCH   1  31
TORSDOF 22
