REMARK SMILES CCOc1ccc(NC(=O)N2CC[C@@H](C(=O)OCCOCCOC(=O)c3ccc(-c4c5nc(c(-c6c(F)cc(S(=O)(=O)[O-])cc6F)c6ccc([nH]6)c(-c6c(F)cc(S(=O)(=O)[O-])cc6F)c6nc(c(-c7c(F)cc(S(=O)(=O)[O-])cc7F)c7ccc4[nH]7)C=C6)C=C5)cc3)[C@@H]2C)cc1
REMARK SMILES IDX 19 1 18 2 17 3 15 4 16 5 14 6 11 7 12 8 92 9 13 10 93 11
REMARK SMILES IDX 9 12 8 13 10 15 7 16 4 17 5 18 95 19 6 20 94 21 3 22 2 23
REMARK SMILES IDX 1 24 20 25 21 26 22 27 23 28 24 29 25 30 26 31 27 32 91 33
REMARK SMILES IDX 28 34 90 35 29 36 30 37 31 38 84 39 32 40 89 41 83 42 85 43
REMARK SMILES IDX 33 44 88 45 82 46 81 47 34 49 68 50 47 51 67 52 48 53 51 54
REMARK SMILES IDX 66 55 86 56 49 57 50 58 65 60 87 61 52 62 35 63 36 64 45 65
REMARK SMILES IDX 37 66 38 67 44 68 46 69 39 70 40 71 41 72 42 73 43 74 69 75
REMARK SMILES IDX 70 76 79 77 71 78 72 79 78 80 80 81 73 82 74 83 75 84 76 85
REMARK SMILES IDX 77 86 53 87 54 88 63 89 55 90 56 91 62 92 64 93 57 94 58 95
REMARK SMILES IDX 59 96 60 97 61 98
REMARK H PARENT 8 14 85 48 51 59
REMARK Flexibility Score: inf
ROOT
ATOM      1  C   UNL     1       0.451  -0.528  -6.213  1.00  0.00     0.202 C 
ENDROOT
BRANCH   1   2
ATOM      2  C   UNL     1       1.367  -1.357  -7.106  1.00  0.00     0.261 C 
BRANCH   2   3
ATOM      3  O   UNL     1       2.754  -1.041  -6.863  1.00  0.00    -0.463 OA
BRANCH   3   4
ATOM      4  C   UNL     1       3.350  -0.225  -7.771  1.00  0.00     0.311 C 
ATOM      5  O   UNL     1       2.785   0.306  -8.720  1.00  0.00    -0.252 OA
BRANCH   4   6
ATOM      6  C   UNL     1       4.847  -0.122  -7.565  1.00  0.00     0.123 C 
ATOM      7  N   UNL     1       6.374  -0.885  -5.869  1.00  0.00    -0.321 N 
ATOM      8  C   UNL     1       6.769  -1.451  -7.147  1.00  0.00     0.122 C 
ATOM      9  C   UNL     1       5.319   0.131  -6.112  1.00  0.00     0.098 C 
ATOM     10  C   UNL     1       5.502  -1.439  -7.967  1.00  0.00     0.039 C 
ATOM     11  C   UNL     1       5.852   1.556  -5.952  1.00  0.00     0.032 C 
BRANCH   7  12
ATOM     12  C   UNL     1       7.150  -1.234  -4.803  1.00  0.00     0.322 C 
ATOM     13  N   UNL     1       6.837  -1.095  -3.501  1.00  0.00    -0.308 N 
ATOM     14  H   UNL     1       7.612  -1.288  -2.925  1.00  0.00     0.171 HD
ATOM     15  O   UNL     1       8.281  -1.705  -5.001  1.00  0.00    -0.248 OA
BRANCH  13  16
ATOM     16  C   UNL     1       5.717  -0.754  -2.743  1.00  0.00     0.043 A 
ATOM     17  C   UNL     1       3.817   0.806  -1.464  1.00  0.00     0.119 A 
ATOM     18  C   UNL     1       3.548   0.207  -2.688  1.00  0.00     0.048 A 
ATOM     19  C   UNL     1       4.963   0.433  -0.777  1.00  0.00     0.048 A 
ATOM     20  C   UNL     1       4.441  -0.703  -3.248  1.00  0.00     0.030 A 
ATOM     21  C   UNL     1       5.928  -0.336  -1.426  1.00  0.00     0.030 A 
BRANCH  17  22
ATOM     22  O   UNL     1       3.189   1.932  -1.023  1.00  0.00    -0.494 OA
BRANCH  22  23
ATOM     23  C   UNL     1       1.853   1.839  -0.539  1.00  0.00     0.226 C 
ATOM     24  C   UNL     1       1.703   0.988   0.709  1.00  0.00     0.049 C 
ENDBRANCH  22  23
ENDBRANCH  17  22
ENDBRANCH  13  16
ENDBRANCH   7  12
ENDBRANCH   4   6
ENDBRANCH   3   4
ENDBRANCH   2   3
ENDBRANCH   1   2
BRANCH   1  25
ATOM     25  O   UNL     1       0.433   0.857  -6.562  1.00  0.00    -0.374 OA
BRANCH  25  26
ATOM     26  C   UNL     1       1.286   1.687  -5.775  1.00  0.00     0.202 C 
BRANCH  26  27
ATOM     27  C   UNL     1       0.659   2.112  -4.442  1.00  0.00     0.261 C 
BRANCH  27  28
ATOM     28  O   UNL     1       0.500   0.979  -3.567  1.00  0.00    -0.460 OA
BRANCH  28  29
ATOM     29  C   UNL     1      -0.740   0.460  -3.400  1.00  0.00     0.338 C 
ATOM     30  O   UNL     1      -1.770   0.908  -3.864  1.00  0.00    -0.246 OA
BRANCH  29  31
ATOM     31  C   UNL     1      -0.662  -0.799  -2.594  1.00  0.00     0.060 A 
ATOM     32  C   UNL     1      -1.802  -1.589  -2.466  1.00  0.00     0.016 A 
ATOM     33  C   UNL     1       0.502  -1.206  -1.934  1.00  0.00     0.016 A 
ATOM     34  C   UNL     1      -1.796  -2.689  -1.600  1.00  0.00     0.010 A 
ATOM     35  C   UNL     1       0.529  -2.314  -1.093  1.00  0.00     0.010 A 
ATOM     36  C   UNL     1      -0.646  -3.019  -0.865  1.00  0.00    -0.014 A 
BRANCH  36  37
ATOM     37  C   UNL     1      -0.698  -4.064   0.177  1.00  0.00     0.031 A 
ATOM     38  C   UNL     1      -0.814  -3.683   1.626  1.00  0.00     0.074 A 
ATOM     39  C   UNL     1      -0.643  -5.354  -0.186  1.00  0.00     0.049 A 
ATOM     40  N   UNL     1      -1.195  -4.408   2.644  1.00  0.00    -0.248 NA
ATOM     41  C   UNL     1      -0.434  -2.308   1.985  1.00  0.00     0.031 C 
ATOM     42  C   UNL     1      -0.391  -5.837  -1.543  1.00  0.00     0.029 A 
ATOM     43  N   UNL     1      -0.814  -6.491   0.556  1.00  0.00    -0.354 N 
ATOM     44  C   UNL     1      -1.147  -3.567   3.751  1.00  0.00     0.074 A 
ATOM     45  C   UNL     1      -0.620  -2.300   3.297  1.00  0.00     0.031 C 
ATOM     46  C   UNL     1      -0.467  -7.177  -1.547  1.00  0.00     0.029 A 
ATOM     47  C   UNL     1      -0.798  -7.636  -0.200  1.00  0.00     0.049 A 
ATOM     48  H   UNL     1      -0.935  -6.488   1.533  1.00  0.00     0.167 HD
ATOM     49  C   UNL     1      -1.533  -3.827   5.023  1.00  0.00     0.037 A 
ATOM     50  C   UNL     1      -1.082  -8.904   0.150  1.00  0.00     0.037 A 
ATOM     51  C   UNL     1      -1.998  -5.122   5.451  1.00  0.00     0.049 A 
ATOM     52  C   UNL     1      -1.566  -9.173   1.549  1.00  0.00     0.074 A 
ATOM     53  C   UNL     1      -2.484  -5.506   6.687  1.00  0.00     0.029 A 
ATOM     54  N   UNL     1      -2.000  -6.257   4.650  1.00  0.00    -0.354 N 
ATOM     55  N   UNL     1      -1.710  -8.335   2.551  1.00  0.00    -0.248 NA
ATOM     56  C   UNL     1      -1.972 -10.550   1.851  1.00  0.00     0.031 C 
ATOM     57  C   UNL     1      -2.718  -6.887   6.652  1.00  0.00     0.029 A 
ATOM     58  C   UNL     1      -2.444  -7.349   5.373  1.00  0.00     0.049 A 
ATOM     59  H   UNL     1      -1.725  -6.280   3.705  1.00  0.00     0.167 HD
ATOM     60  C   UNL     1      -2.257  -9.078   3.593  1.00  0.00     0.074 A 
ATOM     61  C   UNL     1      -2.430 -10.427   3.089  1.00  0.00     0.031 C 
ATOM     62  C   UNL     1      -2.595  -8.684   4.848  1.00  0.00     0.037 A 
BRANCH  49  63
ATOM     63  C   UNL     1      -1.472  -2.706   6.029  1.00  0.00     0.058 A 
ATOM     64  C   UNL     1      -2.318  -1.586   5.936  1.00  0.00     0.135 A 
ATOM     65  C   UNL     1      -0.597  -2.766   7.126  1.00  0.00     0.135 A 
ATOM     66  F   UNL     1      -3.169  -1.464   4.904  1.00  0.00    -0.206 F 
ATOM     67  C   UNL     1      -2.280  -0.559   6.876  1.00  0.00     0.059 A 
ATOM     68  C   UNL     1      -0.562  -1.764   8.093  1.00  0.00     0.059 A 
ATOM     69  F   UNL     1       0.236  -3.808   7.269  1.00  0.00    -0.206 F 
ATOM     70  C   UNL     1      -1.398  -0.657   7.952  1.00  0.00     0.060 A 
BRANCH  70  71
ATOM     71  S   UNL     1      -1.367   0.680   9.166  1.00  0.00     0.124 S 
ATOM     72  O   UNL     1      -0.740   1.753   8.400  1.00  0.00    -0.237 OA
ATOM     73  O   UNL     1      -2.784   0.861   9.466  1.00  0.00    -0.237 OA
ATOM     74  O   UNL     1      -0.563   0.135  10.255  1.00  0.00    -0.744 OA
ENDBRANCH  70  71
ENDBRANCH  49  63
BRANCH  50  75
ATOM     75  C   UNL     1      -1.030  -9.973  -0.879  1.00  0.00     0.058 A 
ATOM     76  C   UNL     1      -2.207 -10.536  -1.394  1.00  0.00     0.135 A 
ATOM     77  C   UNL     1       0.192 -10.409  -1.411  1.00  0.00     0.135 A 
ATOM     78  F   UNL     1      -3.401 -10.143  -0.924  1.00  0.00    -0.206 F 
ATOM     79  C   UNL     1      -2.175 -11.509  -2.386  1.00  0.00     0.059 A 
ATOM     80  C   UNL     1       0.250 -11.364  -2.421  1.00  0.00     0.059 A 
ATOM     81  F   UNL     1       1.344  -9.878  -0.972  1.00  0.00    -0.206 F 
ATOM     82  C   UNL     1      -0.940 -11.914  -2.897  1.00  0.00     0.060 A 
BRANCH  82  83
ATOM     83  S   UNL     1      -0.914 -13.135  -4.226  1.00  0.00     0.124 S 
ATOM     84  O   UNL     1      -1.287 -14.352  -3.514  1.00  0.00    -0.237 OA
ATOM     85  O   UNL     1      -1.911 -12.603  -5.149  1.00  0.00    -0.237 OA
ATOM     86  O   UNL     1       0.464 -13.080  -4.705  1.00  0.00    -0.744 OA
ENDBRANCH  82  83
ENDBRANCH  50  75
BRANCH  62  87
ATOM     87  C   UNL     1      -3.212  -9.722   5.744  1.00  0.00     0.058 A 
ATOM     88  C   UNL     1      -2.473 -10.803   6.247  1.00  0.00     0.135 A 
ATOM     89  C   UNL     1      -4.565  -9.624   6.111  1.00  0.00     0.135 A 
ATOM     90  F   UNL     1      -1.176 -10.942   5.929  1.00  0.00    -0.206 F 
ATOM     91  C   UNL     1      -3.066 -11.784   7.034  1.00  0.00     0.059 A 
ATOM     92  C   UNL     1      -5.170 -10.573   6.926  1.00  0.00     0.059 A 
ATOM     93  F   UNL     1      -5.313  -8.598   5.674  1.00  0.00    -0.206 F 
ATOM     94  C   UNL     1      -4.418 -11.663   7.362  1.00  0.00     0.060 A 
BRANCH  94  95
ATOM     95  S   UNL     1      -5.184 -12.952   8.366  1.00  0.00     0.124 S 
ATOM     96  O   UNL     1      -5.325 -14.033   7.396  1.00  0.00    -0.237 OA
ATOM     97  O   UNL     1      -4.190 -13.165   9.414  1.00  0.00    -0.237 OA
ATOM     98  O   UNL     1      -6.432 -12.338   8.810  1.00  0.00    -0.744 OA
ENDBRANCH  94  95
ENDBRANCH  62  87
ENDBRANCH  36  37
ENDBRANCH  29  31
ENDBRANCH  28  29
ENDBRANCH  27  28
ENDBRANCH  26  27
ENDBRANCH  25  26
ENDBRANCH   1  25
TORSDOF 21
