REMARK SMILES O=C(/C=C/c1ccc(NC(=O)[C@@H]2COc3ccccc3C2)cc1)OCCOCCOC(=O)c1ccc(-c2c3nc(c(-c4c(F)cc(S(=O)(=O)[O-])cc4F)c4ccc([nH]4)c(-c4c(F)cc(S(=O)(=O)[O-])cc4F)c4nc(c(-c5c(F)cc(S(=O)(=O)[O-])cc5F)c5ccc2[nH]5)C=C4)C=C3)cc1
REMARK SMILES IDX 27 1 26 2 25 3 24 4 2 5 1 6 3 7 4 8 5 9 6 10 23 11 7 12
REMARK SMILES IDX 22 13 8 14 9 15 10 16 11 18 12 19 13 20 21 21 14 22 20 23
REMARK SMILES IDX 15 24 19 25 16 26 18 27 17 28 28 29 29 30 30 31 31 32 32 33
REMARK SMILES IDX 33 34 34 35 98 36 35 37 97 38 36 39 37 40 38 41 91 42 39 43
REMARK SMILES IDX 96 44 90 45 92 46 40 47 95 48 89 49 88 50 41 52 75 53 54 54
REMARK SMILES IDX 74 55 55 56 58 57 73 58 93 59 56 60 57 61 72 63 94 64 59 65
REMARK SMILES IDX 42 66 43 67 52 68 44 69 45 70 51 71 53 72 46 73 47 74 48 75
REMARK SMILES IDX 49 76 50 77 76 78 77 79 86 80 78 81 79 82 85 83 87 84 80 85
REMARK SMILES IDX 81 86 82 87 83 88 84 89 60 90 61 91 70 92 62 93 63 94 69 95
REMARK SMILES IDX 71 96 64 97 65 98 66 99 67 100 68 101
REMARK H PARENT 9 17 92 51 58 62
REMARK Flexibility Score: inf
ROOT
ATOM      1  O   UNL     1       4.032  -1.395   0.390  1.00  0.00    -0.374 OA
ENDROOT
BRANCH   1   2
ATOM      2  C   UNL     1       4.358  -0.301   1.244  1.00  0.00     0.202 C 
BRANCH   2   3
ATOM      3  C   UNL     1       4.052   1.097   0.713  1.00  0.00     0.261 C 
BRANCH   3   4
ATOM      4  O   UNL     1       2.698   1.298   0.254  1.00  0.00    -0.460 OA
BRANCH   4   5
ATOM      5  C   UNL     1       2.159   0.892  -0.918  1.00  0.00     0.330 C 
ATOM      6  O   UNL     1       0.965   1.057  -1.153  1.00  0.00    -0.247 OA
BRANCH   5   7
ATOM      7  C   UNL     1       2.963   0.112  -1.867  1.00  0.00     0.094 C 
ATOM      8  C   UNL     1       4.187   0.457  -2.276  1.00  0.00     0.015 C 
BRANCH   8   9
ATOM      9  C   UNL     1       5.023  -0.427  -3.075  1.00  0.00    -0.025 A 
ATOM     10  C   UNL     1       6.034  -1.166  -2.447  1.00  0.00     0.010 A 
ATOM     11  C   UNL     1       4.889  -0.453  -4.462  1.00  0.00     0.010 A 
ATOM     12  C   UNL     1       6.941  -1.892  -3.212  1.00  0.00     0.027 A 
ATOM     13  C   UNL     1       5.826  -1.138  -5.229  1.00  0.00     0.027 A 
ATOM     14  C   UNL     1       6.845  -1.855  -4.602  1.00  0.00     0.041 A 
BRANCH  14  15
ATOM     15  N   UNL     1       7.829  -2.438  -5.397  1.00  0.00    -0.326 N 
ATOM     16  C   UNL     1       8.483  -3.609  -5.164  1.00  0.00     0.231 C 
ATOM     17  H   UNL     1       8.079  -1.950  -6.215  1.00  0.00     0.169 HD
ATOM     18  O   UNL     1       9.674  -3.707  -5.468  1.00  0.00    -0.274 OA
BRANCH  16  19
ATOM     19  C   UNL     1       7.686  -4.833  -4.749  1.00  0.00     0.121 C 
ATOM     20  C   UNL     1       6.200  -4.861  -5.091  1.00  0.00     0.243 C 
ATOM     21  C   UNL     1       7.809  -5.354  -3.325  1.00  0.00     0.056 C 
ATOM     22  O   UNL     1       5.733  -6.212  -5.220  1.00  0.00    -0.492 OA
ATOM     23  C   UNL     1       7.281  -6.772  -3.394  1.00  0.00    -0.005 A 
ATOM     24  C   UNL     1       6.328  -7.116  -4.373  1.00  0.00     0.122 A 
ATOM     25  C   UNL     1       7.828  -7.778  -2.592  1.00  0.00     0.007 A 
ATOM     26  C   UNL     1       6.019  -8.451  -4.620  1.00  0.00     0.047 A 
ATOM     27  C   UNL     1       7.516  -9.116  -2.847  1.00  0.00     0.001 A 
ATOM     28  C   UNL     1       6.637  -9.453  -3.877  1.00  0.00     0.004 A 
ENDBRANCH  16  19
ENDBRANCH  14  15
ENDBRANCH   8   9
ENDBRANCH   5   7
ENDBRANCH   4   5
ENDBRANCH   3   4
ENDBRANCH   2   3
ENDBRANCH   1   2
BRANCH   1  29
ATOM     29  C   UNL     1       2.759  -1.998   0.659  1.00  0.00     0.202 C 
BRANCH  29  30
ATOM     30  C   UNL     1       2.770  -3.077   1.750  1.00  0.00     0.261 C 
BRANCH  30  31
ATOM     31  O   UNL     1       3.193  -2.541   3.012  1.00  0.00    -0.460 OA
BRANCH  31  32
ATOM     32  C   UNL     1       4.511  -2.707   3.280  1.00  0.00     0.338 C 
ATOM     33  O   UNL     1       5.305  -3.398   2.656  1.00  0.00    -0.246 OA
BRANCH  32  34
ATOM     34  C   UNL     1       4.926  -1.743   4.321  1.00  0.00     0.060 A 
ATOM     35  C   UNL     1       6.182  -1.140   4.174  1.00  0.00     0.016 A 
ATOM     36  C   UNL     1       4.110  -1.422   5.410  1.00  0.00     0.016 A 
ATOM     37  C   UNL     1       6.662  -0.277   5.153  1.00  0.00     0.010 A 
ATOM     38  C   UNL     1       4.593  -0.557   6.395  1.00  0.00     0.010 A 
ATOM     39  C   UNL     1       5.893  -0.031   6.297  1.00  0.00    -0.014 A 
BRANCH  39  40
ATOM     40  C   UNL     1       6.549   0.568   7.482  1.00  0.00     0.031 A 
ATOM     41  C   UNL     1       7.005  -0.359   8.578  1.00  0.00     0.074 A 
ATOM     42  C   UNL     1       6.788   1.889   7.555  1.00  0.00     0.049 A 
ATOM     43  N   UNL     1       7.613  -0.083   9.701  1.00  0.00    -0.248 NA
ATOM     44  C   UNL     1       6.732  -1.793   8.380  1.00  0.00     0.031 C 
ATOM     45  C   UNL     1       6.428   2.871   6.533  1.00  0.00     0.029 A 
ATOM     46  N   UNL     1       7.396   2.629   8.536  1.00  0.00    -0.354 N 
ATOM     47  C   UNL     1       7.781  -1.303  10.348  1.00  0.00     0.074 A 
ATOM     48  C   UNL     1       7.179  -2.316   9.511  1.00  0.00     0.031 C 
ATOM     49  C   UNL     1       6.829   4.089   6.941  1.00  0.00     0.029 A 
ATOM     50  C   UNL     1       7.444   3.974   8.262  1.00  0.00     0.049 A 
ATOM     51  H   UNL     1       7.764   2.233   9.358  1.00  0.00     0.167 HD
ATOM     52  C   UNL     1       8.392  -1.557  11.528  1.00  0.00     0.037 A 
ATOM     53  C   UNL     1       7.923   4.993   9.003  1.00  0.00     0.037 A 
ATOM     54  C   UNL     1       8.995  -0.540  12.348  1.00  0.00     0.049 A 
ATOM     55  C   UNL     1       8.550   4.692  10.341  1.00  0.00     0.074 A 
ATOM     56  C   UNL     1       9.666  -0.688  13.549  1.00  0.00     0.029 A 
ATOM     57  N   UNL     1       8.992   0.817  12.055  1.00  0.00    -0.354 N 
ATOM     58  N   UNL     1       8.730   3.532  10.928  1.00  0.00    -0.248 NA
ATOM     59  C   UNL     1       9.048   5.839  11.112  1.00  0.00     0.031 C 
ATOM     60  C   UNL     1      10.013   0.585  14.012  1.00  0.00     0.029 A 
ATOM     61  C   UNL     1       9.623   1.521  13.066  1.00  0.00     0.049 A 
ATOM     62  H   UNL     1       8.600   1.219  11.246  1.00  0.00     0.167 HD
ATOM     63  C   UNL     1       9.397   3.806  12.119  1.00  0.00     0.074 A 
ATOM     64  C   UNL     1       9.594   5.241  12.162  1.00  0.00     0.031 C 
ATOM     65  C   UNL     1       9.815   2.950  13.086  1.00  0.00     0.037 A 
BRANCH  52  66
ATOM     66  C   UNL     1       8.399  -2.980  12.019  1.00  0.00     0.058 A 
ATOM     67  C   UNL     1       9.149  -3.986  11.387  1.00  0.00     0.135 A 
ATOM     68  C   UNL     1       7.649  -3.340  13.151  1.00  0.00     0.135 A 
ATOM     69  F   UNL     1       9.867  -3.705  10.288  1.00  0.00    -0.206 F 
ATOM     70  C   UNL     1       9.131  -5.301  11.841  1.00  0.00     0.059 A 
ATOM     71  C   UNL     1       7.642  -4.642  13.641  1.00  0.00     0.059 A 
ATOM     72  F   UNL     1       6.908  -2.422  13.790  1.00  0.00    -0.206 F 
ATOM     73  C   UNL     1       8.374  -5.619  12.970  1.00  0.00     0.060 A 
BRANCH  73  74
ATOM     74  S   UNL     1       8.360  -7.330  13.546  1.00  0.00     0.124 S 
ATOM     75  O   UNL     1       7.568  -7.981  12.506  1.00  0.00    -0.237 OA
ATOM     76  O   UNL     1       9.780  -7.664  13.562  1.00  0.00    -0.237 OA
ATOM     77  O   UNL     1       7.723  -7.243  14.856  1.00  0.00    -0.744 OA
ENDBRANCH  73  74
ENDBRANCH  52  66
BRANCH  53  78
ATOM     78  C   UNL     1       7.843   6.389   8.494  1.00  0.00     0.058 A 
ATOM     79  C   UNL     1       9.000   7.100   8.142  1.00  0.00     0.135 A 
ATOM     80  C   UNL     1       6.608   7.043   8.350  1.00  0.00     0.135 A 
ATOM     81  F   UNL     1      10.205   6.524   8.270  1.00  0.00    -0.206 F 
ATOM     82  C   UNL     1       8.940   8.411   7.681  1.00  0.00     0.059 A 
ATOM     83  C   UNL     1       6.520   8.344   7.865  1.00  0.00     0.059 A 
ATOM     84  F   UNL     1       5.469   6.406   8.663  1.00  0.00    -0.206 F 
ATOM     85  C   UNL     1       7.694   9.024   7.542  1.00  0.00     0.060 A 
BRANCH  85  86
ATOM     86  S   UNL     1       7.626  10.708   6.894  1.00  0.00     0.124 S 
ATOM     87  O   UNL     1       8.172  11.474   8.008  1.00  0.00    -0.237 OA
ATOM     88  O   UNL     1       8.472  10.611   5.708  1.00  0.00    -0.237 OA
ATOM     89  O   UNL     1       6.205  10.907   6.626  1.00  0.00    -0.744 OA
ENDBRANCH  85  86
ENDBRANCH  53  78
BRANCH  65  90
ATOM     90  C   UNL     1      10.576   3.535  14.247  1.00  0.00     0.058 A 
ATOM     91  C   UNL     1       9.957   4.341  15.215  1.00  0.00     0.135 A 
ATOM     92  C   UNL     1      11.942   3.251  14.409  1.00  0.00     0.135 A 
ATOM     93  F   UNL     1       8.653   4.646  15.108  1.00  0.00    -0.206 F 
ATOM     94  C   UNL     1      10.674   4.877  16.280  1.00  0.00     0.059 A 
ATOM     95  C   UNL     1      12.670   3.747  15.486  1.00  0.00     0.059 A 
ATOM     96  F   UNL     1      12.582   2.471  13.522  1.00  0.00    -0.206 F 
ATOM     97  C   UNL     1      12.031   4.575  16.406  1.00  0.00     0.060 A 
BRANCH  97  98
ATOM     98  S   UNL     1      12.948   5.271  17.796  1.00  0.00     0.124 S 
ATOM     99  O   UNL     1      13.062   6.670  17.401  1.00  0.00    -0.237 OA
ATOM    100  O   UNL     1      12.059   5.000  18.922  1.00  0.00    -0.237 OA
ATOM    101  O   UNL     1      14.196   4.513  17.794  1.00  0.00    -0.744 OA
ENDBRANCH  97  98
ENDBRANCH  65  90
ENDBRANCH  39  40
ENDBRANCH  32  34
ENDBRANCH  31  32
ENDBRANCH  30  31
ENDBRANCH  29  30
ENDBRANCH   1  29
TORSDOF 20
