REMARK SMILES O=C(N[C@@H]1CCCCC[C@H]1C(=O)OCCOCCOC(=O)c1ccc(-c2c3nc(c(-c4c(F)cc(S(=O)(=O)[O-])cc4F)c4ccc([nH]4)c(-c4c(F)cc(S(=O)(=O)[O-])cc4F)c4nc(c(-c5c(F)cc(S(=O)(=O)[O-])cc5F)c5ccc2[nH]5)C=C4)C=C3)cc1)c1cccc(F)c1
REMARK SMILES IDX 16 1 15 2 14 3 13 4 11 5 12 6 10 7 4 8 3 9 1 10 2 11 88 13
REMARK SMILES IDX 89 14 94 15 90 16 92 17 91 18 93 19 5 20 6 21 9 23 8 24 7 25
REMARK SMILES IDX 17 27 18 28 19 29 20 30 21 31 22 32 23 33 87 34 24 35 86 36
REMARK SMILES IDX 25 37 26 38 27 39 80 40 28 41 85 42 79 43 81 44 29 45 84 46
REMARK SMILES IDX 78 47 77 48 30 50 64 51 43 52 63 53 44 54 47 55 62 56 82 57
REMARK SMILES IDX 45 58 46 59 61 61 83 62 48 63 31 64 32 65 41 66 33 67 34 68
REMARK SMILES IDX 40 69 42 70 35 71 36 72 37 73 38 74 39 75 65 76 66 77 75 78
REMARK SMILES IDX 67 79 68 80 74 81 76 82 69 83 70 84 71 85 72 86 73 87 49 88
REMARK SMILES IDX 50 89 59 90 51 91 52 92 58 93 60 94 53 95 54 96 55 97 56 98
REMARK SMILES IDX 57 99
REMARK H PARENT 3 12 81 49 47 60
REMARK Flexibility Score: 100.00
ROOT
ATOM      1  O   UNL     1       8.170   1.131   2.087  1.00  0.00    -0.374 OA
ENDROOT
BRANCH   1   2
ATOM      2  C   UNL     1       8.893   0.747   0.914  1.00  0.00     0.202 C 
BRANCH   2   3
ATOM      3  C   UNL     1       8.510  -0.600   0.299  1.00  0.00     0.261 C 
BRANCH   3   4
ATOM      4  O   UNL     1       7.263  -0.488  -0.419  1.00  0.00    -0.463 OA
BRANCH   4   5
ATOM      5  C   UNL     1       6.338  -1.458  -0.217  1.00  0.00     0.311 C 
ATOM      6  O   UNL     1       6.471  -2.395   0.560  1.00  0.00    -0.252 OA
BRANCH   5   7
ATOM      7  C   UNL     1       5.123  -1.306  -1.132  1.00  0.00     0.121 C 
BRANCH   7   8
ATOM      8  C   UNL     1       4.600   0.145  -1.260  1.00  0.00     0.096 C 
BRANCH   8   9
ATOM      9  N   UNL     1       3.126   0.252  -1.055  1.00  0.00    -0.348 N 
ATOM     10  O   UNL     1       1.095   0.133  -0.072  1.00  0.00    -0.269 OA
ATOM     11  C   UNL     1       2.300  -0.089  -0.013  1.00  0.00     0.251 C 
ATOM     12  H   UNL     1       2.650   0.648  -1.821  1.00  0.00     0.164 HD
BRANCH  11  13
ATOM     13  C   UNL     1       2.838  -0.792   1.161  1.00  0.00     0.042 A 
ATOM     14  C   UNL     1       3.745  -0.169   2.018  1.00  0.00     0.014 A 
ATOM     15  C   UNL     1       2.440  -2.112   1.381  1.00  0.00     0.053 A 
ATOM     16  C   UNL     1       4.339  -0.905   3.045  1.00  0.00     0.004 A 
ATOM     17  C   UNL     1       3.038  -2.830   2.407  1.00  0.00     0.124 A 
ATOM     18  C   UNL     1       3.999  -2.246   3.225  1.00  0.00     0.039 A 
ATOM     19  F   UNL     1       2.698  -4.111   2.600  1.00  0.00    -0.207 F 
ENDBRANCH  11  13
ENDBRANCH   8   9
BRANCH   8  20
ATOM     20  C   UNL     1       4.899   0.835  -2.610  1.00  0.00     0.026 C 
BRANCH  20  21
ATOM     21  C   UNL     1       6.342   0.800  -3.101  1.00  0.00     0.002 CG0
ATOM     22  G   UNL     1       6.695  -0.447  -3.906  1.00  0.00     0.000 G0
ENDBRANCH  20  21
ENDBRANCH   8  20
ENDBRANCH   7   8
BRANCH   7  23
ATOM     23  C   UNL     1       5.326  -2.079  -2.438  1.00  0.00     0.017 C 
BRANCH  23  24
ATOM     24  C   UNL     1       6.620  -1.791  -3.193  1.00  0.00     0.001 C 
BRANCH  24  25
ATOM     25  C   UNL     1       6.695  -0.447  -3.906  1.00  0.00     0.000 CG0
ATOM     26  G   UNL     1       6.342   0.800  -3.101  1.00  0.00     0.000 G0
ENDBRANCH  24  25
ENDBRANCH  23  24
ENDBRANCH   7  23
ENDBRANCH   5   7
ENDBRANCH   4   5
ENDBRANCH   3   4
ENDBRANCH   2   3
ENDBRANCH   1   2
BRANCH   1  27
ATOM     27  C   UNL     1       6.804   1.483   1.914  1.00  0.00     0.202 C 
BRANCH  27  28
ATOM     28  C   UNL     1       6.487   2.915   1.468  1.00  0.00     0.261 C 
BRANCH  28  29
ATOM     29  O   UNL     1       7.158   3.287   0.262  1.00  0.00    -0.460 OA
BRANCH  29  30
ATOM     30  C   UNL     1       8.304   3.977   0.475  1.00  0.00     0.338 C 
ATOM     31  O   UNL     1       8.764   4.339   1.550  1.00  0.00    -0.246 OA
BRANCH  30  32
ATOM     32  C   UNL     1       9.045   4.093  -0.788  1.00  0.00     0.060 A 
ATOM     33  C   UNL     1      10.387   3.693  -0.789  1.00  0.00     0.016 A 
ATOM     34  C   UNL     1       8.453   4.640  -1.928  1.00  0.00     0.016 A 
ATOM     35  C   UNL     1      11.166   3.893  -1.921  1.00  0.00     0.010 A 
ATOM     36  C   UNL     1       9.239   4.849  -3.060  1.00  0.00     0.010 A 
ATOM     37  C   UNL     1      10.606   4.517  -3.042  1.00  0.00    -0.014 A 
BRANCH  37  38
ATOM     38  C   UNL     1      11.489   4.997  -4.125  1.00  0.00     0.031 A 
ATOM     39  C   UNL     1      11.863   6.453  -4.145  1.00  0.00     0.074 A 
ATOM     40  C   UNL     1      11.949   4.147  -5.058  1.00  0.00     0.049 A 
ATOM     41  N   UNL     1      12.546   7.120  -5.034  1.00  0.00    -0.248 NA
ATOM     42  C   UNL     1      11.393   7.267  -3.009  1.00  0.00     0.031 C 
ATOM     43  C   UNL     1      11.686   2.709  -5.093  1.00  0.00     0.029 A 
ATOM     44  N   UNL     1      12.726   4.376  -6.163  1.00  0.00    -0.354 N 
ATOM     45  C   UNL     1      12.571   8.434  -4.580  1.00  0.00     0.074 A 
ATOM     46  C   UNL     1      11.816   8.475  -3.348  1.00  0.00     0.031 C 
ATOM     47  C   UNL     1      12.284   2.184  -6.177  1.00  0.00     0.029 A 
ATOM     48  C   UNL     1      12.932   3.255  -6.930  1.00  0.00     0.049 A 
ATOM     49  H   UNL     1      13.100   5.259  -6.387  1.00  0.00     0.167 HD
ATOM     50  C   UNL     1      13.174   9.506  -5.145  1.00  0.00     0.037 A 
ATOM     51  C   UNL     1      13.552   3.122  -8.119  1.00  0.00     0.037 A 
ATOM     52  C   UNL     1      13.928   9.439  -6.368  1.00  0.00     0.049 A 
ATOM     53  C   UNL     1      14.158   4.343  -8.762  1.00  0.00     0.074 A 
ATOM     54  C   UNL     1      14.605  10.454  -7.018  1.00  0.00     0.029 A 
ATOM     55  N   UNL     1      14.098   8.290  -7.129  1.00  0.00    -0.354 N 
ATOM     56  N   UNL     1      14.192   5.577  -8.318  1.00  0.00    -0.248 NA
ATOM     57  C   UNL     1      14.807   4.156 -10.067  1.00  0.00     0.031 C 
ATOM     58  C   UNL     1      15.134   9.933  -8.202  1.00  0.00     0.029 A 
ATOM     59  C   UNL     1      14.843   8.578  -8.258  1.00  0.00     0.049 A 
ATOM     60  H   UNL     1      13.740   7.402  -6.899  1.00  0.00     0.167 HD
ATOM     61  C   UNL     1      14.899   6.306  -9.268  1.00  0.00     0.074 A 
ATOM     62  C   UNL     1      15.272   5.374 -10.313  1.00  0.00     0.031 C 
ATOM     63  C   UNL     1      15.218   7.625  -9.274  1.00  0.00     0.037 A 
BRANCH  50  64
ATOM     64  C   UNL     1      13.009  10.841  -4.472  1.00  0.00     0.058 A 
ATOM     65  C   UNL     1      13.624  11.140  -3.246  1.00  0.00     0.135 A 
ATOM     66  C   UNL     1      12.243  11.849  -5.080  1.00  0.00     0.135 A 
ATOM     67  F   UNL     1      14.350  10.208  -2.608  1.00  0.00    -0.206 F 
ATOM     68  C   UNL     1      13.466  12.381  -2.635  1.00  0.00     0.059 A 
ATOM     69  C   UNL     1      12.095  13.107  -4.503  1.00  0.00     0.059 A 
ATOM     70  F   UNL     1      11.627  11.617  -6.250  1.00  0.00    -0.206 F 
ATOM     71  C   UNL     1      12.700  13.358  -3.273  1.00  0.00     0.060 A 
BRANCH  71  72
ATOM     72  S   UNL     1      12.510  14.965  -2.472  1.00  0.00     0.124 S 
ATOM     73  O   UNL     1      11.626  14.632  -1.359  1.00  0.00    -0.237 OA
ATOM     74  O   UNL     1      13.884  15.298  -2.112  1.00  0.00    -0.237 OA
ATOM     75  O   UNL     1      11.917  15.797  -3.514  1.00  0.00    -0.744 OA
ENDBRANCH  71  72
ENDBRANCH  50  64
BRANCH  51  76
ATOM     76  C   UNL     1      13.624   1.790  -8.775  1.00  0.00     0.058 A 
ATOM     77  C   UNL     1      14.845   1.114  -8.905  1.00  0.00     0.135 A 
ATOM     78  C   UNL     1      12.472   1.158  -9.273  1.00  0.00     0.135 A 
ATOM     79  F   UNL     1      15.975   1.679  -8.452  1.00  0.00    -0.206 F 
ATOM     80  C   UNL     1      14.927  -0.134  -9.513  1.00  0.00     0.059 A 
ATOM     81  C   UNL     1      12.524  -0.101  -9.861  1.00  0.00     0.059 A 
ATOM     82  F   UNL     1      11.275   1.756  -9.162  1.00  0.00    -0.206 F 
ATOM     83  C   UNL     1      13.759  -0.736  -9.985  1.00  0.00     0.060 A 
BRANCH  83  84
ATOM     84  S   UNL     1      13.871  -2.378 -10.727  1.00  0.00     0.124 S 
ATOM     85  O   UNL     1      14.535  -2.085 -11.992  1.00  0.00    -0.237 OA
ATOM     86  O   UNL     1      14.666  -3.104  -9.741  1.00  0.00    -0.237 OA
ATOM     87  O   UNL     1      12.476  -2.797 -10.827  1.00  0.00    -0.744 OA
ENDBRANCH  83  84
ENDBRANCH  51  76
BRANCH  63  88
ATOM     88  C   UNL     1      16.055   8.136 -10.414  1.00  0.00     0.058 A 
ATOM     89  C   UNL     1      15.524   8.320 -11.698  1.00  0.00     0.135 A 
ATOM     90  C   UNL     1      17.383   8.536 -10.186  1.00  0.00     0.135 A 
ATOM     91  F   UNL     1      14.264   7.947 -11.970  1.00  0.00    -0.206 F 
ATOM     92  C   UNL     1      16.284   8.877 -12.722  1.00  0.00     0.059 A 
ATOM     93  C   UNL     1      18.150   9.121 -11.186  1.00  0.00     0.059 A 
ATOM     94  F   UNL     1      17.934   8.389  -8.970  1.00  0.00    -0.206 F 
ATOM     95  C   UNL     1      17.593   9.284 -12.453  1.00  0.00     0.060 A 
BRANCH  95  96
ATOM     96  S   UNL     1      18.542  10.068 -13.773  1.00  0.00     0.124 S 
ATOM     97  O   UNL     1      18.825   8.934 -14.646  1.00  0.00    -0.237 OA
ATOM     98  O   UNL     1      17.597  11.050 -14.294  1.00  0.00    -0.237 OA
ATOM     99  O   UNL     1      19.697  10.626 -13.076  1.00  0.00    -0.744 OA
ENDBRANCH  95  96
ENDBRANCH  63  88
ENDBRANCH  37  38
ENDBRANCH  30  32
ENDBRANCH  29  30
ENDBRANCH  28  29
ENDBRANCH  27  28
ENDBRANCH   1  27
TORSDOF 19
