REMARK SMILES CCc1n[nH]c(C(=O)N[C@@]2(C(=O)OCCOCCOC(=O)c3ccc(-c4c5nc(c(-c6c(F)cc(S(=O)(=O)[O-])cc6F)c6ccc([nH]6)c(-c6c(F)cc(S(=O)(=O)[O-])cc6F)c6nc(c(-c7c(F)cc(S(=O)(=O)[O-])cc7F)c7ccc4[nH]7)C=C6)C=C5)cc3)CCCC[C@H]2C)n1
REMARK SMILES IDX 16 1 15 2 14 3 13 4 11 5 12 6 10 7 88 8 92 9 89 10 91 11
REMARK SMILES IDX 93 12 90 13 9 14 7 15 8 16 6 18 3 19 4 20 94 21 5 22 2 24
REMARK SMILES IDX 1 25 17 26 18 27 19 28 20 29 21 30 22 31 23 32 87 33 24 34
REMARK SMILES IDX 86 35 25 36 26 37 27 38 80 39 28 40 85 41 79 42 81 43 29 44
REMARK SMILES IDX 84 45 78 46 77 47 30 49 64 50 43 51 63 52 44 53 47 54 62 55
REMARK SMILES IDX 82 56 45 57 46 58 61 60 83 61 48 62 31 63 32 64 41 65 33 66
REMARK SMILES IDX 34 67 40 68 42 69 35 70 36 71 37 72 38 73 39 74 65 75 66 76
REMARK SMILES IDX 75 77 67 78 68 79 74 80 76 81 69 82 70 83 71 84 72 85 73 86
REMARK SMILES IDX 49 87 50 88 59 89 51 90 52 91 58 92 60 93 53 94 54 95 55 96
REMARK SMILES IDX 56 97 57 98
REMARK H PARENT 9 17 5 23 81 48 47 59
REMARK Flexibility Score: inf
ROOT
ATOM      1  O   UNL     1       6.486   0.408   2.837  1.00  0.00    -0.374 OA
ENDROOT
BRANCH   1   2
ATOM      2  C   UNL     1       5.805   1.085   1.786  1.00  0.00     0.202 C 
BRANCH   2   3
ATOM      3  C   UNL     1       4.300   0.857   1.574  1.00  0.00     0.261 C 
BRANCH   3   4
ATOM      4  O   UNL     1       3.412   1.250   2.637  1.00  0.00    -0.461 OA
BRANCH   4   5
ATOM      5  C   UNL     1       3.060   0.212   3.444  1.00  0.00     0.332 C 
ATOM      6  O   UNL     1       3.712  -0.831   3.509  1.00  0.00    -0.249 OA
BRANCH   5   7
ATOM      7  C   UNL     1       1.786   0.473   4.305  1.00  0.00     0.141 C 
ATOM      8  C   UNL     1       0.527   0.800   3.463  1.00  0.00     0.041 C 
ATOM      9  C   UNL     1       1.955   1.716   5.256  1.00  0.00     0.023 C 
ATOM     10  C   UNL     1      -0.729   0.897   4.325  1.00  0.00     0.003 C 
ATOM     11  C   UNL     1       0.696   1.937   6.134  1.00  0.00     0.006 C 
ATOM     12  C   UNL     1       3.201   1.702   6.149  1.00  0.00     0.011 C 
ATOM     13  C   UNL     1      -0.597   2.029   5.328  1.00  0.00     0.000 C 
BRANCH   7  14
ATOM     14  N   UNL     1       1.628  -0.767   5.129  1.00  0.00    -0.333 N 
ATOM     15  C   UNL     1       1.426  -2.085   4.762  1.00  0.00     0.289 C 
ATOM     16  O   UNL     1       1.412  -2.915   5.676  1.00  0.00    -0.266 OA
ATOM     17  H   UNL     1       1.677  -0.619   6.101  1.00  0.00     0.165 HD
BRANCH  15  18
ATOM     18  C   UNL     1       1.213  -2.483   3.387  1.00  0.00     0.214 A 
ATOM     19  C   UNL     1       0.810  -2.553   1.305  1.00  0.00     0.151 A 
ATOM     20  N   UNL     1       0.575  -3.813   1.694  1.00  0.00    -0.158 NA
ATOM     21  N   UNL     1       1.264  -1.738   2.302  1.00  0.00    -0.207 NA
ATOM     22  N   UNL     1       0.886  -3.751   3.004  1.00  0.00    -0.255 N 
ATOM     23  H   UNL     1       0.878  -4.526   3.611  1.00  0.00     0.192 HD
BRANCH  19  24
ATOM     24  C   UNL     1       0.492  -2.044  -0.059  1.00  0.00     0.076 C 
ATOM     25  C   UNL     1       0.900  -0.594  -0.294  1.00  0.00     0.012 C 
ENDBRANCH  19  24
ENDBRANCH  15  18
ENDBRANCH   7  14
ENDBRANCH   5   7
ENDBRANCH   4   5
ENDBRANCH   3   4
ENDBRANCH   2   3
ENDBRANCH   1   2
BRANCH   1  26
ATOM     26  C   UNL     1       6.246   0.811   4.180  1.00  0.00     0.202 C 
BRANCH  26  27
ATOM     27  C   UNL     1       6.696   2.213   4.600  1.00  0.00     0.261 C 
BRANCH  27  28
ATOM     28  O   UNL     1       6.082   3.243   3.812  1.00  0.00    -0.460 OA
BRANCH  28  29
ATOM     29  C   UNL     1       6.961   4.113   3.261  1.00  0.00     0.338 C 
ATOM     30  O   UNL     1       8.165   4.199   3.504  1.00  0.00    -0.246 OA
BRANCH  29  31
ATOM     31  C   UNL     1       6.336   4.863   2.166  1.00  0.00     0.060 A 
ATOM     32  C   UNL     1       6.814   4.637   0.870  1.00  0.00     0.016 A 
ATOM     33  C   UNL     1       5.393   5.859   2.414  1.00  0.00     0.016 A 
ATOM     34  C   UNL     1       6.389   5.444  -0.182  1.00  0.00     0.010 A 
ATOM     35  C   UNL     1       4.976   6.680   1.361  1.00  0.00     0.010 A 
ATOM     36  C   UNL     1       5.502   6.499   0.068  1.00  0.00    -0.014 A 
BRANCH  36  37
ATOM     37  C   UNL     1       5.240   7.496  -0.996  1.00  0.00     0.031 A 
ATOM     38  C   UNL     1       6.017   8.784  -1.000  1.00  0.00     0.074 A 
ATOM     39  C   UNL     1       4.335   7.245  -1.959  1.00  0.00     0.049 A 
ATOM     40  N   UNL     1       5.920   9.806  -1.809  1.00  0.00    -0.248 NA
ATOM     41  C   UNL     1       7.040   8.938   0.047  1.00  0.00     0.031 C 
ATOM     42  C   UNL     1       3.553   6.017  -2.079  1.00  0.00     0.029 A 
ATOM     43  N   UNL     1       3.915   8.019  -3.011  1.00  0.00    -0.354 N 
ATOM     44  C   UNL     1       6.860  10.730  -1.366  1.00  0.00     0.074 A 
ATOM     45  C   UNL     1       7.504  10.154  -0.205  1.00  0.00     0.031 C 
ATOM     46  C   UNL     1       2.728   6.128  -3.134  1.00  0.00     0.029 A 
ATOM     47  C   UNL     1       2.903   7.446  -3.743  1.00  0.00     0.049 A 
ATOM     48  H   UNL     1       4.302   8.899  -3.222  1.00  0.00     0.167 HD
ATOM     49  C   UNL     1       7.160  11.944  -1.885  1.00  0.00     0.037 A 
ATOM     50  C   UNL     1       2.179   7.943  -4.765  1.00  0.00     0.037 A 
ATOM     51  C   UNL     1       6.516  12.508  -3.042  1.00  0.00     0.049 A 
ATOM     52  C   UNL     1       2.477   9.326  -5.278  1.00  0.00     0.074 A 
ATOM     53  C   UNL     1       6.781  13.710  -3.675  1.00  0.00     0.029 A 
ATOM     54  N   UNL     1       5.466  11.917  -3.729  1.00  0.00    -0.354 N 
ATOM     55  N   UNL     1       3.397  10.171  -4.878  1.00  0.00    -0.248 NA
ATOM     56  C   UNL     1       1.637   9.826  -6.375  1.00  0.00     0.031 C 
ATOM     57  C   UNL     1       5.856  13.869  -4.712  1.00  0.00     0.029 A 
ATOM     58  C   UNL     1       5.043  12.747  -4.754  1.00  0.00     0.049 A 
ATOM     59  H   UNL     1       5.079  11.036  -3.520  1.00  0.00     0.167 HD
ATOM     60  C   UNL     1       3.251  11.300  -5.677  1.00  0.00     0.074 A 
ATOM     61  C   UNL     1       2.166  11.023  -6.596  1.00  0.00     0.031 C 
ATOM     62  C   UNL     1       3.950  12.462  -5.651  1.00  0.00     0.037 A 
BRANCH  49  63
ATOM     63  C   UNL     1       8.209  12.760  -1.183  1.00  0.00     0.058 A 
ATOM     64  C   UNL     1       9.572  12.438  -1.258  1.00  0.00     0.135 A 
ATOM     65  C   UNL     1       7.844  13.897  -0.443  1.00  0.00     0.135 A 
ATOM     66  F   UNL     1       9.974  11.353  -1.939  1.00  0.00    -0.206 F 
ATOM     67  C   UNL     1      10.536  13.198  -0.602  1.00  0.00     0.059 A 
ATOM     68  C   UNL     1       8.792  14.685   0.202  1.00  0.00     0.059 A 
ATOM     69  F   UNL     1       6.552  14.248  -0.337  1.00  0.00    -0.206 F 
ATOM     70  C   UNL     1      10.135  14.318   0.129  1.00  0.00     0.060 A 
BRANCH  70  71
ATOM     71  S   UNL     1      11.395  15.291   0.982  1.00  0.00     0.124 S 
ATOM     72  O   UNL     1      11.725  14.418   2.104  1.00  0.00    -0.237 OA
ATOM     73  O   UNL     1      12.429  15.428  -0.039  1.00  0.00    -0.237 OA
ATOM     74  O   UNL     1      10.695  16.523   1.330  1.00  0.00    -0.744 OA
ENDBRANCH  70  71
ENDBRANCH  49  63
BRANCH  50  75
ATOM     75  C   UNL     1       1.073   7.133  -5.340  1.00  0.00     0.058 A 
ATOM     76  C   UNL     1       1.175   6.564  -6.616  1.00  0.00     0.135 A 
ATOM     77  C   UNL     1      -0.098   6.889  -4.604  1.00  0.00     0.135 A 
ATOM     78  F   UNL     1       2.269   6.779  -7.362  1.00  0.00    -0.206 F 
ATOM     79  C   UNL     1       0.155   5.778  -7.145  1.00  0.00     0.059 A 
ATOM     80  C   UNL     1      -1.121   6.090  -5.102  1.00  0.00     0.059 A 
ATOM     81  F   UNL     1      -0.239   7.406  -3.374  1.00  0.00    -0.206 F 
ATOM     82  C   UNL     1      -0.987   5.541  -6.376  1.00  0.00     0.060 A 
BRANCH  82  83
ATOM     83  S   UNL     1      -2.270   4.456  -7.038  1.00  0.00     0.124 S 
ATOM     84  O   UNL     1      -2.899   5.317  -8.033  1.00  0.00    -0.237 OA
ATOM     85  O   UNL     1      -1.488   3.340  -7.560  1.00  0.00    -0.237 OA
ATOM     86  O   UNL     1      -3.083   4.146  -5.865  1.00  0.00    -0.744 OA
ENDBRANCH  82  83
ENDBRANCH  50  75
BRANCH  62  87
ATOM     87  C   UNL     1       3.564  13.529  -6.636  1.00  0.00     0.058 A 
ATOM     88  C   UNL     1       2.406  14.301  -6.458  1.00  0.00     0.135 A 
ATOM     89  C   UNL     1       4.395  13.833  -7.727  1.00  0.00     0.135 A 
ATOM     90  F   UNL     1       1.573  14.043  -5.436  1.00  0.00    -0.206 F 
ATOM     91  C   UNL     1       2.080  15.334  -7.330  1.00  0.00     0.059 A 
ATOM     92  C   UNL     1       4.100  14.877  -8.599  1.00  0.00     0.059 A 
ATOM     93  F   UNL     1       5.518  13.130  -7.937  1.00  0.00    -0.206 F 
ATOM     94  C   UNL     1       2.937  15.618  -8.395  1.00  0.00     0.060 A 
BRANCH  94  95
ATOM     95  S   UNL     1       2.531  16.998  -9.488  1.00  0.00     0.124 S 
ATOM     96  O   UNL     1       1.432  16.441 -10.269  1.00  0.00    -0.237 OA
ATOM     97  O   UNL     1       2.168  18.049  -8.543  1.00  0.00    -0.237 OA
ATOM     98  O   UNL     1       3.772  17.225 -10.223  1.00  0.00    -0.744 OA
ENDBRANCH  94  95
ENDBRANCH  62  87
ENDBRANCH  36  37
ENDBRANCH  29  31
ENDBRANCH  28  29
ENDBRANCH  27  28
ENDBRANCH  26  27
ENDBRANCH   1  26
TORSDOF 20
