REMARK SMILES O=C(OCCOCCOC(=O)C1CCN(S(=O)(=O)c2ccc3nc(O)sc3c2)CC1)c1ccc(-c2c3nc(c(-c4c(F)cc(S(=O)(=O)[O-])cc4F)c4ccc([nH]4)c(-c4c(F)cc(S(=O)(=O)[O-])cc4F)c4nc(c(-c5c(F)cc(S(=O)(=O)[O-])cc5F)c5ccc2[nH]5)C=C4)C=C3)cc1
REMARK SMILES IDX 6 1 5 2 4 3 3 4 2 5 1 6 31 7 32 8 96 9 33 10 95 11 34 12
REMARK SMILES IDX 35 13 36 14 89 15 37 16 94 17 88 18 90 19 38 20 93 21 87 22
REMARK SMILES IDX 86 23 39 25 73 26 52 27 72 28 53 29 56 30 71 31 91 32 54 33
REMARK SMILES IDX 55 34 70 36 92 37 57 38 40 39 41 40 50 41 42 42 43 43 49 44
REMARK SMILES IDX 51 45 44 46 45 47 46 48 47 49 48 50 74 51 75 52 84 53 76 54
REMARK SMILES IDX 77 55 83 56 85 57 78 58 79 59 80 60 81 61 82 62 58 63 59 64
REMARK SMILES IDX 68 65 60 66 61 67 67 68 69 69 62 70 63 71 64 72 65 73 66 74
REMARK SMILES IDX 7 75 8 76 9 77 10 78 11 79 12 80 13 81 30 82 14 83 29 84
REMARK SMILES IDX 15 85 16 86 17 87 18 88 19 89 20 90 28 91 21 92 27 93 22 94
REMARK SMILES IDX 26 95 23 96 24 97 25 98
REMARK H PARENT 90 24 56 35 25 99
REMARK Flexibility Score: inf
ROOT
ATOM      1  O   UNL     1       3.365  -0.010  -1.201  1.00  0.00    -0.374 OA
ENDROOT
BRANCH   1   2
ATOM      2  C   UNL     1       4.134  -0.759  -0.276  1.00  0.00     0.202 C 
BRANCH   2   3
ATOM      3  C   UNL     1       4.224  -0.060   1.074  1.00  0.00     0.261 C 
BRANCH   3   4
ATOM      4  O   UNL     1       2.948   0.382   1.562  1.00  0.00    -0.460 OA
BRANCH   4   5
ATOM      5  C   UNL     1       2.282   1.544   1.354  1.00  0.00     0.338 C 
ATOM      6  O   UNL     1       1.305   1.753   2.077  1.00  0.00    -0.246 OA
BRANCH   5   7
ATOM      7  C   UNL     1       2.546   2.544   0.257  1.00  0.00     0.060 A 
ATOM      8  C   UNL     1       1.529   3.492   0.034  1.00  0.00     0.016 A 
ATOM      9  C   UNL     1       3.640   2.579  -0.606  1.00  0.00     0.016 A 
ATOM     10  C   UNL     1       1.565   4.373  -1.052  1.00  0.00     0.010 A 
ATOM     11  C   UNL     1       3.641   3.399  -1.742  1.00  0.00     0.010 A 
ATOM     12  C   UNL     1       2.611   4.315  -1.973  1.00  0.00    -0.014 A 
BRANCH  12  13
ATOM     13  C   UNL     1       2.694   5.339  -3.042  1.00  0.00     0.031 A 
ATOM     14  C   UNL     1       4.092   5.638  -3.520  1.00  0.00     0.074 A 
ATOM     15  C   UNL     1       1.655   5.508  -3.888  1.00  0.00     0.049 A 
ATOM     16  N   UNL     1       4.742   5.024  -4.465  1.00  0.00    -0.248 NA
ATOM     17  C   UNL     1       4.940   6.505  -2.693  1.00  0.00     0.031 C 
ATOM     18  C   UNL     1       1.171   4.493  -4.826  1.00  0.00     0.029 A 
ATOM     19  N   UNL     1       1.075   6.685  -4.320  1.00  0.00    -0.354 N 
ATOM     20  C   UNL     1       6.078   5.406  -4.359  1.00  0.00     0.074 A 
ATOM     21  C   UNL     1       6.152   6.301  -3.227  1.00  0.00     0.031 C 
ATOM     22  C   UNL     1       0.495   5.111  -5.817  1.00  0.00     0.029 A 
ATOM     23  C   UNL     1       0.471   6.554  -5.569  1.00  0.00     0.049 A 
ATOM     24  H   UNL     1       1.087   7.523  -3.803  1.00  0.00     0.167 HD
ATOM     25  C   UNL     1       7.061   4.998  -5.207  1.00  0.00     0.037 A 
ATOM     26  C   UNL     1       0.481   7.536  -6.520  1.00  0.00     0.037 A 
ATOM     27  C   UNL     1       6.623   4.212  -6.320  1.00  0.00     0.049 A 
ATOM     28  C   UNL     1       1.769   7.199  -7.242  1.00  0.00     0.074 A 
ATOM     29  C   UNL     1       6.593   2.891  -6.704  1.00  0.00     0.029 A 
ATOM     30  N   UNL     1       6.048   4.888  -7.371  1.00  0.00    -0.354 N 
ATOM     31  N   UNL     1       1.957   6.233  -8.105  1.00  0.00    -0.248 NA
ATOM     32  C   UNL     1       3.001   7.731  -6.654  1.00  0.00     0.031 C 
ATOM     33  C   UNL     1       5.586   2.816  -7.720  1.00  0.00     0.029 A 
ATOM     34  C   UNL     1       5.047   4.094  -7.867  1.00  0.00     0.049 A 
ATOM     35  H   UNL     1       6.307   5.777  -7.705  1.00  0.00     0.167 HD
ATOM     36  C   UNL     1       3.291   5.841  -7.940  1.00  0.00     0.074 A 
ATOM     37  C   UNL     1       3.883   6.831  -7.064  1.00  0.00     0.031 C 
ATOM     38  C   UNL     1       3.796   4.639  -8.355  1.00  0.00     0.037 A 
BRANCH  25  39
ATOM     39  C   UNL     1       8.455   5.504  -5.200  1.00  0.00     0.058 A 
ATOM     40  C   UNL     1       8.797   6.492  -6.138  1.00  0.00     0.135 A 
ATOM     41  C   UNL     1       9.491   4.899  -4.478  1.00  0.00     0.135 A 
ATOM     42  F   UNL     1       7.833   7.101  -6.849  1.00  0.00    -0.206 F 
ATOM     43  C   UNL     1      10.117   6.822  -6.407  1.00  0.00     0.059 A 
ATOM     44  C   UNL     1      10.828   5.225  -4.721  1.00  0.00     0.059 A 
ATOM     45  F   UNL     1       9.220   3.950  -3.567  1.00  0.00    -0.206 F 
ATOM     46  C   UNL     1      11.130   6.166  -5.709  1.00  0.00     0.060 A 
BRANCH  46  47
ATOM     47  S   UNL     1      12.839   6.537  -6.162  1.00  0.00     0.124 S 
ATOM     48  O   UNL     1      12.891   6.079  -7.546  1.00  0.00    -0.237 OA
ATOM     49  O   UNL     1      12.895   7.982  -5.968  1.00  0.00    -0.237 OA
ATOM     50  O   UNL     1      13.621   5.750  -5.212  1.00  0.00    -0.744 OA
ENDBRANCH  46  47
ENDBRANCH  25  39
BRANCH  26  51
ATOM     51  C   UNL     1       0.119   8.909  -6.026  1.00  0.00     0.058 A 
ATOM     52  C   UNL     1      -1.055   9.037  -5.253  1.00  0.00     0.135 A 
ATOM     53  C   UNL     1       0.886  10.075  -6.173  1.00  0.00     0.135 A 
ATOM     54  F   UNL     1      -1.933   8.023  -5.183  1.00  0.00    -0.206 F 
ATOM     55  C   UNL     1      -1.322  10.165  -4.486  1.00  0.00     0.059 A 
ATOM     56  C   UNL     1       0.653  11.214  -5.398  1.00  0.00     0.059 A 
ATOM     57  F   UNL     1       1.913  10.125  -7.033  1.00  0.00    -0.206 F 
ATOM     58  C   UNL     1      -0.419  11.221  -4.511  1.00  0.00     0.060 A 
BRANCH  58  59
ATOM     59  S   UNL     1      -0.617  12.537  -3.292  1.00  0.00     0.124 S 
ATOM     60  O   UNL     1      -1.950  13.043  -3.600  1.00  0.00    -0.237 OA
ATOM     61  O   UNL     1      -0.491  11.792  -2.042  1.00  0.00    -0.237 OA
ATOM     62  O   UNL     1       0.486  13.444  -3.590  1.00  0.00    -0.744 OA
ENDBRANCH  58  59
ENDBRANCH  26  51
BRANCH  38  63
ATOM     63  C   UNL     1       2.887   3.791  -9.182  1.00  0.00     0.058 A 
ATOM     64  C   UNL     1       2.514   4.206 -10.467  1.00  0.00     0.135 A 
ATOM     65  C   UNL     1       2.426   2.537  -8.742  1.00  0.00     0.135 A 
ATOM     66  F   UNL     1       2.940   5.385 -10.950  1.00  0.00    -0.206 F 
ATOM     67  C   UNL     1       1.732   3.405 -11.292  1.00  0.00     0.059 A 
ATOM     68  C   UNL     1       1.672   1.703  -9.565  1.00  0.00     0.059 A 
ATOM     69  F   UNL     1       2.719   2.089  -7.510  1.00  0.00    -0.206 F 
ATOM     70  C   UNL     1       1.329   2.148 -10.839  1.00  0.00     0.060 A 
BRANCH  70  71
ATOM     71  S   UNL     1       0.399   1.089 -11.966  1.00  0.00     0.124 S 
ATOM     72  O   UNL     1      -0.883   1.782 -12.047  1.00  0.00    -0.237 OA
ATOM     73  O   UNL     1       1.216   1.129 -13.176  1.00  0.00    -0.237 OA
ATOM     74  O   UNL     1       0.369  -0.201 -11.283  1.00  0.00    -0.744 OA
ENDBRANCH  70  71
ENDBRANCH  38  63
ENDBRANCH  12  13
ENDBRANCH   5   7
ENDBRANCH   4   5
ENDBRANCH   3   4
ENDBRANCH   2   3
ENDBRANCH   1   2
BRANCH   1  75
ATOM     75  C   UNL     1       2.054  -0.496  -1.477  1.00  0.00     0.202 C 
BRANCH  75  76
ATOM     76  C   UNL     1       2.036  -1.152  -2.854  1.00  0.00     0.261 C 
BRANCH  76  77
ATOM     77  O   UNL     1       3.033  -2.190  -2.882  1.00  0.00    -0.463 OA
BRANCH  77  78
ATOM     78  C   UNL     1       4.267  -1.760  -3.266  1.00  0.00     0.309 C 
ATOM     79  O   UNL     1       4.524  -0.652  -3.716  1.00  0.00    -0.252 OA
BRANCH  78  80
ATOM     80  C   UNL     1       5.347  -2.789  -2.965  1.00  0.00     0.102 C 
ATOM     81  C   UNL     1       6.486  -2.609  -3.963  1.00  0.00     0.032 C 
ATOM     82  C   UNL     1       4.879  -4.235  -3.032  1.00  0.00     0.032 C 
ATOM     83  C   UNL     1       5.975  -2.850  -5.377  1.00  0.00     0.103 C 
ATOM     84  C   UNL     1       4.415  -4.611  -4.430  1.00  0.00     0.103 C 
ATOM     85  N   UNL     1       5.376  -4.210  -5.497  1.00  0.00    -0.198 NA
BRANCH  85  86
ATOM     86  S   UNL     1       4.779  -4.503  -7.094  1.00  0.00     0.243 S 
ATOM     87  O   UNL     1       3.329  -4.585  -7.043  1.00  0.00    -0.207 OA
ATOM     88  O   UNL     1       5.473  -3.648  -8.020  1.00  0.00    -0.207 OA
BRANCH  86  89
ATOM     89  C   UNL     1       5.378  -6.156  -7.368  1.00  0.00     0.084 A 
ATOM     90  C   UNL     1       4.713  -7.237  -6.792  1.00  0.00     0.024 A 
ATOM     91  C   UNL     1       6.483  -6.332  -8.210  1.00  0.00     0.043 A 
ATOM     92  C   UNL     1       5.173  -8.536  -7.014  1.00  0.00     0.031 A 
ATOM     93  C   UNL     1       6.908  -7.644  -8.449  1.00  0.00     0.059 A 
ATOM     94  C   UNL     1       6.279  -8.749  -7.863  1.00  0.00     0.085 A 
ATOM     95  S   UNL     1       8.197  -8.201  -9.449  1.00  0.00    -0.077 S 
ATOM     96  N   UNL     1       6.814  -9.983  -8.199  1.00  0.00    -0.203 NA
ATOM     97  C   UNL     1       7.800  -9.794  -9.033  1.00  0.00     0.271 A 
BRANCH  97  98
ATOM     98  O   UNL     1       8.436 -10.846  -9.511  1.00  0.00    -0.486 OA
ATOM     99  H   UNL     1       8.178 -11.708  -9.250  1.00  0.00     0.296 HD
ENDBRANCH  97  98
ENDBRANCH  86  89
ENDBRANCH  85  86
ENDBRANCH  78  80
ENDBRANCH  77  78
ENDBRANCH  76  77
ENDBRANCH  75  76
ENDBRANCH   1  75
TORSDOF 20
