REMARK SMILES CC[NH2+][C@@]1(C(=O)OCCOCCOC(=O)c2ccc(-c3c4nc(c(-c5c(F)cc(S(=O)(=O)[O-])cc5F)c5ccc([nH]5)c(-c5c(F)cc(S(=O)(=O)[O-])cc5F)c5nc(c(-c6c(F)cc(S(=O)(=O)[O-])cc6F)c6ccc3[nH]6)C=C5)C=C4)cc2)CC[C@@H](n2cnc3ccccc32)C1
REMARK SMILES IDX 11 1 10 2 9 3 8 4 7 5 5 6 6 7 4 8 82 9 94 10 83 11 84 12
REMARK SMILES IDX 3 13 2 16 1 17 85 18 86 19 93 20 87 21 88 22 92 23 89 24
REMARK SMILES IDX 91 25 90 26 12 27 13 28 14 29 15 30 16 31 17 32 81 33 18 34
REMARK SMILES IDX 80 35 19 36 20 37 21 38 74 39 22 40 79 41 73 42 75 43 23 44
REMARK SMILES IDX 78 45 72 46 71 47 24 49 58 50 37 51 57 52 38 53 41 54 56 55
REMARK SMILES IDX 76 56 39 57 40 58 55 60 77 61 42 62 25 63 26 64 35 65 27 66
REMARK SMILES IDX 28 67 34 68 36 69 29 70 30 71 31 72 32 73 33 74 59 75 60 76
REMARK SMILES IDX 69 77 61 78 62 79 68 80 70 81 63 82 64 83 65 84 66 85 67 86
REMARK SMILES IDX 43 87 44 88 53 89 45 90 46 91 52 92 54 93 47 94 48 95 49 96
REMARK SMILES IDX 50 97 51 98
REMARK H PARENT 3 14 3 15 75 48 41 59
REMARK Flexibility Score: inf
ROOT
ATOM      1  C   UNL     1      -1.905  -1.914  -4.092  1.00  0.00     0.202 C 
ENDROOT
BRANCH   1   2
ATOM      2  O   UNL     1      -3.264  -1.530  -3.881  1.00  0.00    -0.374 OA
BRANCH   2   3
ATOM      3  C   UNL     1      -3.755  -0.446  -4.674  1.00  0.00     0.202 C 
BRANCH   3   4
ATOM      4  C   UNL     1      -3.282   0.968  -4.318  1.00  0.00     0.261 C 
BRANCH   4   5
ATOM      5  O   UNL     1      -1.852   0.969  -4.267  1.00  0.00    -0.459 OA
BRANCH   5   6
ATOM      6  C   UNL     1      -1.208   1.881  -3.484  1.00  0.00     0.368 C 
ATOM      7  O   UNL     1      -1.816   2.808  -2.956  1.00  0.00    -0.245 OA
BRANCH   6   8
ATOM      8  C   UNL     1       0.585   1.563  -3.486  1.00  0.00     0.196 C 
ATOM      9  C   UNL     1       0.833   3.016  -4.532  1.00  0.00     0.083 C 
ATOM     10  C   UNL     1       0.522   0.648  -5.098  1.00  0.00     0.106 C 
ATOM     11  C   UNL     1       1.437   2.603  -5.899  1.00  0.00     0.033 C 
ATOM     12  C   UNL     1       1.752   1.107  -5.832  1.00  0.00     0.096 C 
BRANCH   8  13
ATOM     13  N   UNL     1       1.701   0.961  -1.822  1.00  0.00    -0.332 N 
ATOM     14  H   UNL     1       1.964   0.015  -2.096  1.00  0.00     0.347 HD
ATOM     15  H   UNL     1       2.130   1.882  -1.732  1.00  0.00     0.347 HD
BRANCH  13  16
ATOM     16  C   UNL     1       1.589   0.802  -0.259  1.00  0.00     0.257 C 
ATOM     17  C   UNL     1       2.477  -0.343   0.243  1.00  0.00     0.071 C 
ENDBRANCH  13  16
ENDBRANCH   8  13
BRANCH  12  18
ATOM     18  N   UNL     1       2.867   0.720  -4.962  1.00  0.00    -0.327 N 
ATOM     19  C   UNL     1       3.967   1.570  -4.827  1.00  0.00     0.200 A 
ATOM     20  C   UNL     1       2.422   0.404  -3.660  1.00  0.00     0.068 A 
ATOM     21  N   UNL     1       3.812   2.505  -3.898  1.00  0.00    -0.237 NA
ATOM     22  C   UNL     1       2.714   2.097  -3.193  1.00  0.00     0.088 A 
ATOM     23  C   UNL     1       0.975  -0.489  -2.975  1.00  0.00     0.028 A 
ATOM     24  C   UNL     1       1.552   2.954  -2.100  1.00  0.00     0.030 A 
ATOM     25  C   UNL     1      -0.222   0.378  -1.926  1.00  0.00     0.002 A 
ATOM     26  C   UNL     1       0.072   2.127  -1.494  1.00  0.00     0.002 A 
ENDBRANCH  12  18
ENDBRANCH   6   8
ENDBRANCH   5   6
ENDBRANCH   4   5
ENDBRANCH   3   4
ENDBRANCH   2   3
ENDBRANCH   1   2
BRANCH   1  27
ATOM     27  C   UNL     1      -1.539  -2.695  -5.363  1.00  0.00     0.261 C 
BRANCH  27  28
ATOM     28  O   UNL     1      -1.751  -1.934  -6.566  1.00  0.00    -0.460 OA
BRANCH  28  29
ATOM     29  C   UNL     1      -2.794  -2.360  -7.325  1.00  0.00     0.338 C 
ATOM     30  O   UNL     1      -3.476  -3.354  -7.146  1.00  0.00    -0.246 OA
BRANCH  29  31
ATOM     31  C   UNL     1      -3.157  -1.303  -8.288  1.00  0.00     0.060 A 
ATOM     32  C   UNL     1      -4.428  -0.725  -8.160  1.00  0.00     0.016 A 
ATOM     33  C   UNL     1      -2.293  -0.901  -9.306  1.00  0.00     0.016 A 
ATOM     34  C   UNL     1      -4.843   0.262  -9.049  1.00  0.00     0.010 A 
ATOM     35  C   UNL     1      -2.724   0.068 -10.217  1.00  0.00     0.010 A 
ATOM     36  C   UNL     1      -4.005   0.643 -10.101  1.00  0.00    -0.014 A 
BRANCH  36  37
ATOM     37  C   UNL     1      -4.508   1.559 -11.150  1.00  0.00     0.031 A 
ATOM     38  C   UNL     1      -4.965   0.979 -12.460  1.00  0.00     0.074 A 
ATOM     39  C   UNL     1      -4.551   2.887 -10.935  1.00  0.00     0.049 A 
ATOM     40  N   UNL     1      -5.330   1.594 -13.552  1.00  0.00    -0.248 NA
ATOM     41  C   UNL     1      -5.014  -0.490 -12.550  1.00  0.00     0.031 C 
ATOM     42  C   UNL     1      -4.193   3.552  -9.682  1.00  0.00     0.029 A 
ATOM     43  N   UNL     1      -4.896   3.917 -11.774  1.00  0.00    -0.354 N 
ATOM     44  C   UNL     1      -5.623   0.593 -14.470  1.00  0.00     0.074 A 
ATOM     45  C   UNL     1      -5.393  -0.672 -13.808  1.00  0.00     0.031 C 
ATOM     46  C   UNL     1      -4.311   4.881  -9.844  1.00  0.00     0.029 A 
ATOM     47  C   UNL     1      -4.704   5.163 -11.223  1.00  0.00     0.049 A 
ATOM     48  H   UNL     1      -5.248   3.778 -12.683  1.00  0.00     0.167 HD
ATOM     49  C   UNL     1      -6.039   0.725 -15.750  1.00  0.00     0.037 A 
ATOM     50  C   UNL     1      -4.790   6.386 -11.783  1.00  0.00     0.037 A 
ATOM     51  C   UNL     1      -6.281   1.993 -16.388  1.00  0.00     0.049 A 
ATOM     52  C   UNL     1      -5.175   6.498 -13.239  1.00  0.00     0.074 A 
ATOM     53  C   UNL     1      -6.758   2.231 -17.665  1.00  0.00     0.029 A 
ATOM     54  N   UNL     1      -6.049   3.231 -15.809  1.00  0.00    -0.354 N 
ATOM     55  N   UNL     1      -5.502   5.546 -14.082  1.00  0.00    -0.248 NA
ATOM     56  C   UNL     1      -5.194   7.846 -13.825  1.00  0.00     0.031 C 
ATOM     57  C   UNL     1      -6.738   3.610 -17.886  1.00  0.00     0.029 A 
ATOM     58  C   UNL     1      -6.320   4.236 -16.722  1.00  0.00     0.049 A 
ATOM     59  H   UNL     1      -5.737   3.375 -14.886  1.00  0.00     0.167 HD
ATOM     60  C   UNL     1      -5.792   6.185 -15.284  1.00  0.00     0.074 A 
ATOM     61  C   UNL     1      -5.621   7.603 -15.056  1.00  0.00     0.031 C 
ATOM     62  C   UNL     1      -6.160   5.646 -16.473  1.00  0.00     0.037 A 
BRANCH  49  63
ATOM     63  C   UNL     1      -6.224  -0.517 -16.577  1.00  0.00     0.058 A 
ATOM     64  C   UNL     1      -7.301  -1.393 -16.381  1.00  0.00     0.135 A 
ATOM     65  C   UNL     1      -5.357  -0.773 -17.654  1.00  0.00     0.135 A 
ATOM     66  F   UNL     1      -8.147  -1.207 -15.355  1.00  0.00    -0.206 F 
ATOM     67  C   UNL     1      -7.516  -2.478 -17.226  1.00  0.00     0.059 A 
ATOM     68  C   UNL     1      -5.569  -1.835 -18.527  1.00  0.00     0.059 A 
ATOM     69  F   UNL     1      -4.305   0.029 -17.880  1.00  0.00    -0.206 F 
ATOM     70  C   UNL     1      -6.652  -2.683 -18.303  1.00  0.00     0.060 A 
BRANCH  70  71
ATOM     71  S   UNL     1      -6.981  -4.059 -19.423  1.00  0.00     0.124 S 
ATOM     72  O   UNL     1      -6.686  -5.207 -18.571  1.00  0.00    -0.237 OA
ATOM     73  O   UNL     1      -8.389  -3.860 -19.751  1.00  0.00    -0.237 OA
ATOM     74  O   UNL     1      -6.046  -3.838 -20.522  1.00  0.00    -0.744 OA
ENDBRANCH  70  71
ENDBRANCH  49  63
BRANCH  50  75
ATOM     75  C   UNL     1      -4.460   7.608 -10.997  1.00  0.00     0.058 A 
ATOM     76  C   UNL     1      -5.429   8.589 -10.740  1.00  0.00     0.135 A 
ATOM     77  C   UNL     1      -3.155   7.846 -10.533  1.00  0.00     0.135 A 
ATOM     78  F   UNL     1      -6.688   8.416 -11.170  1.00  0.00    -0.206 F 
ATOM     79  C   UNL     1      -5.112   9.777 -10.089  1.00  0.00     0.059 A 
ATOM     80  C   UNL     1      -2.821   9.010  -9.848  1.00  0.00     0.059 A 
ATOM     81  F   UNL     1      -2.189   6.938 -10.741  1.00  0.00    -0.206 F 
ATOM     82  C   UNL     1      -3.802   9.979  -9.649  1.00  0.00     0.060 A 
BRANCH  82  83
ATOM     83  S   UNL     1      -3.402  11.525  -8.807  1.00  0.00     0.124 S 
ATOM     84  O   UNL     1      -3.469  12.482  -9.906  1.00  0.00    -0.237 OA
ATOM     85  O   UNL     1      -4.467  11.616  -7.814  1.00  0.00    -0.237 OA
ATOM     86  O   UNL     1      -2.068  11.277  -8.268  1.00  0.00    -0.744 OA
ENDBRANCH  82  83
ENDBRANCH  50  75
BRANCH  62  87
ATOM     87  C   UNL     1      -6.435   6.586 -17.616  1.00  0.00     0.058 A 
ATOM     88  C   UNL     1      -5.401   7.271 -18.271  1.00  0.00     0.135 A 
ATOM     89  C   UNL     1      -7.739   6.733 -18.118  1.00  0.00     0.135 A 
ATOM     90  F   UNL     1      -4.138   7.175 -17.825  1.00  0.00    -0.206 F 
ATOM     91  C   UNL     1      -5.650   8.075 -19.378  1.00  0.00     0.059 A 
ATOM     92  C   UNL     1      -8.006   7.504 -19.245  1.00  0.00     0.059 A 
ATOM     93  F   UNL     1      -8.765   6.093 -17.534  1.00  0.00    -0.206 F 
ATOM     94  C   UNL     1      -6.954   8.175 -19.865  1.00  0.00     0.060 A 
BRANCH  94  95
ATOM     95  S   UNL     1      -7.247   9.164 -21.347  1.00  0.00     0.124 S 
ATOM     96  O   UNL     1      -7.022  10.517 -20.849  1.00  0.00    -0.237 OA
ATOM     97  O   UNL     1      -6.236   8.650 -22.266  1.00  0.00    -0.237 OA
ATOM     98  O   UNL     1      -8.627   8.848 -21.701  1.00  0.00    -0.744 OA
ENDBRANCH  94  95
ENDBRANCH  62  87
ENDBRANCH  36  37
ENDBRANCH  29  31
ENDBRANCH  28  29
ENDBRANCH  27  28
ENDBRANCH   1  27
TORSDOF 20
