REMARK SMILES O=C(C[C@@H]1C(=O)NCCN1C(=O)OCC1c2ccccc2-c2ccccc21)OCCOCCOC(=O)c1ccc(-c2c3nc(c(-c4c(F)cc(S(=O)(=O)[O-])cc4F)c4ccc([nH]4)c(-c4c(F)cc(S(=O)(=O)[O-])cc4F)c4nc(c(-c5c(F)cc(S(=O)(=O)[O-])cc5F)c5ccc2[nH]5)C=C4)C=C3)cc1
REMARK SMILES IDX 30 1 29 2 28 3 2 4 1 5 3 6 4 7 5 8 10 9 6 10 7 11 9 12 8 13
REMARK SMILES IDX 11 15 12 16 13 17 14 18 15 19 16 20 27 21 17 22 21 23 22 24
REMARK SMILES IDX 26 25 18 26 20 27 23 28 25 29 19 30 24 31 31 32 32 33 33 34
REMARK SMILES IDX 34 35 35 36 36 37 37 38 38 39 102 40 39 41 101 42 40 43
REMARK SMILES IDX 41 44 42 45 95 46 43 47 100 48 94 49 96 50 44 51 99 52 93 53
REMARK SMILES IDX 92 54 45 56 79 57 58 58 78 59 59 60 62 61 77 62 97 63 60 64
REMARK SMILES IDX 61 65 76 67 98 68 63 69 46 70 47 71 56 72 48 73 49 74 55 75
REMARK SMILES IDX 57 76 50 77 51 78 52 79 53 80 54 81 80 82 81 83 90 84 82 85
REMARK SMILES IDX 83 86 89 87 91 88 84 89 85 90 86 91 87 92 88 93 64 94 65 95
REMARK SMILES IDX 74 96 66 97 67 98 73 99 75 100 68 101 69 102 70 103 71 104
REMARK SMILES IDX 72 105
REMARK H PARENT 7 14 96 55 62 66
REMARK Flexibility Score: inf
ROOT
ATOM      1  C   UNL     1       5.061  -1.017   1.050  1.00  0.00     0.202 C 
ENDROOT
BRANCH   1   2
ATOM      2  C   UNL     1       4.086   0.149   0.917  1.00  0.00     0.261 C 
BRANCH   2   3
ATOM      3  O   UNL     1       2.707  -0.205   0.866  1.00  0.00    -0.463 OA
BRANCH   3   4
ATOM      4  C   UNL     1       2.025  -0.648  -0.199  1.00  0.00     0.308 C 
ATOM      5  O   UNL     1       0.849  -0.989  -0.029  1.00  0.00    -0.252 OA
BRANCH   4   6
ATOM      6  C   UNL     1       2.661  -0.864  -1.548  1.00  0.00     0.158 C 
BRANCH   6   7
ATOM      7  C   UNL     1       3.597   0.119  -2.276  1.00  0.00     0.189 C 
ATOM      8  C   UNL     1       5.032  -0.498  -2.316  1.00  0.00     0.243 C 
ATOM      9  N   UNL     1       3.540   1.585  -2.053  1.00  0.00    -0.294 N 
ATOM     10  O   UNL     1       5.238  -1.693  -2.520  1.00  0.00    -0.273 OA
ATOM     11  N   UNL     1       6.107   0.336  -2.183  1.00  0.00    -0.353 N 
ATOM     12  C   UNL     1       4.716   2.339  -2.502  1.00  0.00     0.145 C 
ATOM     13  C   UNL     1       6.006   1.754  -1.932  1.00  0.00     0.137 C 
ATOM     14  H   UNL     1       7.007  -0.056  -2.263  1.00  0.00     0.163 HD
BRANCH   9  15
ATOM     15  C   UNL     1       2.381   2.314  -1.825  1.00  0.00     0.410 C 
ATOM     16  O   UNL     1       2.253   3.495  -2.128  1.00  0.00    -0.224 OA
BRANCH  15  17
ATOM     17  O   UNL     1       1.470   1.614  -1.129  1.00  0.00    -0.448 OA
BRANCH  17  18
ATOM     18  C   UNL     1       0.402   2.290  -0.412  1.00  0.00     0.248 C 
BRANCH  18  19
ATOM     19  C   UNL     1       0.818   2.619   1.044  1.00  0.00     0.088 C 
ATOM     20  C   UNL     1       1.259   4.074   1.162  1.00  0.00    -0.029 A 
ATOM     21  C   UNL     1      -0.351   2.589   2.032  1.00  0.00    -0.029 A 
ATOM     22  C   UNL     1       2.383   4.681   0.628  1.00  0.00     0.005 A 
ATOM     23  C   UNL     1       0.329   4.809   1.924  1.00  0.00    -0.014 A 
ATOM     24  C   UNL     1      -0.624   3.891   2.506  1.00  0.00    -0.014 A 
ATOM     25  C   UNL     1      -1.028   1.488   2.538  1.00  0.00     0.005 A 
ATOM     26  C   UNL     1       2.509   6.062   0.749  1.00  0.00     0.000 A 
ATOM     27  C   UNL     1       0.454   6.182   2.049  1.00  0.00     0.009 A 
ATOM     28  C   UNL     1      -1.594   4.106   3.474  1.00  0.00     0.009 A 
ATOM     29  C   UNL     1      -1.997   1.704   3.525  1.00  0.00     0.000 A 
ATOM     30  C   UNL     1       1.540   6.810   1.433  1.00  0.00     0.001 A 
ATOM     31  C   UNL     1      -2.281   3.001   3.985  1.00  0.00     0.001 A 
ENDBRANCH  18  19
ENDBRANCH  17  18
ENDBRANCH  15  17
ENDBRANCH   9  15
ENDBRANCH   6   7
ENDBRANCH   4   6
ENDBRANCH   3   4
ENDBRANCH   2   3
ENDBRANCH   1   2
BRANCH   1  32
ATOM     32  O   UNL     1       4.623  -2.330   0.779  1.00  0.00    -0.374 OA
BRANCH  32  33
ATOM     33  C   UNL     1       3.499  -2.907   1.429  1.00  0.00     0.202 C 
BRANCH  33  34
ATOM     34  C   UNL     1       3.070  -2.616   2.878  1.00  0.00     0.261 C 
BRANCH  34  35
ATOM     35  O   UNL     1       3.461  -1.368   3.448  1.00  0.00    -0.460 OA
BRANCH  35  36
ATOM     36  C   UNL     1       4.600  -1.441   4.172  1.00  0.00     0.338 C 
ATOM     37  O   UNL     1       5.334  -2.407   4.293  1.00  0.00    -0.246 OA
BRANCH  36  38
ATOM     38  C   UNL     1       4.947  -0.109   4.688  1.00  0.00     0.060 A 
ATOM     39  C   UNL     1       6.211   0.400   4.368  1.00  0.00     0.016 A 
ATOM     40  C   UNL     1       4.112   0.545   5.596  1.00  0.00     0.016 A 
ATOM     41  C   UNL     1       6.692   1.514   5.038  1.00  0.00     0.010 A 
ATOM     42  C   UNL     1       4.602   1.659   6.279  1.00  0.00     0.010 A 
ATOM     43  C   UNL     1       5.919   2.094   6.052  1.00  0.00    -0.014 A 
BRANCH  43  44
ATOM     44  C   UNL     1       6.604   2.967   7.030  1.00  0.00     0.031 A 
ATOM     45  C   UNL     1       7.039   2.363   8.340  1.00  0.00     0.074 A 
ATOM     46  C   UNL     1       6.915   4.234   6.712  1.00  0.00     0.049 A 
ATOM     47  N   UNL     1       7.684   2.913   9.334  1.00  0.00    -0.248 NA
ATOM     48  C   UNL     1       6.703   0.945   8.557  1.00  0.00     0.031 C 
ATOM     49  C   UNL     1       6.587   4.890   5.447  1.00  0.00     0.029 A 
ATOM     50  N   UNL     1       7.587   5.189   7.426  1.00  0.00    -0.354 N 
ATOM     51  C   UNL     1       7.814   1.918  10.297  1.00  0.00     0.074 A 
ATOM     52  C   UNL     1       7.156   0.739   9.784  1.00  0.00     0.031 C 
ATOM     53  C   UNL     1       7.063   6.146   5.473  1.00  0.00     0.029 A 
ATOM     54  C   UNL     1       7.698   6.389   6.766  1.00  0.00     0.049 A 
ATOM     55  H   UNL     1       7.956   5.031   8.325  1.00  0.00     0.167 HD
ATOM     56  C   UNL     1       8.435   1.983  11.498  1.00  0.00     0.037 A 
ATOM     57  C   UNL     1       8.241   7.551   7.175  1.00  0.00     0.037 A 
ATOM     58  C   UNL     1       9.095   3.165  11.987  1.00  0.00     0.049 A 
ATOM     59  C   UNL     1       8.882   7.613   8.537  1.00  0.00     0.074 A 
ATOM     60  C   UNL     1       9.770   3.344  13.181  1.00  0.00     0.029 A 
ATOM     61  N   UNL     1       9.157   4.374  11.307  1.00  0.00    -0.354 N 
ATOM     62  N   UNL     1       9.008   6.664   9.436  1.00  0.00    -0.248 NA
ATOM     63  C   UNL     1       9.466   8.900   8.934  1.00  0.00     0.031 C 
ATOM     64  C   UNL     1      10.188   4.677  13.249  1.00  0.00     0.029 A 
ATOM     65  C   UNL     1       9.838   5.310  12.066  1.00  0.00     0.049 A 
ATOM     66  H   UNL     1       8.773   4.540  10.416  1.00  0.00     0.167 HD
ATOM     67  C   UNL     1       9.722   7.229  10.488  1.00  0.00     0.074 A 
ATOM     68  C   UNL     1      10.005   8.598  10.107  1.00  0.00     0.031 C 
ATOM     69  C   UNL     1      10.116   6.666  11.659  1.00  0.00     0.037 A 
BRANCH  56  70
ATOM     70  C   UNL     1       8.393   0.761  12.379  1.00  0.00     0.058 A 
ATOM     71  C   UNL     1       9.094  -0.415  12.064  1.00  0.00     0.135 A 
ATOM     72  C   UNL     1       7.654   0.778  13.573  1.00  0.00     0.135 A 
ATOM     73  F   UNL     1       9.800  -0.498  10.925  1.00  0.00    -0.206 F 
ATOM     74  C   UNL     1       9.042  -1.536  12.887  1.00  0.00     0.059 A 
ATOM     75  C   UNL     1       7.614  -0.320  14.427  1.00  0.00     0.059 A 
ATOM     76  F   UNL     1       6.959   1.872  13.922  1.00  0.00    -0.206 F 
ATOM     77  C   UNL     1       8.300  -1.478  14.068  1.00  0.00     0.060 A 
BRANCH  77  78
ATOM     78  S   UNL     1       8.252  -2.937  15.131  1.00  0.00     0.124 S 
ATOM     79  O   UNL     1       7.426  -3.846  14.342  1.00  0.00    -0.237 OA
ATOM     80  O   UNL     1       9.663  -3.292  15.236  1.00  0.00    -0.237 OA
ATOM     81  O   UNL     1       7.639  -2.443  16.360  1.00  0.00    -0.744 OA
ENDBRANCH  77  78
ENDBRANCH  56  70
BRANCH  57  82
ATOM     82  C   UNL     1       8.206   8.741   6.284  1.00  0.00     0.058 A 
ATOM     83  C   UNL     1       9.381   9.268   5.728  1.00  0.00     0.135 A 
ATOM     84  C   UNL     1       6.993   9.372   5.965  1.00  0.00     0.135 A 
ATOM     85  F   UNL     1      10.566   8.704   6.006  1.00  0.00    -0.206 F 
ATOM     86  C   UNL     1       9.358  10.388   4.903  1.00  0.00     0.059 A 
ATOM     87  C   UNL     1       6.941  10.475   5.118  1.00  0.00     0.059 A 
ATOM     88  F   UNL     1       5.838   8.900   6.459  1.00  0.00    -0.206 F 
ATOM     89  C   UNL     1       8.132  10.982   4.601  1.00  0.00     0.060 A 
BRANCH  89  90
ATOM     90  S   UNL     1       8.110  12.405   3.491  1.00  0.00     0.124 S 
ATOM     91  O   UNL     1       8.703  13.441   4.329  1.00  0.00    -0.237 OA
ATOM     92  O   UNL     1       8.930  11.935   2.378  1.00  0.00    -0.237 OA
ATOM     93  O   UNL     1       6.692  12.573   3.187  1.00  0.00    -0.744 OA
ENDBRANCH  89  90
ENDBRANCH  57  82
BRANCH  69  94
ATOM     94  C   UNL     1      10.951   7.513  12.583  1.00  0.00     0.058 A 
ATOM     95  C   UNL     1      10.422   8.615  13.271  1.00  0.00     0.135 A 
ATOM     96  C   UNL     1      12.302   7.192  12.800  1.00  0.00     0.135 A 
ATOM     97  F   UNL     1       9.137   8.967  13.100  1.00  0.00    -0.206 F 
ATOM     98  C   UNL     1      11.213   9.399  14.104  1.00  0.00     0.059 A 
ATOM     99  C   UNL     1      13.102   7.939  13.657  1.00  0.00     0.059 A 
ATOM    100  F   UNL     1      12.856   6.137  12.181  1.00  0.00    -0.206 F 
ATOM    101  C   UNL     1      12.554   9.054  14.288  1.00  0.00     0.060 A 
BRANCH 101 102
ATOM    102  S   UNL     1      13.572  10.080  15.369  1.00  0.00     0.124 S 
ATOM    103  O   UNL     1      13.757  11.274  14.550  1.00  0.00    -0.237 OA
ATOM    104  O   UNL     1      12.718  10.240  16.542  1.00  0.00    -0.237 OA
ATOM    105  O   UNL     1      14.769   9.271  15.578  1.00  0.00    -0.744 OA
ENDBRANCH 101 102
ENDBRANCH  69  94
ENDBRANCH  43  44
ENDBRANCH  36  38
ENDBRANCH  35  36
ENDBRANCH  34  35
ENDBRANCH  33  34
ENDBRANCH  32  33
ENDBRANCH   1  32
TORSDOF 22
