REMARK SMILES CCn1nc(C)c(NS(=O)(=O)c2cc(C(=O)OCCOCCOC(=O)c3ccc(-c4c5nc(c(-c6c(F)cc(S(=O)(=O)[O-])cc6F)c6ccc([nH]6)c(-c6c(F)cc(S(=O)(=O)[O-])cc6F)c6nc(c(-c7c(F)cc(S(=O)(=O)[O-])cc7F)c7ccc4[nH]7)C=C6)C=C5)cc3)cc(F)c2C)c1C
REMARK SMILES IDX 19 1 18 2 17 3 15 4 16 5 14 6 12 7 13 8 95 9 93 10 96 11
REMARK SMILES IDX 92 12 94 13 9 14 10 15 11 16 8 17 7 19 3 20 4 21 97 22 5 23
REMARK SMILES IDX 98 24 6 25 2 26 1 27 20 28 21 29 22 30 23 31 24 32 25 33
REMARK SMILES IDX 26 34 27 35 91 36 28 37 90 38 29 39 30 40 31 41 84 42 32 43
REMARK SMILES IDX 89 44 83 45 85 46 33 47 88 48 82 49 81 50 34 52 68 53 47 54
REMARK SMILES IDX 67 55 48 56 51 57 66 58 86 59 49 60 50 61 65 63 87 64 52 65
REMARK SMILES IDX 35 66 36 67 45 68 37 69 38 70 44 71 46 72 39 73 40 74 41 75
REMARK SMILES IDX 42 76 43 77 69 78 70 79 79 80 71 81 72 82 78 83 80 84 73 85
REMARK SMILES IDX 74 86 75 87 76 88 77 89 53 90 54 91 63 92 55 93 56 94 62 95
REMARK SMILES IDX 64 96 57 97 58 98 59 99 60 100 61 101
REMARK H PARENT 8 18 85 51 51 62
REMARK Flexibility Score: inf
ROOT
ATOM      1  C   UNL     1       4.059  11.769  -4.957  1.00  0.00     0.202 C 
ENDROOT
BRANCH   1   2
ATOM      2  C   UNL     1       4.883  10.479  -5.111  1.00  0.00     0.261 C 
BRANCH   2   3
ATOM      3  O   UNL     1       4.097   9.274  -5.052  1.00  0.00    -0.460 OA
BRANCH   3   4
ATOM      4  C   UNL     1       3.666   8.915  -3.820  1.00  0.00     0.338 C 
ATOM      5  O   UNL     1       4.054   9.333  -2.744  1.00  0.00    -0.246 OA
BRANCH   4   6
ATOM      6  C   UNL     1       2.577   7.920  -3.942  1.00  0.00     0.064 A 
ATOM      7  C   UNL     1       1.835   5.713  -4.629  1.00  0.00     0.094 A 
ATOM      8  C   UNL     1       2.749   6.783  -4.723  1.00  0.00     0.038 A 
ATOM      9  C   UNL     1       0.648   5.846  -3.889  1.00  0.00     0.005 A 
ATOM     10  C   UNL     1       0.474   7.040  -3.168  1.00  0.00     0.128 A 
ATOM     11  C   UNL     1      -0.407   4.790  -3.732  1.00  0.00     0.049 C 
ATOM     12  C   UNL     1       1.435   8.050  -3.154  1.00  0.00     0.055 A 
ATOM     13  F   UNL     1      -0.604   7.181  -2.382  1.00  0.00    -0.207 F 
BRANCH   7  14
ATOM     14  S   UNL     1       2.389   4.193  -5.354  1.00  0.00     0.262 S 
ATOM     15  O   UNL     1       3.807   4.321  -5.637  1.00  0.00    -0.201 OA
ATOM     16  O   UNL     1       1.458   3.861  -6.408  1.00  0.00    -0.201 OA
BRANCH  14  17
ATOM     17  N   UNL     1       2.260   2.951  -4.249  1.00  0.00    -0.276 N 
ATOM     18  H   UNL     1       2.175   2.068  -4.676  1.00  0.00     0.180 HD
BRANCH  17  19
ATOM     19  C   UNL     1       2.245   2.882  -2.854  1.00  0.00     0.093 A 
ATOM     20  N   UNL     1       1.665   2.038  -0.908  1.00  0.00    -0.268 N 
ATOM     21  N   UNL     1       2.146   3.256  -0.609  1.00  0.00    -0.176 NA
ATOM     22  C   UNL     1       1.921   1.695  -2.209  1.00  0.00     0.060 A 
ATOM     23  C   UNL     1       2.541   3.769  -1.784  1.00  0.00     0.084 A 
ATOM     24  C   UNL     1       1.867   0.326  -2.780  1.00  0.00     0.069 C 
ATOM     25  C   UNL     1       3.177   5.104  -1.739  1.00  0.00     0.071 C 
BRANCH  20  26
ATOM     26  C   UNL     1       0.808   1.413   0.084  1.00  0.00     0.141 C 
ATOM     27  C   UNL     1       0.935  -0.085   0.283  1.00  0.00     0.029 C 
ENDBRANCH  20  26
ENDBRANCH  17  19
ENDBRANCH  14  17
ENDBRANCH   7  14
ENDBRANCH   4   6
ENDBRANCH   3   4
ENDBRANCH   2   3
ENDBRANCH   1   2
BRANCH   1  28
ATOM     28  O   UNL     1       2.952  11.585  -4.091  1.00  0.00    -0.374 OA
BRANCH  28  29
ATOM     29  C   UNL     1       1.660  11.472  -4.681  1.00  0.00     0.202 C 
BRANCH  29  30
ATOM     30  C   UNL     1       1.383  10.582  -5.897  1.00  0.00     0.261 C 
BRANCH  30  31
ATOM     31  O   UNL     1       2.456  10.276  -6.783  1.00  0.00    -0.460 OA
BRANCH  31  32
ATOM     32  C   UNL     1       2.651  11.173  -7.769  1.00  0.00     0.338 C 
ATOM     33  O   UNL     1       2.481  12.380  -7.692  1.00  0.00    -0.246 OA
BRANCH  32  34
ATOM     34  C   UNL     1       2.958  10.479  -9.036  1.00  0.00     0.060 A 
ATOM     35  C   UNL     1       3.252  11.310 -10.126  1.00  0.00     0.016 A 
ATOM     36  C   UNL     1       2.433   9.194  -9.211  1.00  0.00     0.016 A 
ATOM     37  C   UNL     1       2.720  10.982 -11.360  1.00  0.00     0.010 A 
ATOM     38  C   UNL     1       1.881   8.886 -10.432  1.00  0.00     0.010 A 
ATOM     39  C   UNL     1       1.937   9.830 -11.455  1.00  0.00    -0.014 A 
BRANCH  39  40
ATOM     40  C   UNL     1       1.135   9.544 -12.626  1.00  0.00     0.031 A 
ATOM     41  C   UNL     1       1.855   8.982 -13.770  1.00  0.00     0.074 A 
ATOM     42  C   UNL     1      -0.185   9.832 -12.651  1.00  0.00     0.049 A 
ATOM     43  N   UNL     1       1.583   9.246 -14.995  1.00  0.00    -0.248 NA
ATOM     44  C   UNL     1       3.036   8.138 -13.605  1.00  0.00     0.031 C 
ATOM     45  C   UNL     1      -1.151   9.537 -13.698  1.00  0.00     0.029 A 
ATOM     46  N   UNL     1      -0.892  10.662 -11.774  1.00  0.00    -0.354 N 
ATOM     47  C   UNL     1       2.320   8.377 -15.767  1.00  0.00     0.074 A 
ATOM     48  C   UNL     1       3.308   7.821 -14.874  1.00  0.00     0.031 C 
ATOM     49  C   UNL     1      -2.181  10.397 -13.586  1.00  0.00     0.029 A 
ATOM     50  C   UNL     1      -1.859  11.353 -12.535  1.00  0.00     0.049 A 
ATOM     51  H   UNL     1      -0.742  10.749 -10.805  1.00  0.00     0.167 HD
ATOM     52  C   UNL     1       1.884   8.111 -17.029  1.00  0.00     0.037 A 
ATOM     53  C   UNL     1      -1.775  12.714 -12.699  1.00  0.00     0.037 A 
ATOM     54  C   UNL     1       0.667   8.879 -17.306  1.00  0.00     0.049 A 
ATOM     55  C   UNL     1      -1.428  13.132 -14.102  1.00  0.00     0.074 A 
ATOM     56  C   UNL     1      -0.684   8.596 -17.190  1.00  0.00     0.029 A 
ATOM     57  N   UNL     1       0.759  10.252 -17.388  1.00  0.00    -0.354 N 
ATOM     58  N   UNL     1      -1.138  12.285 -15.050  1.00  0.00    -0.248 NA
ATOM     59  C   UNL     1      -1.323  14.519 -14.546  1.00  0.00     0.031 C 
ATOM     60  C   UNL     1      -1.397   9.831 -17.189  1.00  0.00     0.029 A 
ATOM     61  C   UNL     1      -0.479  10.858 -17.325  1.00  0.00     0.049 A 
ATOM     62  H   UNL     1       1.607  10.743 -17.480  1.00  0.00     0.167 HD
ATOM     63  C   UNL     1      -0.838  12.956 -16.197  1.00  0.00     0.074 A 
ATOM     64  C   UNL     1      -0.933  14.359 -15.824  1.00  0.00     0.031 C 
ATOM     65  C   UNL     1      -0.537  12.309 -17.361  1.00  0.00     0.037 A 
BRANCH  52  66
ATOM     66  C   UNL     1       2.376   6.988 -17.910  1.00  0.00     0.058 A 
ATOM     67  C   UNL     1       1.524   6.455 -18.902  1.00  0.00     0.135 A 
ATOM     68  C   UNL     1       3.650   6.386 -17.842  1.00  0.00     0.135 A 
ATOM     69  F   UNL     1       0.304   6.960 -19.128  1.00  0.00    -0.206 F 
ATOM     70  C   UNL     1       1.877   5.378 -19.712  1.00  0.00     0.059 A 
ATOM     71  C   UNL     1       4.012   5.276 -18.615  1.00  0.00     0.059 A 
ATOM     72  F   UNL     1       4.621   6.882 -17.065  1.00  0.00    -0.206 F 
ATOM     73  C   UNL     1       3.118   4.780 -19.552  1.00  0.00     0.060 A 
BRANCH  73  74
ATOM     74  S   UNL     1       3.543   3.392 -20.617  1.00  0.00     0.124 S 
ATOM     75  O   UNL     1       2.469   2.446 -20.331  1.00  0.00    -0.237 OA
ATOM     76  O   UNL     1       3.514   4.005 -21.940  1.00  0.00    -0.237 OA
ATOM     77  O   UNL     1       4.865   2.990 -20.143  1.00  0.00    -0.744 OA
ENDBRANCH  73  74
ENDBRANCH  52  66
BRANCH  53  78
ATOM     78  C   UNL     1      -1.492  13.510 -11.444  1.00  0.00     0.058 A 
ATOM     79  C   UNL     1      -2.595  13.570 -10.575  1.00  0.00     0.135 A 
ATOM     80  C   UNL     1      -0.245  13.284 -10.854  1.00  0.00     0.135 A 
ATOM     81  F   UNL     1      -3.781  14.004 -11.027  1.00  0.00    -0.206 F 
ATOM     82  C   UNL     1      -2.559  12.927  -9.345  1.00  0.00     0.059 A 
ATOM     83  C   UNL     1      -0.190  12.585  -9.648  1.00  0.00     0.059 A 
ATOM     84  F   UNL     1       0.871  13.407 -11.590  1.00  0.00    -0.206 F 
ATOM     85  C   UNL     1      -1.383  12.280  -8.990  1.00  0.00     0.060 A 
BRANCH  85  86
ATOM     86  S   UNL     1      -1.592  10.669  -8.158  1.00  0.00     0.124 S 
ATOM     87  O   UNL     1      -1.879  11.057  -6.782  1.00  0.00    -0.237 OA
ATOM     88  O   UNL     1      -2.700  10.086  -8.909  1.00  0.00    -0.237 OA
ATOM     89  O   UNL     1      -0.324   9.987  -8.369  1.00  0.00    -0.744 OA
ENDBRANCH  85  86
ENDBRANCH  53  78
BRANCH  65  90
ATOM     90  C   UNL     1      -0.235  13.032 -18.638  1.00  0.00     0.058 A 
ATOM     91  C   UNL     1      -0.972  14.149 -19.056  1.00  0.00     0.135 A 
ATOM     92  C   UNL     1       0.769  12.583 -19.526  1.00  0.00     0.135 A 
ATOM     93  F   UNL     1      -2.038  14.573 -18.358  1.00  0.00    -0.206 F 
ATOM     94  C   UNL     1      -0.636  14.866 -20.200  1.00  0.00     0.059 A 
ATOM     95  C   UNL     1       1.078  13.243 -20.704  1.00  0.00     0.059 A 
ATOM     96  F   UNL     1       1.527  11.510 -19.267  1.00  0.00    -0.206 F 
ATOM     97  C   UNL     1       0.410  14.417 -21.002  1.00  0.00     0.060 A 
BRANCH  97  98
ATOM     98  S   UNL     1       0.919  15.394 -22.419  1.00  0.00     0.124 S 
ATOM     99  O   UNL     1      -0.358  15.800 -22.997  1.00  0.00    -0.237 OA
ATOM    100  O   UNL     1       1.688  16.454 -21.773  1.00  0.00    -0.237 OA
ATOM    101  O   UNL     1       1.695  14.454 -23.221  1.00  0.00    -0.744 OA
ENDBRANCH  97  98
ENDBRANCH  65  90
ENDBRANCH  39  40
ENDBRANCH  32  34
ENDBRANCH  31  32
ENDBRANCH  30  31
ENDBRANCH  29  30
ENDBRANCH  28  29
ENDBRANCH   1  28
TORSDOF 21
