REMARK SMILES COc1ccc(-c2csc(NC(=O)[C@H](CC(=O)OCCOCCOC(=O)c3ccc(-c4c5nc(c(-c6c(F)cc(S(=O)(=O)[O-])cc6F)c6ccc([nH]6)c(-c6c(F)cc(S(=O)(=O)[O-])cc6F)c6nc(c(-c7c(F)cc(S(=O)(=O)[O-])cc7F)c7ccc4[nH]7)C=C6)C=C5)cc3)[NH+]3CCCCC3)n2)cc1
REMARK SMILES IDX 20 1 19 2 18 3 16 4 17 5 15 6 14 7 12 8 11 9 13 11 10 12
REMARK SMILES IDX 7 13 8 14 99 15 9 16 6 17 3 18 4 19 101 20 5 21 100 22 2 23
REMARK SMILES IDX 1 24 93 25 94 26 98 27 95 29 97 30 96 31 21 32 22 33 23 34
REMARK SMILES IDX 24 35 25 36 26 37 27 38 28 39 92 40 29 41 91 42 30 43 31 44
REMARK SMILES IDX 32 45 85 46 33 47 90 48 84 49 86 50 34 51 89 52 83 53 82 54
REMARK SMILES IDX 35 56 69 57 48 58 68 59 49 60 52 61 67 62 87 63 50 64 51 65
REMARK SMILES IDX 66 67 88 68 53 69 36 70 37 71 46 72 38 73 39 74 45 75 47 76
REMARK SMILES IDX 40 77 41 78 42 79 43 80 44 81 70 82 71 83 80 84 72 85 73 86
REMARK SMILES IDX 79 87 81 88 74 89 75 90 76 91 77 92 78 93 54 94 55 95 64 96
REMARK SMILES IDX 56 97 57 98 63 99 65 100 58 101 59 102 60 103 61 104 62 105
REMARK H PARENT 11 10 93 28 86 55 52 66
REMARK Flexibility Score: inf
ROOT
ATOM      1  C   UNL     1       6.596   2.124  -6.001  1.00  0.00     0.202 C 
ENDROOT
BRANCH   1   2
ATOM      2  C   UNL     1       6.990   1.877  -7.455  1.00  0.00     0.261 C 
BRANCH   2   3
ATOM      3  O   UNL     1       6.258   2.735  -8.357  1.00  0.00    -0.463 OA
BRANCH   3   4
ATOM      4  C   UNL     1       5.282   2.209  -9.137  1.00  0.00     0.312 C 
ATOM      5  O   UNL     1       4.835   1.076  -9.013  1.00  0.00    -0.252 OA
BRANCH   4   6
ATOM      6  C   UNL     1       4.946   3.116 -10.307  1.00  0.00     0.198 C 
BRANCH   6   7
ATOM      7  C   UNL     1       4.129   4.431 -10.128  1.00  0.00     0.285 C 
BRANCH   7   8
ATOM      8  C   UNL     1       2.594   4.103  -9.927  1.00  0.00     0.285 C 
ATOM      9  N   UNL     1       1.637   4.830  -9.282  1.00  0.00    -0.297 N 
ATOM     10  H   UNL     1       0.776   4.851  -9.760  1.00  0.00     0.172 HD
ATOM     11  O   UNL     1       2.126   3.163 -10.601  1.00  0.00    -0.268 OA
BRANCH   9  12
ATOM     12  C   UNL     1       1.620   5.538  -8.109  1.00  0.00     0.190 A 
ATOM     13  C   UNL     1       0.862   6.717  -6.402  1.00  0.00     0.084 A 
ATOM     14  C   UNL     1       2.110   6.385  -5.923  1.00  0.00     0.097 A 
ATOM     15  N   UNL     1       0.565   6.202  -7.658  1.00  0.00    -0.220 NA
ATOM     16  S   UNL     1       2.900   5.382  -7.024  1.00  0.00    -0.105 S 
BRANCH  13  17
ATOM     17  C   UNL     1      -0.002   7.425  -5.467  1.00  0.00     0.001 A 
ATOM     18  C   UNL     1      -0.653   8.613  -3.006  1.00  0.00     0.118 A 
ATOM     19  C   UNL     1      -0.185   9.397  -4.064  1.00  0.00     0.047 A 
ATOM     20  C   UNL     1      -0.909   7.259  -3.215  1.00  0.00     0.047 A 
ATOM     21  C   UNL     1       0.149   8.808  -5.291  1.00  0.00     0.014 A 
ATOM     22  C   UNL     1      -0.596   6.670  -4.444  1.00  0.00     0.014 A 
BRANCH  18  23
ATOM     23  O   UNL     1      -0.845   9.254  -1.812  1.00  0.00    -0.497 OA
ATOM     24  C   UNL     1      -0.474   8.499  -0.657  1.00  0.00     0.278 C 
ENDBRANCH  18  23
ENDBRANCH  13  17
ENDBRANCH   9  12
ENDBRANCH   7   8
BRANCH   7  25
ATOM     25  N   UNL     1       4.702   5.568  -9.361  1.00  0.00    -0.324 N 
ATOM     26  C   UNL     1       6.175   5.641  -9.329  1.00  0.00     0.262 C 
ATOM     27  C   UNL     1       4.226   6.885  -9.854  1.00  0.00     0.262 C 
ATOM     28  H   UNL     1       4.369   5.373  -8.417  1.00  0.00     0.348 HD
ATOM     29  C   UNL     1       6.608   6.624  -8.244  1.00  0.00     0.062 C 
ATOM     30  C   UNL     1       4.618   8.019  -8.894  1.00  0.00     0.062 C 
ATOM     31  C   UNL     1       6.106   8.024  -8.559  1.00  0.00     0.012 C 
ENDBRANCH   7  25
ENDBRANCH   6   7
ENDBRANCH   4   6
ENDBRANCH   3   4
ENDBRANCH   2   3
ENDBRANCH   1   2
BRANCH   1  32
ATOM     32  O   UNL     1       5.458   1.353  -5.608  1.00  0.00    -0.374 OA
BRANCH  32  33
ATOM     33  C   UNL     1       4.193   1.946  -5.905  1.00  0.00     0.202 C 
BRANCH  33  34
ATOM     34  C   UNL     1       3.753   2.909  -4.805  1.00  0.00     0.261 C 
BRANCH  34  35
ATOM     35  O   UNL     1       4.578   4.088  -4.884  1.00  0.00    -0.460 OA
BRANCH  35  36
ATOM     36  C   UNL     1       4.822   4.737  -3.734  1.00  0.00     0.338 C 
ATOM     37  O   UNL     1       4.349   4.492  -2.633  1.00  0.00    -0.246 OA
BRANCH  36  38
ATOM     38  C   UNL     1       5.838   5.775  -3.986  1.00  0.00     0.060 A 
ATOM     39  C   UNL     1       7.133   5.572  -3.512  1.00  0.00     0.016 A 
ATOM     40  C   UNL     1       5.505   6.981  -4.607  1.00  0.00     0.016 A 
ATOM     41  C   UNL     1       8.064   6.613  -3.579  1.00  0.00     0.010 A 
ATOM     42  C   UNL     1       6.448   8.003  -4.712  1.00  0.00     0.010 A 
ATOM     43  C   UNL     1       7.716   7.854  -4.139  1.00  0.00    -0.014 A 
BRANCH  43  44
ATOM     44  C   UNL     1       8.623   9.028  -4.013  1.00  0.00     0.031 A 
ATOM     45  C   UNL     1       8.217  10.204  -3.155  1.00  0.00     0.074 A 
ATOM     46  C   UNL     1       9.806   9.056  -4.654  1.00  0.00     0.049 A 
ATOM     47  N   UNL     1       8.886  11.295  -2.875  1.00  0.00    -0.248 NA
ATOM     48  C   UNL     1       6.873  10.162  -2.555  1.00  0.00     0.031 C 
ATOM     49  C   UNL     1      10.300   8.023  -5.564  1.00  0.00     0.029 A 
ATOM     50  N   UNL     1      10.810   9.992  -4.632  1.00  0.00    -0.354 N 
ATOM     51  C   UNL     1       8.044  12.067  -2.082  1.00  0.00     0.074 A 
ATOM     52  C   UNL     1       6.791  11.352  -1.981  1.00  0.00     0.031 C 
ATOM     53  C   UNL     1      11.526   8.370  -5.992  1.00  0.00     0.029 A 
ATOM     54  C   UNL     1      11.898   9.655  -5.401  1.00  0.00     0.049 A 
ATOM     55  H   UNL     1      10.756  10.828  -4.114  1.00  0.00     0.167 HD
ATOM     56  C   UNL     1       8.294  13.246  -1.461  1.00  0.00     0.037 A 
ATOM     57  C   UNL     1      13.065  10.299  -5.599  1.00  0.00     0.037 A 
ATOM     58  C   UNL     1       9.552  13.943  -1.523  1.00  0.00     0.049 A 
ATOM     59  C   UNL     1      13.339  11.593  -4.879  1.00  0.00     0.074 A 
ATOM     60  C   UNL     1       9.928  15.098  -0.861  1.00  0.00     0.029 A 
ATOM     61  N   UNL     1      10.637  13.553  -2.293  1.00  0.00    -0.354 N 
ATOM     62  N   UNL     1      12.567  12.259  -4.054  1.00  0.00    -0.248 NA
ATOM     63  C   UNL     1      14.652  12.216  -5.104  1.00  0.00     0.031 C 
ATOM     64  C   UNL     1      11.225  15.432  -1.263  1.00  0.00     0.029 A 
ATOM     65  C   UNL     1      11.675  14.457  -2.139  1.00  0.00     0.049 A 
ATOM     66  H   UNL     1      10.665  12.752  -2.865  1.00  0.00     0.167 HD
ATOM     67  C   UNL     1      13.310  13.361  -3.640  1.00  0.00     0.074 A 
ATOM     68  C   UNL     1      14.596  13.268  -4.299  1.00  0.00     0.031 C 
ATOM     69  C   UNL     1      12.958  14.356  -2.788  1.00  0.00     0.037 A 
BRANCH  56  70
ATOM     70  C   UNL     1       7.183  13.852  -0.646  1.00  0.00     0.058 A 
ATOM     71  C   UNL     1       6.747  13.268   0.555  1.00  0.00     0.135 A 
ATOM     72  C   UNL     1       6.559  15.040  -1.060  1.00  0.00     0.135 A 
ATOM     73  F   UNL     1       7.301  12.126   0.992  1.00  0.00    -0.206 F 
ATOM     74  C   UNL     1       5.702  13.814   1.292  1.00  0.00     0.059 A 
ATOM     75  C   UNL     1       5.532  15.621  -0.321  1.00  0.00     0.059 A 
ATOM     76  F   UNL     1       6.940  15.645  -2.196  1.00  0.00    -0.206 F 
ATOM     77  C   UNL     1       5.097  14.988   0.842  1.00  0.00     0.060 A 
BRANCH  77  78
ATOM     78  S   UNL     1       3.728  15.673   1.800  1.00  0.00     0.124 S 
ATOM     79  O   UNL     1       2.651  14.745   1.469  1.00  0.00    -0.237 OA
ATOM     80  O   UNL     1       4.233  15.594   3.167  1.00  0.00    -0.237 OA
ATOM     81  O   UNL     1       3.582  17.023   1.266  1.00  0.00    -0.744 OA
ENDBRANCH  77  78
ENDBRANCH  56  70
BRANCH  57  82
ATOM     82  C   UNL     1      14.089   9.700  -6.495  1.00  0.00     0.058 A 
ATOM     83  C   UNL     1      15.263   9.136  -5.973  1.00  0.00     0.135 A 
ATOM     84  C   UNL     1      13.905   9.664  -7.885  1.00  0.00     0.135 A 
ATOM     85  F   UNL     1      15.486   9.155  -4.651  1.00  0.00    -0.206 F 
ATOM     86  C   UNL     1      16.224   8.564  -6.799  1.00  0.00     0.059 A 
ATOM     87  C   UNL     1      14.841   9.077  -8.730  1.00  0.00     0.059 A 
ATOM     88  F   UNL     1      12.791  10.177  -8.429  1.00  0.00    -0.206 F 
ATOM     89  C   UNL     1      16.002   8.535  -8.177  1.00  0.00     0.060 A 
BRANCH  89  90
ATOM     90  S   UNL     1      17.225   7.731  -9.234  1.00  0.00     0.124 S 
ATOM     91  O   UNL     1      18.315   8.699  -9.212  1.00  0.00    -0.237 OA
ATOM     92  O   UNL     1      17.466   6.479  -8.524  1.00  0.00    -0.237 OA
ATOM     93  O   UNL     1      16.526   7.594 -10.509  1.00  0.00    -0.744 OA
ENDBRANCH  89  90
ENDBRANCH  57  82
BRANCH  69  94
ATOM     94  C   UNL     1      13.982  15.416  -2.482  1.00  0.00     0.058 A 
ATOM     95  C   UNL     1      14.335  16.398  -3.420  1.00  0.00     0.135 A 
ATOM     96  C   UNL     1      14.567  15.490  -1.207  1.00  0.00     0.135 A 
ATOM     97  F   UNL     1      13.809  16.372  -4.655  1.00  0.00    -0.206 F 
ATOM     98  C   UNL     1      15.244  17.406  -3.111  1.00  0.00     0.059 A 
ATOM     99  C   UNL     1      15.459  16.503  -0.868  1.00  0.00     0.059 A 
ATOM    100  F   UNL     1      14.258  14.582  -0.267  1.00  0.00    -0.206 F 
ATOM    101  C   UNL     1      15.799  17.452  -1.831  1.00  0.00     0.060 A 
BRANCH 101 102
ATOM    102  S   UNL     1      16.944  18.789  -1.429  1.00  0.00     0.124 S 
ATOM    103  O   UNL     1      18.143  18.376  -2.151  1.00  0.00    -0.237 OA
ATOM    104  O   UNL     1      16.256  19.961  -1.961  1.00  0.00    -0.237 OA
ATOM    105  O   UNL     1      17.037  18.732   0.027  1.00  0.00    -0.744 OA
ENDBRANCH 101 102
ENDBRANCH  69  94
ENDBRANCH  43  44
ENDBRANCH  36  38
ENDBRANCH  35  36
ENDBRANCH  34  35
ENDBRANCH  33  34
ENDBRANCH  32  33
ENDBRANCH   1  32
TORSDOF 23
