REMARK SMILES Cc1ccc(S(=O)(=O)n2cc(C(=O)C(=O)N[C@@H](Cc3cnc[nH]3)C(=O)OCCOCCOC(=O)c3ccc(-c4c5nc(c(-c6c(F)cc(S(=O)(=O)[O-])cc6F)c6ccc([nH]6)c(-c6c(F)cc(S(=O)(=O)[O-])cc6F)c6nc(c(-c7c(F)cc(S(=O)(=O)[O-])cc7F)c7ccc4[nH]7)C=C6)C=C5)cc3)c3ccccc32)cc1
REMARK SMILES IDX 28 1 27 2 26 3 24 4 25 5 17 6 16 7 14 8 15 9 12 11 13 12
REMARK SMILES IDX 11 13 9 14 10 15 106 16 101 17 105 18 102 19 104 20 103 21
REMARK SMILES IDX 6 22 7 23 8 24 5 25 1 26 2 27 3 28 108 29 4 30 107 31 18 32
REMARK SMILES IDX 19 33 20 34 23 35 21 36 22 37 29 39 30 40 31 41 32 42 33 43
REMARK SMILES IDX 34 44 35 45 36 46 100 47 37 48 99 49 38 50 39 51 40 52 93 53
REMARK SMILES IDX 41 54 98 55 92 56 94 57 42 58 97 59 91 60 90 61 43 63 77 64
REMARK SMILES IDX 56 65 76 66 57 67 60 68 75 69 95 70 58 71 59 72 74 74 96 75
REMARK SMILES IDX 61 76 44 77 45 78 54 79 46 80 47 81 53 82 55 83 48 84 49 85
REMARK SMILES IDX 50 86 51 87 52 88 78 89 79 90 88 91 80 92 81 93 87 94 89 95
REMARK SMILES IDX 82 96 83 97 84 98 85 99 86 100 62 101 63 102 72 103 64 104
REMARK SMILES IDX 65 105 71 106 73 107 66 108 67 109 68 110 69 111 70 112
REMARK H PARENT 16 10 23 38 94 62 60 73
REMARK Flexibility Score: inf
ROOT
ATOM      1  C   UNL     1      -5.479   6.645   4.100  1.00  0.00     0.202 C 
ENDROOT
BRANCH   1   2
ATOM      2  C   UNL     1      -6.231   7.444   3.052  1.00  0.00     0.261 C 
BRANCH   2   3
ATOM      3  O   UNL     1      -7.578   7.004   3.129  1.00  0.00    -0.462 OA
BRANCH   3   4
ATOM      4  C   UNL     1      -8.159   7.051   1.916  1.00  0.00     0.329 C 
ATOM      5  O   UNL     1      -8.341   8.083   1.284  1.00  0.00    -0.250 OA
BRANCH   4   6
ATOM      6  C   UNL     1      -8.629   5.668   1.488  1.00  0.00     0.198 C 
BRANCH   6   7
ATOM      7  N   UNL     1      -8.069   4.554   2.281  1.00  0.00    -0.335 N 
ATOM      8  C   UNL     1      -6.878   3.884   2.128  1.00  0.00     0.293 C 
ATOM      9  O   UNL     1      -6.636   2.900   2.819  1.00  0.00    -0.265 OA
ATOM     10  H   UNL     1      -8.630   4.247   3.030  1.00  0.00     0.164 HD
BRANCH   8  11
ATOM     11  C   UNL     1      -5.890   4.350   1.040  1.00  0.00     0.252 C 
ATOM     12  O   UNL     1      -5.871   5.540   0.739  1.00  0.00    -0.283 OA
BRANCH  11  13
ATOM     13  C   UNL     1      -5.078   3.388   0.299  1.00  0.00     0.054 A 
ATOM     14  N   UNL     1      -4.080   1.512  -0.351  1.00  0.00    -0.240 N 
ATOM     15  C   UNL     1      -4.835   2.072   0.640  1.00  0.00     0.117 A 
ATOM     16  C   UNL     1      -3.800   2.422  -1.348  1.00  0.00     0.065 A 
ATOM     17  C   UNL     1      -4.386   3.627  -0.938  1.00  0.00     0.012 A 
ATOM     18  C   UNL     1      -3.074   2.324  -2.548  1.00  0.00     0.028 A 
ATOM     19  C   UNL     1      -4.224   4.768  -1.756  1.00  0.00     0.011 A 
ATOM     20  C   UNL     1      -2.928   3.472  -3.332  1.00  0.00     0.002 A 
ATOM     21  C   UNL     1      -3.492   4.680  -2.942  1.00  0.00     0.001 A 
BRANCH  14  22
ATOM     22  S   UNL     1      -3.494  -0.081  -0.285  1.00  0.00     0.268 S 
ATOM     23  O   UNL     1      -3.746  -0.635  -1.608  1.00  0.00    -0.201 OA
ATOM     24  O   UNL     1      -4.053  -0.680   0.907  1.00  0.00    -0.201 OA
BRANCH  22  25
ATOM     25  C   UNL     1      -1.738  -0.002  -0.068  1.00  0.00     0.088 A 
ATOM     26  C   UNL     1       2.557  -0.036   0.073  1.00  0.00     0.044 C 
ATOM     27  C   UNL     1       1.058  -0.021   0.053  1.00  0.00    -0.051 A 
ATOM     28  C   UNL     1       0.350  -1.222  -0.081  1.00  0.00     0.005 A 
ATOM     29  C   UNL     1       0.350   1.182   0.171  1.00  0.00     0.005 A 
ATOM     30  C   UNL     1      -1.042  -1.214  -0.147  1.00  0.00     0.022 A 
ATOM     31  C   UNL     1      -1.046   1.195   0.123  1.00  0.00     0.022 A 
ENDBRANCH  22  25
ENDBRANCH  14  22
ENDBRANCH  11  13
ENDBRANCH   8  11
ENDBRANCH   6   7
BRANCH   6  32
ATOM     32  C   UNL     1     -10.171   5.689   1.482  1.00  0.00     0.092 C 
BRANCH  32  33
ATOM     33  C   UNL     1     -10.806   4.898   2.575  1.00  0.00     0.037 A 
ATOM     34  C   UNL     1     -11.164   3.568   2.639  1.00  0.00     0.134 A 
ATOM     35  N   UNL     1     -11.120   5.404   3.811  1.00  0.00    -0.348 N 
ATOM     36  N   UNL     1     -11.691   3.259   3.861  1.00  0.00    -0.245 NA
ATOM     37  C   UNL     1     -11.663   4.383   4.540  1.00  0.00     0.196 A 
ATOM     38  H   UNL     1     -10.980   6.329   4.116  1.00  0.00     0.167 HD
ENDBRANCH  32  33
ENDBRANCH   6  32
ENDBRANCH   4   6
ENDBRANCH   3   4
ENDBRANCH   2   3
ENDBRANCH   1   2
BRANCH   1  39
ATOM     39  O   UNL     1      -5.585   5.221   4.254  1.00  0.00    -0.374 OA
BRANCH  39  40
ATOM     40  C   UNL     1      -5.693   4.442   5.549  1.00  0.00     0.202 C 
BRANCH  40  41
ATOM     41  C   UNL     1      -5.311   4.526   7.383  1.00  0.00     0.261 C 
BRANCH  41  42
ATOM     42  O   UNL     1      -5.661   5.605   8.759  1.00  0.00    -0.460 OA
BRANCH  42  43
ATOM     43  C   UNL     1      -5.737   6.841   9.630  1.00  0.00     0.338 C 
ATOM     44  O   UNL     1      -6.164   6.594  10.774  1.00  0.00    -0.246 OA
BRANCH  43  45
ATOM     45  C   UNL     1      -5.618   8.596   9.394  1.00  0.00     0.060 A 
ATOM     46  C   UNL     1      -6.737   9.405   9.710  1.00  0.00     0.016 A 
ATOM     47  C   UNL     1      -4.747   9.371   8.587  1.00  0.00     0.016 A 
ATOM     48  C   UNL     1      -7.195  10.491   8.800  1.00  0.00     0.010 A 
ATOM     49  C   UNL     1      -5.227  10.372   7.623  1.00  0.00     0.010 A 
ATOM     50  C   UNL     1      -6.569  10.742   7.555  1.00  0.00    -0.014 A 
BRANCH  50  51
ATOM     51  C   UNL     1      -7.330  10.916   6.178  1.00  0.00     0.031 A 
ATOM     52  C   UNL     1      -7.188  12.147   5.380  1.00  0.00     0.074 A 
ATOM     53  C   UNL     1      -8.076  10.056   5.379  1.00  0.00     0.049 A 
ATOM     54  N   UNL     1      -8.128  13.023   5.199  1.00  0.00    -0.248 NA
ATOM     55  C   UNL     1      -6.062  12.237   4.451  1.00  0.00     0.031 C 
ATOM     56  C   UNL     1      -8.960  10.335   4.214  1.00  0.00     0.029 A 
ATOM     57  N   UNL     1      -8.376   8.712   5.501  1.00  0.00    -0.354 N 
ATOM     58  C   UNL     1      -7.832  13.641   3.994  1.00  0.00     0.074 A 
ATOM     59  C   UNL     1      -6.489  13.202   3.631  1.00  0.00     0.031 C 
ATOM     60  C   UNL     1      -9.942   9.404   4.148  1.00  0.00     0.029 A 
ATOM     61  C   UNL     1      -9.730   8.477   5.234  1.00  0.00     0.049 A 
ATOM     62  H   UNL     1      -7.725   8.014   5.742  1.00  0.00     0.167 HD
ATOM     63  C   UNL     1      -8.777  14.133   3.131  1.00  0.00     0.037 A 
ATOM     64  C   UNL     1     -10.547   8.080   6.266  1.00  0.00     0.037 A 
ATOM     65  C   UNL     1     -10.105  13.517   3.305  1.00  0.00     0.049 A 
ATOM     66  C   UNL     1     -11.534   9.234   6.589  1.00  0.00     0.074 A 
ATOM     67  C   UNL     1     -10.954  12.806   2.464  1.00  0.00     0.029 A 
ATOM     68  N   UNL     1     -10.643  13.345   4.571  1.00  0.00    -0.354 N 
ATOM     69  N   UNL     1     -11.716  10.240   5.773  1.00  0.00    -0.248 NA
ATOM     70  C   UNL     1     -12.336   9.416   7.807  1.00  0.00     0.031 C 
ATOM     71  C   UNL     1     -12.038  12.286   3.225  1.00  0.00     0.029 A 
ATOM     72  C   UNL     1     -11.840  12.653   4.539  1.00  0.00     0.049 A 
ATOM     73  H   UNL     1     -10.222  13.676   5.397  1.00  0.00     0.167 HD
ATOM     74  C   UNL     1     -12.449  11.236   6.365  1.00  0.00     0.074 A 
ATOM     75  C   UNL     1     -12.878  10.642   7.618  1.00  0.00     0.031 C 
ATOM     76  C   UNL     1     -12.586  12.466   5.776  1.00  0.00     0.037 A 
BRANCH  63  77
ATOM     77  C   UNL     1      -8.389  15.012   1.943  1.00  0.00     0.058 A 
ATOM     78  C   UNL     1      -9.256  15.281   0.863  1.00  0.00     0.135 A 
ATOM     79  C   UNL     1      -7.167  15.730   1.896  1.00  0.00     0.135 A 
ATOM     80  F   UNL     1     -10.504  14.799   0.820  1.00  0.00    -0.206 F 
ATOM     81  C   UNL     1      -8.903  16.100  -0.216  1.00  0.00     0.059 A 
ATOM     82  C   UNL     1      -6.777  16.523   0.813  1.00  0.00     0.059 A 
ATOM     83  F   UNL     1      -6.313  15.719   2.932  1.00  0.00    -0.206 F 
ATOM     84  C   UNL     1      -7.654  16.704  -0.243  1.00  0.00     0.060 A 
BRANCH  84  85
ATOM     85  S   UNL     1      -7.221  17.757  -1.640  1.00  0.00     0.124 S 
ATOM     86  O   UNL     1      -7.457  16.874  -2.778  1.00  0.00    -0.237 OA
ATOM     87  O   UNL     1      -8.159  18.864  -1.489  1.00  0.00    -0.237 OA
ATOM     88  O   UNL     1      -5.819  18.088  -1.396  1.00  0.00    -0.744 OA
ENDBRANCH  84  85
ENDBRANCH  63  77
BRANCH  64  89
ATOM     89  C   UNL     1      -9.738   7.206   7.267  1.00  0.00     0.058 A 
ATOM     90  C   UNL     1      -9.174   5.984   6.887  1.00  0.00     0.135 A 
ATOM     91  C   UNL     1      -8.807   7.936   7.940  1.00  0.00     0.135 A 
ATOM     92  F   UNL     1      -9.992   4.951   6.649  1.00  0.00    -0.206 F 
ATOM     93  C   UNL     1      -7.743   5.723   6.819  1.00  0.00     0.059 A 
ATOM     94  C   UNL     1      -7.421   7.772   7.568  1.00  0.00     0.059 A 
ATOM     95  F   UNL     1      -9.244   9.076   8.487  1.00  0.00    -0.206 F 
ATOM     96  C   UNL     1      -6.776   6.729   6.979  1.00  0.00     0.060 A 
BRANCH  96  97
ATOM     97  S   UNL     1      -4.586   7.041   6.738  1.00  0.00     0.124 S 
ATOM     98  O   UNL     1      -3.962   5.973   5.973  1.00  0.00    -0.237 OA
ATOM     99  O   UNL     1      -4.583   8.311   6.021  1.00  0.00    -0.237 OA
ATOM    100  O   UNL     1      -3.943   7.037   8.043  1.00  0.00    -0.744 OA
ENDBRANCH  96  97
ENDBRANCH  64  89
BRANCH  76 101
ATOM    101  C   UNL     1     -13.412  13.638   6.265  1.00  0.00     0.058 A 
ATOM    102  C   UNL     1     -14.677  13.497   6.854  1.00  0.00     0.135 A 
ATOM    103  C   UNL     1     -13.017  14.977   5.998  1.00  0.00     0.135 A 
ATOM    104  F   UNL     1     -15.207  12.281   7.054  1.00  0.00    -0.206 F 
ATOM    105  C   UNL     1     -15.453  14.603   7.229  1.00  0.00     0.059 A 
ATOM    106  C   UNL     1     -13.788  16.087   6.322  1.00  0.00     0.059 A 
ATOM    107  F   UNL     1     -11.842  15.272   5.426  1.00  0.00    -0.206 F 
ATOM    108  C   UNL     1     -14.988  15.894   6.978  1.00  0.00     0.060 A 
BRANCH 108 109
ATOM    109  S   UNL     1     -15.937  17.323   7.531  1.00  0.00     0.124 S 
ATOM    110  O   UNL     1     -17.308  16.937   7.214  1.00  0.00    -0.237 OA
ATOM    111  O   UNL     1     -15.601  17.356   8.951  1.00  0.00    -0.237 OA
ATOM    112  O   UNL     1     -15.402  18.422   6.733  1.00  0.00    -0.744 OA
ENDBRANCH 108 109
ENDBRANCH  76 101
ENDBRANCH  50  51
ENDBRANCH  43  45
ENDBRANCH  42  43
ENDBRANCH  41  42
ENDBRANCH  40  41
ENDBRANCH  39  40
ENDBRANCH   1  39
TORSDOF 24
