REMARK SMILES O=C(OCCOCCOC(=O)[C@H]1CC2=c3ccccc3=N[C@H]2[C@H](c2ccccc2F)[NH2+]1)c1ccc(-c2c3nc(c(-c4c(F)cc(S(=O)(=O)[O-])cc4F)c4ccc([nH]4)c(-c4c(F)cc(S(=O)(=O)[O-])cc4F)c4nc(c(-c5c(F)cc(S(=O)(=O)[O-])cc5F)c5ccc2[nH]5)C=C4)C=C3)cc1
REMARK SMILES IDX 5 1 4 2 3 3 2 4 1 5 32 6 33 7 97 8 34 9 96 10 35 11 36 12
REMARK SMILES IDX 37 13 90 14 38 15 95 16 89 17 91 18 39 19 94 20 88 21 87 22
REMARK SMILES IDX 40 24 74 25 53 26 73 27 54 28 57 29 72 30 92 31 55 32 56 33
REMARK SMILES IDX 71 35 93 36 58 37 41 38 42 39 51 40 43 41 44 42 50 43 52 44
REMARK SMILES IDX 45 45 46 46 47 47 48 48 49 49 75 50 76 51 85 52 77 53 78 54
REMARK SMILES IDX 84 55 86 56 79 57 80 58 81 59 82 60 83 61 59 62 60 63 69 64
REMARK SMILES IDX 61 65 62 66 68 67 70 68 63 69 64 70 65 71 66 72 67 73 6 74
REMARK SMILES IDX 7 75 8 76 9 77 10 78 11 79 12 80 13 81 31 82 14 83 23 84
REMARK SMILES IDX 15 87 22 88 16 89 20 90 21 91 17 92 19 93 18 94 24 95 25 96
REMARK SMILES IDX 29 97 26 98 28 99 30 100 27 101
REMARK H PARENT 91 23 57 34 31 85 31 86
REMARK Flexibility Score: inf
ROOT
ATOM      1  C   UNL     1       4.979   0.970   0.579  1.00  0.00     0.202 C 
ENDROOT
BRANCH   1   2
ATOM      2  C   UNL     1       4.479   0.620  -0.841  1.00  0.00     0.261 C 
BRANCH   2   3
ATOM      3  O   UNL     1       3.111   0.226  -0.985  1.00  0.00    -0.460 OA
BRANCH   3   4
ATOM      4  C   UNL     1       2.690  -1.071  -0.984  1.00  0.00     0.338 C 
ATOM      5  O   UNL     1       1.698  -1.399  -1.627  1.00  0.00    -0.246 OA
BRANCH   4   6
ATOM      6  C   UNL     1       3.247  -1.991   0.046  1.00  0.00     0.060 A 
ATOM      7  C   UNL     1       2.335  -2.734   0.815  1.00  0.00     0.016 A 
ATOM      8  C   UNL     1       4.609  -2.096   0.324  1.00  0.00     0.016 A 
ATOM      9  C   UNL     1       2.785  -3.504   1.892  1.00  0.00     0.010 A 
ATOM     10  C   UNL     1       5.048  -2.758   1.459  1.00  0.00     0.010 A 
ATOM     11  C   UNL     1       4.144  -3.493   2.228  1.00  0.00    -0.014 A 
BRANCH  11  12
ATOM     12  C   UNL     1       4.734  -4.465   3.160  1.00  0.00     0.031 A 
ATOM     13  C   UNL     1       5.007  -4.133   4.590  1.00  0.00     0.074 A 
ATOM     14  C   UNL     1       5.191  -5.596   2.589  1.00  0.00     0.049 A 
ATOM     15  N   UNL     1       5.501  -4.908   5.517  1.00  0.00    -0.248 NA
ATOM     16  C   UNL     1       4.712  -2.764   5.040  1.00  0.00     0.031 C 
ATOM     17  C   UNL     1       5.077  -5.912   1.158  1.00  0.00     0.029 A 
ATOM     18  N   UNL     1       5.882  -6.652   3.106  1.00  0.00    -0.354 N 
ATOM     19  C   UNL     1       5.535  -4.144   6.675  1.00  0.00     0.074 A 
ATOM     20  C   UNL     1       5.068  -2.820   6.321  1.00  0.00     0.031 C 
ATOM     21  C   UNL     1       5.704  -7.068   0.910  1.00  0.00     0.029 A 
ATOM     22  C   UNL     1       6.227  -7.589   2.164  1.00  0.00     0.049 A 
ATOM     23  H   UNL     1       6.111  -6.734   4.060  1.00  0.00     0.167 HD
ATOM     24  C   UNL     1       5.903  -4.544   7.915  1.00  0.00     0.037 A 
ATOM     25  C   UNL     1       6.870  -8.759   2.304  1.00  0.00     0.037 A 
ATOM     26  C   UNL     1       6.405  -5.867   8.197  1.00  0.00     0.049 A 
ATOM     27  C   UNL     1       7.238  -9.191   3.691  1.00  0.00     0.074 A 
ATOM     28  C   UNL     1       6.728  -6.424   9.421  1.00  0.00     0.029 A 
ATOM     29  N   UNL     1       6.678  -6.832   7.235  1.00  0.00    -0.354 N 
ATOM     30  N   UNL     1       7.095  -8.530   4.815  1.00  0.00    -0.248 NA
ATOM     31  C   UNL     1       7.814 -10.530   3.841  1.00  0.00     0.031 C 
ATOM     32  C   UNL     1       7.245  -7.702   9.195  1.00  0.00     0.029 A 
ATOM     33  C   UNL     1       7.191  -7.969   7.835  1.00  0.00     0.049 A 
ATOM     34  H   UNL     1       6.530  -6.723   6.268  1.00  0.00     0.167 HD
ATOM     35  C   UNL     1       7.531  -9.386   5.814  1.00  0.00     0.074 A 
ATOM     36  C   UNL     1       7.939 -10.614   5.159  1.00  0.00     0.031 C 
ATOM     37  C   UNL     1       7.582  -9.178   7.152  1.00  0.00     0.037 A 
BRANCH  24  38
ATOM     38  C   UNL     1       5.734  -3.594   9.070  1.00  0.00     0.058 A 
ATOM     39  C   UNL     1       4.456  -3.270   9.553  1.00  0.00     0.135 A 
ATOM     40  C   UNL     1       6.842  -3.131   9.802  1.00  0.00     0.135 A 
ATOM     41  F   UNL     1       3.360  -3.679   8.893  1.00  0.00    -0.206 F 
ATOM     42  C   UNL     1       4.280  -2.536  10.722  1.00  0.00     0.059 A 
ATOM     43  C   UNL     1       6.690  -2.413  10.987  1.00  0.00     0.059 A 
ATOM     44  F   UNL     1       8.088  -3.410   9.389  1.00  0.00    -0.206 F 
ATOM     45  C   UNL     1       5.404  -2.126  11.442  1.00  0.00     0.060 A 
BRANCH  45  46
ATOM     46  S   UNL     1       5.147  -1.250  13.001  1.00  0.00     0.124 S 
ATOM     47  O   UNL     1       4.555   0.003  12.541  1.00  0.00    -0.237 OA
ATOM     48  O   UNL     1       4.246  -2.149  13.715  1.00  0.00    -0.237 OA
ATOM     49  O   UNL     1       6.491  -1.139  13.558  1.00  0.00    -0.744 OA
ENDBRANCH  45  46
ENDBRANCH  24  38
BRANCH  25  50
ATOM     50  C   UNL     1       7.071  -9.623   1.117  1.00  0.00     0.058 A 
ATOM     51  C   UNL     1       6.284 -10.768   0.933  1.00  0.00     0.135 A 
ATOM     52  C   UNL     1       7.980  -9.280   0.104  1.00  0.00     0.135 A 
ATOM     53  F   UNL     1       5.383 -11.119   1.863  1.00  0.00    -0.206 F 
ATOM     54  C   UNL     1       6.410 -11.562  -0.200  1.00  0.00     0.059 A 
ATOM     55  C   UNL     1       8.108 -10.046  -1.050  1.00  0.00     0.059 A 
ATOM     56  F   UNL     1       8.720  -8.165   0.213  1.00  0.00    -0.206 F 
ATOM     57  C   UNL     1       7.327 -11.193  -1.186  1.00  0.00     0.060 A 
BRANCH  57  58
ATOM     58  S   UNL     1       7.462 -12.224  -2.661  1.00  0.00     0.124 S 
ATOM     59  O   UNL     1       8.080 -13.429  -2.120  1.00  0.00    -0.237 OA
ATOM     60  O   UNL     1       6.068 -12.350  -3.074  1.00  0.00    -0.237 OA
ATOM     61  O   UNL     1       8.303 -11.430  -3.552  1.00  0.00    -0.744 OA
ENDBRANCH  57  58
ENDBRANCH  25  50
BRANCH  37  62
ATOM     62  C   UNL     1       8.089 -10.303   8.004  1.00  0.00     0.058 A 
ATOM     63  C   UNL     1       9.454 -10.615   8.062  1.00  0.00     0.135 A 
ATOM     64  C   UNL     1       7.213 -10.994   8.857  1.00  0.00     0.135 A 
ATOM     65  F   UNL     1      10.326  -9.991   7.254  1.00  0.00    -0.206 F 
ATOM     66  C   UNL     1       9.939 -11.571   8.945  1.00  0.00     0.059 A 
ATOM     67  C   UNL     1       7.680 -11.934   9.768  1.00  0.00     0.059 A 
ATOM     68  F   UNL     1       5.898 -10.726   8.838  1.00  0.00    -0.206 F 
ATOM     69  C   UNL     1       9.045 -12.213   9.806  1.00  0.00     0.060 A 
BRANCH  69  70
ATOM     70  S   UNL     1       9.708 -13.379  11.013  1.00  0.00     0.124 S 
ATOM     71  O   UNL     1      10.131 -14.481  10.156  1.00  0.00    -0.237 OA
ATOM     72  O   UNL     1      10.782 -12.607  11.629  1.00  0.00    -0.237 OA
ATOM     73  O   UNL     1       8.567 -13.660  11.879  1.00  0.00    -0.744 OA
ENDBRANCH  69  70
ENDBRANCH  37  62
ENDBRANCH  11  12
ENDBRANCH   4   6
ENDBRANCH   3   4
ENDBRANCH   2   3
ENDBRANCH   1   2
BRANCH   1  74
ATOM     74  O   UNL     1       4.399   0.395   1.741  1.00  0.00    -0.374 OA
BRANCH  74  75
ATOM     75  C   UNL     1       3.018   0.594   2.040  1.00  0.00     0.202 C 
BRANCH  75  76
ATOM     76  C   UNL     1       2.619   1.917   2.685  1.00  0.00     0.261 C 
BRANCH  76  77
ATOM     77  O   UNL     1       2.959   3.006   1.822  1.00  0.00    -0.459 OA
BRANCH  77  78
ATOM     78  C   UNL     1       4.060   3.696   2.214  1.00  0.00     0.365 C 
ATOM     79  O   UNL     1       4.584   3.603   3.320  1.00  0.00    -0.245 OA
BRANCH  78  80
ATOM     80  C   UNL     1       4.632   4.561   1.083  1.00  0.00     0.298 C 
ATOM     81  C   UNL     1       4.237   4.173  -0.367  1.00  0.00     0.111 C 
ATOM     82  N   UNL     1       4.440   5.994   1.439  1.00  0.00    -0.326 N 
ATOM     83  C   UNL     1       3.635   5.333  -1.055  1.00  0.00    -0.024 C 
ATOM     84  C   UNL     1       5.041   6.895   0.430  1.00  0.00     0.246 C 
ATOM     85  H   UNL     1       4.878   6.171   2.343  1.00  0.00     0.347 HD
ATOM     86  H   UNL     1       3.438   6.181   1.476  1.00  0.00     0.347 HD
ATOM     87  C   UNL     1       2.414   5.431  -1.560  1.00  0.00     0.002 A 
ATOM     88  C   UNL     1       4.337   6.659  -0.972  1.00  0.00     0.196 C 
ATOM     89  C   UNL     1       1.356   4.510  -1.814  1.00  0.00     0.010 A 
ATOM     90  C   UNL     1       2.237   6.889  -1.613  1.00  0.00     0.066 A 
ATOM     91  N   UNL     1       3.238   7.642  -1.253  1.00  0.00    -0.270 NA
ATOM     92  C   UNL     1       0.158   4.998  -2.168  1.00  0.00     0.001 A 
ATOM     93  C   UNL     1       0.882   7.346  -2.002  1.00  0.00     0.028 A 
ATOM     94  C   UNL     1      -0.073   6.431  -2.256  1.00  0.00     0.002 A 
BRANCH  84  95
ATOM     95  C   UNL     1       6.584   6.825   0.382  1.00  0.00     0.048 A 
ATOM     96  C   UNL     1       7.278   7.498  -0.640  1.00  0.00     0.013 A 
ATOM     97  C   UNL     1       7.382   6.152   1.329  1.00  0.00     0.132 A 
ATOM     98  C   UNL     1       8.668   7.381  -0.782  1.00  0.00     0.001 A 
ATOM     99  C   UNL     1       8.758   5.991   1.167  1.00  0.00     0.040 A 
ATOM    100  F   UNL     1       6.858   5.609   2.436  1.00  0.00    -0.206 F 
ATOM    101  C   UNL     1       9.404   6.594   0.099  1.00  0.00     0.003 A 
ENDBRANCH  84  95
ENDBRANCH  78  80
ENDBRANCH  77  78
ENDBRANCH  76  77
ENDBRANCH  75  76
ENDBRANCH  74  75
ENDBRANCH   1  74
TORSDOF 18
