REMARK SMILES CCCCn1cc(C(N)=O)c2cc(C(=O)OCCOCCOC(=O)c3ccc(-c4c5nc(c(-c6c(F)cc(S(=O)(=O)[O-])cc6F)c6ccc([nH]6)c(-c6c(F)cc(S(=O)(=O)[O-])cc6F)c6nc(c(-c7c(F)cc(S(=O)(=O)[O-])cc7F)c7ccc4[nH]7)C=C6)C=C5)cc3)cnc21
REMARK SMILES IDX 19 1 18 2 17 3 16 4 14 5 15 6 13 7 5 8 6 9 93 10 7 11 11 12
REMARK SMILES IDX 92 13 12 14 91 15 4 16 3 17 2 18 1 19 8 20 9 21 10 22 20 25
REMARK SMILES IDX 21 26 22 27 23 28 24 29 25 30 26 31 90 32 27 33 89 34 28 35
REMARK SMILES IDX 29 36 30 37 83 38 31 39 88 40 82 41 84 42 32 43 87 44 81 45
REMARK SMILES IDX 80 46 33 48 67 49 46 50 66 51 47 52 50 53 65 54 85 55 48 56
REMARK SMILES IDX 49 57 64 59 86 60 51 61 34 62 35 63 44 64 36 65 37 66 43 67
REMARK SMILES IDX 45 68 38 69 39 70 40 71 41 72 42 73 68 74 69 75 78 76 70 77
REMARK SMILES IDX 71 78 77 79 79 80 72 81 73 82 74 83 75 84 76 85 52 86 53 87
REMARK SMILES IDX 62 88 54 89 55 90 61 91 63 92 56 93 57 94 58 95 59 96 60 97
REMARK H PARENT 9 23 9 24 84 47 50 58
REMARK Flexibility Score: inf
ROOT
ATOM      1  O   UNL     1      -7.434   7.405   1.949  1.00  0.00    -0.374 OA
ENDROOT
BRANCH   1   2
ATOM      2  C   UNL     1      -6.854   8.393   2.801  1.00  0.00     0.202 C 
BRANCH   2   3
ATOM      3  C   UNL     1      -5.930   7.922   3.927  1.00  0.00     0.261 C 
BRANCH   3   4
ATOM      4  O   UNL     1      -4.776   7.211   3.442  1.00  0.00    -0.460 OA
BRANCH   4   5
ATOM      5  C   UNL     1      -4.772   5.892   3.736  1.00  0.00     0.339 C 
ATOM      6  O   UNL     1      -5.587   5.288   4.427  1.00  0.00    -0.246 OA
BRANCH   5   7
ATOM      7  C   UNL     1      -3.771   5.176   2.939  1.00  0.00     0.079 A 
ATOM      8  N   UNL     1      -1.119   2.809   1.003  1.00  0.00    -0.332 N 
ATOM      9  C   UNL     1      -1.911   1.862   0.414  1.00  0.00     0.102 A 
ATOM     10  C   UNL     1      -1.914   3.745   1.616  1.00  0.00     0.140 A 
ATOM     11  C   UNL     1      -3.226   2.057   0.804  1.00  0.00     0.066 A 
ATOM     12  C   UNL     1      -3.225   3.259   1.587  1.00  0.00     0.033 A 
ATOM     13  N   UNL     1      -1.483   4.894   2.186  1.00  0.00    -0.237 NA
ATOM     14  C   UNL     1      -4.175   3.989   2.316  1.00  0.00     0.030 A 
ATOM     15  C   UNL     1      -2.459   5.597   2.811  1.00  0.00     0.129 A 
BRANCH   8  16
ATOM     16  C   UNL     1       0.334   2.791   1.004  1.00  0.00     0.123 C 
BRANCH  16  17
ATOM     17  C   UNL     1       0.945   1.723   1.927  1.00  0.00     0.022 C 
BRANCH  17  18
ATOM     18  C   UNL     1       0.709   0.256   1.538  1.00  0.00    -0.002 C 
ATOM     19  C   UNL     1       1.199  -0.108   0.145  1.00  0.00     0.004 C 
ENDBRANCH  17  18
ENDBRANCH  16  17
ENDBRANCH   8  16
BRANCH  11  20
ATOM     20  C   UNL     1      -4.287   1.126   0.444  1.00  0.00     0.250 C 
ATOM     21  N   UNL     1      -5.569   1.566   0.560  1.00  0.00    -0.366 N 
ATOM     22  O   UNL     1      -4.069  -0.011   0.028  1.00  0.00    -0.269 OA
ATOM     23  H   UNL     1      -5.750   2.475   0.893  1.00  0.00     0.159 HD
ATOM     24  H   UNL     1      -6.317   0.975   0.313  1.00  0.00     0.159 HD
ENDBRANCH  11  20
ENDBRANCH   5   7
ENDBRANCH   4   5
ENDBRANCH   3   4
ENDBRANCH   2   3
ENDBRANCH   1   2
BRANCH   1  25
ATOM     25  C   UNL     1      -6.616   6.705   1.019  1.00  0.00     0.202 C 
BRANCH  25  26
ATOM     26  C   UNL     1      -6.034   7.446  -0.178  1.00  0.00     0.261 C 
BRANCH  26  27
ATOM     27  O   UNL     1      -5.229   8.554   0.190  1.00  0.00    -0.460 OA
BRANCH  27  28
ATOM     28  C   UNL     1      -5.880   9.729   0.079  1.00  0.00     0.338 C 
ATOM     29  O   UNL     1      -7.100   9.892   0.024  1.00  0.00    -0.246 OA
BRANCH  28  30
ATOM     30  C   UNL     1      -4.922  10.812  -0.098  1.00  0.00     0.060 A 
ATOM     31  C   UNL     1      -5.442  12.107  -0.099  1.00  0.00     0.016 A 
ATOM     32  C   UNL     1      -3.632  10.519  -0.568  1.00  0.00     0.016 A 
ATOM     33  C   UNL     1      -4.752  13.079  -0.780  1.00  0.00     0.010 A 
ATOM     34  C   UNL     1      -2.950  11.490  -1.259  1.00  0.00     0.010 A 
ATOM     35  C   UNL     1      -3.562  12.728  -1.428  1.00  0.00    -0.014 A 
BRANCH  35  36
ATOM     36  C   UNL     1      -2.933  13.736  -2.246  1.00  0.00     0.031 A 
ATOM     37  C   UNL     1      -2.260  14.779  -1.448  1.00  0.00     0.074 A 
ATOM     38  C   UNL     1      -2.932  13.688  -3.589  1.00  0.00     0.049 A 
ATOM     39  N   UNL     1      -2.659  15.991  -1.254  1.00  0.00    -0.248 NA
ATOM     40  C   UNL     1      -1.126  14.372  -0.606  1.00  0.00     0.031 C 
ATOM     41  C   UNL     1      -3.333  12.593  -4.475  1.00  0.00     0.029 A 
ATOM     42  N   UNL     1      -2.479  14.630  -4.454  1.00  0.00    -0.354 N 
ATOM     43  C   UNL     1      -1.692  16.572  -0.445  1.00  0.00     0.074 A 
ATOM     44  C   UNL     1      -0.900  15.491   0.081  1.00  0.00     0.031 C 
ATOM     45  C   UNL     1      -2.890  12.854  -5.729  1.00  0.00     0.029 A 
ATOM     46  C   UNL     1      -2.303  14.184  -5.756  1.00  0.00     0.049 A 
ATOM     47  H   UNL     1      -2.291  15.556  -4.180  1.00  0.00     0.167 HD
ATOM     48  C   UNL     1      -1.466  17.912  -0.475  1.00  0.00     0.037 A 
ATOM     49  C   UNL     1      -1.644  14.853  -6.738  1.00  0.00     0.037 A 
ATOM     50  C   UNL     1      -2.566  18.617  -1.084  1.00  0.00     0.049 A 
ATOM     51  C   UNL     1      -1.646  16.294  -6.348  1.00  0.00     0.074 A 
ATOM     52  C   UNL     1      -3.912  18.740  -0.793  1.00  0.00     0.029 A 
ATOM     53  N   UNL     1      -2.429  19.015  -2.393  1.00  0.00    -0.354 N 
ATOM     54  N   UNL     1      -2.728  17.024  -6.283  1.00  0.00    -0.248 NA
ATOM     55  C   UNL     1      -0.520  16.785  -5.565  1.00  0.00     0.031 C 
ATOM     56  C   UNL     1      -4.567  18.734  -2.059  1.00  0.00     0.029 A 
ATOM     57  C   UNL     1      -3.585  18.672  -3.049  1.00  0.00     0.049 A 
ATOM     58  H   UNL     1      -1.646  19.464  -2.787  1.00  0.00     0.167 HD
ATOM     59  C   UNL     1      -2.567  17.808  -5.148  1.00  0.00     0.074 A 
ATOM     60  C   UNL     1      -1.157  17.666  -4.788  1.00  0.00     0.031 C 
ATOM     61  C   UNL     1      -3.640  18.270  -4.439  1.00  0.00     0.037 A 
BRANCH  48  62
ATOM     62  C   UNL     1      -0.105  18.529  -0.292  1.00  0.00     0.058 A 
ATOM     63  C   UNL     1       0.004  19.926  -0.152  1.00  0.00     0.135 A 
ATOM     64  C   UNL     1       1.107  17.840  -0.523  1.00  0.00     0.135 A 
ATOM     65  F   UNL     1      -1.088  20.679   0.058  1.00  0.00    -0.206 F 
ATOM     66  C   UNL     1       1.218  20.595  -0.300  1.00  0.00     0.059 A 
ATOM     67  C   UNL     1       2.335  18.481  -0.615  1.00  0.00     0.059 A 
ATOM     68  F   UNL     1       1.152  16.526  -0.773  1.00  0.00    -0.206 F 
ATOM     69  C   UNL     1       2.376  19.862  -0.546  1.00  0.00     0.060 A 
BRANCH  69  70
ATOM     70  S   UNL     1       3.923  20.728  -0.849  1.00  0.00     0.124 S 
ATOM     71  O   UNL     1       3.642  21.387  -2.119  1.00  0.00    -0.237 OA
ATOM     72  O   UNL     1       4.013  21.598   0.319  1.00  0.00    -0.237 OA
ATOM     73  O   UNL     1       4.907  19.651  -0.899  1.00  0.00    -0.744 OA
ENDBRANCH  69  70
ENDBRANCH  48  62
BRANCH  49  74
ATOM     74  C   UNL     1      -0.670  14.285  -7.713  1.00  0.00     0.058 A 
ATOM     75  C   UNL     1      -0.153  15.067  -8.764  1.00  0.00     0.135 A 
ATOM     76  C   UNL     1      -0.009  13.062  -7.475  1.00  0.00     0.135 A 
ATOM     77  F   UNL     1      -0.704  16.256  -9.053  1.00  0.00    -0.206 F 
ATOM     78  C   UNL     1       0.982  14.687  -9.492  1.00  0.00     0.059 A 
ATOM     79  C   UNL     1       1.115  12.658  -8.193  1.00  0.00     0.059 A 
ATOM     80  F   UNL     1      -0.378  12.256  -6.468  1.00  0.00    -0.206 F 
ATOM     81  C   UNL     1       1.624  13.489  -9.183  1.00  0.00     0.060 A 
BRANCH  81  82
ATOM     82  S   UNL     1       3.186  13.075  -9.996  1.00  0.00     0.124 S 
ATOM     83  O   UNL     1       2.762  12.855 -11.374  1.00  0.00    -0.237 OA
ATOM     84  O   UNL     1       3.984  14.272  -9.756  1.00  0.00    -0.237 OA
ATOM     85  O   UNL     1       3.633  11.880  -9.284  1.00  0.00    -0.744 OA
ENDBRANCH  81  82
ENDBRANCH  49  74
BRANCH  61  86
ATOM     86  C   UNL     1      -5.015  18.151  -5.049  1.00  0.00     0.058 A 
ATOM     87  C   UNL     1      -5.659  16.932  -5.328  1.00  0.00     0.135 A 
ATOM     88  C   UNL     1      -5.778  19.321  -5.185  1.00  0.00     0.135 A 
ATOM     89  F   UNL     1      -5.037  15.762  -5.128  1.00  0.00    -0.206 F 
ATOM     90  C   UNL     1      -6.990  16.883  -5.753  1.00  0.00     0.059 A 
ATOM     91  C   UNL     1      -7.114  19.294  -5.576  1.00  0.00     0.059 A 
ATOM     92  F   UNL     1      -5.241  20.513  -4.875  1.00  0.00    -0.206 F 
ATOM     93  C   UNL     1      -7.712  18.070  -5.868  1.00  0.00     0.060 A 
BRANCH  93  94
ATOM     94  S   UNL     1      -9.456  18.001  -6.335  1.00  0.00     0.124 S 
ATOM     95  O   UNL     1      -9.386  17.557  -7.723  1.00  0.00    -0.237 OA
ATOM     96  O   UNL     1      -9.999  17.032  -5.387  1.00  0.00    -0.237 OA
ATOM     97  O   UNL     1      -9.917  19.374  -6.143  1.00  0.00    -0.744 OA
ENDBRANCH  93  94
ENDBRANCH  61  86
ENDBRANCH  35  36
ENDBRANCH  28  30
ENDBRANCH  27  28
ENDBRANCH  26  27
ENDBRANCH  25  26
ENDBRANCH   1  25
TORSDOF 21
