REMARK SMILES CN(C)c1ccc(/C=N/NC(=O)/C=C\C(=O)OCCOCCOC(=O)c2ccc(-c3c4nc(c(-c5c(F)cc(S(=O)(=O)[O-])cc5F)c5ccc([nH]5)c(-c5c(F)cc(S(=O)(=O)[O-])cc5F)c5nc(c(-c6c(F)cc(S(=O)(=O)[O-])cc6F)c6ccc3[nH]6)C=C5)C=C4)cc2)cc1
REMARK SMILES IDX 19 1 18 2 17 3 15 4 16 5 14 6 13 7 11 8 10 9 12 11 9 12 8 13
REMARK SMILES IDX 7 14 4 15 5 16 93 17 6 18 92 19 2 20 1 21 3 22 20 23 21 24
REMARK SMILES IDX 22 25 23 26 24 27 25 28 26 29 27 30 91 31 28 32 90 33 29 34
REMARK SMILES IDX 30 35 31 36 84 37 32 38 89 39 83 40 85 41 33 42 88 43 82 44
REMARK SMILES IDX 81 45 34 47 68 48 47 49 67 50 48 51 51 52 66 53 86 54 49 55
REMARK SMILES IDX 50 56 65 58 87 59 52 60 35 61 36 62 45 63 37 64 38 65 44 66
REMARK SMILES IDX 46 67 39 68 40 69 41 70 42 71 43 72 69 73 70 74 79 75 71 76
REMARK SMILES IDX 72 77 78 78 80 79 73 80 74 81 75 82 76 83 77 84 53 85 54 86
REMARK SMILES IDX 63 87 55 88 56 89 62 90 64 91 57 92 58 93 59 94 60 95 61 96
REMARK H PARENT 10 10 85 46 51 57
REMARK Flexibility Score: inf
ROOT
ATOM      1  C   UNL     1       0.132   5.710   2.961  1.00  0.00     0.202 C 
ENDROOT
BRANCH   1   2
ATOM      2  C   UNL     1       0.606   5.309   4.359  1.00  0.00     0.261 C 
BRANCH   2   3
ATOM      3  O   UNL     1       1.891   5.696   4.853  1.00  0.00    -0.460 OA
BRANCH   3   4
ATOM      4  C   UNL     1       2.822   4.723   4.782  1.00  0.00     0.331 C 
ATOM      5  O   UNL     1       2.927   3.853   3.928  1.00  0.00    -0.247 OA
BRANCH   4   6
ATOM      6  C   UNL     1       3.800   4.775   5.858  1.00  0.00     0.099 C 
ATOM      7  C   UNL     1       3.542   4.626   7.160  1.00  0.00     0.080 C 
BRANCH   7   8
ATOM      8  C   UNL     1       2.292   4.558   7.946  1.00  0.00     0.264 C 
ATOM      9  N   UNL     1       1.179   3.831   7.647  1.00  0.00    -0.244 N 
ATOM     10  H   UNL     1       0.525   3.815   8.384  1.00  0.00     0.194 HD
ATOM     11  O   UNL     1       2.303   5.190   9.009  1.00  0.00    -0.268 OA
BRANCH   9  12
ATOM     12  N   UNL     1       0.766   3.125   6.566  1.00  0.00    -0.180 NA
ATOM     13  C   UNL     1       1.513   2.242   5.986  1.00  0.00     0.141 C 
BRANCH  13  14
ATOM     14  C   UNL     1       1.067   1.643   4.690  1.00  0.00    -0.005 A 
ATOM     15  C   UNL     1       0.450   1.100   1.960  1.00  0.00     0.036 A 
ATOM     16  C   UNL     1      -0.497   1.663   2.827  1.00  0.00     0.026 A 
ATOM     17  C   UNL     1       1.692   0.755   2.525  1.00  0.00     0.026 A 
ATOM     18  C   UNL     1      -0.209   1.906   4.179  1.00  0.00     0.012 A 
ATOM     19  C   UNL     1       2.006   1.025   3.869  1.00  0.00     0.012 A 
BRANCH  15  20
ATOM     20  N   UNL     1       0.162   0.902   0.612  1.00  0.00    -0.378 N 
ATOM     21  C   UNL     1       0.888  -0.103  -0.148  1.00  0.00     0.143 C 
ATOM     22  C   UNL     1      -0.456   1.997  -0.135  1.00  0.00     0.143 C 
ENDBRANCH  15  20
ENDBRANCH  13  14
ENDBRANCH   9  12
ENDBRANCH   7   8
ENDBRANCH   4   6
ENDBRANCH   3   4
ENDBRANCH   2   3
ENDBRANCH   1   2
BRANCH   1  23
ATOM     23  O   UNL     1       0.929   5.493   1.814  1.00  0.00    -0.374 OA
BRANCH  23  24
ATOM     24  C   UNL     1       2.245   6.013   1.760  1.00  0.00     0.202 C 
BRANCH  24  25
ATOM     25  C   UNL     1       2.541   7.486   2.080  1.00  0.00     0.261 C 
BRANCH  25  26
ATOM     26  O   UNL     1       1.919   8.013   3.260  1.00  0.00    -0.460 OA
BRANCH  26  27
ATOM     27  C   UNL     1       0.840   8.797   3.032  1.00  0.00     0.338 C 
ATOM     28  O   UNL     1       0.353   9.075   1.942  1.00  0.00    -0.246 OA
BRANCH  27  29
ATOM     29  C   UNL     1       0.188   9.157   4.304  1.00  0.00     0.060 A 
ATOM     30  C   UNL     1      -1.168   8.842   4.482  1.00  0.00     0.016 A 
ATOM     31  C   UNL     1       0.872   9.911   5.257  1.00  0.00     0.016 A 
ATOM     32  C   UNL     1      -1.862   9.329   5.589  1.00  0.00     0.010 A 
ATOM     33  C   UNL     1       0.168  10.421   6.351  1.00  0.00     0.010 A 
ATOM     34  C   UNL     1      -1.209  10.171   6.495  1.00  0.00    -0.014 A 
BRANCH  34  35
ATOM     35  C   UNL     1      -1.996  10.978   7.459  1.00  0.00     0.031 A 
ATOM     36  C   UNL     1      -2.333  12.396   7.082  1.00  0.00     0.074 A 
ATOM     37  C   UNL     1      -2.377  10.479   8.648  1.00  0.00     0.049 A 
ATOM     38  N   UNL     1      -2.856  13.346   7.810  1.00  0.00    -0.248 NA
ATOM     39  C   UNL     1      -2.030  12.798   5.696  1.00  0.00     0.031 C 
ATOM     40  C   UNL     1      -2.153   9.108   9.101  1.00  0.00     0.029 A 
ATOM     41  N   UNL     1      -3.009  11.086   9.704  1.00  0.00    -0.354 N 
ATOM     42  C   UNL     1      -2.913  14.464   6.986  1.00  0.00     0.074 A 
ATOM     43  C   UNL     1      -2.375  14.077   5.702  1.00  0.00     0.031 C 
ATOM     44  C   UNL     1      -2.604   8.989  10.364  1.00  0.00     0.029 A 
ATOM     45  C   UNL     1      -3.107  10.285  10.818  1.00  0.00     0.049 A 
ATOM     46  H   UNL     1      -3.358  12.006   9.668  1.00  0.00     0.167 HD
ATOM     47  C   UNL     1      -3.369  15.703   7.280  1.00  0.00     0.037 A 
ATOM     48  C   UNL     1      -3.510  10.581  12.070  1.00  0.00     0.037 A 
ATOM     49  C   UNL     1      -3.923  16.074   8.555  1.00  0.00     0.049 A 
ATOM     50  C   UNL     1      -3.968  11.984  12.387  1.00  0.00     0.074 A 
ATOM     51  C   UNL     1      -4.449  17.295   8.940  1.00  0.00     0.029 A 
ATOM     52  N   UNL     1      -4.018  15.231   9.652  1.00  0.00    -0.354 N 
ATOM     53  N   UNL     1      -4.041  13.029  11.595  1.00  0.00    -0.248 NA
ATOM     54  C   UNL     1      -4.397  12.252  13.768  1.00  0.00     0.031 C 
ATOM     55  C   UNL     1      -4.815  17.205  10.286  1.00  0.00     0.029 A 
ATOM     56  C   UNL     1      -4.570  15.913  10.722  1.00  0.00     0.049 A 
ATOM     57  H   UNL     1      -3.735  14.289   9.667  1.00  0.00     0.167 HD
ATOM     58  C   UNL     1      -4.552  14.064  12.373  1.00  0.00     0.074 A 
ATOM     59  C   UNL     1      -4.776  13.521  13.696  1.00  0.00     0.031 C 
ATOM     60  C   UNL     1      -4.813  15.348  12.025  1.00  0.00     0.037 A 
BRANCH  47  61
ATOM     61  C   UNL     1      -3.263  16.766   6.224  1.00  0.00     0.058 A 
ATOM     62  C   UNL     1      -4.115  16.795   5.111  1.00  0.00     0.135 A 
ATOM     63  C   UNL     1      -2.341  17.816   6.374  1.00  0.00     0.135 A 
ATOM     64  F   UNL     1      -4.999  15.805   4.910  1.00  0.00    -0.206 F 
ATOM     65  C   UNL     1      -4.057  17.827   4.180  1.00  0.00     0.059 A 
ATOM     66  C   UNL     1      -2.281  18.870   5.468  1.00  0.00     0.059 A 
ATOM     67  F   UNL     1      -1.497  17.830   7.418  1.00  0.00    -0.206 F 
ATOM     68  C   UNL     1      -3.142  18.864   4.372  1.00  0.00     0.060 A 
BRANCH  68  69
ATOM     69  S   UNL     1      -3.112  20.221   3.181  1.00  0.00     0.124 S 
ATOM     70  O   UNL     1      -2.505  19.578   2.020  1.00  0.00    -0.237 OA
ATOM     71  O   UNL     1      -4.528  20.553   3.053  1.00  0.00    -0.237 OA
ATOM     72  O   UNL     1      -2.291  21.233   3.838  1.00  0.00    -0.744 OA
ENDBRANCH  68  69
ENDBRANCH  47  61
BRANCH  48  73
ATOM     73  C   UNL     1      -3.451   9.549  13.141  1.00  0.00     0.058 A 
ATOM     74  C   UNL     1      -4.618   9.038  13.726  1.00  0.00     0.135 A 
ATOM     75  C   UNL     1      -2.219   9.079  13.625  1.00  0.00     0.135 A 
ATOM     76  F   UNL     1      -5.820   9.465  13.308  1.00  0.00    -0.206 F 
ATOM     77  C   UNL     1      -4.569   8.122  14.772  1.00  0.00     0.059 A 
ATOM     78  C   UNL     1      -2.144   8.141  14.650  1.00  0.00     0.059 A 
ATOM     79  F   UNL     1      -1.071   9.529  13.095  1.00  0.00    -0.206 F 
ATOM     80  C   UNL     1      -3.326   7.681  15.229  1.00  0.00     0.060 A 
BRANCH  80  81
ATOM     81  S   UNL     1      -3.272   6.480  16.578  1.00  0.00     0.124 S 
ATOM     82  O   UNL     1      -3.618   7.312  17.724  1.00  0.00    -0.237 OA
ATOM     83  O   UNL     1      -4.281   5.509  16.166  1.00  0.00    -0.237 OA
ATOM     84  O   UNL     1      -1.895   5.996  16.541  1.00  0.00    -0.744 OA
ENDBRANCH  80  81
ENDBRANCH  48  73
BRANCH  60  85
ATOM     85  C   UNL     1      -5.424  16.250  13.062  1.00  0.00     0.058 A 
ATOM     86  C   UNL     1      -4.673  16.769  14.127  1.00  0.00     0.135 A 
ATOM     87  C   UNL     1      -6.759  16.670  12.933  1.00  0.00     0.135 A 
ATOM     88  F   UNL     1      -3.395  16.396  14.298  1.00  0.00    -0.206 F 
ATOM     89  C   UNL     1      -5.227  17.667  15.034  1.00  0.00     0.059 A 
ATOM     90  C   UNL     1      -7.324  17.587  13.813  1.00  0.00     0.059 A 
ATOM     91  F   UNL     1      -7.517  16.212  11.924  1.00  0.00    -0.206 F 
ATOM     92  C   UNL     1      -6.552  18.075  14.865  1.00  0.00     0.060 A 
BRANCH  92  93
ATOM     93  S   UNL     1      -7.240  19.286  16.014  1.00  0.00     0.124 S 
ATOM     94  O   UNL     1      -7.432  18.477  17.214  1.00  0.00    -0.237 OA
ATOM     95  O   UNL     1      -6.180  20.287  16.087  1.00  0.00    -0.237 OA
ATOM     96  O   UNL     1      -8.464  19.726  15.352  1.00  0.00    -0.744 OA
ENDBRANCH  92  93
ENDBRANCH  60  85
ENDBRANCH  34  35
ENDBRANCH  27  29
ENDBRANCH  26  27
ENDBRANCH  25  26
ENDBRANCH  24  25
ENDBRANCH  23  24
ENDBRANCH   1  23
TORSDOF 21
