REMARK SMILES Cc1ccc(C(=O)N2C[C@@H](C(=O)OCCOCCOC(=O)c3ccc(-c4c5nc(c(-c6c(F)cc(S(=O)(=O)[O-])cc6F)c6ccc([nH]6)c(-c6c(F)cc(S(=O)(=O)[O-])cc6F)c6nc(c(-c7c(F)cc(S(=O)(=O)[O-])cc7F)c7ccc4[nH]7)C=C6)C=C5)cc3)C[C@H](C(=O)N3CCOCC3)C2)cc1F
REMARK SMILES IDX 17 1 16 2 15 3 14 4 13 5 11 6 12 7 10 8 8 9 9 10 98 11 89 12
REMARK SMILES IDX 88 13 6 14 7 15 5 16 1 17 2 18 3 19 100 20 4 21 99 22 101 23
REMARK SMILES IDX 90 24 91 25 92 26 93 27 97 28 94 29 96 30 95 31 18 32 19 33
REMARK SMILES IDX 20 34 21 35 22 36 23 37 87 38 24 39 86 40 25 41 26 42 27 43
REMARK SMILES IDX 80 44 28 45 85 46 79 47 81 48 29 49 84 50 78 51 77 52 30 54
REMARK SMILES IDX 64 55 43 56 63 57 44 58 47 59 62 60 82 61 45 62 46 63 61 65
REMARK SMILES IDX 83 66 48 67 31 68 32 69 41 70 33 71 34 72 40 73 42 74 35 75
REMARK SMILES IDX 36 76 37 77 38 78 39 79 65 80 66 81 75 82 67 83 68 84 74 85
REMARK SMILES IDX 76 86 69 87 70 88 71 89 72 90 73 91 49 92 50 93 59 94 51 95
REMARK SMILES IDX 52 96 58 97 60 98 53 99 54 100 55 101 56 102 57 103
REMARK H PARENT 81 53 47 64
REMARK Flexibility Score: inf
ROOT
ATOM      1  C   UNL     1      -9.303  -3.500   1.343  1.00  0.00     0.202 C 
ENDROOT
BRANCH   1   2
ATOM      2  O   UNL     1      -9.339  -3.891   2.718  1.00  0.00    -0.374 OA
BRANCH   2   3
ATOM      3  C   UNL     1      -9.447  -2.877   3.709  1.00  0.00     0.202 C 
BRANCH   3   4
ATOM      4  C   UNL     1      -8.112  -2.260   4.169  1.00  0.00     0.261 C 
BRANCH   4   5
ATOM      5  O   UNL     1      -7.314  -1.647   3.133  1.00  0.00    -0.463 OA
BRANCH   5   6
ATOM      6  C   UNL     1      -6.471  -2.454   2.464  1.00  0.00     0.310 C 
ATOM      7  O   UNL     1      -6.248  -3.625   2.758  1.00  0.00    -0.252 OA
BRANCH   6   8
ATOM      8  C   UNL     1      -5.797  -1.802   1.274  1.00  0.00     0.119 C 
ATOM      9  N   UNL     1      -3.951  -0.492   0.550  1.00  0.00    -0.337 N 
ATOM     10  C   UNL     1      -4.947  -0.608   1.615  1.00  0.00     0.135 C 
ATOM     11  C   UNL     1      -4.455  -0.299  -0.822  1.00  0.00     0.133 C 
ATOM     12  C   UNL     1      -5.660  -1.213  -1.189  1.00  0.00     0.099 C 
ATOM     13  C   UNL     1      -6.587  -1.470   0.002  1.00  0.00     0.032 C 
BRANCH   9  14
ATOM     14  C   UNL     1      -2.700  -1.042   0.791  1.00  0.00     0.254 C 
ATOM     15  O   UNL     1      -2.519  -2.004   1.532  1.00  0.00    -0.269 OA
BRANCH  14  16
ATOM     16  C   UNL     1      -1.523  -0.315   0.268  1.00  0.00     0.042 A 
ATOM     17  C   UNL     1       2.102   1.899  -0.305  1.00  0.00     0.047 C 
ATOM     18  C   UNL     1       0.823   1.131  -0.191  1.00  0.00    -0.015 A 
ATOM     19  C   UNL     1      -0.406   1.796  -0.126  1.00  0.00     0.007 A 
ATOM     20  C   UNL     1       0.850  -0.263  -0.074  1.00  0.00     0.126 A 
ATOM     21  C   UNL     1      -1.576   1.076   0.105  1.00  0.00     0.014 A 
ATOM     22  C   UNL     1      -0.308  -0.992   0.157  1.00  0.00     0.053 A 
ATOM     23  F   UNL     1       2.023  -0.911  -0.132  1.00  0.00    -0.207 F 
ENDBRANCH  14  16
ENDBRANCH   9  14
BRANCH  12  24
ATOM     24  C   UNL     1      -5.175  -2.391  -2.053  1.00  0.00     0.227 C 
ATOM     25  O   UNL     1      -4.935  -2.156  -3.247  1.00  0.00    -0.275 OA
ATOM     26  N   UNL     1      -4.773  -3.587  -1.501  1.00  0.00    -0.338 N 
ATOM     27  C   UNL     1      -5.535  -4.476  -0.609  1.00  0.00     0.148 C 
ATOM     28  C   UNL     1      -3.642  -4.279  -2.114  1.00  0.00     0.148 C 
ATOM     29  C   UNL     1      -4.612  -5.139   0.429  1.00  0.00     0.181 C 
ATOM     30  C   UNL     1      -2.760  -4.868  -1.010  1.00  0.00     0.181 C 
ATOM     31  O   UNL     1      -3.509  -5.805  -0.216  1.00  0.00    -0.378 OA
ENDBRANCH  12  24
ENDBRANCH   6   8
ENDBRANCH   5   6
ENDBRANCH   4   5
ENDBRANCH   3   4
ENDBRANCH   2   3
ENDBRANCH   1   2
BRANCH   1  32
ATOM     32  C   UNL     1      -9.884  -2.139   0.951  1.00  0.00     0.261 C 
BRANCH  32  33
ATOM     33  O   UNL     1      -9.051  -1.058   1.419  1.00  0.00    -0.460 OA
BRANCH  33  34
ATOM     34  C   UNL     1      -9.632  -0.033   2.103  1.00  0.00     0.338 C 
ATOM     35  O   UNL     1      -9.237   0.404   3.163  1.00  0.00    -0.246 OA
BRANCH  34  36
ATOM     36  C   UNL     1     -10.642   0.676   1.326  1.00  0.00     0.060 A 
ATOM     37  C   UNL     1     -11.824   1.083   1.956  1.00  0.00     0.016 A 
ATOM     38  C   UNL     1     -10.348   0.985  -0.001  1.00  0.00     0.016 A 
ATOM     39  C   UNL     1     -12.762   1.788   1.219  1.00  0.00     0.010 A 
ATOM     40  C   UNL     1     -11.277   1.686  -0.727  1.00  0.00     0.010 A 
ATOM     41  C   UNL     1     -12.477   2.075  -0.116  1.00  0.00    -0.014 A 
BRANCH  41  42
ATOM     42  C   UNL     1     -13.383   2.823  -0.960  1.00  0.00     0.031 A 
ATOM     43  C   UNL     1     -13.531   4.280  -0.768  1.00  0.00     0.074 A 
ATOM     44  C   UNL     1     -14.041   2.155  -1.928  1.00  0.00     0.049 A 
ATOM     45  N   UNL     1     -14.619   4.924  -1.020  1.00  0.00    -0.248 NA
ATOM     46  C   UNL     1     -12.481   5.122  -0.197  1.00  0.00     0.031 C 
ATOM     47  C   UNL     1     -14.717   2.732  -3.077  1.00  0.00     0.029 A 
ATOM     48  N   UNL     1     -14.372   0.795  -1.966  1.00  0.00    -0.354 N 
ATOM     49  C   UNL     1     -14.340   6.269  -0.906  1.00  0.00     0.074 A 
ATOM     50  C   UNL     1     -13.032   6.339  -0.297  1.00  0.00     0.031 C 
ATOM     51  C   UNL     1     -15.569   1.819  -3.569  1.00  0.00     0.029 A 
ATOM     52  C   UNL     1     -15.595   0.696  -2.639  1.00  0.00     0.049 A 
ATOM     53  H   UNL     1     -13.846   0.053  -1.591  1.00  0.00     0.167 HD
ATOM     54  C   UNL     1     -15.172   7.177  -1.491  1.00  0.00     0.037 A 
ATOM     55  C   UNL     1     -16.733   0.126  -2.146  1.00  0.00     0.037 A 
ATOM     56  C   UNL     1     -16.256   6.500  -2.191  1.00  0.00     0.049 A 
ATOM     57  C   UNL     1     -17.899   1.073  -2.142  1.00  0.00     0.074 A 
ATOM     58  C   UNL     1     -16.331   6.039  -3.495  1.00  0.00     0.029 A 
ATOM     59  N   UNL     1     -17.293   5.900  -1.492  1.00  0.00    -0.354 N 
ATOM     60  N   UNL     1     -17.776   2.366  -2.178  1.00  0.00    -0.248 NA
ATOM     61  C   UNL     1     -19.280   0.632  -1.997  1.00  0.00     0.031 C 
ATOM     62  C   UNL     1     -17.408   5.134  -3.578  1.00  0.00     0.029 A 
ATOM     63  C   UNL     1     -17.997   5.051  -2.328  1.00  0.00     0.049 A 
ATOM     64  H   UNL     1     -17.499   6.056  -0.542  1.00  0.00     0.167 HD
ATOM     65  C   UNL     1     -19.005   2.936  -1.985  1.00  0.00     0.074 A 
ATOM     66  C   UNL     1     -19.919   1.811  -1.924  1.00  0.00     0.031 C 
ATOM     67  C   UNL     1     -19.141   4.287  -1.853  1.00  0.00     0.037 A 
BRANCH  54  68
ATOM     68  C   UNL     1     -14.813   8.625  -1.736  1.00  0.00     0.058 A 
ATOM     69  C   UNL     1     -15.208   9.264  -2.934  1.00  0.00     0.135 A 
ATOM     70  C   UNL     1     -14.066   9.428  -0.853  1.00  0.00     0.135 A 
ATOM     71  F   UNL     1     -15.973   8.648  -3.844  1.00  0.00    -0.206 F 
ATOM     72  C   UNL     1     -14.821  10.559  -3.271  1.00  0.00     0.059 A 
ATOM     73  C   UNL     1     -13.636  10.721  -1.184  1.00  0.00     0.059 A 
ATOM     74  F   UNL     1     -13.745   8.988   0.373  1.00  0.00    -0.206 F 
ATOM     75  C   UNL     1     -14.012  11.274  -2.404  1.00  0.00     0.060 A 
BRANCH  75  76
ATOM     76  S   UNL     1     -13.473  12.919  -2.910  1.00  0.00     0.124 S 
ATOM     77  O   UNL     1     -12.846  12.652  -4.202  1.00  0.00    -0.237 OA
ATOM     78  O   UNL     1     -14.733  13.652  -2.958  1.00  0.00    -0.237 OA
ATOM     79  O   UNL     1     -12.554  13.318  -1.848  1.00  0.00    -0.744 OA
ENDBRANCH  75  76
ENDBRANCH  54  68
BRANCH  55  80
ATOM     80  C   UNL     1     -16.562  -0.875  -1.069  1.00  0.00     0.058 A 
ATOM     81  C   UNL     1     -16.006  -2.122  -1.389  1.00  0.00     0.135 A 
ATOM     82  C   UNL     1     -16.581  -0.467   0.275  1.00  0.00     0.135 A 
ATOM     83  F   UNL     1     -15.986  -2.550  -2.660  1.00  0.00    -0.206 F 
ATOM     84  C   UNL     1     -15.304  -2.846  -0.443  1.00  0.00     0.059 A 
ATOM     85  C   UNL     1     -15.877  -1.168   1.240  1.00  0.00     0.059 A 
ATOM     86  F   UNL     1     -17.111   0.713   0.623  1.00  0.00    -0.206 F 
ATOM     87  C   UNL     1     -15.155  -2.288   0.830  1.00  0.00     0.060 A 
BRANCH  87  88
ATOM     88  S   UNL     1     -13.543  -2.530   1.587  1.00  0.00     0.124 S 
ATOM     89  O   UNL     1     -13.286  -3.954   1.418  1.00  0.00    -0.237 OA
ATOM     90  O   UNL     1     -12.785  -1.647   0.704  1.00  0.00    -0.237 OA
ATOM     91  O   UNL     1     -13.705  -2.066   2.958  1.00  0.00    -0.744 OA
ENDBRANCH  87  88
ENDBRANCH  55  80
BRANCH  67  92
ATOM     92  C   UNL     1     -20.384   5.004  -1.391  1.00  0.00     0.058 A 
ATOM     93  C   UNL     1     -21.372   4.424  -0.578  1.00  0.00     0.135 A 
ATOM     94  C   UNL     1     -20.564   6.379  -1.680  1.00  0.00     0.135 A 
ATOM     95  F   UNL     1     -21.252   3.176  -0.106  1.00  0.00    -0.206 F 
ATOM     96  C   UNL     1     -22.510   5.120  -0.174  1.00  0.00     0.059 A 
ATOM     97  C   UNL     1     -21.657   7.111  -1.229  1.00  0.00     0.059 A 
ATOM     98  F   UNL     1     -19.671   7.068  -2.406  1.00  0.00    -0.206 F 
ATOM     99  C   UNL     1     -22.649   6.461  -0.512  1.00  0.00     0.060 A 
BRANCH  99 100
ATOM    100  S   UNL     1     -24.106   7.366   0.031  1.00  0.00     0.124 S 
ATOM    101  O   UNL     1     -25.048   7.064  -1.043  1.00  0.00    -0.237 OA
ATOM    102  O   UNL     1     -24.404   6.751   1.321  1.00  0.00    -0.237 OA
ATOM    103  O   UNL     1     -23.639   8.747   0.096  1.00  0.00    -0.744 OA
ENDBRANCH  99 100
ENDBRANCH  67  92
ENDBRANCH  41  42
ENDBRANCH  34  36
ENDBRANCH  33  34
ENDBRANCH  32  33
ENDBRANCH   1  32
TORSDOF 20
