REMARK SMILES Cn1c(C(=O)N2CCC[C@@H](C(=O)OCCOCCOC(=O)c3ccc(-c4c5nc(c(-c6c(F)cc(S(=O)(=O)[O-])cc6F)c6ccc([nH]6)c(-c6c(F)cc(S(=O)(=O)[O-])cc6F)c6nc(c(-c7c(F)cc(S(=O)(=O)[O-])cc7F)c7ccc4[nH]7)C=C6)C=C5)cc3)C2)cc2sccc21
REMARK SMILES IDX 17 1 16 2 15 3 14 4 13 5 11 6 12 7 10 8 6 9 7 10 88 11 8 12
REMARK SMILES IDX 9 13 4 14 5 15 3 16 1 17 2 18 94 19 89 20 90 21 93 22 91 23
REMARK SMILES IDX 92 24 18 25 19 26 20 27 21 28 22 29 23 30 87 31 24 32 86 33
REMARK SMILES IDX 25 34 26 35 27 36 80 37 28 38 85 39 79 40 81 41 29 42 84 43
REMARK SMILES IDX 78 44 77 45 30 47 64 48 43 49 63 50 44 51 47 52 62 53 82 54
REMARK SMILES IDX 45 55 46 56 61 58 83 59 48 60 31 61 32 62 41 63 33 64 34 65
REMARK SMILES IDX 40 66 42 67 35 68 36 69 37 70 38 71 39 72 65 73 66 74 75 75
REMARK SMILES IDX 67 76 68 77 74 78 76 79 69 80 70 81 71 82 72 83 73 84 49 85
REMARK SMILES IDX 50 86 59 87 51 88 52 89 58 90 60 91 53 92 54 93 55 94 56 95
REMARK SMILES IDX 57 96
REMARK H PARENT 81 46 47 57
REMARK Flexibility Score: inf
ROOT
ATOM      1  C   UNL     1      -2.331   6.120   0.095  1.00  0.00     0.202 C 
ENDROOT
BRANCH   1   2
ATOM      2  O   UNL     1      -3.153   7.209   0.483  1.00  0.00    -0.374 OA
BRANCH   2   3
ATOM      3  C   UNL     1      -2.637   8.534   0.377  1.00  0.00     0.202 C 
BRANCH   3   4
ATOM      4  C   UNL     1      -1.345   8.891   1.124  1.00  0.00     0.261 C 
BRANCH   4   5
ATOM      5  O   UNL     1      -0.215   8.036   0.840  1.00  0.00    -0.463 OA
BRANCH   5   6
ATOM      6  C   UNL     1       0.365   7.449   1.926  1.00  0.00     0.310 C 
ATOM      7  O   UNL     1      -0.034   7.569   3.079  1.00  0.00    -0.252 OA
BRANCH   6   8
ATOM      8  C   UNL     1       1.533   6.542   1.576  1.00  0.00     0.119 C 
ATOM      9  N   UNL     1       2.065   4.298   0.597  1.00  0.00    -0.337 N 
ATOM     10  C   UNL     1       3.131   4.850  -0.227  1.00  0.00     0.120 C 
ATOM     11  C   UNL     1       1.024   5.199   1.067  1.00  0.00     0.135 C 
ATOM     12  C   UNL     1       3.669   6.160   0.347  1.00  0.00     0.022 C 
ATOM     13  C   UNL     1       2.533   7.156   0.596  1.00  0.00     0.019 C 
BRANCH   9  14
ATOM     14  C   UNL     1       1.755   2.939   0.541  1.00  0.00     0.270 C 
ATOM     15  O   UNL     1       1.941   2.237   1.534  1.00  0.00    -0.267 OA
BRANCH  14  16
ATOM     16  C   UNL     1       1.100   2.448  -0.678  1.00  0.00     0.108 A 
ATOM     17  C   UNL     1       0.918   0.017   0.027  1.00  0.00     0.150 C 
ATOM     18  N   UNL     1       0.698   1.131  -0.864  1.00  0.00    -0.339 N 
ATOM     19  C   UNL     1       0.025   1.021  -2.063  1.00  0.00     0.059 A 
ATOM     20  C   UNL     1       0.725   3.148  -1.820  1.00  0.00     0.053 A 
ATOM     21  C   UNL     1       0.029   2.240  -2.663  1.00  0.00     0.053 A 
ATOM     22  C   UNL     1      -0.643   0.020  -2.825  1.00  0.00     0.038 A 
ATOM     23  S   UNL     1      -0.797   2.241  -4.183  1.00  0.00    -0.142 S 
ATOM     24  C   UNL     1      -1.130   0.564  -3.995  1.00  0.00     0.068 A 
ENDBRANCH  14  16
ENDBRANCH   9  14
ENDBRANCH   6   8
ENDBRANCH   5   6
ENDBRANCH   4   5
ENDBRANCH   3   4
ENDBRANCH   2   3
ENDBRANCH   1   2
BRANCH   1  25
ATOM     25  C   UNL     1      -1.835   6.026  -1.345  1.00  0.00     0.261 C 
BRANCH  25  26
ATOM     26  O   UNL     1      -1.528   7.263  -1.956  1.00  0.00    -0.460 OA
BRANCH  26  27
ATOM     27  C   UNL     1      -2.545   7.678  -2.751  1.00  0.00     0.338 C 
ATOM     28  O   UNL     1      -3.735   7.543  -2.538  1.00  0.00    -0.246 OA
BRANCH  27  29
ATOM     29  C   UNL     1      -1.974   8.072  -4.040  1.00  0.00     0.060 A 
ATOM     30  C   UNL     1      -2.889   8.297  -5.068  1.00  0.00     0.016 A 
ATOM     31  C   UNL     1      -0.593   7.960  -4.278  1.00  0.00     0.016 A 
ATOM     32  C   UNL     1      -2.431   8.269  -6.362  1.00  0.00     0.010 A 
ATOM     33  C   UNL     1      -0.139   7.916  -5.575  1.00  0.00     0.010 A 
ATOM     34  C   UNL     1      -1.072   8.023  -6.600  1.00  0.00    -0.014 A 
BRANCH  34  35
ATOM     35  C   UNL     1      -0.629   8.108  -7.971  1.00  0.00     0.031 A 
ATOM     36  C   UNL     1      -0.653   9.505  -8.457  1.00  0.00     0.074 A 
ATOM     37  C   UNL     1      -0.188   7.059  -8.683  1.00  0.00     0.049 A 
ATOM     38  N   UNL     1      -1.515  10.038  -9.256  1.00  0.00    -0.248 NA
ATOM     39  C   UNL     1       0.229  10.476  -7.788  1.00  0.00     0.031 C 
ATOM     40  C   UNL     1       0.144   5.715  -8.210  1.00  0.00     0.029 A 
ATOM     41  N   UNL     1       0.143   7.016  -9.998  1.00  0.00    -0.354 N 
ATOM     42  C   UNL     1      -1.115  11.361  -9.389  1.00  0.00     0.074 A 
ATOM     43  C   UNL     1      -0.218  11.624  -8.297  1.00  0.00     0.031 C 
ATOM     44  C   UNL     1       0.838   5.069  -9.177  1.00  0.00     0.029 A 
ATOM     45  C   UNL     1       0.886   5.904 -10.368  1.00  0.00     0.049 A 
ATOM     46  H   UNL     1      -0.122   7.716 -10.638  1.00  0.00     0.167 HD
ATOM     47  C   UNL     1      -1.313  12.028 -10.558  1.00  0.00     0.037 A 
ATOM     48  C   UNL     1       1.552   5.746 -11.542  1.00  0.00     0.037 A 
ATOM     49  C   UNL     1      -2.320  11.375 -11.359  1.00  0.00     0.049 A 
ATOM     50  C   UNL     1       0.961   6.707 -12.516  1.00  0.00     0.074 A 
ATOM     51  C   UNL     1      -3.644  11.030 -11.159  1.00  0.00     0.029 A 
ATOM     52  N   UNL     1      -1.892  10.619 -12.425  1.00  0.00    -0.354 N 
ATOM     53  N   UNL     1      -0.251   6.610 -12.990  1.00  0.00    -0.248 NA
ATOM     54  C   UNL     1       1.555   8.034 -12.613  1.00  0.00     0.031 C 
ATOM     55  C   UNL     1      -3.803   9.767 -11.802  1.00  0.00     0.029 A 
ATOM     56  C   UNL     1      -2.593   9.441 -12.417  1.00  0.00     0.049 A 
ATOM     57  H   UNL     1      -1.203  10.879 -13.079  1.00  0.00     0.167 HD
ATOM     58  C   UNL     1      -0.726   7.914 -13.030  1.00  0.00     0.074 A 
ATOM     59  C   UNL     1       0.461   8.752 -12.880  1.00  0.00     0.031 C 
ATOM     60  C   UNL     1      -2.059   8.183 -12.893  1.00  0.00     0.037 A 
BRANCH  47  61
ATOM     61  C   UNL     1      -0.306  12.993 -11.139  1.00  0.00     0.058 A 
ATOM     62  C   UNL     1      -0.644  13.707 -12.306  1.00  0.00     0.135 A 
ATOM     63  C   UNL     1       1.062  13.036 -10.778  1.00  0.00     0.135 A 
ATOM     64  F   UNL     1      -1.911  13.733 -12.749  1.00  0.00    -0.206 F 
ATOM     65  C   UNL     1       0.315  14.342 -13.097  1.00  0.00     0.059 A 
ATOM     66  C   UNL     1       2.022  13.710 -11.518  1.00  0.00     0.059 A 
ATOM     67  F   UNL     1       1.564  12.349  -9.746  1.00  0.00    -0.206 F 
ATOM     68  C   UNL     1       1.648  14.322 -12.700  1.00  0.00     0.060 A 
BRANCH  68  69
ATOM     69  S   UNL     1       2.904  15.051 -13.760  1.00  0.00     0.124 S 
ATOM     70  O   UNL     1       2.910  14.120 -14.881  1.00  0.00    -0.237 OA
ATOM     71  O   UNL     1       2.344  16.372 -14.023  1.00  0.00    -0.237 OA
ATOM     72  O   UNL     1       4.099  15.039 -12.920  1.00  0.00    -0.744 OA
ENDBRANCH  68  69
ENDBRANCH  47  61
BRANCH  48  73
ATOM     73  C   UNL     1       2.868   5.090 -11.772  1.00  0.00     0.058 A 
ATOM     74  C   UNL     1       3.338   4.846 -13.076  1.00  0.00     0.135 A 
ATOM     75  C   UNL     1       3.815   4.949 -10.738  1.00  0.00     0.135 A 
ATOM     76  F   UNL     1       2.512   4.974 -14.126  1.00  0.00    -0.206 F 
ATOM     77  C   UNL     1       4.678   4.542 -13.344  1.00  0.00     0.059 A 
ATOM     78  C   UNL     1       5.151   4.634 -10.979  1.00  0.00     0.059 A 
ATOM     79  F   UNL     1       3.497   5.211  -9.462  1.00  0.00    -0.206 F 
ATOM     80  C   UNL     1       5.583   4.461 -12.287  1.00  0.00     0.060 A 
BRANCH  80  81
ATOM     81  S   UNL     1       7.346   4.259 -12.636  1.00  0.00     0.124 S 
ATOM     82  O   UNL     1       7.404   2.884 -13.118  1.00  0.00    -0.237 OA
ATOM     83  O   UNL     1       7.585   5.296 -13.633  1.00  0.00    -0.237 OA
ATOM     84  O   UNL     1       7.976   4.492 -11.338  1.00  0.00    -0.744 OA
ENDBRANCH  80  81
ENDBRANCH  48  73
BRANCH  60  85
ATOM     85  C   UNL     1      -3.033   7.045 -13.060  1.00  0.00     0.058 A 
ATOM     86  C   UNL     1      -3.072   5.888 -12.260  1.00  0.00     0.135 A 
ATOM     87  C   UNL     1      -4.048   7.191 -14.019  1.00  0.00     0.135 A 
ATOM     88  F   UNL     1      -2.213   5.721 -11.244  1.00  0.00    -0.206 F 
ATOM     89  C   UNL     1      -4.034   4.893 -12.454  1.00  0.00     0.059 A 
ATOM     90  C   UNL     1      -5.038   6.232 -14.203  1.00  0.00     0.059 A 
ATOM     91  F   UNL     1      -4.109   8.302 -14.771  1.00  0.00    -0.206 F 
ATOM     92  C   UNL     1      -5.011   5.072 -13.434  1.00  0.00     0.060 A 
BRANCH  92  93
ATOM     93  S   UNL     1      -6.273   3.802 -13.668  1.00  0.00     0.124 S 
ATOM     94  O   UNL     1      -5.506   2.716 -14.269  1.00  0.00    -0.237 OA
ATOM     95  O   UNL     1      -6.745   3.568 -12.306  1.00  0.00    -0.237 OA
ATOM     96  O   UNL     1      -7.243   4.444 -14.552  1.00  0.00    -0.744 OA
ENDBRANCH  92  93
ENDBRANCH  60  85
ENDBRANCH  34  35
ENDBRANCH  27  29
ENDBRANCH  26  27
ENDBRANCH  25  26
ENDBRANCH   1  25
TORSDOF 19
