REMARK SMILES [NH3+][C@@]1(C(=O)OCCOCCOC(=O)c2ccc(-c3c4nc(c(-c5c(F)cc(S(=O)(=O)[O-])cc5F)c5ccc([nH]5)c(-c5c(F)cc(S(=O)(=O)[O-])cc5F)c5nc(c(-c6c(F)cc(S(=O)(=O)[O-])cc6F)c6ccc3[nH]6)C=C5)C=C4)cc2)CC[C@H](Sc2ccc(Cl)cn2)C1
REMARK SMILES IDX 9 1 8 2 7 3 6 4 5 5 3 6 4 7 2 8 80 9 91 10 81 11 82 12 1 13
REMARK SMILES IDX 83 17 84 18 85 19 90 20 86 21 89 22 87 23 88 24 10 25 11 26
REMARK SMILES IDX 12 27 13 28 14 29 15 30 79 31 16 32 78 33 17 34 18 35 19 36
REMARK SMILES IDX 72 37 20 38 77 39 71 40 73 41 21 42 76 43 70 44 69 45 22 47
REMARK SMILES IDX 56 48 35 49 55 50 36 51 39 52 54 53 74 54 37 55 38 56 53 58
REMARK SMILES IDX 75 59 40 60 23 61 24 62 33 63 25 64 26 65 32 66 34 67 27 68
REMARK SMILES IDX 28 69 29 70 30 71 31 72 57 73 58 74 67 75 59 76 60 77 66 78
REMARK SMILES IDX 68 79 61 80 62 81 63 82 64 83 65 84 41 85 42 86 51 87 43 88
REMARK SMILES IDX 44 89 50 90 52 91 45 92 46 93 47 94 48 95 49 96
REMARK H PARENT 1 14 1 15 1 16 73 46 39 57
REMARK Flexibility Score: inf
ROOT
ATOM      1  C   UNL     1       2.898   0.159  -3.089  1.00  0.00     0.202 C 
ENDROOT
BRANCH   1   2
ATOM      2  O   UNL     1       2.230  -0.554  -4.128  1.00  0.00    -0.374 OA
BRANCH   2   3
ATOM      3  C   UNL     1       1.219   0.138  -4.859  1.00  0.00     0.202 C 
BRANCH   3   4
ATOM      4  C   UNL     1      -0.142   0.306  -4.176  1.00  0.00     0.261 C 
BRANCH   4   5
ATOM      5  O   UNL     1      -0.054   1.040  -2.944  1.00  0.00    -0.459 OA
BRANCH   5   6
ATOM      6  C   UNL     1      -0.258   0.316  -1.816  1.00  0.00     0.368 C 
ATOM      7  O   UNL     1      -0.541  -0.880  -1.788  1.00  0.00    -0.245 OA
BRANCH   6   8
ATOM      8  C   UNL     1      -0.099   1.150  -0.511  1.00  0.00     0.193 C 
ATOM      9  C   UNL     1      -1.460   1.729  -0.137  1.00  0.00     0.082 C 
ATOM     10  C   UNL     1       0.820   2.381  -0.585  1.00  0.00     0.096 C 
ATOM     11  C   UNL     1      -1.510   3.032  -0.928  1.00  0.00     0.022 C 
ATOM     12  C   UNL     1      -0.100   3.609  -0.775  1.00  0.00     0.060 C 
BRANCH   8  13
ATOM     13  N   UNL     1       0.392   0.225   0.544  1.00  0.00    -0.343 N 
ATOM     14  H   UNL     1      -0.218  -0.591   0.592  1.00  0.00     0.345 HD
ATOM     15  H   UNL     1       0.390   0.705   1.444  1.00  0.00     0.345 HD
ATOM     16  H   UNL     1       1.341  -0.073   0.320  1.00  0.00     0.345 HD
ENDBRANCH   8  13
BRANCH  12  17
ATOM     17  S   UNL     1       0.524   4.591  -2.184  1.00  0.00    -0.103 SA
BRANCH  17  18
ATOM     18  C   UNL     1      -0.569   5.979  -2.357  1.00  0.00     0.096 A 
ATOM     19  C   UNL     1      -1.584   6.328  -1.474  1.00  0.00     0.037 A 
ATOM     20  N   UNL     1      -0.328   6.702  -3.478  1.00  0.00    -0.248 NA
ATOM     21  C   UNL     1      -2.415   7.410  -1.779  1.00  0.00     0.025 A 
ATOM     22  C   UNL     1      -1.137   7.758  -3.747  1.00  0.00     0.132 A 
ATOM     23  C   UNL     1      -2.188   8.141  -2.936  1.00  0.00     0.059 A 
ATOM     24  Cl  UNL     1      -3.167   9.492  -3.322  1.00  0.00    -0.083 Cl
ENDBRANCH  17  18
ENDBRANCH  12  17
ENDBRANCH   6   8
ENDBRANCH   5   6
ENDBRANCH   4   5
ENDBRANCH   3   4
ENDBRANCH   2   3
ENDBRANCH   1   2
BRANCH   1  25
ATOM     25  C   UNL     1       3.866   1.276  -3.502  1.00  0.00     0.261 C 
BRANCH  25  26
ATOM     26  O   UNL     1       3.202   2.382  -4.139  1.00  0.00    -0.460 OA
BRANCH  26  27
ATOM     27  C   UNL     1       3.573   2.611  -5.423  1.00  0.00     0.338 C 
ATOM     28  O   UNL     1       4.447   2.027  -6.051  1.00  0.00    -0.246 OA
BRANCH  27  29
ATOM     29  C   UNL     1       2.640   3.555  -6.064  1.00  0.00     0.060 A 
ATOM     30  C   UNL     1       1.944   3.114  -7.198  1.00  0.00     0.016 A 
ATOM     31  C   UNL     1       2.492   4.864  -5.607  1.00  0.00     0.016 A 
ATOM     32  C   UNL     1       1.111   3.991  -7.891  1.00  0.00     0.010 A 
ATOM     33  C   UNL     1       1.666   5.746  -6.314  1.00  0.00     0.010 A 
ATOM     34  C   UNL     1       0.987   5.321  -7.469  1.00  0.00    -0.014 A 
BRANCH  34  35
ATOM     35  C   UNL     1       0.198   6.284  -8.274  1.00  0.00     0.031 A 
ATOM     36  C   UNL     1       0.899   7.194  -9.243  1.00  0.00     0.074 A 
ATOM     37  C   UNL     1      -1.140   6.338  -8.142  1.00  0.00     0.049 A 
ATOM     38  N   UNL     1       0.403   8.143  -9.993  1.00  0.00    -0.248 NA
ATOM     39  C   UNL     1       2.352   7.007  -9.388  1.00  0.00     0.031 C 
ATOM     40  C   UNL     1      -1.934   5.480  -7.263  1.00  0.00     0.029 A 
ATOM     41  N   UNL     1      -2.065   7.157  -8.740  1.00  0.00    -0.354 N 
ATOM     42  C   UNL     1       1.479   8.674 -10.695  1.00  0.00     0.074 A 
ATOM     43  C   UNL     1       2.659   7.950 -10.269  1.00  0.00     0.031 C 
ATOM     44  C   UNL     1      -3.228   5.827  -7.369  1.00  0.00     0.029 A 
ATOM     45  C   UNL     1      -3.348   6.957  -8.289  1.00  0.00     0.049 A 
ATOM     46  H   UNL     1      -1.832   7.823  -9.426  1.00  0.00     0.167 HD
ATOM     47  C   UNL     1       1.481   9.672 -11.611  1.00  0.00     0.037 A 
ATOM     48  C   UNL     1      -4.483   7.633  -8.558  1.00  0.00     0.037 A 
ATOM     49  C   UNL     1       0.304  10.391 -12.026  1.00  0.00     0.049 A 
ATOM     50  C   UNL     1      -4.440   8.798  -9.513  1.00  0.00     0.074 A 
ATOM     51  C   UNL     1       0.199  11.397 -12.971  1.00  0.00     0.029 A 
ATOM     52  N   UNL     1      -0.969  10.195 -11.510  1.00  0.00    -0.354 N 
ATOM     53  N   UNL     1      -3.422   9.270 -10.193  1.00  0.00    -0.248 NA
ATOM     54  C   UNL     1      -5.697   9.530  -9.728  1.00  0.00     0.031 C 
ATOM     55  C   UNL     1      -1.127  11.845 -12.988  1.00  0.00     0.029 A 
ATOM     56  C   UNL     1      -1.858  11.087 -12.089  1.00  0.00     0.049 A 
ATOM     57  H   UNL     1      -1.206   9.521 -10.833  1.00  0.00     0.167 HD
ATOM     58  C   UNL     1      -3.917  10.345 -10.924  1.00  0.00     0.074 A 
ATOM     59  C   UNL     1      -5.330  10.442 -10.618  1.00  0.00     0.031 C 
ATOM     60  C   UNL     1      -3.261  11.179 -11.768  1.00  0.00     0.037 A 
BRANCH  47  61
ATOM     61  C   UNL     1       2.801  10.071 -12.209  1.00  0.00     0.058 A 
ATOM     62  C   UNL     1       3.456   9.269 -13.156  1.00  0.00     0.135 A 
ATOM     63  C   UNL     1       3.393  11.299 -11.869  1.00  0.00     0.135 A 
ATOM     64  F   UNL     1       2.941   8.079 -13.507  1.00  0.00    -0.206 F 
ATOM     65  C   UNL     1       4.661   9.661 -13.732  1.00  0.00     0.059 A 
ATOM     66  C   UNL     1       4.585  11.721 -12.448  1.00  0.00     0.059 A 
ATOM     67  F   UNL     1       2.808  12.103 -10.967  1.00  0.00    -0.206 F 
ATOM     68  C   UNL     1       5.218  10.890 -13.371  1.00  0.00     0.060 A 
BRANCH  68  69
ATOM     69  S   UNL     1       6.774  11.391 -14.138  1.00  0.00     0.124 S 
ATOM     70  O   UNL     1       7.724  10.501 -13.477  1.00  0.00    -0.237 OA
ATOM     71  O   UNL     1       6.529  11.119 -15.550  1.00  0.00    -0.237 OA
ATOM     72  O   UNL     1       6.889  12.803 -13.785  1.00  0.00    -0.744 OA
ENDBRANCH  68  69
ENDBRANCH  47  61
BRANCH  48  73
ATOM     73  C   UNL     1      -5.748   7.256  -7.875  1.00  0.00     0.058 A 
ATOM     74  C   UNL     1      -6.817   6.687  -8.582  1.00  0.00     0.135 A 
ATOM     75  C   UNL     1      -5.911   7.458  -6.495  1.00  0.00     0.135 A 
ATOM     76  F   UNL     1      -6.716   6.487  -9.904  1.00  0.00    -0.206 F 
ATOM     77  C   UNL     1      -8.006   6.339  -7.947  1.00  0.00     0.059 A 
ATOM     78  C   UNL     1      -7.079   7.096  -5.834  1.00  0.00     0.059 A 
ATOM     79  F   UNL     1      -4.913   7.987  -5.771  1.00  0.00    -0.206 F 
ATOM     80  C   UNL     1      -8.126   6.544  -6.571  1.00  0.00     0.060 A 
BRANCH  80  81
ATOM     81  S   UNL     1      -9.648   6.035  -5.744  1.00  0.00     0.124 S 
ATOM     82  O   UNL     1     -10.577   7.075  -6.173  1.00  0.00    -0.237 OA
ATOM     83  O   UNL     1      -9.873   4.706  -6.304  1.00  0.00    -0.237 OA
ATOM     84  O   UNL     1      -9.284   6.056  -4.330  1.00  0.00    -0.744 OA
ENDBRANCH  80  81
ENDBRANCH  48  73
BRANCH  60  85
ATOM     85  C   UNL     1      -4.060  12.270 -12.428  1.00  0.00     0.058 A 
ATOM     86  C   UNL     1      -4.484  13.401 -11.714  1.00  0.00     0.135 A 
ATOM     87  C   UNL     1      -4.352  12.213 -13.801  1.00  0.00     0.135 A 
ATOM     88  F   UNL     1      -4.238  13.500 -10.398  1.00  0.00    -0.206 F 
ATOM     89  C   UNL     1      -5.184  14.432 -12.334  1.00  0.00     0.059 A 
ATOM     90  C   UNL     1      -5.028  13.245 -14.447  1.00  0.00     0.059 A 
ATOM     91  F   UNL     1      -3.962  11.158 -14.533  1.00  0.00    -0.206 F 
ATOM     92  C   UNL     1      -5.448  14.346 -13.702  1.00  0.00     0.060 A 
BRANCH  92  93
ATOM     93  S   UNL     1      -6.319  15.711 -14.502  1.00  0.00     0.124 S 
ATOM     94  O   UNL     1      -7.681  15.516 -14.017  1.00  0.00    -0.237 OA
ATOM     95  O   UNL     1      -5.620  16.880 -13.976  1.00  0.00    -0.237 OA
ATOM     96  O   UNL     1      -6.116  15.456 -15.925  1.00  0.00    -0.744 OA
ENDBRANCH  92  93
ENDBRANCH  60  85
ENDBRANCH  34  35
ENDBRANCH  27  29
ENDBRANCH  26  27
ENDBRANCH  25  26
ENDBRANCH   1  25
TORSDOF 20
