REMARK SMILES O=C(CCCCN1C(=O)CCc2cc([N+](=O)[O-])ccc21)OCCOCCOC(=O)c1ccc(-c2c3nc(c(-c4c(F)cc(S(=O)(=O)[O-])cc4F)c4ccc([nH]4)c(-c4c(F)cc(S(=O)(=O)[O-])cc4F)c4nc(c(-c5c(F)cc(S(=O)(=O)[O-])cc5F)c5ccc2[nH]5)C=C4)C=C3)cc1
REMARK SMILES IDX 23 1 22 2 21 3 2 4 1 5 3 6 4 7 5 8 6 9 7 10 8 11 20 12 9 13
REMARK SMILES IDX 10 14 12 15 19 16 11 17 13 18 18 19 14 20 15 21 16 22 17 23
REMARK SMILES IDX 24 24 25 25 26 26 27 27 28 28 29 29 30 30 31 31 95 32 32 33
REMARK SMILES IDX 94 34 33 35 34 36 35 37 88 38 36 39 93 40 87 41 89 42 37 43
REMARK SMILES IDX 92 44 86 45 85 46 38 48 72 49 51 50 71 51 52 52 55 53 70 54
REMARK SMILES IDX 90 55 53 56 54 57 69 59 91 60 56 61 39 62 40 63 49 64 41 65
REMARK SMILES IDX 42 66 48 67 50 68 43 69 44 70 45 71 46 72 47 73 73 74 74 75
REMARK SMILES IDX 83 76 75 77 76 78 82 79 84 80 77 81 78 82 79 83 80 84 81 85
REMARK SMILES IDX 57 86 58 87 67 88 59 89 60 90 66 91 68 92 61 93 62 94 63 95
REMARK SMILES IDX 64 96 65 97
REMARK H PARENT 89 47 55 58
REMARK Flexibility Score: inf
ROOT
ATOM      1  C   UNL     1       3.347  -0.313   1.682  1.00  0.00     0.202 C 
ENDROOT
BRANCH   1   2
ATOM      2  C   UNL     1       3.585   1.138   1.276  1.00  0.00     0.261 C 
BRANCH   2   3
ATOM      3  O   UNL     1       2.697   1.729   0.311  1.00  0.00    -0.463 OA
BRANCH   3   4
ATOM      4  C   UNL     1       2.136   0.983  -0.660  1.00  0.00     0.305 C 
ATOM      5  O   UNL     1       0.935   0.719  -0.638  1.00  0.00    -0.252 OA
BRANCH   4   6
ATOM      6  C   UNL     1       3.028   0.530  -1.803  1.00  0.00     0.123 C 
BRANCH   6   7
ATOM      7  C   UNL     1       4.038   1.514  -2.378  1.00  0.00     0.014 C 
BRANCH   7   8
ATOM      8  C   UNL     1       5.320   1.772  -1.583  1.00  0.00     0.023 C 
BRANCH   8   9
ATOM      9  C   UNL     1       6.147   0.541  -1.139  1.00  0.00     0.125 C 
BRANCH   9  10
ATOM     10  N   UNL     1       6.834  -0.168  -2.220  1.00  0.00    -0.312 N 
ATOM     11  C   UNL     1       7.755   0.584  -2.961  1.00  0.00     0.227 C 
ATOM     12  C   UNL     1       6.724  -1.591  -2.407  1.00  0.00     0.047 A 
ATOM     13  O   UNL     1       8.127   1.717  -2.657  1.00  0.00    -0.275 OA
ATOM     14  C   UNL     1       8.195  -0.027  -4.261  1.00  0.00     0.105 C 
ATOM     15  C   UNL     1       7.570  -2.225  -3.343  1.00  0.00    -0.017 A 
ATOM     16  C   UNL     1       5.848  -2.408  -1.674  1.00  0.00     0.034 A 
ATOM     17  C   UNL     1       8.651  -1.443  -4.035  1.00  0.00     0.048 C 
ATOM     18  C   UNL     1       7.493  -3.611  -3.576  1.00  0.00     0.091 A 
ATOM     19  C   UNL     1       5.770  -3.793  -1.896  1.00  0.00     0.088 A 
ATOM     20  C   UNL     1       6.577  -4.386  -2.865  1.00  0.00     0.269 A 
BRANCH  20  21
ATOM     21  N   UNL     1       6.464  -5.823  -3.145  1.00  0.00     0.062 N 
ATOM     22  O   UNL     1       7.256  -6.314  -3.964  1.00  0.00    -0.258 OA
ATOM     23  O   UNL     1       5.565  -6.456  -2.574  1.00  0.00    -0.258 OA
ENDBRANCH  20  21
ENDBRANCH   9  10
ENDBRANCH   8   9
ENDBRANCH   7   8
ENDBRANCH   6   7
ENDBRANCH   4   6
ENDBRANCH   3   4
ENDBRANCH   2   3
ENDBRANCH   1   2
BRANCH   1  24
ATOM     24  O   UNL     1       3.305  -1.206   0.570  1.00  0.00    -0.374 OA
BRANCH  24  25
ATOM     25  C   UNL     1       2.214  -2.136   0.621  1.00  0.00     0.202 C 
BRANCH  25  26
ATOM     26  C   UNL     1       2.568  -3.445   1.331  1.00  0.00     0.261 C 
BRANCH  26  27
ATOM     27  O   UNL     1       3.136  -3.183   2.621  1.00  0.00    -0.460 OA
BRANCH  27  28
ATOM     28  C   UNL     1       4.497  -3.190   2.653  1.00  0.00     0.338 C 
ATOM     29  O   UNL     1       5.242  -3.550   1.766  1.00  0.00    -0.246 OA
BRANCH  28  30
ATOM     30  C   UNL     1       4.957  -2.484   3.879  1.00  0.00     0.060 A 
ATOM     31  C   UNL     1       6.207  -1.850   3.834  1.00  0.00     0.016 A 
ATOM     32  C   UNL     1       4.158  -2.375   5.023  1.00  0.00     0.016 A 
ATOM     33  C   UNL     1       6.684  -1.157   4.946  1.00  0.00     0.010 A 
ATOM     34  C   UNL     1       4.633  -1.677   6.135  1.00  0.00     0.010 A 
ATOM     35  C   UNL     1       5.916  -1.104   6.116  1.00  0.00    -0.014 A 
BRANCH  35  36
ATOM     36  C   UNL     1       6.537  -0.656   7.385  1.00  0.00     0.031 A 
ATOM     37  C   UNL     1       7.026  -1.714   8.337  1.00  0.00     0.074 A 
ATOM     38  C   UNL     1       6.677   0.648   7.680  1.00  0.00     0.049 A 
ATOM     39  N   UNL     1       7.574  -1.585   9.515  1.00  0.00    -0.248 NA
ATOM     40  C   UNL     1       6.865  -3.112   7.898  1.00  0.00     0.031 C 
ATOM     41  C   UNL     1       6.268   1.761   6.825  1.00  0.00     0.029 A 
ATOM     42  N   UNL     1       7.202   1.255   8.793  1.00  0.00    -0.354 N 
ATOM     43  C   UNL     1       7.815  -2.879   9.962  1.00  0.00     0.074 A 
ATOM     44  C   UNL     1       7.315  -3.780   8.948  1.00  0.00     0.031 C 
ATOM     45  C   UNL     1       6.557   2.918   7.448  1.00  0.00     0.029 A 
ATOM     46  C   UNL     1       7.144   2.627   8.755  1.00  0.00     0.049 A 
ATOM     47  H   UNL     1       7.585   0.753   9.549  1.00  0.00     0.167 HD
ATOM     48  C   UNL     1       8.412  -3.282  11.108  1.00  0.00     0.037 A 
ATOM     49  C   UNL     1       7.515   3.538   9.677  1.00  0.00     0.037 A 
ATOM     50  C   UNL     1       8.905  -2.379  12.112  1.00  0.00     0.049 A 
ATOM     51  C   UNL     1       8.122   3.065  10.975  1.00  0.00     0.074 A 
ATOM     52  C   UNL     1       9.544  -2.680  13.301  1.00  0.00     0.029 A 
ATOM     53  N   UNL     1       8.806  -0.996  12.048  1.00  0.00    -0.354 N 
ATOM     54  N   UNL     1       8.375   1.839  11.372  1.00  0.00    -0.248 NA
ATOM     55  C   UNL     1       8.500   4.099  11.948  1.00  0.00     0.031 C 
ATOM     56  C   UNL     1       9.784  -1.481  13.981  1.00  0.00     0.029 A 
ATOM     57  C   UNL     1       9.350  -0.430  13.189  1.00  0.00     0.049 A 
ATOM     58  H   UNL     1       8.409  -0.492  11.302  1.00  0.00     0.167 HD
ATOM     59  C   UNL     1       8.975   1.958  12.622  1.00  0.00     0.074 A 
ATOM     60  C   UNL     1       9.052   3.375  12.912  1.00  0.00     0.031 C 
ATOM     61  C   UNL     1       9.426   0.985  13.454  1.00  0.00     0.037 A 
BRANCH  48  62
ATOM     62  C   UNL     1       8.532  -4.763  11.340  1.00  0.00     0.058 A 
ATOM     63  C   UNL     1       9.395  -5.566  10.576  1.00  0.00     0.135 A 
ATOM     64  C   UNL     1       7.772  -5.388  12.342  1.00  0.00     0.135 A 
ATOM     65  F   UNL     1      10.127  -5.025   9.589  1.00  0.00    -0.206 F 
ATOM     66  C   UNL     1       9.473  -6.941  10.774  1.00  0.00     0.059 A 
ATOM     67  C   UNL     1       7.858  -6.757  12.578  1.00  0.00     0.059 A 
ATOM     68  F   UNL     1       6.927  -4.669  13.097  1.00  0.00    -0.206 F 
ATOM     69  C   UNL     1       8.699  -7.527  11.776  1.00  0.00     0.060 A 
BRANCH  69  70
ATOM     70  S   UNL     1       8.803  -9.313  12.013  1.00  0.00     0.124 S 
ATOM     71  O   UNL     1       8.089  -9.804  10.838  1.00  0.00    -0.237 OA
ATOM     72  O   UNL     1      10.245  -9.543  12.020  1.00  0.00    -0.237 OA
ATOM     73  O   UNL     1       8.130  -9.527  13.290  1.00  0.00    -0.744 OA
ENDBRANCH  69  70
ENDBRANCH  48  62
BRANCH  49  74
ATOM     74  C   UNL     1       7.335   4.992   9.409  1.00  0.00     0.058 A 
ATOM     75  C   UNL     1       8.441   5.834   9.221  1.00  0.00     0.135 A 
ATOM     76  C   UNL     1       6.058   5.570   9.344  1.00  0.00     0.135 A 
ATOM     77  F   UNL     1       9.684   5.333   9.286  1.00  0.00    -0.206 F 
ATOM     78  C   UNL     1       8.290   7.199   8.993  1.00  0.00     0.059 A 
ATOM     79  C   UNL     1       5.879   6.927   9.091  1.00  0.00     0.059 A 
ATOM     80  F   UNL     1       4.965   4.807   9.509  1.00  0.00    -0.206 F 
ATOM     81  C   UNL     1       7.003   7.735   8.927  1.00  0.00     0.060 A 
BRANCH  81  82
ATOM     82  S   UNL     1       6.818   9.499   8.582  1.00  0.00     0.124 S 
ATOM     83  O   UNL     1       7.263  10.092   9.837  1.00  0.00    -0.237 OA
ATOM     84  O   UNL     1       7.706   9.680   7.438  1.00  0.00    -0.237 OA
ATOM     85  O   UNL     1       5.394   9.634   8.288  1.00  0.00    -0.744 OA
ENDBRANCH  81  82
ENDBRANCH  49  74
BRANCH  61  86
ATOM     86  C   UNL     1      10.088   1.418  14.735  1.00  0.00     0.058 A 
ATOM     87  C   UNL     1       9.359   1.968  15.800  1.00  0.00     0.135 A 
ATOM     88  C   UNL     1      11.470   1.232  14.914  1.00  0.00     0.135 A 
ATOM     89  F   UNL     1       8.037   2.170  15.681  1.00  0.00    -0.206 F 
ATOM     90  C   UNL     1       9.980   2.349  16.985  1.00  0.00     0.059 A 
ATOM     91  C   UNL     1      12.106   1.576  16.102  1.00  0.00     0.059 A 
ATOM     92  F   UNL     1      12.213   0.696  13.933  1.00  0.00    -0.206 F 
ATOM     93  C   UNL     1      11.355   2.148  17.127  1.00  0.00     0.060 A 
BRANCH  93  94
ATOM     94  S   UNL     1      12.146   2.626  18.678  1.00  0.00     0.124 S 
ATOM     95  O   UNL     1      12.158   4.081  18.565  1.00  0.00    -0.237 OA
ATOM     96  O   UNL     1      11.235   2.075  19.676  1.00  0.00    -0.237 OA
ATOM     97  O   UNL     1      13.453   1.980  18.607  1.00  0.00    -0.744 OA
ENDBRANCH  93  94
ENDBRANCH  61  86
ENDBRANCH  35  36
ENDBRANCH  28  30
ENDBRANCH  27  28
ENDBRANCH  26  27
ENDBRANCH  25  26
ENDBRANCH  24  25
ENDBRANCH   1  24
TORSDOF 22
