REMARK SMILES CNC(=O)c1ccc(N(CCC(=O)OCCOCCOC(=O)c2ccc(-c3c4nc(c(-c5c(F)cc(S(=O)(=O)[O-])cc5F)c5ccc([nH]5)c(-c5c(F)cc(S(=O)(=O)[O-])cc5F)c5nc(c(-c6c(F)cc(S(=O)(=O)[O-])cc6F)c6ccc3[nH]6)C=C5)C=C4)cc2)C2CC2)nn1
REMARK SMILES IDX 16 1 15 2 14 3 12 4 13 5 11 6 10 7 9 8 8 9 5 10 6 11 93 12
REMARK SMILES IDX 7 13 92 14 3 15 1 16 2 17 4 19 89 20 90 21 91 22 17 23 18 24
REMARK SMILES IDX 19 25 20 26 21 27 22 28 23 29 24 30 88 31 25 32 87 33 26 34
REMARK SMILES IDX 27 35 28 36 81 37 29 38 86 39 80 40 82 41 30 42 85 43 79 44
REMARK SMILES IDX 78 45 31 47 65 48 44 49 64 50 45 51 48 52 63 53 83 54 46 55
REMARK SMILES IDX 47 56 62 58 84 59 49 60 32 61 33 62 42 63 34 64 35 65 41 66
REMARK SMILES IDX 43 67 36 68 37 69 38 70 39 71 40 72 66 73 67 74 76 75 68 76
REMARK SMILES IDX 69 77 75 78 77 79 70 80 71 81 72 82 73 83 74 84 50 85 51 86
REMARK SMILES IDX 60 87 52 88 53 89 59 90 61 91 54 92 55 93 56 94 57 95 58 96
REMARK H PARENT 2 18 82 46 48 57
REMARK Flexibility Score: inf
ROOT
ATOM      1  C   UNL     1      -2.644   8.203  -3.720  1.00  0.00     0.202 C 
ENDROOT
BRANCH   1   2
ATOM      2  C   UNL     1      -1.140   8.324  -3.448  1.00  0.00     0.261 C 
BRANCH   2   3
ATOM      3  O   UNL     1      -0.727   7.530  -2.315  1.00  0.00    -0.463 OA
BRANCH   3   4
ATOM      4  C   UNL     1      -0.544   8.161  -1.128  1.00  0.00     0.307 C 
ATOM      5  O   UNL     1      -0.753   9.350  -0.922  1.00  0.00    -0.252 OA
BRANCH   4   6
ATOM      6  C   UNL     1      -0.052   7.208  -0.065  1.00  0.00     0.144 C 
BRANCH   6   7
ATOM      7  C   UNL     1      -1.175   6.392   0.565  1.00  0.00     0.130 C 
BRANCH   7   8
ATOM      8  N   UNL     1      -1.401   5.106  -0.134  1.00  0.00    -0.352 N 
BRANCH   8   9
ATOM      9  C   UNL     1      -0.983   3.932   0.530  1.00  0.00     0.151 A 
ATOM     10  C   UNL     1      -0.237   1.639   1.905  1.00  0.00     0.150 A 
ATOM     11  C   UNL     1      -0.829   1.509   0.673  1.00  0.00     0.040 A 
ATOM     12  N   UNL     1      -0.042   2.847   2.463  1.00  0.00    -0.143 NA
ATOM     13  C   UNL     1      -1.141   2.666  -0.026  1.00  0.00     0.051 A 
ATOM     14  N   UNL     1      -0.427   3.990   1.764  1.00  0.00    -0.132 NA
BRANCH  10  15
ATOM     15  C   UNL     1       0.267   0.443   2.619  1.00  0.00     0.271 C 
ATOM     16  C   UNL     1       1.589  -0.363   0.593  1.00  0.00     0.143 C 
ATOM     17  N   UNL     1       1.030  -0.478   1.927  1.00  0.00    -0.354 N 
ATOM     18  H   UNL     1       1.218  -1.321   2.399  1.00  0.00     0.163 HD
ATOM     19  O   UNL     1      -0.004   0.252   3.801  1.00  0.00    -0.267 OA
ENDBRANCH  10  15
ENDBRANCH   8   9
BRANCH   8  20
ATOM     20  C   UNL     1      -2.284   5.176  -1.308  1.00  0.00     0.084 C 
ATOM     21  C   UNL     1      -2.135   4.427  -2.596  1.00  0.00     0.027 C 
ATOM     22  C   UNL     1      -3.308   4.162  -1.679  1.00  0.00     0.027 C 
ENDBRANCH   8  20
ENDBRANCH   7   8
ENDBRANCH   6   7
ENDBRANCH   4   6
ENDBRANCH   3   4
ENDBRANCH   2   3
ENDBRANCH   1   2
BRANCH   1  23
ATOM     23  O   UNL     1      -3.424   9.179  -3.026  1.00  0.00    -0.374 OA
BRANCH  23  24
ATOM     24  C   UNL     1      -3.958   8.762  -1.772  1.00  0.00     0.202 C 
BRANCH  24  25
ATOM     25  C   UNL     1      -5.332   8.084  -1.875  1.00  0.00     0.261 C 
BRANCH  25  26
ATOM     26  O   UNL     1      -5.269   6.828  -2.578  1.00  0.00    -0.460 OA
BRANCH  26  27
ATOM     27  C   UNL     1      -5.742   6.831  -3.851  1.00  0.00     0.338 C 
ATOM     28  O   UNL     1      -6.255   7.765  -4.444  1.00  0.00    -0.246 OA
BRANCH  27  29
ATOM     29  C   UNL     1      -5.391   5.548  -4.501  1.00  0.00     0.060 A 
ATOM     30  C   UNL     1      -4.740   5.584  -5.737  1.00  0.00     0.016 A 
ATOM     31  C   UNL     1      -5.674   4.320  -3.900  1.00  0.00     0.016 A 
ATOM     32  C   UNL     1      -4.369   4.391  -6.369  1.00  0.00     0.010 A 
ATOM     33  C   UNL     1      -5.237   3.132  -4.499  1.00  0.00     0.010 A 
ATOM     34  C   UNL     1      -4.617   3.151  -5.761  1.00  0.00    -0.014 A 
BRANCH  34  35
ATOM     35  C   UNL     1      -4.385   1.878  -6.503  1.00  0.00     0.031 A 
ATOM     36  C   UNL     1      -5.576   1.032  -6.889  1.00  0.00     0.074 A 
ATOM     37  C   UNL     1      -3.147   1.469  -6.849  1.00  0.00     0.049 A 
ATOM     38  N   UNL     1      -5.612  -0.126  -7.497  1.00  0.00    -0.248 NA
ATOM     39  C   UNL     1      -6.902   1.553  -6.519  1.00  0.00     0.031 C 
ATOM     40  C   UNL     1      -1.900   2.169  -6.539  1.00  0.00     0.029 A 
ATOM     41  N   UNL     1      -2.737   0.356  -7.546  1.00  0.00    -0.354 N 
ATOM     42  C   UNL     1      -6.955  -0.480  -7.556  1.00  0.00     0.074 A 
ATOM     43  C   UNL     1      -7.696   0.555  -6.871  1.00  0.00     0.031 C 
ATOM     44  C   UNL     1      -0.869   1.481  -7.061  1.00  0.00     0.029 A 
ATOM     45  C   UNL     1      -1.374   0.277  -7.720  1.00  0.00     0.049 A 
ATOM     46  H   UNL     1      -3.362  -0.322  -7.890  1.00  0.00     0.167 HD
ATOM     47  C   UNL     1      -7.534  -1.548  -8.154  1.00  0.00     0.037 A 
ATOM     48  C   UNL     1      -0.620  -0.658  -8.335  1.00  0.00     0.037 A 
ATOM     49  C   UNL     1      -6.818  -2.554  -8.889  1.00  0.00     0.049 A 
ATOM     50  C   UNL     1      -1.282  -1.846  -8.988  1.00  0.00     0.074 A 
ATOM     51  C   UNL     1      -7.327  -3.640  -9.579  1.00  0.00     0.029 A 
ATOM     52  N   UNL     1      -5.441  -2.595  -9.037  1.00  0.00    -0.354 N 
ATOM     53  N   UNL     1      -2.558  -2.139  -9.069  1.00  0.00    -0.248 NA
ATOM     54  C   UNL     1      -0.401  -2.831  -9.636  1.00  0.00     0.031 C 
ATOM     55  C   UNL     1      -6.254  -4.359 -10.115  1.00  0.00     0.029 A 
ATOM     56  C   UNL     1      -5.080  -3.698  -9.792  1.00  0.00     0.049 A 
ATOM     57  H   UNL     1      -4.812  -1.937  -8.662  1.00  0.00     0.167 HD
ATOM     58  C   UNL     1      -2.632  -3.325  -9.794  1.00  0.00     0.074 A 
ATOM     59  C   UNL     1      -1.276  -3.691 -10.140  1.00  0.00     0.031 C 
ATOM     60  C   UNL     1      -3.727  -4.048 -10.140  1.00  0.00     0.037 A 
BRANCH  47  61
ATOM     61  C   UNL     1      -9.027  -1.675  -8.041  1.00  0.00     0.058 A 
ATOM     62  C   UNL     1      -9.894  -0.812  -8.731  1.00  0.00     0.135 A 
ATOM     63  C   UNL     1      -9.598  -2.675  -7.238  1.00  0.00     0.135 A 
ATOM     64  F   UNL     1      -9.398   0.174  -9.496  1.00  0.00    -0.206 F 
ATOM     65  C   UNL     1     -11.274  -0.911  -8.598  1.00  0.00     0.059 A 
ATOM     66  C   UNL     1     -10.977  -2.811  -7.113  1.00  0.00     0.059 A 
ATOM     67  F   UNL     1      -8.813  -3.524  -6.556  1.00  0.00    -0.206 F 
ATOM     68  C   UNL     1     -11.806  -1.911  -7.783  1.00  0.00     0.060 A 
BRANCH  68  69
ATOM     69  S   UNL     1     -13.598  -2.020  -7.612  1.00  0.00     0.124 S 
ATOM     70  O   UNL     1     -13.873  -0.891  -6.728  1.00  0.00    -0.237 OA
ATOM     71  O   UNL     1     -14.055  -1.872  -8.990  1.00  0.00    -0.237 OA
ATOM     72  O   UNL     1     -13.803  -3.341  -7.026  1.00  0.00    -0.744 OA
ENDBRANCH  68  69
ENDBRANCH  47  61
BRANCH  48  73
ATOM     73  C   UNL     1       0.862  -0.517  -8.377  1.00  0.00     0.058 A 
ATOM     74  C   UNL     1       1.528  -0.230  -9.578  1.00  0.00     0.135 A 
ATOM     75  C   UNL     1       1.642  -0.691  -7.223  1.00  0.00     0.135 A 
ATOM     76  F   UNL     1       0.827  -0.070 -10.711  1.00  0.00    -0.206 F 
ATOM     77  C   UNL     1       2.915  -0.137  -9.640  1.00  0.00     0.059 A 
ATOM     78  C   UNL     1       3.029  -0.581  -7.255  1.00  0.00     0.059 A 
ATOM     79  F   UNL     1       1.054  -0.959  -6.047  1.00  0.00    -0.206 F 
ATOM     80  C   UNL     1       3.658  -0.313  -8.471  1.00  0.00     0.060 A 
BRANCH  80  81
ATOM     81  S   UNL     1       5.455  -0.145  -8.548  1.00  0.00     0.124 S 
ATOM     82  O   UNL     1       5.838  -1.392  -9.201  1.00  0.00    -0.237 OA
ATOM     83  O   UNL     1       5.615   1.069  -9.342  1.00  0.00    -0.237 OA
ATOM     84  O   UNL     1       5.837  -0.022  -7.145  1.00  0.00    -0.744 OA
ENDBRANCH  80  81
ENDBRANCH  48  73
BRANCH  60  85
ATOM     85  C   UNL     1      -3.517  -5.296 -10.953  1.00  0.00     0.058 A 
ATOM     86  C   UNL     1      -2.997  -6.467 -10.380  1.00  0.00     0.135 A 
ATOM     87  C   UNL     1      -3.910  -5.343 -12.301  1.00  0.00     0.135 A 
ATOM     88  F   UNL     1      -2.603  -6.474  -9.097  1.00  0.00    -0.206 F 
ATOM     89  C   UNL     1      -2.860  -7.638 -11.119  1.00  0.00     0.059 A 
ATOM     90  C   UNL     1      -3.804  -6.510 -13.052  1.00  0.00     0.059 A 
ATOM     91  F   UNL     1      -4.425  -4.254 -12.893  1.00  0.00    -0.206 F 
ATOM     92  C   UNL     1      -3.269  -7.650 -12.454  1.00  0.00     0.060 A 
BRANCH  92  93
ATOM     93  S   UNL     1      -3.127  -9.189 -13.390  1.00  0.00     0.124 S 
ATOM     94  O   UNL     1      -1.691  -9.248 -13.641  1.00  0.00    -0.237 OA
ATOM     95  O   UNL     1      -3.648 -10.176 -12.449  1.00  0.00    -0.237 OA
ATOM     96  O   UNL     1      -3.962  -8.950 -14.564  1.00  0.00    -0.744 OA
ENDBRANCH  92  93
ENDBRANCH  60  85
ENDBRANCH  34  35
ENDBRANCH  27  29
ENDBRANCH  26  27
ENDBRANCH  25  26
ENDBRANCH  24  25
ENDBRANCH  23  24
ENDBRANCH   1  23
TORSDOF 22
