REMARK SMILES CCCC[C@@H](Sc1nc(OCCC2CCCCC2)cc(OCCC2CCCCC2)n1)C(=O)OCCOCCOC(=O)c1ccc(-c2c3nc(c(-c4c(F)cc(S(=O)(=O)[O-])cc4F)c4ccc([nH]4)c(-c4c(F)cc(S(=O)(=O)[O-])cc4F)c4nc(c(-c5c(F)cc(S(=O)(=O)[O-])cc5F)c5ccc2[nH]5)C=C4)C=C3)cc1
REMARK SMILES IDX 34 1 33 2 31 3 32 4 5 5 4 6 3 7 2 8 1 9 6 10 7 11 8 12 30 13
REMARK SMILES IDX 9 14 20 15 19 16 10 17 11 18 12 19 13 20 14 21 18 22 15 23
REMARK SMILES IDX 17 24 16 25 21 26 22 27 23 28 24 29 25 30 29 31 26 32 28 33
REMARK SMILES IDX 27 34 35 35 36 36 37 37 38 38 39 39 40 40 41 41 42 42 43 43
REMARK SMILES IDX 107 44 44 45 106 46 45 47 46 48 47 49 100 50 48 51 105 52
REMARK SMILES IDX 99 53 101 54 49 55 104 56 98 57 97 58 50 60 84 61 63 62
REMARK SMILES IDX 83 63 64 64 67 65 82 66 102 67 65 68 66 69 81 71 103 72
REMARK SMILES IDX 68 73 51 74 52 75 61 76 53 77 54 78 60 79 62 80 55 81 56 82
REMARK SMILES IDX 57 83 58 84 59 85 85 86 86 87 95 88 87 89 88 90 94 91 96 92
REMARK SMILES IDX 89 93 90 94 91 95 92 96 93 97 69 98 70 99 79 100 71 101
REMARK SMILES IDX 72 102 78 103 80 104 73 105 74 106 75 107 76 108 77 109
REMARK H PARENT 101 59 67 70
REMARK Flexibility Score: inf
ROOT
ATOM      1  C   UNL     1      -2.649   1.629  -5.643  1.00  0.00     0.261 C 
ENDROOT
BRANCH   1   2
ATOM      2  O   UNL     1      -1.874   2.058  -4.519  1.00  0.00    -0.462 OA
BRANCH   2   3
ATOM      3  C   UNL     1      -2.381   1.724  -3.298  1.00  0.00     0.319 C 
ATOM      4  O   UNL     1      -3.410   1.083  -3.114  1.00  0.00    -0.251 OA
BRANCH   3   5
ATOM      5  C   UNL     1      -1.539   2.288  -2.160  1.00  0.00     0.164 C 
BRANCH   5   6
ATOM      6  C   UNL     1      -0.024   2.293  -2.495  1.00  0.00     0.027 C 
BRANCH   6   7
ATOM      7  C   UNL     1       0.999   2.222  -1.346  1.00  0.00     0.001 C 
BRANCH   7   8
ATOM      8  C   UNL     1       0.802   1.114  -0.302  1.00  0.00    -0.003 C 
ATOM      9  C   UNL     1       1.129  -0.276  -0.822  1.00  0.00     0.004 C 
ENDBRANCH   7   8
ENDBRANCH   6   7
ENDBRANCH   5   6
BRANCH   5  10
ATOM     10  S   UNL     1      -2.326   3.922  -1.873  1.00  0.00    -0.071 SA
BRANCH  10  11
ATOM     11  C   UNL     1      -2.135   4.059  -0.128  1.00  0.00     0.195 A 
ATOM     12  N   UNL     1      -2.974   4.888   0.506  1.00  0.00    -0.187 NA
ATOM     13  N   UNL     1      -0.964   3.640   0.348  1.00  0.00    -0.187 NA
ATOM     14  C   UNL     1      -2.470   5.525   1.564  1.00  0.00     0.221 A 
ATOM     15  C   UNL     1      -0.476   4.325   1.367  1.00  0.00     0.221 A 
ATOM     16  C   UNL     1      -1.157   5.374   1.915  1.00  0.00     0.136 A 
BRANCH  14  17
ATOM     17  O   UNL     1      -3.377   6.298   2.236  1.00  0.00    -0.477 OA
BRANCH  17  18
ATOM     18  C   UNL     1      -2.933   7.134   3.304  1.00  0.00     0.231 C 
BRANCH  18  19
ATOM     19  C   UNL     1      -3.097   6.530   4.717  1.00  0.00     0.045 C 
BRANCH  19  20
ATOM     20  C   UNL     1      -2.443   5.155   4.947  1.00  0.00    -0.008 C 
ATOM     21  C   UNL     1      -1.826   5.005   6.345  1.00  0.00     0.004 C 
ATOM     22  C   UNL     1      -3.416   3.997   4.690  1.00  0.00     0.004 C 
ATOM     23  C   UNL     1      -1.089   3.669   6.474  1.00  0.00     0.000 C 
ATOM     24  C   UNL     1      -2.688   2.657   4.763  1.00  0.00     0.000 C 
ATOM     25  C   UNL     1      -1.959   2.472   6.091  1.00  0.00     0.000 C 
ENDBRANCH  19  20
ENDBRANCH  18  19
ENDBRANCH  17  18
ENDBRANCH  14  17
BRANCH  15  26
ATOM     26  O   UNL     1       0.831   4.060   1.676  1.00  0.00    -0.477 OA
BRANCH  26  27
ATOM     27  C   UNL     1       1.027   3.528   2.991  1.00  0.00     0.231 C 
BRANCH  27  28
ATOM     28  C   UNL     1       2.307   4.122   3.623  1.00  0.00     0.045 C 
BRANCH  28  29
ATOM     29  C   UNL     1       2.434   5.634   3.391  1.00  0.00    -0.008 C 
ATOM     30  C   UNL     1       1.351   6.444   4.106  1.00  0.00     0.004 C 
ATOM     31  C   UNL     1       3.767   6.264   3.805  1.00  0.00     0.004 C 
ATOM     32  C   UNL     1       1.257   7.791   3.399  1.00  0.00     0.000 C 
ATOM     33  C   UNL     1       3.821   7.723   3.312  1.00  0.00     0.000 C 
ATOM     34  C   UNL     1       2.561   8.556   3.605  1.00  0.00     0.000 C 
ENDBRANCH  28  29
ENDBRANCH  27  28
ENDBRANCH  26  27
ENDBRANCH  15  26
ENDBRANCH  10  11
ENDBRANCH   5  10
ENDBRANCH   3   5
ENDBRANCH   2   3
ENDBRANCH   1   2
BRANCH   1  35
ATOM     35  C   UNL     1      -2.045   0.404  -6.331  1.00  0.00     0.202 C 
BRANCH  35  36
ATOM     36  O   UNL     1      -1.951  -0.798  -5.571  1.00  0.00    -0.374 OA
BRANCH  36  37
ATOM     37  C   UNL     1      -0.922  -0.904  -4.589  1.00  0.00     0.202 C 
BRANCH  37  38
ATOM     38  C   UNL     1       0.528  -0.986  -5.079  1.00  0.00     0.261 C 
BRANCH  38  39
ATOM     39  O   UNL     1       0.993   0.244  -5.666  1.00  0.00    -0.460 OA
BRANCH  39  40
ATOM     40  C   UNL     1       1.295   0.164  -6.982  1.00  0.00     0.338 C 
ATOM     41  O   UNL     1       1.230  -0.837  -7.694  1.00  0.00    -0.246 OA
BRANCH  40  42
ATOM     42  C   UNL     1       1.568   1.497  -7.540  1.00  0.00     0.060 A 
ATOM     43  C   UNL     1       0.784   1.930  -8.618  1.00  0.00     0.016 A 
ATOM     44  C   UNL     1       2.661   2.250  -7.107  1.00  0.00     0.016 A 
ATOM     45  C   UNL     1       1.122   3.095  -9.305  1.00  0.00     0.010 A 
ATOM     46  C   UNL     1       3.006   3.410  -7.807  1.00  0.00     0.010 A 
ATOM     47  C   UNL     1       2.264   3.814  -8.932  1.00  0.00    -0.014 A 
BRANCH  47  48
ATOM     48  C   UNL     1       2.797   4.877  -9.818  1.00  0.00     0.031 A 
ATOM     49  C   UNL     1       3.925   4.532 -10.754  1.00  0.00     0.074 A 
ATOM     50  C   UNL     1       2.292   6.123  -9.794  1.00  0.00     0.049 A 
ATOM     51  N   UNL     1       4.648   5.317 -11.508  1.00  0.00    -0.248 NA
ATOM     52  C   UNL     1       4.284   3.106 -10.849  1.00  0.00     0.031 C 
ATOM     53  C   UNL     1       1.154   6.559  -8.986  1.00  0.00     0.029 A 
ATOM     54  N   UNL     1       2.686   7.256 -10.460  1.00  0.00    -0.354 N 
ATOM     55  C   UNL     1       5.556   4.487 -12.155  1.00  0.00     0.074 A 
ATOM     56  C   UNL     1       5.304   3.139 -11.694  1.00  0.00     0.031 C 
ATOM     57  C   UNL     1       0.956   7.873  -9.187  1.00  0.00     0.029 A 
ATOM     58  C   UNL     1       1.979   8.379 -10.101  1.00  0.00     0.049 A 
ATOM     59  H   UNL     1       3.407   7.264 -11.131  1.00  0.00     0.167 HD
ATOM     60  C   UNL     1       6.513   4.820 -13.054  1.00  0.00     0.037 A 
ATOM     61  C   UNL     1       2.163   9.669 -10.445  1.00  0.00     0.037 A 
ATOM     62  C   UNL     1       6.758   6.164 -13.505  1.00  0.00     0.049 A 
ATOM     63  C   UNL     1       3.291  10.030 -11.378  1.00  0.00     0.074 A 
ATOM     64  C   UNL     1       7.720   6.613 -14.392  1.00  0.00     0.029 A 
ATOM     65  N   UNL     1       6.029   7.275 -13.107  1.00  0.00    -0.354 N 
ATOM     66  N   UNL     1       4.165   9.242 -11.961  1.00  0.00    -0.248 NA
ATOM     67  C   UNL     1       3.465  11.455 -11.697  1.00  0.00     0.031 C 
ATOM     68  C   UNL     1       7.596   8.002 -14.503  1.00  0.00     0.029 A 
ATOM     69  C   UNL     1       6.526   8.410 -13.723  1.00  0.00     0.049 A 
ATOM     70  H   UNL     1       5.272   7.258 -12.478  1.00  0.00     0.167 HD
ATOM     71  C   UNL     1       4.962  10.070 -12.745  1.00  0.00     0.074 A 
ATOM     72  C   UNL     1       4.474  11.420 -12.558  1.00  0.00     0.031 C 
ATOM     73  C   UNL     1       6.000   9.741 -13.552  1.00  0.00     0.037 A 
BRANCH  60  74
ATOM     74  C   UNL     1       7.382   3.716 -13.587  1.00  0.00     0.058 A 
ATOM     75  C   UNL     1       6.896   2.777 -14.510  1.00  0.00     0.135 A 
ATOM     76  C   UNL     1       8.726   3.615 -13.194  1.00  0.00     0.135 A 
ATOM     77  F   UNL     1       5.614   2.817 -14.904  1.00  0.00    -0.206 F 
ATOM     78  C   UNL     1       7.707   1.762 -15.009  1.00  0.00     0.059 A 
ATOM     79  C   UNL     1       9.562   2.623 -13.698  1.00  0.00     0.059 A 
ATOM     80  F   UNL     1       9.239   4.486 -12.311  1.00  0.00    -0.206 F 
ATOM     81  C   UNL     1       9.039   1.693 -14.595  1.00  0.00     0.060 A 
BRANCH  81  82
ATOM     82  S   UNL     1      10.081   0.373 -15.253  1.00  0.00     0.124 S 
ATOM     83  O   UNL     1       9.576  -0.786 -14.524  1.00  0.00    -0.237 OA
ATOM     84  O   UNL     1       9.771   0.410 -16.679  1.00  0.00    -0.237 OA
ATOM     85  O   UNL     1      11.432   0.798 -14.899  1.00  0.00    -0.744 OA
ENDBRANCH  81  82
ENDBRANCH  60  74
BRANCH  61  86
ATOM     86  C   UNL     1       1.278  10.726  -9.887  1.00  0.00     0.058 A 
ATOM     87  C   UNL     1       0.373  11.418 -10.705  1.00  0.00     0.135 A 
ATOM     88  C   UNL     1       1.331  11.078  -8.529  1.00  0.00     0.135 A 
ATOM     89  F   UNL     1       0.293  11.125 -12.012  1.00  0.00    -0.206 F 
ATOM     90  C   UNL     1      -0.432  12.436 -10.204  1.00  0.00     0.059 A 
ATOM     91  C   UNL     1       0.519  12.076  -7.999  1.00  0.00     0.059 A 
ATOM     92  F   UNL     1       2.174  10.441  -7.701  1.00  0.00    -0.206 F 
ATOM     93  C   UNL     1      -0.350  12.759  -8.848  1.00  0.00     0.060 A 
BRANCH  93  94
ATOM     94  S   UNL     1      -1.415  14.066  -8.201  1.00  0.00     0.124 S 
ATOM     95  O   UNL     1      -0.758  15.261  -8.718  1.00  0.00    -0.237 OA
ATOM     96  O   UNL     1      -2.705  13.737  -8.800  1.00  0.00    -0.237 OA
ATOM     97  O   UNL     1      -1.336  13.877  -6.756  1.00  0.00    -0.744 OA
ENDBRANCH  93  94
ENDBRANCH  61  86
BRANCH  73  98
ATOM     98  C   UNL     1       6.641  10.838 -14.355  1.00  0.00     0.058 A 
ATOM     99  C   UNL     1       7.527  11.759 -13.778  1.00  0.00     0.135 A 
ATOM    100  C   UNL     1       6.439  10.900 -15.744  1.00  0.00     0.135 A 
ATOM    101  F   UNL     1       7.749  11.745 -12.454  1.00  0.00    -0.206 F 
ATOM    102  C   UNL     1       8.190  12.707 -14.550  1.00  0.00     0.059 A 
ATOM    103  C   UNL     1       7.108  11.825 -16.538  1.00  0.00     0.059 A 
ATOM    104  F   UNL     1       5.608  10.034 -16.345  1.00  0.00    -0.206 F 
ATOM    105  C   UNL     1       7.980  12.727 -15.931  1.00  0.00     0.060 A 
BRANCH 105 106
ATOM    106  S   UNL     1       8.903  13.914 -16.932  1.00  0.00     0.124 S 
ATOM    107  O   UNL     1       8.206  15.159 -16.630  1.00  0.00    -0.237 OA
ATOM    108  O   UNL     1      10.254  13.796 -16.392  1.00  0.00    -0.237 OA
ATOM    109  O   UNL     1       8.734  13.414 -18.294  1.00  0.00    -0.744 OA
ENDBRANCH 105 106
ENDBRANCH  73  98
ENDBRANCH  47  48
ENDBRANCH  40  42
ENDBRANCH  39  40
ENDBRANCH  38  39
ENDBRANCH  37  38
ENDBRANCH  36  37
ENDBRANCH  35  36
ENDBRANCH   1  35
TORSDOF 30
