REMARK SMILES O=C(OCCOCCOC(=O)c1ccc(-c2c3nc(c(-c4c(F)cc(S(=O)(=O)[O-])cc4F)c4ccc([nH]4)c(-c4c(F)cc(S(=O)(=O)[O-])cc4F)c4nc(c(-c5c(F)cc(S(=O)(=O)[O-])cc5F)c5ccc2[nH]5)C=C4)C=C3)cc1)C1=Cc2c(ccc(Cl)c2-c2ccccc2)O[C@H]1C(F)(F)F
REMARK SMILES IDX 7 1 6 2 5 3 4 4 3 5 2 6 1 7 78 8 79 9 94 10 80 11 93 12
REMARK SMILES IDX 81 13 86 14 82 15 84 16 83 17 85 18 95 19 96 20 97 21 98 22
REMARK SMILES IDX 87 23 88 24 92 25 89 26 91 27 90 28 8 29 9 30 10 31 11 32
REMARK SMILES IDX 12 33 13 34 77 35 14 36 76 37 15 38 16 39 17 40 70 41 18 42
REMARK SMILES IDX 75 43 69 44 71 45 19 46 74 47 68 48 67 49 20 51 54 52 33 53
REMARK SMILES IDX 53 54 34 55 37 56 52 57 72 58 35 59 36 60 51 62 73 63 38 64
REMARK SMILES IDX 21 65 22 66 31 67 23 68 24 69 30 70 32 71 25 72 26 73 27 74
REMARK SMILES IDX 28 75 29 76 55 77 56 78 65 79 57 80 58 81 64 82 66 83 59 84
REMARK SMILES IDX 60 85 61 86 62 87 63 88 39 89 40 90 49 91 41 92 42 93 48 94
REMARK SMILES IDX 50 95 43 96 44 97 45 98 46 99 47 100
REMARK H PARENT 71 50 37 61
REMARK Flexibility Score: inf
ROOT
ATOM      1  C   UNL     1       1.249  -2.260   1.384  1.00  0.00     0.202 C 
ENDROOT
BRANCH   1   2
ATOM      2  O   UNL     1       2.163  -2.717   0.464  1.00  0.00    -0.374 OA
BRANCH   2   3
ATOM      3  C   UNL     1       2.842  -1.645  -0.092  1.00  0.00     0.202 C 
BRANCH   3   4
ATOM      4  C   UNL     1       2.274  -0.125  -0.223  1.00  0.00     0.261 C 
BRANCH   4   5
ATOM      5  O   UNL     1       1.561   0.033  -1.436  1.00  0.00    -0.460 OA
BRANCH   5   6
ATOM      6  C   UNL     1       2.297  -0.095  -2.566  1.00  0.00     0.338 C 
ATOM      7  O   UNL     1       1.772  -0.081  -3.666  1.00  0.00    -0.246 OA
BRANCH   6   8
ATOM      8  C   UNL     1       3.709  -0.442  -2.378  1.00  0.00     0.087 C 
ATOM      9  C   UNL     1       4.532  -0.279  -1.377  1.00  0.00     0.028 C 
ATOM     10  C   UNL     1       4.703  -0.930  -3.356  1.00  0.00     0.316 C 
ATOM     11  C   UNL     1       5.364  -0.081  -0.283  1.00  0.00     0.027 A 
ATOM     12  O   UNL     1       6.242  -0.354  -2.774  1.00  0.00    -0.475 OA
ATOM     13  C   UNL     1       6.399   0.210  -1.320  1.00  0.00     0.128 A 
ATOM     14  C   UNL     1       5.135   0.347   1.074  1.00  0.00     0.011 A 
ATOM     15  C   UNL     1       7.363   1.105  -0.955  1.00  0.00     0.049 A 
ATOM     16  C   UNL     1       6.047   1.399   1.260  1.00  0.00     0.049 A 
ATOM     17  C   UNL     1       7.150   1.719   0.318  1.00  0.00     0.025 A 
ATOM     18  Cl  UNL     1       5.740   2.632   2.422  1.00  0.00    -0.084 Cl
BRANCH  10  19
ATOM     19  C   UNL     1       4.425  -2.496  -3.410  1.00  0.00     0.430 C 
ATOM     20  F   UNL     1       3.209  -2.828  -2.875  1.00  0.00    -0.167 F 
ATOM     21  F   UNL     1       4.372  -2.983  -4.665  1.00  0.00    -0.167 F 
ATOM     22  F   UNL     1       5.331  -3.207  -2.705  1.00  0.00    -0.167 F 
ENDBRANCH  10  19
BRANCH  14  23
ATOM     23  C   UNL     1       3.959  -0.255   2.158  1.00  0.00    -0.016 A 
ATOM     24  C   UNL     1       2.813   0.805   3.074  1.00  0.00     0.009 A 
ATOM     25  C   UNL     1       3.811  -2.053   2.454  1.00  0.00     0.009 A 
ATOM     26  C   UNL     1       1.575   0.120   4.246  1.00  0.00     0.001 A 
ATOM     27  C   UNL     1       2.565  -2.780   3.589  1.00  0.00     0.001 A 
ATOM     28  C   UNL     1       1.472  -1.684   4.546  1.00  0.00     0.000 A 
ENDBRANCH  14  23
ENDBRANCH   6   8
ENDBRANCH   5   6
ENDBRANCH   4   5
ENDBRANCH   3   4
ENDBRANCH   2   3
ENDBRANCH   1   2
BRANCH   1  29
ATOM     29  C   UNL     1       1.687  -1.149   2.437  1.00  0.00     0.261 C 
BRANCH  29  30
ATOM     30  O   UNL     1       3.101  -0.948   3.833  1.00  0.00    -0.460 OA
BRANCH  30  31
ATOM     31  C   UNL     1       4.078  -1.244   4.813  1.00  0.00     0.338 C 
ATOM     32  O   UNL     1       4.523  -2.322   5.184  1.00  0.00    -0.246 OA
BRANCH  31  33
ATOM     33  C   UNL     1       4.683   0.001   5.250  1.00  0.00     0.060 A 
ATOM     34  C   UNL     1       5.979   0.273   4.813  1.00  0.00     0.016 A 
ATOM     35  C   UNL     1       3.942   0.885   6.036  1.00  0.00     0.016 A 
ATOM     36  C   UNL     1       6.571   1.454   5.214  1.00  0.00     0.010 A 
ATOM     37  C   UNL     1       4.510   2.089   6.391  1.00  0.00     0.010 A 
ATOM     38  C   UNL     1       5.845   2.331   6.033  1.00  0.00    -0.014 A 
BRANCH  38  39
ATOM     39  C   UNL     1       6.606   3.256   6.873  1.00  0.00     0.031 A 
ATOM     40  C   UNL     1       7.035   2.706   8.198  1.00  0.00     0.074 A 
ATOM     41  C   UNL     1       6.897   4.497   6.464  1.00  0.00     0.049 A 
ATOM     42  N   UNL     1       7.684   3.293   9.161  1.00  0.00    -0.248 NA
ATOM     43  C   UNL     1       6.669   1.303   8.484  1.00  0.00     0.031 C 
ATOM     44  C   UNL     1       6.537   5.071   5.171  1.00  0.00     0.029 A 
ATOM     45  N   UNL     1       7.569   5.497   7.105  1.00  0.00    -0.354 N 
ATOM     46  C   UNL     1       7.796   2.336  10.159  1.00  0.00     0.074 A 
ATOM     47  C   UNL     1       7.111   1.149   9.717  1.00  0.00     0.031 C 
ATOM     48  C   UNL     1       7.011   6.327   5.105  1.00  0.00     0.029 A 
ATOM     49  C   UNL     1       7.653   6.654   6.374  1.00  0.00     0.049 A 
ATOM     50  H   UNL     1       7.956   5.397   8.005  1.00  0.00     0.167 HD
ATOM     51  C   UNL     1       8.428   2.449  11.344  1.00  0.00     0.037 A 
ATOM     52  C   UNL     1       8.172   7.846   6.721  1.00  0.00     0.037 A 
ATOM     53  C   UNL     1       9.072   3.660  11.763  1.00  0.00     0.049 A 
ATOM     54  C   UNL     1       8.791   7.971   8.088  1.00  0.00     0.074 A 
ATOM     55  C   UNL     1       9.743   3.910  12.941  1.00  0.00     0.029 A 
ATOM     56  N   UNL     1       9.098   4.834  11.020  1.00  0.00    -0.354 N 
ATOM     57  N   UNL     1       8.912   7.061   9.028  1.00  0.00    -0.248 NA
ATOM     58  C   UNL     1       9.352   9.279   8.439  1.00  0.00     0.031 C 
ATOM     59  C   UNL     1      10.092   5.263  12.953  1.00  0.00     0.029 A 
ATOM     60  C   UNL     1       9.742   5.826  11.733  1.00  0.00     0.049 A 
ATOM     61  H   UNL     1       8.714   4.942  10.120  1.00  0.00     0.167 HD
ATOM     62  C   UNL     1       9.612   7.672  10.063  1.00  0.00     0.074 A 
ATOM     63  C   UNL     1       9.888   9.026   9.624  1.00  0.00     0.031 C 
ATOM     64  C   UNL     1      10.003   7.164  11.260  1.00  0.00     0.037 A 
BRANCH  51  65
ATOM     65  C   UNL     1       8.380   1.268  12.268  1.00  0.00     0.058 A 
ATOM     66  C   UNL     1       9.010   0.048  11.968  1.00  0.00     0.135 A 
ATOM     67  C   UNL     1       7.673   1.360  13.477  1.00  0.00     0.135 A 
ATOM     68  F   UNL     1       9.665  -0.111  10.806  1.00  0.00    -0.206 F 
ATOM     69  C   UNL     1       8.926  -1.042  12.826  1.00  0.00     0.059 A 
ATOM     70  C   UNL     1       7.613   0.297  14.369  1.00  0.00     0.059 A 
ATOM     71  F   UNL     1       7.029   2.492  13.800  1.00  0.00    -0.206 F 
ATOM     72  C   UNL     1       8.235  -0.903  14.031  1.00  0.00     0.060 A 
BRANCH  72  73
ATOM     73  S   UNL     1       8.179  -2.309  15.158  1.00  0.00     0.124 S 
ATOM     74  O   UNL     1       7.356  -3.254  14.409  1.00  0.00    -0.237 OA
ATOM     75  O   UNL     1       9.591  -2.657  15.283  1.00  0.00    -0.237 OA
ATOM     76  O   UNL     1       7.562  -1.758  16.360  1.00  0.00    -0.744 OA
ENDBRANCH  72  73
ENDBRANCH  51  65
BRANCH  52  77
ATOM     77  C   UNL     1       8.129   8.993   5.776  1.00  0.00     0.058 A 
ATOM     78  C   UNL     1       9.306   9.552   5.258  1.00  0.00     0.135 A 
ATOM     79  C   UNL     1       6.909   9.561   5.377  1.00  0.00     0.135 A 
ATOM     80  F   UNL     1      10.500   9.048   5.608  1.00  0.00    -0.206 F 
ATOM     81  C   UNL     1       9.279  10.650   4.404  1.00  0.00     0.059 A 
ATOM     82  C   UNL     1       6.853  10.635   4.494  1.00  0.00     0.059 A 
ATOM     83  F   UNL     1       5.750   9.058   5.830  1.00  0.00    -0.206 F 
ATOM     84  C   UNL     1       8.046  11.180   4.023  1.00  0.00     0.060 A 
BRANCH  84  85
ATOM     85  S   UNL     1       8.023  12.574   2.877  1.00  0.00     0.124 S 
ATOM     86  O   UNL     1       8.618  13.632   3.686  1.00  0.00    -0.237 OA
ATOM     87  O   UNL     1       8.842  12.073   1.778  1.00  0.00    -0.237 OA
ATOM     88  O   UNL     1       6.605  12.736   2.571  1.00  0.00    -0.744 OA
ENDBRANCH  84  85
ENDBRANCH  52  77
BRANCH  64  89
ATOM     89  C   UNL     1      10.842   8.049  12.140  1.00  0.00     0.058 A 
ATOM     90  C   UNL     1      10.344   9.222  12.726  1.00  0.00     0.135 A 
ATOM     91  C   UNL     1      12.171   7.687  12.422  1.00  0.00     0.135 A 
ATOM     92  F   UNL     1       9.080   9.613  12.495  1.00  0.00    -0.206 F 
ATOM     93  C   UNL     1      11.151  10.037  13.511  1.00  0.00     0.059 A 
ATOM     94  C   UNL     1      12.978   8.457  13.249  1.00  0.00     0.059 A 
ATOM     95  F   UNL     1      12.694   6.564  11.904  1.00  0.00    -0.206 F 
ATOM     96  C   UNL     1      12.466   9.643  13.768  1.00  0.00     0.060 A 
BRANCH  96  97
ATOM     97  S   UNL     1      13.500  10.707  14.791  1.00  0.00     0.124 S 
ATOM     98  O   UNL     1      13.682  11.864  13.921  1.00  0.00    -0.237 OA
ATOM     99  O   UNL     1      12.657  10.920  15.963  1.00  0.00    -0.237 OA
ATOM    100  O   UNL     1      14.696   9.902  15.022  1.00  0.00    -0.744 OA
ENDBRANCH  96  97
ENDBRANCH  64  89
ENDBRANCH  38  39
ENDBRANCH  31  33
ENDBRANCH  30  31
ENDBRANCH  29  30
ENDBRANCH   1  29
TORSDOF 19
