REMARK SMILES NS(=O)(=O)c1ccc(-n2nc(C(=O)OCCOCCOC(=O)c3ccc(-c4c5nc(c(-c6c(F)cc(S(=O)(=O)[O-])cc6F)c6ccc([nH]6)c(-c6c(F)cc(S(=O)(=O)[O-])cc6F)c6nc(c(-c7c(F)cc(S(=O)(=O)[O-])cc7F)c7ccc4[nH]7)C=C6)C=C5)cc3)cc2-c2ccc(Cl)s2)cc1
REMARK SMILES IDX 17 1 16 2 15 3 14 4 12 5 13 6 11 7 9 8 10 9 90 10 89 11 8 12
REMARK SMILES IDX 5 13 6 14 98 15 7 16 97 17 2 18 3 19 4 20 1 21 91 24 92 25
REMARK SMILES IDX 96 26 93 27 94 28 95 29 18 30 19 31 20 32 21 33 22 34 23 35
REMARK SMILES IDX 24 36 88 37 25 38 87 39 26 40 27 41 28 42 81 43 29 44 86 45
REMARK SMILES IDX 80 46 82 47 30 48 85 49 79 50 78 51 31 53 65 54 44 55 64 56
REMARK SMILES IDX 45 57 48 58 63 59 83 60 46 61 47 62 62 64 84 65 49 66 32 67
REMARK SMILES IDX 33 68 42 69 34 70 35 71 41 72 43 73 36 74 37 75 38 76 39 77
REMARK SMILES IDX 40 78 66 79 67 80 76 81 68 82 69 83 75 84 77 85 70 86 71 87
REMARK SMILES IDX 72 88 73 89 74 90 50 91 51 92 60 93 52 94 53 95 59 96 61 97
REMARK SMILES IDX 54 98 55 99 56 100 57 101 58 102
REMARK H PARENT 1 22 1 23 82 52 48 63
REMARK Flexibility Score: inf
ROOT
ATOM      1  O   UNL     1       2.840  10.566  -3.378  1.00  0.00    -0.374 OA
ENDROOT
BRANCH   1   2
ATOM      2  C   UNL     1       3.205  11.005  -4.685  1.00  0.00     0.202 C 
BRANCH   2   3
ATOM      3  C   UNL     1       4.149  10.116  -5.500  1.00  0.00     0.261 C 
BRANCH   3   4
ATOM      4  O   UNL     1       3.570   8.842  -5.814  1.00  0.00    -0.458 OA
BRANCH   4   5
ATOM      5  C   UNL     1       3.994   7.803  -5.032  1.00  0.00     0.358 C 
ATOM      6  O   UNL     1       4.909   7.870  -4.220  1.00  0.00    -0.244 OA
BRANCH   5   7
ATOM      7  C   UNL     1       3.157   6.611  -5.220  1.00  0.00     0.171 A 
ATOM      8  N   UNL     1       2.143   4.780  -4.763  1.00  0.00    -0.231 N 
ATOM      9  N   UNL     1       2.787   5.824  -4.190  1.00  0.00    -0.160 NA
ATOM     10  C   UNL     1       2.033   4.927  -6.135  1.00  0.00     0.085 A 
ATOM     11  C   UNL     1       2.606   6.144  -6.434  1.00  0.00     0.068 A 
BRANCH   8  12
ATOM     12  C   UNL     1       1.825   3.648  -3.981  1.00  0.00     0.065 A 
ATOM     13  C   UNL     1       1.087   1.388  -2.551  1.00  0.00     0.082 A 
ATOM     14  C   UNL     1       2.013   1.274  -3.593  1.00  0.00     0.024 A 
ATOM     15  C   UNL     1       0.541   2.631  -2.206  1.00  0.00     0.024 A 
ATOM     16  C   UNL     1       2.373   2.406  -4.321  1.00  0.00     0.030 A 
ATOM     17  C   UNL     1       0.936   3.777  -2.905  1.00  0.00     0.030 A 
BRANCH  13  18
ATOM     18  S   UNL     1       0.567  -0.069  -1.694  1.00  0.00     0.238 S 
ATOM     19  O   UNL     1       1.257  -1.221  -2.245  1.00  0.00    -0.207 OA
ATOM     20  O   UNL     1      -0.858  -0.035  -1.514  1.00  0.00    -0.207 OA
BRANCH  18  21
ATOM     21  N   UNL     1       1.242   0.148  -0.171  1.00  0.00    -0.225 NA
ATOM     22  H   UNL     1       1.004  -0.647   0.422  1.00  0.00     0.137 HD
ATOM     23  H   UNL     1       0.875   1.004   0.244  1.00  0.00     0.137 HD
ENDBRANCH  18  21
ENDBRANCH  13  18
ENDBRANCH   8  12
BRANCH  10  24
ATOM     24  C   UNL     1       1.440   3.996  -7.049  1.00  0.00     0.054 A 
ATOM     25  C   UNL     1       2.030   3.522  -8.206  1.00  0.00     0.024 A 
ATOM     26  S   UNL     1      -0.141   3.368  -6.845  1.00  0.00    -0.122 S 
ATOM     27  C   UNL     1       1.186   2.613  -8.909  1.00  0.00     0.033 A 
ATOM     28  C   UNL     1      -0.012   2.454  -8.263  1.00  0.00     0.094 A 
ATOM     29  Cl  UNL     1      -1.313   1.453  -8.761  1.00  0.00    -0.072 Cl
ENDBRANCH  10  24
ENDBRANCH   5   7
ENDBRANCH   4   5
ENDBRANCH   3   4
ENDBRANCH   2   3
ENDBRANCH   1   2
BRANCH   1  30
ATOM     30  C   UNL     1       1.911   9.498  -3.221  1.00  0.00     0.202 C 
BRANCH  30  31
ATOM     31  C   UNL     1       0.456   9.722  -3.602  1.00  0.00     0.261 C 
BRANCH  31  32
ATOM     32  O   UNL     1       0.294  10.103  -4.959  1.00  0.00    -0.460 OA
BRANCH  32  33
ATOM     33  C   UNL     1       0.036  11.423  -5.115  1.00  0.00     0.338 C 
ATOM     34  O   UNL     1       0.321  12.323  -4.343  1.00  0.00    -0.246 OA
BRANCH  33  35
ATOM     35  C   UNL     1      -0.814  11.595  -6.294  1.00  0.00     0.060 A 
ATOM     36  C   UNL     1      -1.228  12.897  -6.580  1.00  0.00     0.016 A 
ATOM     37  C   UNL     1      -1.407  10.475  -6.895  1.00  0.00     0.016 A 
ATOM     38  C   UNL     1      -2.381  13.066  -7.312  1.00  0.00     0.010 A 
ATOM     39  C   UNL     1      -2.566  10.645  -7.611  1.00  0.00     0.010 A 
ATOM     40  C   UNL     1      -3.082  11.931  -7.739  1.00  0.00    -0.014 A 
BRANCH  40  41
ATOM     41  C   UNL     1      -4.290  12.122  -8.512  1.00  0.00     0.031 A 
ATOM     42  C   UNL     1      -3.966  12.637  -9.860  1.00  0.00     0.074 A 
ATOM     43  C   UNL     1      -5.512  11.762  -8.072  1.00  0.00     0.049 A 
ATOM     44  N   UNL     1      -4.120  13.848 -10.280  1.00  0.00    -0.248 NA
ATOM     45  C   UNL     1      -3.130  11.803 -10.744  1.00  0.00     0.031 C 
ATOM     46  C   UNL     1      -5.853  11.046  -6.841  1.00  0.00     0.029 A 
ATOM     47  N   UNL     1      -6.721  11.890  -8.688  1.00  0.00    -0.354 N 
ATOM     48  C   UNL     1      -3.691  13.822 -11.600  1.00  0.00     0.074 A 
ATOM     49  C   UNL     1      -2.853  12.662 -11.727  1.00  0.00     0.031 C 
ATOM     50  C   UNL     1      -7.131  10.607  -6.916  1.00  0.00     0.029 A 
ATOM     51  C   UNL     1      -7.739  11.110  -8.136  1.00  0.00     0.049 A 
ATOM     52  H   UNL     1      -6.865  12.484  -9.460  1.00  0.00     0.167 HD
ATOM     53  C   UNL     1      -4.364  14.534 -12.543  1.00  0.00     0.037 A 
ATOM     54  C   UNL     1      -8.957  10.861  -8.692  1.00  0.00     0.037 A 
ATOM     55  C   UNL     1      -5.166  15.568 -11.928  1.00  0.00     0.049 A 
ATOM     56  C   UNL     1      -9.205  11.945  -9.683  1.00  0.00     0.074 A 
ATOM     57  C   UNL     1      -4.904  16.627 -11.079  1.00  0.00     0.029 A 
ATOM     58  N   UNL     1      -6.517  15.338 -11.839  1.00  0.00    -0.354 N 
ATOM     59  N   UNL     1      -9.385  13.193  -9.349  1.00  0.00    -0.248 NA
ATOM     60  C   UNL     1      -8.750  11.725 -11.047  1.00  0.00     0.031 C 
ATOM     61  C   UNL     1      -6.016  16.674 -10.187  1.00  0.00     0.029 A 
ATOM     62  C   UNL     1      -6.940  15.710 -10.589  1.00  0.00     0.049 A 
ATOM     63  H   UNL     1      -7.086  14.969 -12.552  1.00  0.00     0.167 HD
ATOM     64  C   UNL     1      -8.632  13.913 -10.266  1.00  0.00     0.074 A 
ATOM     65  C   UNL     1      -8.325  12.960 -11.333  1.00  0.00     0.031 C 
ATOM     66  C   UNL     1      -8.079  15.115  -9.925  1.00  0.00     0.037 A 
BRANCH  53  67
ATOM     67  C   UNL     1      -4.653  13.999 -13.928  1.00  0.00     0.058 A 
ATOM     68  C   UNL     1      -5.241  14.857 -14.877  1.00  0.00     0.135 A 
ATOM     69  C   UNL     1      -4.641  12.627 -14.276  1.00  0.00     0.135 A 
ATOM     70  F   UNL     1      -5.329  16.176 -14.642  1.00  0.00    -0.206 F 
ATOM     71  C   UNL     1      -5.825  14.382 -16.051  1.00  0.00     0.059 A 
ATOM     72  C   UNL     1      -5.165  12.140 -15.465  1.00  0.00     0.059 A 
ATOM     73  F   UNL     1      -4.211  11.669 -13.449  1.00  0.00    -0.206 F 
ATOM     74  C   UNL     1      -5.785  13.020 -16.333  1.00  0.00     0.060 A 
BRANCH  74  75
ATOM     75  S   UNL     1      -6.573  12.395 -17.823  1.00  0.00     0.124 S 
ATOM     76  O   UNL     1      -7.982  12.621 -17.524  1.00  0.00    -0.237 OA
ATOM     77  O   UNL     1      -5.988  13.252 -18.849  1.00  0.00    -0.237 OA
ATOM     78  O   UNL     1      -6.149  10.999 -17.866  1.00  0.00    -0.744 OA
ENDBRANCH  74  75
ENDBRANCH  53  67
BRANCH  54  79
ATOM     79  C   UNL     1      -9.711   9.571  -8.734  1.00  0.00     0.058 A 
ATOM     80  C   UNL     1     -11.006   9.499  -9.290  1.00  0.00     0.135 A 
ATOM     81  C   UNL     1      -9.070   8.336  -8.520  1.00  0.00     0.135 A 
ATOM     82  F   UNL     1     -11.697  10.623  -9.540  1.00  0.00    -0.206 F 
ATOM     83  C   UNL     1     -11.593   8.286  -9.678  1.00  0.00     0.059 A 
ATOM     84  C   UNL     1      -9.638   7.116  -8.890  1.00  0.00     0.059 A 
ATOM     85  F   UNL     1      -7.823   8.275  -8.032  1.00  0.00    -0.206 F 
ATOM     86  C   UNL     1     -10.886   7.099  -9.499  1.00  0.00     0.060 A 
BRANCH  86  87
ATOM     87  S   UNL     1     -11.531   5.553 -10.187  1.00  0.00     0.124 S 
ATOM     88  O   UNL     1     -12.655   5.273  -9.301  1.00  0.00    -0.237 OA
ATOM     89  O   UNL     1     -11.874   5.939 -11.551  1.00  0.00    -0.237 OA
ATOM     90  O   UNL     1     -10.400   4.635 -10.070  1.00  0.00    -0.744 OA
ENDBRANCH  86  87
ENDBRANCH  54  79
BRANCH  66  91
ATOM     91  C   UNL     1      -8.581  15.794  -8.673  1.00  0.00     0.058 A 
ATOM     92  C   UNL     1      -8.505  15.265  -7.370  1.00  0.00     0.135 A 
ATOM     93  C   UNL     1      -9.091  17.094  -8.802  1.00  0.00     0.135 A 
ATOM     94  F   UNL     1      -7.923  14.079  -7.138  1.00  0.00    -0.206 F 
ATOM     95  C   UNL     1      -8.986  15.968  -6.262  1.00  0.00     0.059 A 
ATOM     96  C   UNL     1      -9.541  17.826  -7.710  1.00  0.00     0.059 A 
ATOM     97  F   UNL     1      -9.130  17.685 -10.008  1.00  0.00    -0.206 F 
ATOM     98  C   UNL     1      -9.514  17.246  -6.445  1.00  0.00     0.060 A 
BRANCH  98  99
ATOM     99  S   UNL     1     -10.146  18.160  -5.021  1.00  0.00     0.124 S 
ATOM    100  O   UNL     1     -11.343  17.399  -4.676  1.00  0.00    -0.237 OA
ATOM    101  O   UNL     1      -9.042  18.072  -4.071  1.00  0.00    -0.237 OA
ATOM    102  O   UNL     1     -10.392  19.497  -5.556  1.00  0.00    -0.744 OA
ENDBRANCH  98  99
ENDBRANCH  66  91
ENDBRANCH  40  41
ENDBRANCH  33  35
ENDBRANCH  32  33
ENDBRANCH  31  32
ENDBRANCH  30  31
ENDBRANCH   1  30
TORSDOF 21
