REMARK SMILES NS(=O)(=O)c1ccc(-n2nc(C(F)(F)F)cc2-c2ccc(CC(=O)OCCOCCOC(=O)c3ccc(-c4c5nc(c(-c6c(F)cc(S(=O)(=O)[O-])cc6F)c6ccc([nH]6)c(-c6c(F)cc(S(=O)(=O)[O-])cc6F)c6nc(c(-c7c(F)cc(S(=O)(=O)[O-])cc7F)c7ccc4[nH]7)C=C6)C=C5)cc3)cc2)cc1
REMARK SMILES IDX 27 1 26 2 25 3 23 4 24 5 22 6 21 7 18 8 19 9 101 10 20 11
REMARK SMILES IDX 100 12 17 13 9 14 10 15 11 16 16 17 8 18 5 19 6 20 103 21
REMARK SMILES IDX 7 22 102 23 2 24 3 25 4 26 1 27 12 30 13 31 14 32 15 33
REMARK SMILES IDX 28 34 29 35 30 36 31 37 32 38 33 39 34 40 35 41 99 42 36 43
REMARK SMILES IDX 98 44 37 45 38 46 39 47 92 48 40 49 97 50 91 51 93 52 41 53
REMARK SMILES IDX 96 54 90 55 89 56 42 58 76 59 55 60 75 61 56 62 59 63 74 64
REMARK SMILES IDX 94 65 57 66 58 67 73 69 95 70 60 71 43 72 44 73 53 74 45 75
REMARK SMILES IDX 46 76 52 77 54 78 47 79 48 80 49 81 50 82 51 83 77 84 78 85
REMARK SMILES IDX 87 86 79 87 80 88 86 89 88 90 81 91 82 92 83 93 84 94 85 95
REMARK SMILES IDX 61 96 62 97 71 98 63 99 64 100 70 101 72 102 65 103 66 104
REMARK SMILES IDX 67 105 68 106 69 107
REMARK H PARENT 1 28 1 29 93 57 59 68
REMARK Flexibility Score: inf
ROOT
ATOM      1  C   UNL     1      -1.071  -4.060  -7.416  1.00  0.00     0.202 C 
ENDROOT
BRANCH   1   2
ATOM      2  C   UNL     1      -0.165  -3.764  -8.616  1.00  0.00     0.261 C 
BRANCH   2   3
ATOM      3  O   UNL     1      -0.015  -2.373  -8.952  1.00  0.00    -0.463 OA
BRANCH   3   4
ATOM      4  C   UNL     1      -0.700  -1.986 -10.060  1.00  0.00     0.310 C 
ATOM      5  O   UNL     1      -1.381  -2.742 -10.750  1.00  0.00    -0.252 OA
BRANCH   4   6
ATOM      6  C   UNL     1      -0.551  -0.536 -10.443  1.00  0.00     0.158 C 
BRANCH   6   7
ATOM      7  C   UNL     1       0.004   0.475  -9.467  1.00  0.00    -0.037 A 
ATOM      8  C   UNL     1       0.970   2.625  -7.905  1.00  0.00     0.000 A 
ATOM      9  C   UNL     1      -0.378   2.249  -7.851  1.00  0.00     0.010 A 
ATOM     10  C   UNL     1       1.834   1.910  -8.742  1.00  0.00     0.010 A 
ATOM     11  C   UNL     1      -0.853   1.179  -8.612  1.00  0.00     0.005 A 
ATOM     12  C   UNL     1       1.357   0.840  -9.510  1.00  0.00     0.005 A 
BRANCH   8  13
ATOM     13  C   UNL     1       1.452   3.777  -7.138  1.00  0.00     0.075 A 
ATOM     14  N   UNL     1       1.184   4.067  -5.792  1.00  0.00    -0.233 N 
ATOM     15  N   UNL     1       1.548   5.336  -5.483  1.00  0.00    -0.163 NA
ATOM     16  C   UNL     1       2.209   5.801  -6.561  1.00  0.00     0.167 A 
ATOM     17  C   UNL     1       2.129   4.877  -7.626  1.00  0.00     0.064 A 
BRANCH  14  18
ATOM     18  C   UNL     1       0.568   3.221  -4.817  1.00  0.00     0.065 A 
ATOM     19  C   UNL     1      -0.661   1.485  -2.938  1.00  0.00     0.082 A 
ATOM     20  C   UNL     1       0.075   1.000  -4.005  1.00  0.00     0.024 A 
ATOM     21  C   UNL     1      -0.828   2.867  -2.823  1.00  0.00     0.024 A 
ATOM     22  C   UNL     1       0.697   1.842  -4.926  1.00  0.00     0.030 A 
ATOM     23  C   UNL     1      -0.180   3.735  -3.744  1.00  0.00     0.030 A 
BRANCH  19  24
ATOM     24  S   UNL     1      -1.211   0.308  -1.703  1.00  0.00     0.238 S 
ATOM     25  O   UNL     1      -1.129  -1.020  -2.286  1.00  0.00    -0.207 OA
ATOM     26  O   UNL     1      -2.426   0.802  -1.119  1.00  0.00    -0.207 OA
BRANCH  24  27
ATOM     27  N   UNL     1      -0.033   0.338  -0.516  1.00  0.00    -0.225 NA
ATOM     28  H   UNL     1      -0.282  -0.315   0.227  1.00  0.00     0.137 HD
ATOM     29  H   UNL     1       0.039   1.279  -0.131  1.00  0.00     0.137 HD
ENDBRANCH  24  27
ENDBRANCH  19  24
ENDBRANCH  14  18
BRANCH  16  30
ATOM     30  C   UNL     1       2.876   7.156  -6.637  1.00  0.00     0.435 C 
ATOM     31  F   UNL     1       2.164   8.120  -6.009  1.00  0.00    -0.164 F 
ATOM     32  F   UNL     1       4.130   7.124  -6.126  1.00  0.00    -0.164 F 
ATOM     33  F   UNL     1       2.999   7.554  -7.939  1.00  0.00    -0.164 F 
ENDBRANCH  16  30
ENDBRANCH   8  13
ENDBRANCH   6   7
ENDBRANCH   4   6
ENDBRANCH   3   4
ENDBRANCH   2   3
ENDBRANCH   1   2
BRANCH   1  34
ATOM     34  O   UNL     1      -2.300  -3.360  -7.290  1.00  0.00    -0.374 OA
BRANCH  34  35
ATOM     35  C   UNL     1      -2.257  -1.958  -7.062  1.00  0.00     0.202 C 
BRANCH  35  36
ATOM     36  C   UNL     1      -1.492  -1.425  -5.855  1.00  0.00     0.261 C 
BRANCH  36  37
ATOM     37  O   UNL     1      -0.097  -1.768  -5.821  1.00  0.00    -0.460 OA
BRANCH  37  38
ATOM     38  C   UNL     1       0.268  -2.628  -4.822  1.00  0.00     0.338 C 
ATOM     39  O   UNL     1      -0.446  -3.463  -4.293  1.00  0.00    -0.246 OA
BRANCH  38  40
ATOM     40  C   UNL     1       1.584  -2.206  -4.284  1.00  0.00     0.060 A 
ATOM     41  C   UNL     1       1.746  -2.373  -2.905  1.00  0.00     0.016 A 
ATOM     42  C   UNL     1       2.364  -1.281  -4.978  1.00  0.00     0.016 A 
ATOM     43  C   UNL     1       2.427  -1.398  -2.183  1.00  0.00     0.010 A 
ATOM     44  C   UNL     1       3.011  -0.294  -4.242  1.00  0.00     0.010 A 
ATOM     45  C   UNL     1       2.918  -0.264  -2.839  1.00  0.00    -0.014 A 
BRANCH  45  46
ATOM     46  C   UNL     1       3.658   0.775  -2.099  1.00  0.00     0.031 A 
ATOM     47  C   UNL     1       5.032   0.304  -1.948  1.00  0.00     0.074 A 
ATOM     48  C   UNL     1       3.306   1.980  -1.589  1.00  0.00     0.049 A 
ATOM     49  N   UNL     1       5.433  -0.389  -0.934  1.00  0.00    -0.248 NA
ATOM     50  C   UNL     1       5.918   0.266  -3.115  1.00  0.00     0.031 C 
ATOM     51  C   UNL     1       2.005   2.591  -1.544  1.00  0.00     0.029 A 
ATOM     52  N   UNL     1       4.063   2.958  -0.982  1.00  0.00    -0.354 N 
ATOM     53  C   UNL     1       6.755  -0.637  -1.223  1.00  0.00     0.074 A 
ATOM     54  C   UNL     1       6.869  -0.551  -2.656  1.00  0.00     0.031 C 
ATOM     55  C   UNL     1       2.051   3.895  -1.215  1.00  0.00     0.029 A 
ATOM     56  C   UNL     1       3.417   4.206  -0.873  1.00  0.00     0.049 A 
ATOM     57  H   UNL     1       4.977   2.799  -0.652  1.00  0.00     0.167 HD
ATOM     58  C   UNL     1       7.687  -0.413  -0.262  1.00  0.00     0.037 A 
ATOM     59  C   UNL     1       3.787   5.375  -0.278  1.00  0.00     0.037 A 
ATOM     60  C   UNL     1       7.089  -0.371   1.058  1.00  0.00     0.049 A 
ATOM     61  C   UNL     1       4.802   5.016   0.733  1.00  0.00     0.074 A 
ATOM     62  C   UNL     1       6.263  -1.214   1.780  1.00  0.00     0.029 A 
ATOM     63  N   UNL     1       7.007   0.852   1.679  1.00  0.00    -0.354 N 
ATOM     64  N   UNL     1       4.494   4.407   1.845  1.00  0.00    -0.248 NA
ATOM     65  C   UNL     1       6.164   4.828   0.263  1.00  0.00     0.031 C 
ATOM     66  C   UNL     1       5.403  -0.361   2.530  1.00  0.00     0.029 A 
ATOM     67  C   UNL     1       5.790   0.958   2.302  1.00  0.00     0.049 A 
ATOM     68  H   UNL     1       7.710   1.541   1.677  1.00  0.00     0.167 HD
ATOM     69  C   UNL     1       5.430   3.391   1.941  1.00  0.00     0.074 A 
ATOM     70  C   UNL     1       6.474   3.743   0.976  1.00  0.00     0.031 C 
ATOM     71  C   UNL     1       5.126   2.217   2.566  1.00  0.00     0.037 A 
BRANCH  58  72
ATOM     72  C   UNL     1       9.021   0.205  -0.585  1.00  0.00     0.058 A 
ATOM     73  C   UNL     1      10.033   0.166   0.386  1.00  0.00     0.135 A 
ATOM     74  C   UNL     1       9.280   1.034  -1.705  1.00  0.00     0.135 A 
ATOM     75  F   UNL     1       9.870  -0.552   1.508  1.00  0.00    -0.206 F 
ATOM     76  C   UNL     1      11.201   0.916   0.267  1.00  0.00     0.059 A 
ATOM     77  C   UNL     1      10.462   1.730  -1.879  1.00  0.00     0.059 A 
ATOM     78  F   UNL     1       8.373   1.299  -2.650  1.00  0.00    -0.206 F 
ATOM     79  C   UNL     1      11.405   1.692  -0.873  1.00  0.00     0.060 A 
BRANCH  79  80
ATOM     80  S   UNL     1      12.887   2.693  -1.019  1.00  0.00     0.124 S 
ATOM     81  O   UNL     1      12.658   3.697   0.013  1.00  0.00    -0.237 OA
ATOM     82  O   UNL     1      13.933   1.713  -0.747  1.00  0.00    -0.237 OA
ATOM     83  O   UNL     1      12.831   3.175  -2.397  1.00  0.00    -0.744 OA
ENDBRANCH  79  80
ENDBRANCH  58  72
BRANCH  59  84
ATOM     84  C   UNL     1       3.681   6.739  -0.891  1.00  0.00     0.058 A 
ATOM     85  C   UNL     1       4.314   7.856  -0.307  1.00  0.00     0.135 A 
ATOM     86  C   UNL     1       3.175   6.942  -2.186  1.00  0.00     0.135 A 
ATOM     87  F   UNL     1       4.777   7.788   0.951  1.00  0.00    -0.206 F 
ATOM     88  C   UNL     1       4.558   9.042  -1.015  1.00  0.00     0.059 A 
ATOM     89  C   UNL     1       3.401   8.114  -2.907  1.00  0.00     0.059 A 
ATOM     90  F   UNL     1       2.505   5.976  -2.825  1.00  0.00    -0.206 F 
ATOM     91  C   UNL     1       4.139   9.141  -2.338  1.00  0.00     0.060 A 
BRANCH  91  92
ATOM     92  S   UNL     1       4.691  10.528  -3.365  1.00  0.00     0.124 S 
ATOM     93  O   UNL     1       3.858  11.621  -2.876  1.00  0.00    -0.237 OA
ATOM     94  O   UNL     1       6.110  10.613  -3.033  1.00  0.00    -0.237 OA
ATOM     95  O   UNL     1       4.404  10.083  -4.726  1.00  0.00    -0.744 OA
ENDBRANCH  91  92
ENDBRANCH  59  84
BRANCH  71  96
ATOM     96  C   UNL     1       3.926   2.179   3.482  1.00  0.00     0.058 A 
ATOM     97  C   UNL     1       2.584   2.327   3.085  1.00  0.00     0.135 A 
ATOM     98  C   UNL     1       4.160   1.833   4.822  1.00  0.00     0.135 A 
ATOM     99  F   UNL     1       2.263   2.567   1.804  1.00  0.00    -0.206 F 
ATOM    100  C   UNL     1       1.529   2.165   3.992  1.00  0.00     0.059 A 
ATOM    101  C   UNL     1       3.127   1.636   5.732  1.00  0.00     0.059 A 
ATOM    102  F   UNL     1       5.417   1.629   5.251  1.00  0.00    -0.206 F 
ATOM    103  C   UNL     1       1.813   1.815   5.314  1.00  0.00     0.060 A 
BRANCH 103 104
ATOM    104  S   UNL     1       0.453   1.528   6.470  1.00  0.00     0.124 S 
ATOM    105  O   UNL     1      -0.085   2.872   6.649  1.00  0.00    -0.237 OA
ATOM    106  O   UNL     1      -0.393   0.597   5.729  1.00  0.00    -0.237 OA
ATOM    107  O   UNL     1       1.115   0.959   7.641  1.00  0.00    -0.744 OA
ENDBRANCH 103 104
ENDBRANCH  71  96
ENDBRANCH  45  46
ENDBRANCH  38  40
ENDBRANCH  37  38
ENDBRANCH  36  37
ENDBRANCH  35  36
ENDBRANCH  34  35
ENDBRANCH   1  34
TORSDOF 23
