REMARK SMILES Cc1[nH]c2ccccc2c1[C@H]([NH3+])CC(=O)OCCOCCOC(=O)c1ccc(-c2c3nc(c(-c4c(F)cc(S(=O)(=O)[O-])cc4F)c4ccc([nH]4)c(-c4c(F)cc(S(=O)(=O)[O-])cc4F)c4nc(c(-c5c(F)cc(S(=O)(=O)[O-])cc5F)c5ccc2[nH]5)C=C4)C=C3)cc1
REMARK SMILES IDX 20 1 19 2 18 3 17 4 16 5 14 6 15 7 13 8 11 9 10 10 1 11 2 12
REMARK SMILES IDX 3 13 4 14 9 16 5 17 8 18 6 19 7 20 12 21 21 25 22 26 23 27
REMARK SMILES IDX 24 28 25 29 26 30 90 31 27 32 89 33 28 34 29 35 30 36 83 37
REMARK SMILES IDX 31 38 88 39 82 40 84 41 32 42 87 43 81 44 80 45 33 47 67 48
REMARK SMILES IDX 46 49 66 50 47 51 50 52 65 53 85 54 48 55 49 56 64 58 86 59
REMARK SMILES IDX 51 60 34 61 35 62 44 63 36 64 37 65 43 66 45 67 38 68 39 69
REMARK SMILES IDX 40 70 41 71 42 72 68 73 69 74 78 75 70 76 71 77 77 78 79 79
REMARK SMILES IDX 72 80 73 81 74 82 75 83 76 84 52 85 53 86 62 87 54 88 55 89
REMARK SMILES IDX 61 90 63 91 56 92 57 93 58 94 59 95 60 96
REMARK H PARENT 3 15 12 22 12 23 12 24 84 46 50 57
REMARK Flexibility Score: inf
ROOT
ATOM      1  C   UNL     1      -4.096  -2.271   2.725  1.00  0.00     0.202 C 
ENDROOT
BRANCH   1   2
ATOM      2  O   UNL     1      -3.940  -1.802   4.062  1.00  0.00    -0.374 OA
BRANCH   2   3
ATOM      3  C   UNL     1      -2.894  -0.849   4.273  1.00  0.00     0.202 C 
BRANCH   3   4
ATOM      4  C   UNL     1      -1.476  -1.423   4.361  1.00  0.00     0.261 C 
BRANCH   4   5
ATOM      5  O   UNL     1      -0.936  -1.699   3.053  1.00  0.00    -0.463 OA
BRANCH   5   6
ATOM      6  C   UNL     1      -0.724  -2.997   2.719  1.00  0.00     0.312 C 
ATOM      7  O   UNL     1      -0.918  -3.955   3.458  1.00  0.00    -0.252 OA
BRANCH   6   8
ATOM      8  C   UNL     1      -0.204  -3.140   1.308  1.00  0.00     0.192 C 
BRANCH   8   9
ATOM      9  C   UNL     1      -1.223  -2.708   0.244  1.00  0.00     0.225 C 
BRANCH   9  10
ATOM     10  C   UNL     1      -0.951  -3.351  -1.103  1.00  0.00     0.038 A 
ATOM     11  C   UNL     1       0.078  -1.509  -2.722  1.00  0.00     0.065 C 
ATOM     12  C   UNL     1      -0.405  -2.848  -2.285  1.00  0.00     0.022 A 
ATOM     13  N   UNL     1      -0.316  -3.894  -3.176  1.00  0.00    -0.358 N 
ATOM     14  C   UNL     1      -0.828  -5.048  -2.645  1.00  0.00     0.046 A 
ATOM     15  H   UNL     1       0.067  -3.822  -4.080  1.00  0.00     0.166 HD
ATOM     16  C   UNL     1      -1.268  -4.740  -1.363  1.00  0.00     0.009 A 
ATOM     17  C   UNL     1      -0.931  -6.329  -3.200  1.00  0.00     0.027 A 
ATOM     18  C   UNL     1      -1.874  -5.765  -0.603  1.00  0.00     0.011 A 
ATOM     19  C   UNL     1      -1.523  -7.328  -2.422  1.00  0.00     0.002 A 
ATOM     20  C   UNL     1      -1.997  -7.050  -1.143  1.00  0.00     0.001 A 
ENDBRANCH   9  10
BRANCH   9  21
ATOM     21  N   UNL     1      -1.294  -1.256   0.127  1.00  0.00    -0.351 N 
ATOM     22  H   UNL     1      -0.393  -0.897  -0.188  1.00  0.00     0.345 HD
ATOM     23  H   UNL     1      -1.522  -0.853   1.035  1.00  0.00     0.345 HD
ATOM     24  H   UNL     1      -2.015  -1.005  -0.549  1.00  0.00     0.345 HD
ENDBRANCH   9  21
ENDBRANCH   8   9
ENDBRANCH   6   8
ENDBRANCH   5   6
ENDBRANCH   4   5
ENDBRANCH   3   4
ENDBRANCH   2   3
ENDBRANCH   1   2
BRANCH   1  25
ATOM     25  C   UNL     1      -4.942  -1.391   1.796  1.00  0.00     0.261 C 
BRANCH  25  26
ATOM     26  O   UNL     1      -4.341  -0.104   1.569  1.00  0.00    -0.460 OA
BRANCH  26  27
ATOM     27  C   UNL     1      -4.935   0.922   2.217  1.00  0.00     0.338 C 
ATOM     28  O   UNL     1      -5.971   0.879   2.872  1.00  0.00    -0.246 OA
BRANCH  27  29
ATOM     29  C   UNL     1      -4.075   2.120   2.183  1.00  0.00     0.060 A 
ATOM     30  C   UNL     1      -3.828   2.764   3.401  1.00  0.00     0.016 A 
ATOM     31  C   UNL     1      -3.574   2.647   0.990  1.00  0.00     0.016 A 
ATOM     32  C   UNL     1      -3.127   3.968   3.427  1.00  0.00     0.010 A 
ATOM     33  C   UNL     1      -2.875   3.861   1.017  1.00  0.00     0.010 A 
ATOM     34  C   UNL     1      -2.680   4.545   2.231  1.00  0.00    -0.014 A 
BRANCH  34  35
ATOM     35  C   UNL     1      -2.140   5.928   2.250  1.00  0.00     0.031 A 
ATOM     36  C   UNL     1      -3.035   7.068   1.841  1.00  0.00     0.074 A 
ATOM     37  C   UNL     1      -0.887   6.174   2.675  1.00  0.00     0.049 A 
ATOM     38  N   UNL     1      -2.772   8.348   1.779  1.00  0.00    -0.248 NA
ATOM     39  C   UNL     1      -4.410   6.718   1.451  1.00  0.00     0.031 C 
ATOM     40  C   UNL     1       0.061   5.160   3.135  1.00  0.00     0.029 A 
ATOM     41  N   UNL     1      -0.198   7.356   2.788  1.00  0.00    -0.354 N 
ATOM     42  C   UNL     1      -3.943   8.956   1.342  1.00  0.00     0.074 A 
ATOM     43  C   UNL     1      -4.909   7.901   1.123  1.00  0.00     0.031 C 
ATOM     44  C   UNL     1       1.213   5.765   3.476  1.00  0.00     0.029 A 
ATOM     45  C   UNL     1       1.094   7.201   3.232  1.00  0.00     0.049 A 
ATOM     46  H   UNL     1      -0.592   8.232   2.573  1.00  0.00     0.167 HD
ATOM     47  C   UNL     1      -4.195  10.273   1.152  1.00  0.00     0.037 A 
ATOM     48  C   UNL     1       2.073   8.112   3.402  1.00  0.00     0.037 A 
ATOM     49  C   UNL     1      -3.233  11.321   1.375  1.00  0.00     0.049 A 
ATOM     50  C   UNL     1       1.790   9.565   3.119  1.00  0.00     0.074 A 
ATOM     51  C   UNL     1      -3.399  12.687   1.227  1.00  0.00     0.029 A 
ATOM     52  N   UNL     1      -1.924  11.121   1.788  1.00  0.00    -0.354 N 
ATOM     53  N   UNL     1       0.671  10.127   2.726  1.00  0.00    -0.248 NA
ATOM     54  C   UNL     1       2.901  10.509   3.305  1.00  0.00     0.031 C 
ATOM     55  C   UNL     1      -2.177  13.309   1.504  1.00  0.00     0.029 A 
ATOM     56  C   UNL     1      -1.263  12.336   1.874  1.00  0.00     0.049 A 
ATOM     57  H   UNL     1      -1.523  10.245   1.990  1.00  0.00     0.167 HD
ATOM     58  C   UNL     1       0.938  11.490   2.641  1.00  0.00     0.074 A 
ATOM     59  C   UNL     1       2.320  11.670   3.036  1.00  0.00     0.031 C 
ATOM     60  C   UNL     1       0.113  12.501   2.272  1.00  0.00     0.037 A 
BRANCH  47  61
ATOM     61  C   UNL     1      -5.562  10.656   0.656  1.00  0.00     0.058 A 
ATOM     62  C   UNL     1      -6.696  10.580   1.480  1.00  0.00     0.135 A 
ATOM     63  C   UNL     1      -5.735  11.138  -0.652  1.00  0.00     0.135 A 
ATOM     64  F   UNL     1      -6.591  10.110   2.733  1.00  0.00    -0.206 F 
ATOM     65  C   UNL     1      -7.957  10.946   1.018  1.00  0.00     0.059 A 
ATOM     66  C   UNL     1      -6.982  11.534  -1.127  1.00  0.00     0.059 A 
ATOM     67  F   UNL     1      -4.685  11.229  -1.483  1.00  0.00    -0.206 F 
ATOM     68  C   UNL     1      -8.089  11.421  -0.288  1.00  0.00     0.060 A 
BRANCH  68  69
ATOM     69  S   UNL     1      -9.731  11.896  -0.872  1.00  0.00     0.124 S 
ATOM     70  O   UNL     1     -10.369  10.593  -1.036  1.00  0.00    -0.237 OA
ATOM     71  O   UNL     1     -10.231  12.711   0.230  1.00  0.00    -0.237 OA
ATOM     72  O   UNL     1      -9.455  12.620  -2.109  1.00  0.00    -0.744 OA
ENDBRANCH  68  69
ENDBRANCH  47  61
BRANCH  48  73
ATOM     73  C   UNL     1       3.422   7.677   3.852  1.00  0.00     0.058 A 
ATOM     74  C   UNL     1       3.910   8.014   5.123  1.00  0.00     0.135 A 
ATOM     75  C   UNL     1       4.255   6.919   3.013  1.00  0.00     0.135 A 
ATOM     76  F   UNL     1       3.157   8.748   5.957  1.00  0.00    -0.206 F 
ATOM     77  C   UNL     1       5.179   7.628   5.543  1.00  0.00     0.059 A 
ATOM     78  C   UNL     1       5.517   6.500   3.419  1.00  0.00     0.059 A 
ATOM     79  F   UNL     1       3.833   6.563   1.790  1.00  0.00    -0.206 F 
ATOM     80  C   UNL     1       5.975   6.868   4.683  1.00  0.00     0.060 A 
BRANCH  80  81
ATOM     81  S   UNL     1       7.603   6.333   5.253  1.00  0.00     0.124 S 
ATOM     82  O   UNL     1       8.362   7.576   5.186  1.00  0.00    -0.237 OA
ATOM     83  O   UNL     1       7.310   5.834   6.593  1.00  0.00    -0.237 OA
ATOM     84  O   UNL     1       7.978   5.310   4.281  1.00  0.00    -0.744 OA
ENDBRANCH  80  81
ENDBRANCH  48  73
BRANCH  60  85
ATOM     85  C   UNL     1       0.668  13.899   2.303  1.00  0.00     0.058 A 
ATOM     86  C   UNL     1       1.590  14.349   1.345  1.00  0.00     0.135 A 
ATOM     87  C   UNL     1       0.232  14.817   3.273  1.00  0.00     0.135 A 
ATOM     88  F   UNL     1       2.043  13.511   0.399  1.00  0.00    -0.206 F 
ATOM     89  C   UNL     1       2.077  15.652   1.360  1.00  0.00     0.059 A 
ATOM     90  C   UNL     1       0.685  16.133   3.291  1.00  0.00     0.059 A 
ATOM     91  F   UNL     1      -0.657  14.443   4.207  1.00  0.00    -0.206 F 
ATOM     92  C   UNL     1       1.617  16.538   2.337  1.00  0.00     0.060 A 
BRANCH  92  93
ATOM     93  S   UNL     1       2.231  18.236   2.325  1.00  0.00     0.124 S 
ATOM     94  O   UNL     1       3.585  18.062   2.841  1.00  0.00    -0.237 OA
ATOM     95  O   UNL     1       2.132  18.595   0.913  1.00  0.00    -0.237 OA
ATOM     96  O   UNL     1       1.307  18.938   3.210  1.00  0.00    -0.744 OA
ENDBRANCH  92  93
ENDBRANCH  60  85
ENDBRANCH  34  35
ENDBRANCH  27  29
ENDBRANCH  26  27
ENDBRANCH  25  26
ENDBRANCH   1  25
TORSDOF 20
