REMARK SMILES CC[C@@H](C(=O)OCCOCCOC(=O)c1ccc(-c2c3nc(c(-c4c(F)cc(S(=O)(=O)[O-])cc4F)c4ccc([nH]4)c(-c4c(F)cc(S(=O)(=O)[O-])cc4F)c4nc(c(-c5c(F)cc(S(=O)(=O)[O-])cc5F)c5ccc2[nH]5)C=C4)C=C3)cc1)N1C(=O)/C(=C/C(C)=C/c2ccccc2)SC1=S
REMARK SMILES IDX 9 1 8 2 7 3 6 4 4 5 5 6 3 7 2 8 1 9 81 10 82 11 96 12 83 13
REMARK SMILES IDX 84 14 95 15 97 16 85 17 86 18 87 19 88 20 89 21 90 22 94 23
REMARK SMILES IDX 91 24 93 25 92 26 10 27 11 28 12 29 13 30 14 31 15 32 16 33
REMARK SMILES IDX 80 34 17 35 79 36 18 37 19 38 20 39 73 40 21 41 78 42 72 43
REMARK SMILES IDX 74 44 22 45 77 46 71 47 70 48 23 50 57 51 36 52 56 53 37 54
REMARK SMILES IDX 40 55 55 56 75 57 38 58 39 59 54 61 76 62 41 63 24 64 25 65
REMARK SMILES IDX 34 66 26 67 27 68 33 69 35 70 28 71 29 72 30 73 31 74 32 75
REMARK SMILES IDX 58 76 59 77 68 78 60 79 61 80 67 81 69 82 62 83 63 84 64 85
REMARK SMILES IDX 65 86 66 87 42 88 43 89 52 90 44 91 45 92 51 93 53 94 46 95
REMARK SMILES IDX 47 96 48 97 49 98 50 99
REMARK H PARENT 74 49 40 60
REMARK Flexibility Score: inf
ROOT
ATOM      1  O   UNL     1      -1.646   3.888   1.458  1.00  0.00    -0.374 OA
ENDROOT
BRANCH   1   2
ATOM      2  C   UNL     1      -0.713   4.329   0.469  1.00  0.00     0.202 C 
BRANCH   2   3
ATOM      3  C   UNL     1       0.774   4.033   0.715  1.00  0.00     0.261 C 
BRANCH   3   4
ATOM      4  O   UNL     1       0.946   2.641   1.002  1.00  0.00    -0.462 OA
BRANCH   4   5
ATOM      5  C   UNL     1       1.938   2.289   1.860  1.00  0.00     0.329 C 
ATOM      6  O   UNL     1       2.853   3.020   2.213  1.00  0.00    -0.250 OA
BRANCH   5   7
ATOM      7  C   UNL     1       1.661   0.899   2.465  1.00  0.00     0.201 C 
BRANCH   7   8
ATOM      8  C   UNL     1       1.048  -0.100   1.431  1.00  0.00     0.034 C 
ATOM      9  C   UNL     1       1.530   0.006  -0.012  1.00  0.00     0.007 C 
ENDBRANCH   7   8
BRANCH   7  10
ATOM     10  N   UNL     1       0.900   0.854   3.768  1.00  0.00    -0.278 N 
ATOM     11  C   UNL     1       0.787  -0.381   4.404  1.00  0.00     0.266 C 
ATOM     12  C   UNL     1       0.331   1.895   4.479  1.00  0.00     0.149 C 
ATOM     13  O   UNL     1       1.327  -1.425   4.063  1.00  0.00    -0.268 OA
ATOM     14  C   UNL     1      -0.049  -0.283   5.637  1.00  0.00     0.080 C 
ATOM     15  S   UNL     1      -0.796   1.249   5.669  1.00  0.00    -0.054 SA
ATOM     16  S   UNL     1       0.576   3.539   4.442  1.00  0.00    -0.052 S 
ATOM     17  C   UNL     1      -0.074  -1.263   6.554  1.00  0.00     0.024 C 
BRANCH  17  18
ATOM     18  C   UNL     1      -0.716  -1.326   7.872  1.00  0.00    -0.049 C 
ATOM     19  C   UNL     1      -1.027  -2.725   8.349  1.00  0.00     0.044 C 
ATOM     20  C   UNL     1      -0.910  -0.240   8.648  1.00  0.00     0.011 C 
BRANCH  20  21
ATOM     21  C   UNL     1      -1.442  -0.192  10.015  1.00  0.00    -0.025 A 
ATOM     22  C   UNL     1      -2.571   0.593  10.282  1.00  0.00     0.008 A 
ATOM     23  C   UNL     1      -0.767  -0.804  11.076  1.00  0.00     0.008 A 
ATOM     24  C   UNL     1      -3.021   0.758  11.594  1.00  0.00     0.001 A 
ATOM     25  C   UNL     1      -1.219  -0.639  12.387  1.00  0.00     0.001 A 
ATOM     26  C   UNL     1      -2.343   0.144  12.646  1.00  0.00     0.000 A 
ENDBRANCH  20  21
ENDBRANCH  17  18
ENDBRANCH   7  10
ENDBRANCH   5   7
ENDBRANCH   4   5
ENDBRANCH   3   4
ENDBRANCH   2   3
ENDBRANCH   1   2
BRANCH   1  27
ATOM     27  C   UNL     1      -1.871   2.487   1.608  1.00  0.00     0.202 C 
BRANCH  27  28
ATOM     28  C   UNL     1      -2.599   1.738   0.485  1.00  0.00     0.261 C 
BRANCH  28  29
ATOM     29  O   UNL     1      -1.883   1.747  -0.761  1.00  0.00    -0.460 OA
BRANCH  29  30
ATOM     30  C   UNL     1      -2.498   2.438  -1.752  1.00  0.00     0.338 C 
ATOM     31  O   UNL     1      -3.584   3.000  -1.694  1.00  0.00    -0.246 OA
BRANCH  30  32
ATOM     32  C   UNL     1      -1.595   2.599  -2.903  1.00  0.00     0.060 A 
ATOM     33  C   UNL     1      -1.291   3.904  -3.312  1.00  0.00     0.016 A 
ATOM     34  C   UNL     1      -1.140   1.500  -3.634  1.00  0.00     0.016 A 
ATOM     35  C   UNL     1      -0.566   4.118  -4.480  1.00  0.00     0.010 A 
ATOM     36  C   UNL     1      -0.419   1.719  -4.814  1.00  0.00     0.010 A 
ATOM     37  C   UNL     1      -0.159   3.028  -5.260  1.00  0.00    -0.014 A 
BRANCH  37  38
ATOM     38  C   UNL     1       0.412   3.266  -6.609  1.00  0.00     0.031 A 
ATOM     39  C   UNL     1      -0.461   3.066  -7.819  1.00  0.00     0.074 A 
ATOM     40  C   UNL     1       1.683   3.684  -6.752  1.00  0.00     0.049 A 
ATOM     41  N   UNL     1      -0.157   3.167  -9.086  1.00  0.00    -0.248 NA
ATOM     42  C   UNL     1      -1.864   2.700  -7.564  1.00  0.00     0.031 C 
ATOM     43  C   UNL     1       2.610   3.956  -5.654  1.00  0.00     0.029 A 
ATOM     44  N   UNL     1       2.415   3.945  -7.883  1.00  0.00    -0.354 N 
ATOM     45  C   UNL     1      -1.323   2.868  -9.781  1.00  0.00     0.074 A 
ATOM     46  C   UNL     1      -2.333   2.552  -8.794  1.00  0.00     0.031 C 
ATOM     47  C   UNL     1       3.794   4.333  -6.167  1.00  0.00     0.029 A 
ATOM     48  C   UNL     1       3.720   4.293  -7.626  1.00  0.00     0.049 A 
ATOM     49  H   UNL     1       2.042   3.889  -8.792  1.00  0.00     0.167 HD
ATOM     50  C   UNL     1      -1.533   2.864 -11.119  1.00  0.00     0.037 A 
ATOM     51  C   UNL     1       4.744   4.524  -8.472  1.00  0.00     0.037 A 
ATOM     52  C   UNL     1      -0.522   3.185 -12.094  1.00  0.00     0.049 A 
ATOM     53  C   UNL     1       4.505   4.446  -9.958  1.00  0.00     0.074 A 
ATOM     54  C   UNL     1      -0.641   3.231 -13.472  1.00  0.00     0.029 A 
ATOM     55  N   UNL     1       0.794   3.506 -11.796  1.00  0.00    -0.354 N 
ATOM     56  N   UNL     1       3.392   4.182 -10.602  1.00  0.00    -0.248 NA
ATOM     57  C   UNL     1       5.657   4.700 -10.833  1.00  0.00     0.031 C 
ATOM     58  C   UNL     1       0.617   3.521 -14.010  1.00  0.00     0.029 A 
ATOM     59  C   UNL     1       1.506   3.721 -12.965  1.00  0.00     0.049 A 
ATOM     60  H   UNL     1       1.168   3.571 -10.888  1.00  0.00     0.167 HD
ATOM     61  C   UNL     1       3.704   4.269 -11.955  1.00  0.00     0.074 A 
ATOM     62  C   UNL     1       5.107   4.620 -12.037  1.00  0.00     0.031 C 
ATOM     63  C   UNL     1       2.902   4.080 -13.033  1.00  0.00     0.037 A 
BRANCH  50  64
ATOM     64  C   UNL     1      -2.900   2.474 -11.614  1.00  0.00     0.058 A 
ATOM     65  C   UNL     1      -4.018   3.305 -11.443  1.00  0.00     0.135 A 
ATOM     66  C   UNL     1      -3.084   1.266 -12.309  1.00  0.00     0.135 A 
ATOM     67  F   UNL     1      -3.905   4.462 -10.772  1.00  0.00    -0.206 F 
ATOM     68  C   UNL     1      -5.274   2.942 -11.921  1.00  0.00     0.059 A 
ATOM     69  C   UNL     1      -4.324   0.898 -12.821  1.00  0.00     0.059 A 
ATOM     70  F   UNL     1      -2.050   0.432 -12.499  1.00  0.00    -0.206 F 
ATOM     71  C   UNL     1      -5.417   1.737 -12.611  1.00  0.00     0.060 A 
BRANCH  71  72
ATOM     72  S   UNL     1      -7.051   1.287 -13.233  1.00  0.00     0.124 S 
ATOM     73  O   UNL     1      -7.757   0.973 -11.995  1.00  0.00    -0.237 OA
ATOM     74  O   UNL     1      -7.473   2.509 -13.911  1.00  0.00    -0.237 OA
ATOM     75  O   UNL     1      -6.782   0.149 -14.106  1.00  0.00    -0.744 OA
ENDBRANCH  71  72
ENDBRANCH  50  64
BRANCH  51  76
ATOM     76  C   UNL     1       6.097   4.834  -7.934  1.00  0.00     0.058 A 
ATOM     77  C   UNL     1       6.675   6.100  -8.101  1.00  0.00     0.135 A 
ATOM     78  C   UNL     1       6.841   3.864  -7.242  1.00  0.00     0.135 A 
ATOM     79  F   UNL     1       6.010   7.058  -8.766  1.00  0.00    -0.206 F 
ATOM     80  C   UNL     1       7.947   6.392  -7.617  1.00  0.00     0.059 A 
ATOM     81  C   UNL     1       8.101   4.140  -6.723  1.00  0.00     0.059 A 
ATOM     82  F   UNL     1       6.330   2.638  -7.045  1.00  0.00    -0.206 F 
ATOM     83  C   UNL     1       8.651   5.404  -6.925  1.00  0.00     0.060 A 
BRANCH  83  84
ATOM     84  S   UNL     1      10.281   5.808  -6.262  1.00  0.00     0.124 S 
ATOM     85  O   UNL     1      11.084   5.879  -7.477  1.00  0.00    -0.237 OA
ATOM     86  O   UNL     1      10.030   7.077  -5.586  1.00  0.00    -0.237 OA
ATOM     87  O   UNL     1      10.572   4.682  -5.379  1.00  0.00    -0.744 OA
ENDBRANCH  83  84
ENDBRANCH  51  76
BRANCH  63  88
ATOM     88  C   UNL     1       3.503   4.288 -14.398  1.00  0.00     0.058 A 
ATOM     89  C   UNL     1       4.423   3.384 -14.949  1.00  0.00     0.135 A 
ATOM     90  C   UNL     1       3.102   5.378 -15.189  1.00  0.00     0.135 A 
ATOM     91  F   UNL     1       4.845   2.328 -14.235  1.00  0.00    -0.206 F 
ATOM     92  C   UNL     1       4.943   3.564 -16.228  1.00  0.00     0.059 A 
ATOM     93  C   UNL     1       3.584   5.560 -16.482  1.00  0.00     0.059 A 
ATOM     94  F   UNL     1       2.215   6.267 -14.716  1.00  0.00    -0.206 F 
ATOM     95  C   UNL     1       4.513   4.653 -16.988  1.00  0.00     0.060 A 
BRANCH  95  96
ATOM     96  S   UNL     1       5.166   4.853 -18.660  1.00  0.00     0.124 S 
ATOM     97  O   UNL     1       6.537   5.273 -18.393  1.00  0.00    -0.237 OA
ATOM     98  O   UNL     1       5.011   3.512 -19.216  1.00  0.00    -0.237 OA
ATOM     99  O   UNL     1       4.299   5.872 -19.245  1.00  0.00    -0.744 OA
ENDBRANCH  95  96
ENDBRANCH  63  88
ENDBRANCH  37  38
ENDBRANCH  30  32
ENDBRANCH  29  30
ENDBRANCH  28  29
ENDBRANCH  27  28
ENDBRANCH   1  27
TORSDOF 21
