REMARK SMILES C[N@H+]1CCO[C@H](CNc2nnc(SCC(=O)OCCOCCOC(=O)c3ccc(-c4c5nc(c(-c6c(F)cc(S(=O)(=O)[O-])cc6F)c6ccc([nH]6)c(-c6c(F)cc(S(=O)(=O)[O-])cc6F)c6nc(c(-c7c(F)cc(S(=O)(=O)[O-])cc7F)c7ccc4[nH]7)C=C6)C=C5)cc3)s2)C1
REMARK SMILES IDX 19 1 18 2 17 3 15 4 16 5 14 6 13 7 12 8 9 9 10 10 92 11
REMARK SMILES IDX 11 12 8 13 7 15 6 16 1 17 2 18 3 19 93 20 4 22 5 23 20 24
REMARK SMILES IDX 21 25 22 26 23 27 24 28 25 29 26 30 27 31 91 32 28 33 90 34
REMARK SMILES IDX 29 35 30 36 31 37 84 38 32 39 89 40 83 41 85 42 33 43 88 44
REMARK SMILES IDX 82 45 81 46 34 48 68 49 47 50 67 51 48 52 51 53 66 54 86 55
REMARK SMILES IDX 49 56 50 57 65 59 87 60 52 61 35 62 36 63 45 64 37 65 38 66
REMARK SMILES IDX 44 67 46 68 39 69 40 70 41 71 42 72 43 73 69 74 70 75 79 76
REMARK SMILES IDX 71 77 72 78 78 79 80 80 73 81 74 82 75 83 76 84 77 85 53 86
REMARK SMILES IDX 54 87 63 88 55 89 56 90 62 91 64 92 57 93 58 94 59 95 60 96
REMARK SMILES IDX 61 97
REMARK H PARENT 8 14 2 21 85 47 51 58
REMARK Flexibility Score: inf
ROOT
ATOM      1  C   UNL     1       6.094   5.442   4.884  1.00  0.00     0.202 C 
ENDROOT
BRANCH   1   2
ATOM      2  C   UNL     1       6.609   6.887   4.953  1.00  0.00     0.261 C 
BRANCH   2   3
ATOM      3  O   UNL     1       5.796   7.827   4.216  1.00  0.00    -0.463 OA
BRANCH   3   4
ATOM      4  C   UNL     1       6.429   8.538   3.245  1.00  0.00     0.316 C 
ATOM      5  O   UNL     1       7.630   8.446   2.998  1.00  0.00    -0.251 OA
BRANCH   4   6
ATOM      6  C   UNL     1       5.557   9.481   2.440  1.00  0.00     0.200 C 
BRANCH   6   7
ATOM      7  S   UNL     1       3.795   9.478   2.792  1.00  0.00    -0.082 SA
BRANCH   7   8
ATOM      8  C   UNL     1       3.001   8.603   1.496  1.00  0.00     0.176 A 
ATOM      9  C   UNL     1       2.120   6.932   0.028  1.00  0.00     0.206 A 
ATOM     10  N   UNL     1       1.183   7.691   0.555  1.00  0.00    -0.119 NA
ATOM     11  S   UNL     1       3.703   7.594   0.294  1.00  0.00    -0.069 S 
ATOM     12  N   UNL     1       1.687   8.632   1.430  1.00  0.00    -0.130 NA
BRANCH   9  13
ATOM     13  N   UNL     1       1.836   5.766  -0.613  1.00  0.00    -0.357 N 
ATOM     14  H   UNL     1       1.043   5.729  -1.195  1.00  0.00     0.163 HD
BRANCH  13  15
ATOM     15  C   UNL     1       2.661   4.566  -0.475  1.00  0.00     0.153 C 
BRANCH  15  16
ATOM     16  C   UNL     1       1.835   3.324  -0.030  1.00  0.00     0.192 C 
ATOM     17  C   UNL     1       1.298   0.216  -0.297  1.00  0.00     0.332 C 
ATOM     18  N   UNL     1       0.549   1.312  -0.911  1.00  0.00    -0.333 N 
ATOM     19  C   UNL     1      -0.554   1.764  -0.034  1.00  0.00     0.290 C 
ATOM     20  C   UNL     1       1.404   2.472  -1.244  1.00  0.00     0.296 C 
ATOM     21  H   UNL     1       0.169   0.937  -1.780  1.00  0.00     0.348 HD
ATOM     22  C   UNL     1      -0.096   2.625   1.158  1.00  0.00     0.222 C 
ATOM     23  O   UNL     1       0.683   3.750   0.723  1.00  0.00    -0.365 OA
ENDBRANCH  15  16
ENDBRANCH  13  15
ENDBRANCH   9  13
ENDBRANCH   7   8
ENDBRANCH   6   7
ENDBRANCH   4   6
ENDBRANCH   3   4
ENDBRANCH   2   3
ENDBRANCH   1   2
BRANCH   1  24
ATOM     24  O   UNL     1       6.021   4.838   3.591  1.00  0.00    -0.374 OA
BRANCH  24  25
ATOM     25  C   UNL     1       5.071   5.374   2.680  1.00  0.00     0.202 C 
BRANCH  25  26
ATOM     26  C   UNL     1       3.591   5.092   2.952  1.00  0.00     0.261 C 
BRANCH  26  27
ATOM     27  O   UNL     1       3.179   5.397   4.276  1.00  0.00    -0.460 OA
BRANCH  27  28
ATOM     28  C   UNL     1       2.647   4.339   4.921  1.00  0.00     0.338 C 
ATOM     29  O   UNL     1       2.447   3.213   4.484  1.00  0.00    -0.246 OA
BRANCH  28  30
ATOM     30  C   UNL     1       2.480   4.684   6.330  1.00  0.00     0.060 A 
ATOM     31  C   UNL     1       3.137   3.872   7.258  1.00  0.00     0.016 A 
ATOM     32  C   UNL     1       1.631   5.719   6.730  1.00  0.00     0.016 A 
ATOM     33  C   UNL     1       2.881   4.043   8.607  1.00  0.00     0.010 A 
ATOM     34  C   UNL     1       1.376   5.889   8.088  1.00  0.00     0.010 A 
ATOM     35  C   UNL     1       1.963   5.018   9.021  1.00  0.00    -0.014 A 
BRANCH  35  36
ATOM     36  C   UNL     1       1.503   4.991  10.422  1.00  0.00     0.031 A 
ATOM     37  C   UNL     1       0.215   4.286  10.738  1.00  0.00     0.074 A 
ATOM     38  C   UNL     1       2.276   5.516  11.386  1.00  0.00     0.049 A 
ATOM     39  N   UNL     1      -0.350   4.081  11.898  1.00  0.00    -0.248 NA
ATOM     40  C   UNL     1      -0.535   3.731   9.597  1.00  0.00     0.031 C 
ATOM     41  C   UNL     1       3.556   6.191  11.166  1.00  0.00     0.029 A 
ATOM     42  N   UNL     1       2.103   5.554  12.743  1.00  0.00    -0.354 N 
ATOM     43  C   UNL     1      -1.515   3.372  11.628  1.00  0.00     0.074 A 
ATOM     44  C   UNL     1      -1.597   3.212  10.194  1.00  0.00     0.031 C 
ATOM     45  C   UNL     1       4.055   6.575  12.353  1.00  0.00     0.029 A 
ATOM     46  C   UNL     1       3.121   6.191  13.408  1.00  0.00     0.049 A 
ATOM     47  H   UNL     1       1.323   5.161  13.198  1.00  0.00     0.167 HD
ATOM     48  C   UNL     1      -2.424   2.887  12.505  1.00  0.00     0.037 A 
ATOM     49  C   UNL     1       3.270   6.439  14.722  1.00  0.00     0.037 A 
ATOM     50  C   UNL     1      -2.322   3.061  13.930  1.00  0.00     0.049 A 
ATOM     51  C   UNL     1       2.220   5.929  15.673  1.00  0.00     0.074 A 
ATOM     52  C   UNL     1      -3.183   2.618  14.917  1.00  0.00     0.029 A 
ATOM     53  N   UNL     1      -1.291   3.736  14.568  1.00  0.00    -0.354 N 
ATOM     54  N   UNL     1       1.132   5.243  15.408  1.00  0.00    -0.248 NA
ATOM     55  C   UNL     1       2.419   6.216  17.099  1.00  0.00     0.031 C 
ATOM     56  C   UNL     1      -2.689   3.057  16.151  1.00  0.00     0.029 A 
ATOM     57  C   UNL     1      -1.500   3.736  15.935  1.00  0.00     0.049 A 
ATOM     58  H   UNL     1      -0.524   4.154  14.114  1.00  0.00     0.167 HD
ATOM     59  C   UNL     1       0.529   4.997  16.635  1.00  0.00     0.074 A 
ATOM     60  C   UNL     1       1.380   5.598  17.643  1.00  0.00     0.031 C 
ATOM     61  C   UNL     1      -0.624   4.337  16.909  1.00  0.00     0.037 A 
BRANCH  48  62
ATOM     62  C   UNL     1      -3.603   2.142  11.948  1.00  0.00     0.058 A 
ATOM     63  C   UNL     1      -3.473   0.848  11.421  1.00  0.00     0.135 A 
ATOM     64  C   UNL     1      -4.884   2.717  11.964  1.00  0.00     0.135 A 
ATOM     65  F   UNL     1      -2.268   0.261  11.359  1.00  0.00    -0.206 F 
ATOM     66  C   UNL     1      -4.569   0.155  10.914  1.00  0.00     0.059 A 
ATOM     67  C   UNL     1      -5.998   2.034  11.483  1.00  0.00     0.059 A 
ATOM     68  F   UNL     1      -5.062   3.956  12.449  1.00  0.00    -0.206 F 
ATOM     69  C   UNL     1      -5.828   0.756  10.950  1.00  0.00     0.060 A 
BRANCH  69  70
ATOM     70  S   UNL     1      -7.242  -0.161  10.304  1.00  0.00     0.124 S 
ATOM     71  O   UNL     1      -7.009  -0.081   8.865  1.00  0.00    -0.237 OA
ATOM     72  O   UNL     1      -7.060  -1.480  10.902  1.00  0.00    -0.237 OA
ATOM     73  O   UNL     1      -8.391   0.593  10.796  1.00  0.00    -0.744 OA
ENDBRANCH  69  70
ENDBRANCH  48  62
BRANCH  49  74
ATOM     74  C   UNL     1       4.448   7.202  15.208  1.00  0.00     0.058 A 
ATOM     75  C   UNL     1       5.457   6.584  15.960  1.00  0.00     0.135 A 
ATOM     76  C   UNL     1       4.589   8.569  14.922  1.00  0.00     0.135 A 
ATOM     77  F   UNL     1       5.367   5.280  16.260  1.00  0.00    -0.206 F 
ATOM     78  C   UNL     1       6.555   7.298  16.431  1.00  0.00     0.059 A 
ATOM     79  C   UNL     1       5.689   9.299  15.361  1.00  0.00     0.059 A 
ATOM     80  F   UNL     1       3.660   9.203  14.190  1.00  0.00    -0.206 F 
ATOM     81  C   UNL     1       6.661   8.657  16.127  1.00  0.00     0.060 A 
BRANCH  81  82
ATOM     82  S   UNL     1       8.105   9.569  16.712  1.00  0.00     0.124 S 
ATOM     83  O   UNL     1       7.789   9.743  18.125  1.00  0.00    -0.237 OA
ATOM     84  O   UNL     1       9.196   8.648  16.409  1.00  0.00    -0.237 OA
ATOM     85  O   UNL     1       8.081  10.786  15.905  1.00  0.00    -0.744 OA
ENDBRANCH  81  82
ENDBRANCH  49  74
BRANCH  61  86
ATOM     86  C   UNL     1      -1.009   4.206  18.354  1.00  0.00     0.058 A 
ATOM     87  C   UNL     1      -1.529   5.290  19.076  1.00  0.00     0.135 A 
ATOM     88  C   UNL     1      -0.907   2.966  19.005  1.00  0.00     0.135 A 
ATOM     89  F   UNL     1      -1.640   6.497  18.497  1.00  0.00    -0.206 F 
ATOM     90  C   UNL     1      -1.914   5.157  20.405  1.00  0.00     0.059 A 
ATOM     91  C   UNL     1      -1.309   2.804  20.326  1.00  0.00     0.059 A 
ATOM     92  F   UNL     1      -0.426   1.896  18.352  1.00  0.00    -0.206 F 
ATOM     93  C   UNL     1      -1.800   3.908  21.021  1.00  0.00     0.060 A 
BRANCH  93  94
ATOM     94  S   UNL     1      -2.334   3.737  22.736  1.00  0.00     0.124 S 
ATOM     95  O   UNL     1      -1.224   4.359  23.451  1.00  0.00    -0.237 OA
ATOM     96  O   UNL     1      -3.591   4.479  22.750  1.00  0.00    -0.237 OA
ATOM     97  O   UNL     1      -2.463   2.293  22.908  1.00  0.00    -0.744 OA
ENDBRANCH  93  94
ENDBRANCH  61  86
ENDBRANCH  35  36
ENDBRANCH  28  30
ENDBRANCH  27  28
ENDBRANCH  26  27
ENDBRANCH  25  26
ENDBRANCH  24  25
ENDBRANCH   1  24
TORSDOF 22
