REMARK SMILES O=C(Cn1c2ccccc2c(=O)c2ccccc21)N[C@@H](Cc1ccccc1)C(=O)OCCOCCOC(=O)c1ccc(-c2c3nc(c(-c4c(F)cc(S(=O)(=O)[O-])cc4F)c4ccc([nH]4)c(-c4c(F)cc(S(=O)(=O)[O-])cc4F)c4nc(c(-c5c(F)cc(S(=O)(=O)[O-])cc5F)c5ccc2[nH]5)C=C4)C=C3)cc1
REMARK SMILES IDX 33 1 32 2 31 3 30 4 28 5 29 6 20 7 19 8 1 9 2 10 3 12 4 13
REMARK SMILES IDX 5 14 18 15 6 16 10 17 13 18 17 19 7 20 9 21 11 22 14 23
REMARK SMILES IDX 16 24 8 25 12 26 15 27 21 28 22 29 23 30 27 31 24 32 26 33
REMARK SMILES IDX 25 34 34 35 35 36 36 37 37 38 38 39 39 40 40 41 104 42 41 43
REMARK SMILES IDX 103 44 42 45 43 46 44 47 97 48 45 49 102 50 96 51 98 52
REMARK SMILES IDX 46 53 101 54 95 55 94 56 47 58 81 59 60 60 80 61 61 62 64 63
REMARK SMILES IDX 79 64 99 65 62 66 63 67 78 69 100 70 65 71 48 72 49 73 58 74
REMARK SMILES IDX 50 75 51 76 57 77 59 78 52 79 53 80 54 81 55 82 56 83 82 84
REMARK SMILES IDX 83 85 92 86 84 87 85 88 91 89 93 90 86 91 87 92 88 93 89 94
REMARK SMILES IDX 90 95 66 96 67 97 76 98 68 99 69 100 75 101 77 102 70 103
REMARK SMILES IDX 71 104 72 105 73 106 74 107
REMARK H PARENT 19 11 98 57 64 68
REMARK Flexibility Score: inf
ROOT
ATOM      1  O   UNL     1       1.512  -4.951   1.180  1.00  0.00    -0.374 OA
ENDROOT
BRANCH   1   2
ATOM      2  C   UNL     1       2.054  -5.787   0.164  1.00  0.00     0.202 C 
BRANCH   2   3
ATOM      3  C   UNL     1       2.505  -5.306  -1.236  1.00  0.00     0.261 C 
BRANCH   3   4
ATOM      4  O   UNL     1       2.749  -3.907  -1.413  1.00  0.00    -0.462 OA
BRANCH   4   5
ATOM      5  C   UNL     1       1.850  -3.232  -2.180  1.00  0.00     0.329 C 
ATOM      6  O   UNL     1       0.904  -3.760  -2.758  1.00  0.00    -0.250 OA
BRANCH   5   7
ATOM      7  C   UNL     1       2.223  -1.751  -2.393  1.00  0.00     0.196 C 
BRANCH   7   8
ATOM      8  N   UNL     1       3.112  -1.082  -1.428  1.00  0.00    -0.341 N 
ATOM      9  O   UNL     1       1.533  -0.523   0.129  1.00  0.00    -0.273 OA
ATOM     10  C   UNL     1       2.691  -0.452  -0.275  1.00  0.00     0.240 C 
ATOM     11  H   UNL     1       4.077  -1.085  -1.619  1.00  0.00     0.164 HD
BRANCH  10  12
ATOM     12  C   UNL     1       3.780   0.405   0.401  1.00  0.00     0.222 C 
BRANCH  12  13
ATOM     13  N   UNL     1       4.242  -0.034   1.732  1.00  0.00    -0.331 N 
ATOM     14  C   UNL     1       4.717   0.946   2.648  1.00  0.00     0.053 A 
ATOM     15  C   UNL     1       4.217  -1.389   2.089  1.00  0.00     0.053 A 
ATOM     16  C   UNL     1       5.167   2.208   2.198  1.00  0.00     0.027 A 
ATOM     17  C   UNL     1       4.848   0.684   4.040  1.00  0.00     0.046 A 
ATOM     18  C   UNL     1       4.040  -1.704   3.854  1.00  0.00     0.046 A 
ATOM     19  C   UNL     1       4.368  -2.763   0.945  1.00  0.00     0.027 A 
ATOM     20  C   UNL     1       5.777   3.130   3.058  1.00  0.00     0.002 A 
ATOM     21  C   UNL     1       5.498   1.601   4.887  1.00  0.00     0.014 A 
ATOM     22  C   UNL     1       4.299  -0.543   4.694  1.00  0.00     0.197 A 
ATOM     23  C   UNL     1       3.955  -3.390   4.489  1.00  0.00     0.014 A 
ATOM     24  C   UNL     1       4.310  -4.467   1.565  1.00  0.00     0.002 A 
ATOM     25  C   UNL     1       5.973   2.813   4.395  1.00  0.00     0.001 A 
ATOM     26  O   UNL     1       4.091  -0.609   5.900  1.00  0.00    -0.288 OA
ATOM     27  C   UNL     1       4.085  -4.785   3.333  1.00  0.00     0.001 A 
ENDBRANCH  12  13
ENDBRANCH  10  12
ENDBRANCH   7   8
BRANCH   7  28
ATOM     28  C   UNL     1       2.798  -1.619  -3.826  1.00  0.00     0.072 C 
BRANCH  28  29
ATOM     29  C   UNL     1       4.280  -1.940  -3.919  1.00  0.00    -0.045 A 
ATOM     30  C   UNL     1       5.227  -0.902  -3.874  1.00  0.00     0.004 A 
ATOM     31  C   UNL     1       4.733  -3.264  -3.977  1.00  0.00     0.004 A 
ATOM     32  C   UNL     1       6.593  -1.187  -3.854  1.00  0.00     0.000 A 
ATOM     33  C   UNL     1       6.101  -3.545  -3.965  1.00  0.00     0.000 A 
ATOM     34  C   UNL     1       7.030  -2.508  -3.897  1.00  0.00     0.000 A 
ENDBRANCH  28  29
ENDBRANCH   7  28
ENDBRANCH   5   7
ENDBRANCH   4   5
ENDBRANCH   3   4
ENDBRANCH   2   3
ENDBRANCH   1   2
BRANCH   1  35
ATOM     35  C   UNL     1       1.885  -3.584   1.326  1.00  0.00     0.202 C 
BRANCH  35  36
ATOM     36  C   UNL     1       2.816  -3.111   2.589  1.00  0.00     0.261 C 
BRANCH  36  37
ATOM     37  O   UNL     1       4.823  -3.103   2.761  1.00  0.00    -0.460 OA
BRANCH  37  38
ATOM     38  C   UNL     1       6.151  -3.037   3.235  1.00  0.00     0.338 C 
ATOM     39  O   UNL     1       6.537  -2.760   4.363  1.00  0.00    -0.246 OA
BRANCH  38  40
ATOM     40  C   UNL     1       7.153  -3.395   2.217  1.00  0.00     0.060 A 
ATOM     41  C   UNL     1       7.938  -2.380   1.670  1.00  0.00     0.016 A 
ATOM     42  C   UNL     1       7.463  -4.745   2.004  1.00  0.00     0.016 A 
ATOM     43  C   UNL     1       9.074  -2.722   0.939  1.00  0.00     0.010 A 
ATOM     44  C   UNL     1       8.598  -5.086   1.274  1.00  0.00     0.010 A 
ATOM     45  C   UNL     1       9.435  -4.074   0.786  1.00  0.00    -0.014 A 
BRANCH  45  46
ATOM     46  C   UNL     1      10.813  -4.409   0.364  1.00  0.00     0.031 A 
ATOM     47  C   UNL     1      11.124  -4.870  -1.020  1.00  0.00     0.074 A 
ATOM     48  C   UNL     1      11.784  -4.300   1.290  1.00  0.00     0.049 A 
ATOM     49  N   UNL     1      12.293  -5.039  -1.578  1.00  0.00    -0.248 NA
ATOM     50  C   UNL     1       9.983  -5.198  -1.885  1.00  0.00     0.031 C 
ATOM     51  C   UNL     1      11.565  -3.935   2.694  1.00  0.00     0.029 A 
ATOM     52  N   UNL     1      13.140  -4.466   1.198  1.00  0.00    -0.354 N 
ATOM     53  C   UNL     1      12.036  -5.459  -2.874  1.00  0.00     0.074 A 
ATOM     54  C   UNL     1      10.597  -5.579  -2.999  1.00  0.00     0.031 C 
ATOM     55  C   UNL     1      12.749  -3.862   3.319  1.00  0.00     0.029 A 
ATOM     56  C   UNL     1      13.806  -4.175   2.365  1.00  0.00     0.049 A 
ATOM     57  H   UNL     1      13.593  -4.765   0.376  1.00  0.00     0.167 HD
ATOM     58  C   UNL     1      12.926  -5.694  -3.868  1.00  0.00     0.037 A 
ATOM     59  C   UNL     1      15.125  -4.131   2.626  1.00  0.00     0.037 A 
ATOM     60  C   UNL     1      14.355  -5.606  -3.706  1.00  0.00     0.049 A 
ATOM     61  C   UNL     1      16.091  -4.400   1.510  1.00  0.00     0.074 A 
ATOM     62  C   UNL     1      15.346  -5.786  -4.656  1.00  0.00     0.029 A 
ATOM     63  N   UNL     1      15.001  -5.331  -2.506  1.00  0.00    -0.354 N 
ATOM     64  N   UNL     1      15.837  -4.686   0.256  1.00  0.00    -0.248 NA
ATOM     65  C   UNL     1      17.520  -4.329   1.839  1.00  0.00     0.031 C 
ATOM     66  C   UNL     1      16.588  -5.656  -4.023  1.00  0.00     0.029 A 
ATOM     67  C   UNL     1      16.374  -5.358  -2.686  1.00  0.00     0.049 A 
ATOM     68  H   UNL     1      14.547  -5.144  -1.652  1.00  0.00     0.167 HD
ATOM     69  C   UNL     1      17.074  -4.817  -0.361  1.00  0.00     0.074 A 
ATOM     70  C   UNL     1      18.075  -4.565   0.657  1.00  0.00     0.031 C 
ATOM     71  C   UNL     1      17.354  -5.119  -1.653  1.00  0.00     0.037 A 
BRANCH  58  72
ATOM     72  C   UNL     1      12.370  -6.048  -5.218  1.00  0.00     0.058 A 
ATOM     73  C   UNL     1      11.713  -5.087  -6.004  1.00  0.00     0.135 A 
ATOM     74  C   UNL     1      12.508  -7.342  -5.745  1.00  0.00     0.135 A 
ATOM     75  F   UNL     1      11.541  -3.838  -5.541  1.00  0.00    -0.206 F 
ATOM     76  C   UNL     1      11.183  -5.403  -7.249  1.00  0.00     0.059 A 
ATOM     77  C   UNL     1      12.003  -7.676  -7.000  1.00  0.00     0.059 A 
ATOM     78  F   UNL     1      13.127  -8.299  -5.036  1.00  0.00    -0.206 F 
ATOM     79  C   UNL     1      11.328  -6.703  -7.736  1.00  0.00     0.060 A 
BRANCH  79  80
ATOM     80  S   UNL     1      10.606  -7.102  -9.342  1.00  0.00     0.124 S 
ATOM     81  O   UNL     1       9.182  -7.120  -9.021  1.00  0.00    -0.237 OA
ATOM     82  O   UNL     1      11.054  -5.987 -10.171  1.00  0.00    -0.237 OA
ATOM     83  O   UNL     1      11.192  -8.398  -9.667  1.00  0.00    -0.744 OA
ENDBRANCH  79  80
ENDBRANCH  58  72
BRANCH  59  84
ATOM     84  C   UNL     1      15.585  -3.731   3.979  1.00  0.00     0.058 A 
ATOM     85  C   UNL     1      16.101  -2.447   4.205  1.00  0.00     0.135 A 
ATOM     86  C   UNL     1      15.447  -4.588   5.081  1.00  0.00     0.135 A 
ATOM     87  F   UNL     1      16.247  -1.593   3.181  1.00  0.00    -0.206 F 
ATOM     88  C   UNL     1      16.466  -2.025   5.478  1.00  0.00     0.059 A 
ATOM     89  C   UNL     1      15.789  -4.182   6.367  1.00  0.00     0.059 A 
ATOM     90  F   UNL     1      14.938  -5.819   4.915  1.00  0.00    -0.206 F 
ATOM     91  C   UNL     1      16.300  -2.898   6.555  1.00  0.00     0.060 A 
BRANCH  91  92
ATOM     92  S   UNL     1      16.714  -2.310   8.212  1.00  0.00     0.124 S 
ATOM     93  O   UNL     1      18.171  -2.274   8.155  1.00  0.00    -0.237 OA
ATOM     94  O   UNL     1      16.044  -1.014   8.253  1.00  0.00    -0.237 OA
ATOM     95  O   UNL     1      16.142  -3.332   9.084  1.00  0.00    -0.744 OA
ENDBRANCH  91  92
ENDBRANCH  59  84
BRANCH  71  96
ATOM     96  C   UNL     1      18.803  -5.202  -2.036  1.00  0.00     0.058 A 
ATOM     97  C   UNL     1      19.590  -6.306  -1.675  1.00  0.00     0.135 A 
ATOM     98  C   UNL     1      19.394  -4.199  -2.821  1.00  0.00     0.135 A 
ATOM     99  F   UNL     1      19.073  -7.285  -0.916  1.00  0.00    -0.206 F 
ATOM    100  C   UNL     1      20.919  -6.409  -2.071  1.00  0.00     0.059 A 
ATOM    101  C   UNL     1      20.715  -4.292  -3.247  1.00  0.00     0.059 A 
ATOM    102  F   UNL     1      18.681  -3.125  -3.196  1.00  0.00    -0.206 F 
ATOM    103  C   UNL     1      21.471  -5.399  -2.862  1.00  0.00     0.060 A 
BRANCH 103 104
ATOM    104  S   UNL     1      23.181  -5.573  -3.415  1.00  0.00     0.124 S 
ATOM    105  O   UNL     1      23.918  -5.282  -2.189  1.00  0.00    -0.237 OA
ATOM    106  O   UNL     1      23.224  -6.960  -3.866  1.00  0.00    -0.237 OA
ATOM    107  O   UNL     1      23.299  -4.573  -4.472  1.00  0.00    -0.744 OA
ENDBRANCH 103 104
ENDBRANCH  71  96
ENDBRANCH  45  46
ENDBRANCH  38  40
ENDBRANCH  37  38
ENDBRANCH  36  37
ENDBRANCH  35  36
ENDBRANCH   1  35
TORSDOF 22
