REMARK SMILES Nc1nccc(N2CCC[C@@](Cc3ccc(F)cc3F)(C(=O)OCCOCCOC(=O)c3ccc(-c4c5nc(c(-c6c(F)cc(S(=O)(=O)[O-])cc6F)c6ccc([nH]6)c(-c6c(F)cc(S(=O)(=O)[O-])cc6F)c6nc(c(-c7c(F)cc(S(=O)(=O)[O-])cc7F)c7ccc4[nH]7)C=C6)C=C5)cc3)C2)n1
REMARK SMILES IDX 27 1 26 2 25 3 24 4 23 5 21 6 22 7 11 8 7 9 8 10 98 11 9 12
REMARK SMILES IDX 10 13 6 14 2 15 3 16 99 17 4 18 5 19 1 20 12 23 13 24 14 25
REMARK SMILES IDX 19 26 15 27 18 28 20 29 16 30 17 31 28 32 29 33 30 34 31 35
REMARK SMILES IDX 32 36 33 37 97 38 34 39 96 40 35 41 36 42 37 43 90 44 38 45
REMARK SMILES IDX 95 46 89 47 91 48 39 49 94 50 88 51 87 52 40 54 74 55 53 56
REMARK SMILES IDX 73 57 54 58 57 59 72 60 92 61 55 62 56 63 71 65 93 66 58 67
REMARK SMILES IDX 41 68 42 69 51 70 43 71 44 72 50 73 52 74 45 75 46 76 47 77
REMARK SMILES IDX 48 78 49 79 75 80 76 81 85 82 77 83 78 84 84 85 86 86 79 87
REMARK SMILES IDX 80 88 81 89 82 90 83 91 59 92 60 93 69 94 61 95 62 96 68 97
REMARK SMILES IDX 70 98 63 99 64 100 65 101 66 102 67 103
REMARK H PARENT 1 21 1 22 91 53 57 64
REMARK Flexibility Score: inf
ROOT
ATOM      1  C   UNL     1       0.943  -7.034  -2.176  1.00  0.00     0.202 C 
ENDROOT
BRANCH   1   2
ATOM      2  O   UNL     1       0.600  -7.102  -3.559  1.00  0.00    -0.374 OA
BRANCH   2   3
ATOM      3  C   UNL     1       1.659  -7.211  -4.503  1.00  0.00     0.202 C 
BRANCH   3   4
ATOM      4  C   UNL     1       2.555  -5.987  -4.721  1.00  0.00     0.261 C 
BRANCH   4   5
ATOM      5  O   UNL     1       2.981  -5.340  -3.510  1.00  0.00    -0.463 OA
BRANCH   5   6
ATOM      6  C   UNL     1       2.442  -4.108  -3.300  1.00  0.00     0.314 C 
ATOM      7  O   UNL     1       1.645  -3.569  -4.061  1.00  0.00    -0.252 OA
BRANCH   6   8
ATOM      8  C   UNL     1       2.972  -3.413  -2.047  1.00  0.00     0.090 C 
ATOM      9  N   UNL     1       2.084  -2.071  -0.197  1.00  0.00    -0.355 N 
ATOM     10  C   UNL     1       2.575  -2.913   0.883  1.00  0.00     0.118 C 
ATOM     11  C   UNL     1       1.713  -2.756  -1.432  1.00  0.00     0.137 C 
ATOM     12  C   UNL     1       3.808  -3.670   0.385  1.00  0.00     0.023 C 
ATOM     13  C   UNL     1       3.577  -4.357  -0.973  1.00  0.00     0.023 C 
BRANCH   9  14
ATOM     14  C   UNL     1       1.271  -0.996   0.135  1.00  0.00     0.134 A 
ATOM     15  C   UNL     1      -0.795  -0.018   0.242  1.00  0.00     0.221 A 
ATOM     16  N   UNL     1      -0.300   1.202   0.469  1.00  0.00    -0.222 NA
ATOM     17  N   UNL     1      -0.065  -1.122   0.062  1.00  0.00    -0.196 NA
ATOM     18  C   UNL     1       1.038   1.293   0.537  1.00  0.00     0.119 A 
ATOM     19  C   UNL     1       1.875   0.216   0.394  1.00  0.00     0.067 A 
BRANCH  15  20
ATOM     20  N   UNL     1      -2.153  -0.136   0.146  1.00  0.00    -0.368 N 
ATOM     21  H   UNL     1      -2.725   0.655   0.272  1.00  0.00     0.159 HD
ATOM     22  H   UNL     1      -2.558  -1.011  -0.050  1.00  0.00     0.159 HD
ENDBRANCH  15  20
ENDBRANCH   9  14
BRANCH   8  23
ATOM     23  C   UNL     1       3.959  -2.301  -2.514  1.00  0.00     0.059 C 
BRANCH  23  24
ATOM     24  C   UNL     1       5.277  -2.794  -3.068  1.00  0.00    -0.011 A 
ATOM     25  C   UNL     1       5.364  -3.321  -4.365  1.00  0.00     0.010 A 
ATOM     26  C   UNL     1       6.441  -2.752  -2.287  1.00  0.00     0.129 A 
ATOM     27  C   UNL     1       6.569  -3.845  -4.833  1.00  0.00     0.040 A 
ATOM     28  C   UNL     1       7.646  -3.263  -2.748  1.00  0.00     0.078 A 
ATOM     29  F   UNL     1       6.404  -2.215  -1.059  1.00  0.00    -0.207 F 
ATOM     30  C   UNL     1       7.695  -3.819  -4.017  1.00  0.00     0.126 A 
ATOM     31  F   UNL     1       8.844  -4.337  -4.464  1.00  0.00    -0.207 F 
ENDBRANCH  23  24
ENDBRANCH   8  23
ENDBRANCH   6   8
ENDBRANCH   5   6
ENDBRANCH   4   5
ENDBRANCH   3   4
ENDBRANCH   2   3
ENDBRANCH   1   2
BRANCH   1  32
ATOM     32  C   UNL     1       1.748  -8.193  -1.572  1.00  0.00     0.261 C 
BRANCH  32  33
ATOM     33  O   UNL     1       3.085  -8.297  -2.103  1.00  0.00    -0.460 OA
BRANCH  33  34
ATOM     34  C   UNL     1       3.399  -9.521  -2.595  1.00  0.00     0.338 C 
ATOM     35  O   UNL     1       2.688 -10.519  -2.592  1.00  0.00    -0.246 OA
BRANCH  34  36
ATOM     36  C   UNL     1       4.686  -9.495  -3.308  1.00  0.00     0.060 A 
ATOM     37  C   UNL     1       4.681  -9.786  -4.679  1.00  0.00     0.016 A 
ATOM     38  C   UNL     1       5.891  -9.355  -2.618  1.00  0.00     0.016 A 
ATOM     39  C   UNL     1       5.884  -9.986  -5.354  1.00  0.00     0.010 A 
ATOM     40  C   UNL     1       7.098  -9.564  -3.297  1.00  0.00     0.010 A 
ATOM     41  C   UNL     1       7.098  -9.918  -4.659  1.00  0.00    -0.014 A 
BRANCH  41  42
ATOM     42  C   UNL     1       8.351 -10.347  -5.330  1.00  0.00     0.031 A 
ATOM     43  C   UNL     1       8.871 -11.741  -5.104  1.00  0.00     0.074 A 
ATOM     44  C   UNL     1       8.999  -9.513  -6.162  1.00  0.00     0.049 A 
ATOM     45  N   UNL     1       9.946 -12.312  -5.584  1.00  0.00    -0.248 NA
ATOM     46  C   UNL     1       8.073 -12.606  -4.221  1.00  0.00     0.031 C 
ATOM     47  C   UNL     1       8.577  -8.152  -6.487  1.00  0.00     0.029 A 
ATOM     48  N   UNL     1      10.154  -9.691  -6.882  1.00  0.00    -0.354 N 
ATOM     49  C   UNL     1       9.958 -13.599  -5.060  1.00  0.00     0.074 A 
ATOM     50  C   UNL     1       8.795 -13.717  -4.206  1.00  0.00     0.031 C 
ATOM     51  C   UNL     1       9.466  -7.614  -7.340  1.00  0.00     0.029 A 
ATOM     52  C   UNL     1      10.532  -8.582  -7.598  1.00  0.00     0.049 A 
ATOM     53  H   UNL     1      10.663 -10.534  -6.884  1.00  0.00     0.167 HD
ATOM     54  C   UNL     1      10.853 -14.594  -5.276  1.00  0.00     0.037 A 
ATOM     55  C   UNL     1      11.622  -8.364  -8.361  1.00  0.00     0.037 A 
ATOM     56  C   UNL     1      12.010 -14.473  -6.124  1.00  0.00     0.049 A 
ATOM     57  C   UNL     1      12.636  -9.460  -8.539  1.00  0.00     0.074 A 
ATOM     58  C   UNL     1      12.961 -15.433  -6.425  1.00  0.00     0.029 A 
ATOM     59  N   UNL     1      12.380 -13.319  -6.799  1.00  0.00    -0.354 N 
ATOM     60  N   UNL     1      12.625 -10.678  -8.053  1.00  0.00    -0.248 NA
ATOM     61  C   UNL     1      13.812  -9.153  -9.366  1.00  0.00     0.031 C 
ATOM     62  C   UNL     1      13.930 -14.846  -7.247  1.00  0.00     0.029 A 
ATOM     63  C   UNL     1      13.560 -13.533  -7.493  1.00  0.00     0.049 A 
ATOM     64  H   UNL     1      11.878 -12.473  -6.787  1.00  0.00     0.167 HD
ATOM     65  C   UNL     1      13.784 -11.287  -8.522  1.00  0.00     0.074 A 
ATOM     66  C   UNL     1      14.469 -10.306  -9.341  1.00  0.00     0.031 C 
ATOM     67  C   UNL     1      14.238 -12.545  -8.296  1.00  0.00     0.037 A 
BRANCH  54  68
ATOM     68  C   UNL     1      10.626 -15.894  -4.557  1.00  0.00     0.058 A 
ATOM     69  C   UNL     1      11.450 -16.265  -3.482  1.00  0.00     0.135 A 
ATOM     70  C   UNL     1       9.606 -16.780  -4.938  1.00  0.00     0.135 A 
ATOM     71  F   UNL     1      12.439 -15.454  -3.077  1.00  0.00    -0.206 F 
ATOM     72  C   UNL     1      11.265 -17.465  -2.801  1.00  0.00     0.059 A 
ATOM     73  C   UNL     1       9.390 -17.974  -4.258  1.00  0.00     0.059 A 
ATOM     74  F   UNL     1       8.782 -16.466  -5.950  1.00  0.00    -0.206 F 
ATOM     75  C   UNL     1      10.222 -18.306  -3.186  1.00  0.00     0.060 A 
BRANCH  75  76
ATOM     76  S   UNL     1       9.914 -19.848  -2.299  1.00  0.00     0.124 S 
ATOM     77  O   UNL     1       8.696 -19.521  -1.563  1.00  0.00    -0.237 OA
ATOM     78  O   UNL     1       9.758 -20.808  -3.386  1.00  0.00    -0.237 OA
ATOM     79  O   UNL     1      11.113 -20.017  -1.484  1.00  0.00    -0.744 OA
ENDBRANCH  75  76
ENDBRANCH  54  68
BRANCH  55  80
ATOM     80  C   UNL     1      11.801  -7.038  -9.006  1.00  0.00     0.058 A 
ATOM     81  C   UNL     1      12.119  -5.902  -8.246  1.00  0.00     0.135 A 
ATOM     82  C   UNL     1      11.597  -6.871 -10.383  1.00  0.00     0.135 A 
ATOM     83  F   UNL     1      12.319  -6.013  -6.924  1.00  0.00    -0.206 F 
ATOM     84  C   UNL     1      12.195  -4.637  -8.820  1.00  0.00     0.059 A 
ATOM     85  C   UNL     1      11.687  -5.620 -10.983  1.00  0.00     0.059 A 
ATOM     86  F   UNL     1      11.305  -7.931 -11.151  1.00  0.00    -0.206 F 
ATOM     87  C   UNL     1      11.973  -4.506 -10.190  1.00  0.00     0.060 A 
BRANCH  87  88
ATOM     88  S   UNL     1      11.985  -2.875 -10.966  1.00  0.00     0.124 S 
ATOM     89  O   UNL     1      13.205  -2.934 -11.761  1.00  0.00    -0.237 OA
ATOM     90  O   UNL     1      10.732  -2.886 -11.715  1.00  0.00    -0.237 OA
ATOM     91  O   UNL     1      12.016  -1.961  -9.827  1.00  0.00    -0.744 OA
ENDBRANCH  87  88
ENDBRANCH  55  80
BRANCH  67  92
ATOM     92  C   UNL     1      15.536 -12.945  -8.941  1.00  0.00     0.058 A 
ATOM     93  C   UNL     1      15.549 -13.839 -10.024  1.00  0.00     0.135 A 
ATOM     94  C   UNL     1      16.769 -12.501  -8.441  1.00  0.00     0.135 A 
ATOM     95  F   UNL     1      14.396 -14.301 -10.534  1.00  0.00    -0.206 F 
ATOM     96  C   UNL     1      16.741 -14.292 -10.582  1.00  0.00     0.059 A 
ATOM     97  C   UNL     1      17.972 -12.924  -8.997  1.00  0.00     0.059 A 
ATOM     98  F   UNL     1      16.810 -11.639  -7.412  1.00  0.00    -0.206 F 
ATOM     99  C   UNL     1      17.948 -13.823 -10.065  1.00  0.00     0.060 A 
BRANCH  99 100
ATOM    100  S   UNL     1      19.519 -14.399 -10.746  1.00  0.00     0.124 S 
ATOM    101  O   UNL     1      19.984 -13.214 -11.458  1.00  0.00    -0.237 OA
ATOM    102  O   UNL     1      20.269 -14.752  -9.544  1.00  0.00    -0.237 OA
ATOM    103  O   UNL     1      19.131 -15.527 -11.589  1.00  0.00    -0.744 OA
ENDBRANCH  99 100
ENDBRANCH  67  92
ENDBRANCH  41  42
ENDBRANCH  34  36
ENDBRANCH  33  34
ENDBRANCH  32  33
ENDBRANCH   1  32
TORSDOF 21
