REMARK SMILES COCCCN1C(=O)CC[C@@H](C(=O)OCCOCCOC(=O)c2ccc(-c3c4nc(c(-c5c(F)cc(S(=O)(=O)[O-])cc5F)c5ccc([nH]5)c(-c5c(F)cc(S(=O)(=O)[O-])cc5F)c5nc(c(-c6c(F)cc(S(=O)(=O)[O-])cc6F)c6ccc3[nH]6)C=C5)C=C4)cc2)[C@@H]1c1ccc(F)cc1
REMARK SMILES IDX 16 1 15 2 14 3 12 4 13 5 11 6 6 7 7 8 89 9 8 10 9 11 10 12
REMARK SMILES IDX 5 13 4 14 3 15 2 16 1 17 90 18 91 19 96 20 92 21 95 22 93 23
REMARK SMILES IDX 94 24 17 25 18 26 19 27 20 28 21 29 22 30 23 31 24 32 88 33
REMARK SMILES IDX 25 34 87 35 26 36 27 37 28 38 81 39 29 40 86 41 80 42 82 43
REMARK SMILES IDX 30 44 85 45 79 46 78 47 31 49 65 50 44 51 64 52 45 53 48 54
REMARK SMILES IDX 63 55 83 56 46 57 47 58 62 60 84 61 49 62 32 63 33 64 42 65
REMARK SMILES IDX 34 66 35 67 41 68 43 69 36 70 37 71 38 72 39 73 40 74 66 75
REMARK SMILES IDX 67 76 76 77 68 78 69 79 75 80 77 81 70 82 71 83 72 84 73 85
REMARK SMILES IDX 74 86 50 87 51 88 60 89 52 90 53 91 59 92 61 93 54 94 55 95
REMARK SMILES IDX 56 96 57 97 58 98
REMARK H PARENT 82 48 48 59
REMARK Flexibility Score: inf
ROOT
ATOM      1  C   UNL     1       5.255   3.292  -5.733  1.00  0.00     0.202 C 
ENDROOT
BRANCH   1   2
ATOM      2  C   UNL     1       3.974   3.658  -4.970  1.00  0.00     0.261 C 
BRANCH   2   3
ATOM      3  O   UNL     1       4.184   4.091  -3.615  1.00  0.00    -0.463 OA
BRANCH   3   4
ATOM      4  C   UNL     1       3.924   3.129  -2.688  1.00  0.00     0.311 C 
ATOM      5  O   UNL     1       3.587   1.985  -2.970  1.00  0.00    -0.252 OA
BRANCH   4   6
ATOM      6  C   UNL     1       4.178   3.620  -1.267  1.00  0.00     0.127 C 
ATOM      7  N   UNL     1       2.340   2.215  -0.438  1.00  0.00    -0.335 N 
ATOM      8  C   UNL     1       3.172   1.145  -0.133  1.00  0.00     0.223 C 
ATOM      9  C   UNL     1       2.853   3.592  -0.495  1.00  0.00     0.129 C 
ATOM     10  O   UNL     1       2.738   0.055   0.241  1.00  0.00    -0.275 OA
ATOM     11  C   UNL     1       4.674   1.317  -0.335  1.00  0.00     0.101 C 
ATOM     12  C   UNL     1       5.187   2.735  -0.535  1.00  0.00     0.028 C 
BRANCH   7  13
ATOM     13  C   UNL     1       0.887   2.035  -0.505  1.00  0.00     0.122 C 
BRANCH  13  14
ATOM     14  C   UNL     1       0.375   1.566  -1.871  1.00  0.00     0.050 C 
BRANCH  14  15
ATOM     15  C   UNL     1       0.498   0.068  -2.150  1.00  0.00     0.161 C 
BRANCH  15  16
ATOM     16  O   UNL     1      -0.563  -0.705  -1.580  1.00  0.00    -0.385 OA
ATOM     17  C   UNL     1      -0.426  -0.964  -0.192  1.00  0.00     0.194 C 
ENDBRANCH  15  16
ENDBRANCH  14  15
ENDBRANCH  13  14
ENDBRANCH   7  13
BRANCH   9  18
ATOM     18  C   UNL     1       2.938   4.202   0.922  1.00  0.00    -0.024 A 
ATOM     19  C   UNL     1       2.477   3.501   2.060  1.00  0.00     0.009 A 
ATOM     20  C   UNL     1       3.460   5.492   1.123  1.00  0.00     0.009 A 
ATOM     21  C   UNL     1       2.545   4.053   3.340  1.00  0.00     0.039 A 
ATOM     22  C   UNL     1       3.537   6.041   2.409  1.00  0.00     0.039 A 
ATOM     23  C   UNL     1       3.079   5.319   3.503  1.00  0.00     0.123 A 
ATOM     24  F   UNL     1       3.148   5.850   4.730  1.00  0.00    -0.207 F 
ENDBRANCH   9  18
ENDBRANCH   4   6
ENDBRANCH   3   4
ENDBRANCH   2   3
ENDBRANCH   1   2
BRANCH   1  25
ATOM     25  O   UNL     1       6.168   2.351  -5.182  1.00  0.00    -0.374 OA
BRANCH  25  26
ATOM     26  C   UNL     1       6.877   2.684  -3.995  1.00  0.00     0.202 C 
BRANCH  26  27
ATOM     27  C   UNL     1       7.854   3.867  -3.985  1.00  0.00     0.261 C 
BRANCH  27  28
ATOM     28  O   UNL     1       7.262   5.112  -4.383  1.00  0.00    -0.460 OA
BRANCH  28  29
ATOM     29  C   UNL     1       7.724   5.590  -5.564  1.00  0.00     0.338 C 
ATOM     30  O   UNL     1       8.595   5.098  -6.270  1.00  0.00    -0.246 OA
BRANCH  29  31
ATOM     31  C   UNL     1       6.892   6.715  -6.016  1.00  0.00     0.060 A 
ATOM     32  C   UNL     1       6.225   6.578  -7.240  1.00  0.00     0.016 A 
ATOM     33  C   UNL     1       6.847   7.916  -5.306  1.00  0.00     0.016 A 
ATOM     34  C   UNL     1       5.539   7.658  -7.783  1.00  0.00     0.010 A 
ATOM     35  C   UNL     1       6.174   9.007  -5.863  1.00  0.00     0.010 A 
ATOM     36  C   UNL     1       5.550   8.890  -7.119  1.00  0.00    -0.014 A 
BRANCH  36  37
ATOM     37  C   UNL     1       5.057  10.092  -7.828  1.00  0.00     0.031 A 
ATOM     38  C   UNL     1       6.053  10.981  -8.518  1.00  0.00     0.074 A 
ATOM     39  C   UNL     1       3.741  10.357  -7.890  1.00  0.00     0.049 A 
ATOM     40  N   UNL     1       5.855  12.093  -9.175  1.00  0.00    -0.248 NA
ATOM     41  C   UNL     1       7.463  10.559  -8.460  1.00  0.00     0.031 C 
ATOM     42  C   UNL     1       2.685   9.536  -7.298  1.00  0.00     0.029 A 
ATOM     43  N   UNL     1       3.069  11.397  -8.479  1.00  0.00    -0.354 N 
ATOM     44  C   UNL     1       7.111  12.508  -9.603  1.00  0.00     0.074 A 
ATOM     45  C   UNL     1       8.068  11.543  -9.108  1.00  0.00     0.031 C 
ATOM     46  C   UNL     1       1.496  10.114  -7.542  1.00  0.00     0.029 A 
ATOM     47  C   UNL     1       1.710  11.356  -8.281  1.00  0.00     0.049 A 
ATOM     48  H   UNL     1       3.518  12.105  -8.995  1.00  0.00     0.167 HD
ATOM     49  C   UNL     1       7.433  13.592 -10.348  1.00  0.00     0.037 A 
ATOM     50  C   UNL     1       0.754  12.236  -8.638  1.00  0.00     0.037 A 
ATOM     51  C   UNL     1       6.471  14.544 -10.835  1.00  0.00     0.049 A 
ATOM     52  C   UNL     1       1.144  13.469  -9.411  1.00  0.00     0.074 A 
ATOM     53  C   UNL     1       6.690  15.670 -11.610  1.00  0.00     0.029 A 
ATOM     54  N   UNL     1       5.106  14.486 -10.591  1.00  0.00    -0.354 N 
ATOM     55  N   UNL     1       2.333  13.842  -9.823  1.00  0.00    -0.248 NA
ATOM     56  C   UNL     1       0.064  14.397  -9.772  1.00  0.00     0.031 C 
ATOM     57  C   UNL     1       5.463  16.318 -11.793  1.00  0.00     0.029 A 
ATOM     58  C   UNL     1       4.473  15.569 -11.177  1.00  0.00     0.049 A 
ATOM     59  H   UNL     1       4.654  13.779 -10.075  1.00  0.00     0.167 HD
ATOM     60  C   UNL     1       2.141  15.035 -10.513  1.00  0.00     0.074 A 
ATOM     61  C   UNL     1       0.720  15.314 -10.471  1.00  0.00     0.031 C 
ATOM     62  C   UNL     1       3.055  15.826 -11.127  1.00  0.00     0.037 A 
BRANCH  49  63
ATOM     63  C   UNL     1       8.887  13.818 -10.653  1.00  0.00     0.058 A 
ATOM     64  C   UNL     1       9.587  13.009 -11.562  1.00  0.00     0.135 A 
ATOM     65  C   UNL     1       9.584  14.875 -10.046  1.00  0.00     0.135 A 
ATOM     66  F   UNL     1       8.975  11.972 -12.155  1.00  0.00    -0.206 F 
ATOM     67  C   UNL     1      10.933  13.226 -11.840  1.00  0.00     0.059 A 
ATOM     68  C   UNL     1      10.923  15.126 -10.328  1.00  0.00     0.059 A 
ATOM     69  F   UNL     1       8.963  15.676  -9.165  1.00  0.00    -0.206 F 
ATOM     70  C   UNL     1      11.593  14.287 -11.217  1.00  0.00     0.060 A 
BRANCH  70  71
ATOM     71  S   UNL     1      13.339  14.557 -11.589  1.00  0.00     0.124 S 
ATOM     72  O   UNL     1      13.963  13.451 -10.870  1.00  0.00    -0.237 OA
ATOM     73  O   UNL     1      13.366  14.462 -13.045  1.00  0.00    -0.237 OA
ATOM     74  O   UNL     1      13.601  15.886 -11.045  1.00  0.00    -0.744 OA
ENDBRANCH  70  71
ENDBRANCH  49  63
BRANCH  50  75
ATOM     75  C   UNL     1      -0.660  11.989  -8.254  1.00  0.00     0.058 A 
ATOM     76  C   UNL     1      -1.629  11.666  -9.215  1.00  0.00     0.135 A 
ATOM     77  C   UNL     1      -1.069  12.064  -6.913  1.00  0.00     0.135 A 
ATOM     78  F   UNL     1      -1.289  11.592 -10.511  1.00  0.00    -0.206 F 
ATOM     79  C   UNL     1      -2.955  11.437  -8.864  1.00  0.00     0.059 A 
ATOM     80  C   UNL     1      -2.384  11.815  -6.534  1.00  0.00     0.059 A 
ATOM     81  F   UNL     1      -0.178  12.357  -5.953  1.00  0.00    -0.206 F 
ATOM     82  C   UNL     1      -3.322  11.511  -7.519  1.00  0.00     0.060 A 
BRANCH  82  83
ATOM     83  S   UNL     1      -5.034  11.159  -7.065  1.00  0.00     0.124 S 
ATOM     84  O   UNL     1      -5.713  12.364  -7.524  1.00  0.00    -0.237 OA
ATOM     85  O   UNL     1      -5.307   9.942  -7.823  1.00  0.00    -0.237 OA
ATOM     86  O   UNL     1      -4.966  10.983  -5.617  1.00  0.00    -0.744 OA
ENDBRANCH  82  83
ENDBRANCH  50  75
BRANCH  62  87
ATOM     87  C   UNL     1       2.546  17.053 -11.833  1.00  0.00     0.058 A 
ATOM     88  C   UNL     1       2.105  18.181 -11.125  1.00  0.00     0.135 A 
ATOM     89  C   UNL     1       2.553  17.118 -13.236  1.00  0.00     0.135 A 
ATOM     90  F   UNL     1       2.074  18.168  -9.783  1.00  0.00    -0.206 F 
ATOM     91  C   UNL     1       1.667  19.325 -11.785  1.00  0.00     0.059 A 
ATOM     92  C   UNL     1       2.145  18.261 -13.915  1.00  0.00     0.059 A 
ATOM     93  F   UNL     1       2.976  16.070 -13.960  1.00  0.00    -0.206 F 
ATOM     94  C   UNL     1       1.692  19.356 -13.181  1.00  0.00     0.060 A 
BRANCH  94  95
ATOM     95  S   UNL     1       1.152  20.858 -14.024  1.00  0.00     0.124 S 
ATOM     96  O   UNL     1      -0.296  20.781 -13.862  1.00  0.00    -0.237 OA
ATOM     97  O   UNL     1       1.821  21.905 -13.257  1.00  0.00    -0.237 OA
ATOM     98  O   UNL     1       1.643  20.678 -15.386  1.00  0.00    -0.744 OA
ENDBRANCH  94  95
ENDBRANCH  62  87
ENDBRANCH  36  37
ENDBRANCH  29  31
ENDBRANCH  28  29
ENDBRANCH  27  28
ENDBRANCH  26  27
ENDBRANCH  25  26
ENDBRANCH   1  25
TORSDOF 22
