REMARK SMILES CC1(C)Oc2ccc(NC(=O)[C@H]3CC=CC[C@@H]3C(=O)OCCOCCOC(=O)c3ccc(-c4c5nc(c(-c6c(F)cc(S(=O)(=O)[O-])cc6F)c6ccc([nH]6)c(-c6c(F)cc(S(=O)(=O)[O-])cc6F)c6nc(c(-c7c(F)cc(S(=O)(=O)[O-])cc7F)c7ccc4[nH]7)C=C6)C=C5)cc3)cc2NC1=O
REMARK SMILES IDX 24 1 23 2 22 3 21 4 20 5 18 6 19 7 17 8 12 9 13 10 14 11
REMARK SMILES IDX 16 12 15 13 10 14 9 15 11 17 8 18 1 19 2 20 3 21 4 22 98 23
REMARK SMILES IDX 5 24 97 25 99 26 6 27 96 28 7 30 95 31 25 32 26 33 27 34
REMARK SMILES IDX 28 35 29 36 30 37 94 38 31 39 93 40 32 41 33 42 34 43 87 44
REMARK SMILES IDX 35 45 92 46 86 47 88 48 36 49 91 50 85 51 84 52 37 54 71 55
REMARK SMILES IDX 50 56 70 57 51 58 54 59 69 60 89 61 52 62 53 63 68 65 90 66
REMARK SMILES IDX 55 67 38 68 39 69 48 70 40 71 41 72 47 73 49 74 42 75 43 76
REMARK SMILES IDX 44 77 45 78 46 79 72 80 73 81 82 82 74 83 75 84 81 85 83 86
REMARK SMILES IDX 76 87 77 88 78 89 79 90 80 91 56 92 57 93 66 94 58 95 59 96
REMARK SMILES IDX 65 97 67 98 60 99 61 100 62 101 63 102 64 103
REMARK H PARENT 9 16 97 29 88 53 54 64
REMARK Flexibility Score: inf
ROOT
ATOM      1  C   UNL     1      -7.966   5.229  -8.938  1.00  0.00     0.202 C 
ENDROOT
BRANCH   1   2
ATOM      2  O   UNL     1      -9.238   4.644  -8.664  1.00  0.00    -0.374 OA
BRANCH   2   3
ATOM      3  C   UNL     1      -9.691   4.590  -7.311  1.00  0.00     0.202 C 
BRANCH   3   4
ATOM      4  C   UNL     1      -9.071   3.526  -6.404  1.00  0.00     0.261 C 
BRANCH   4   5
ATOM      5  O   UNL     1      -7.729   3.910  -6.088  1.00  0.00    -0.463 OA
BRANCH   5   6
ATOM      6  C   UNL     1      -6.749   3.199  -6.690  1.00  0.00     0.310 C 
ATOM      7  O   UNL     1      -6.909   2.147  -7.299  1.00  0.00    -0.252 OA
BRANCH   6   8
ATOM      8  C   UNL     1      -5.415   3.921  -6.633  1.00  0.00     0.116 C 
ATOM      9  C   UNL     1      -4.339   2.910  -6.188  1.00  0.00     0.097 C 
ATOM     10  C   UNL     1      -4.707   2.528  -4.736  1.00  0.00     0.041 C 
ATOM     11  C   UNL     1      -4.878   3.705  -3.826  1.00  0.00    -0.030 C 
ATOM     12  C   UNL     1      -5.369   5.199  -5.757  1.00  0.00     0.043 C 
ATOM     13  C   UNL     1      -5.156   4.928  -4.295  1.00  0.00    -0.030 C 
BRANCH   9  14
ATOM     14  C   UNL     1      -3.007   3.584  -6.590  1.00  0.00     0.228 C 
ATOM     15  N   UNL     1      -1.995   3.781  -5.709  1.00  0.00    -0.326 N 
ATOM     16  H   UNL     1      -1.478   4.611  -5.826  1.00  0.00     0.169 HD
ATOM     17  O   UNL     1      -2.872   4.078  -7.717  1.00  0.00    -0.274 OA
BRANCH  15  18
ATOM     18  C   UNL     1      -1.598   2.960  -4.662  1.00  0.00     0.043 A 
ATOM     19  C   UNL     1       0.916   0.017   0.276  1.00  0.00     0.067 C 
ATOM     20  C   UNL     1       0.726   0.899  -0.955  1.00  0.00     0.182 C 
ATOM     21  C   UNL     1       1.844   0.595  -1.974  1.00  0.00     0.067 C 
ATOM     22  O   UNL     1      -0.525   0.508  -1.532  1.00  0.00    -0.476 OA
ATOM     23  C   UNL     1       0.776   2.396  -0.555  1.00  0.00     0.268 C 
ATOM     24  C   UNL     1      -0.879   1.353  -2.549  1.00  0.00     0.144 A 
ATOM     25  N   UNL     1       0.133   3.239  -1.434  1.00  0.00    -0.319 N 
ATOM     26  O   UNL     1       1.431   2.840   0.384  1.00  0.00    -0.270 OA
ATOM     27  C   UNL     1      -1.487   0.773  -3.648  1.00  0.00     0.051 A 
ATOM     28  C   UNL     1      -0.590   2.724  -2.512  1.00  0.00     0.086 A 
ATOM     29  H   UNL     1       0.184   4.213  -1.301  1.00  0.00     0.170 HD
ATOM     30  C   UNL     1      -1.783   1.574  -4.738  1.00  0.00     0.030 A 
ATOM     31  C   UNL     1      -0.971   3.544  -3.562  1.00  0.00     0.056 A 
ENDBRANCH  15  18
ENDBRANCH   9  14
ENDBRANCH   6   8
ENDBRANCH   5   6
ENDBRANCH   4   5
ENDBRANCH   3   4
ENDBRANCH   2   3
ENDBRANCH   1   2
BRANCH   1  32
ATOM     32  C   UNL     1      -7.832   6.756  -8.879  1.00  0.00     0.261 C 
BRANCH  32  33
ATOM     33  O   UNL     1      -8.003   7.279  -7.551  1.00  0.00    -0.460 OA
BRANCH  33  34
ATOM     34  C   UNL     1      -9.197   7.877  -7.326  1.00  0.00     0.338 C 
ATOM     35  O   UNL     1     -10.099   8.045  -8.134  1.00  0.00    -0.246 OA
BRANCH  34  36
ATOM     36  C   UNL     1      -9.358   8.118  -5.880  1.00  0.00     0.060 A 
ATOM     37  C   UNL     1      -8.423   8.860  -5.157  1.00  0.00     0.016 A 
ATOM     38  C   UNL     1     -10.505   7.613  -5.253  1.00  0.00     0.016 A 
ATOM     39  C   UNL     1      -8.662   9.124  -3.805  1.00  0.00     0.010 A 
ATOM     40  C   UNL     1     -10.738   7.872  -3.904  1.00  0.00     0.010 A 
ATOM     41  C   UNL     1      -9.831   8.653  -3.176  1.00  0.00    -0.014 A 
BRANCH  41  42
ATOM     42  C   UNL     1     -10.178   9.106  -1.806  1.00  0.00     0.031 A 
ATOM     43  C   UNL     1     -10.098   8.183  -0.627  1.00  0.00     0.074 A 
ATOM     44  C   UNL     1     -10.607  10.374  -1.648  1.00  0.00     0.049 A 
ATOM     45  N   UNL     1     -10.323   8.448   0.634  1.00  0.00    -0.248 NA
ATOM     46  C   UNL     1      -9.729   6.784  -0.891  1.00  0.00     0.031 C 
ATOM     47  C   UNL     1     -10.781  11.341  -2.736  1.00  0.00     0.029 A 
ATOM     48  N   UNL     1     -10.973  11.070  -0.525  1.00  0.00    -0.354 N 
ATOM     49  C   UNL     1     -10.108   7.259   1.320  1.00  0.00     0.074 A 
ATOM     50  C   UNL     1      -9.776   6.258   0.327  1.00  0.00     0.031 C 
ATOM     51  C   UNL     1     -11.195  12.510  -2.223  1.00  0.00     0.029 A 
ATOM     52  C   UNL     1     -11.348  12.369  -0.778  1.00  0.00     0.049 A 
ATOM     53  H   UNL     1     -10.969  10.677   0.378  1.00  0.00     0.167 HD
ATOM     54  C   UNL     1     -10.167   7.036   2.655  1.00  0.00     0.037 A 
ATOM     55  C   UNL     1     -11.771  13.339   0.056  1.00  0.00     0.037 A 
ATOM     56  C   UNL     1     -10.503   8.043   3.631  1.00  0.00     0.049 A 
ATOM     57  C   UNL     1     -11.846  13.054   1.531  1.00  0.00     0.074 A 
ATOM     58  C   UNL     1     -10.527   7.923   5.011  1.00  0.00     0.029 A 
ATOM     59  N   UNL     1     -10.886   9.344   3.340  1.00  0.00    -0.354 N 
ATOM     60  N   UNL     1     -11.543  11.950   2.172  1.00  0.00    -0.248 NA
ATOM     61  C   UNL     1     -12.312  14.144   2.399  1.00  0.00     0.031 C 
ATOM     62  C   UNL     1     -10.983   9.129   5.549  1.00  0.00     0.029 A 
ATOM     63  C   UNL     1     -11.183  10.024   4.511  1.00  0.00     0.049 A 
ATOM     64  H   UNL     1     -10.940   9.727   2.435  1.00  0.00     0.167 HD
ATOM     65  C   UNL     1     -11.764  12.219   3.518  1.00  0.00     0.074 A 
ATOM     66  C   UNL     1     -12.204  13.596   3.602  1.00  0.00     0.031 C 
ATOM     67  C   UNL     1     -11.620  11.397   4.586  1.00  0.00     0.037 A 
BRANCH  54  68
ATOM     68  C   UNL     1      -9.847   5.657   3.165  1.00  0.00     0.058 A 
ATOM     69  C   UNL     1      -8.530   5.171   3.178  1.00  0.00     0.135 A 
ATOM     70  C   UNL     1     -10.843   4.867   3.763  1.00  0.00     0.135 A 
ATOM     71  F   UNL     1      -7.542   5.879   2.610  1.00  0.00    -0.206 F 
ATOM     72  C   UNL     1      -8.212   3.951   3.767  1.00  0.00     0.059 A 
ATOM     73  C   UNL     1     -10.543   3.655   4.380  1.00  0.00     0.059 A 
ATOM     74  F   UNL     1     -12.118   5.285   3.779  1.00  0.00    -0.206 F 
ATOM     75  C   UNL     1      -9.223   3.206   4.376  1.00  0.00     0.060 A 
BRANCH  75  76
ATOM     76  S   UNL     1      -8.777   1.653   5.181  1.00  0.00     0.124 S 
ATOM     77  O   UNL     1      -8.389   0.833   4.037  1.00  0.00    -0.237 OA
ATOM     78  O   UNL     1      -7.691   2.064   6.064  1.00  0.00    -0.237 OA
ATOM     79  O   UNL     1     -10.009   1.248   5.850  1.00  0.00    -0.744 OA
ENDBRANCH  75  76
ENDBRANCH  54  68
BRANCH  55  80
ATOM     80  C   UNL     1     -12.145  14.672  -0.487  1.00  0.00     0.058 A 
ATOM     81  C   UNL     1     -11.374  15.811  -0.211  1.00  0.00     0.135 A 
ATOM     82  C   UNL     1     -13.277  14.832  -1.302  1.00  0.00     0.135 A 
ATOM     83  F   UNL     1     -10.284  15.711   0.567  1.00  0.00    -0.206 F 
ATOM     84  C   UNL     1     -11.722  17.064  -0.704  1.00  0.00     0.059 A 
ATOM     85  C   UNL     1     -13.628  16.069  -1.833  1.00  0.00     0.059 A 
ATOM     86  F   UNL     1     -14.038  13.771  -1.612  1.00  0.00    -0.206 F 
ATOM     87  C   UNL     1     -12.851  17.182  -1.517  1.00  0.00     0.060 A 
BRANCH  87  88
ATOM     88  S   UNL     1     -13.274  18.808  -2.176  1.00  0.00     0.124 S 
ATOM     89  O   UNL     1     -13.697  19.512  -0.971  1.00  0.00    -0.237 OA
ATOM     90  O   UNL     1     -12.006  19.239  -2.757  1.00  0.00    -0.237 OA
ATOM     91  O   UNL     1     -14.331  18.517  -3.140  1.00  0.00    -0.744 OA
ENDBRANCH  87  88
ENDBRANCH  55  80
BRANCH  67  92
ATOM     92  C   UNL     1     -11.926  11.959   5.949  1.00  0.00     0.058 A 
ATOM     93  C   UNL     1     -13.242  12.233   6.352  1.00  0.00     0.135 A 
ATOM     94  C   UNL     1     -10.899  12.154   6.888  1.00  0.00     0.135 A 
ATOM     95  F   UNL     1     -14.260  12.072   5.493  1.00  0.00    -0.206 F 
ATOM     96  C   UNL     1     -13.528  12.696   7.633  1.00  0.00     0.059 A 
ATOM     97  C   UNL     1     -11.165  12.586   8.184  1.00  0.00     0.059 A 
ATOM     98  F   UNL     1      -9.623  11.898   6.558  1.00  0.00    -0.206 F 
ATOM     99  C   UNL     1     -12.483  12.862   8.544  1.00  0.00     0.060 A 
BRANCH  99 100
ATOM    100  S   UNL     1     -12.879  13.419  10.215  1.00  0.00     0.124 S 
ATOM    101  O   UNL     1     -13.292  14.799   9.976  1.00  0.00    -0.237 OA
ATOM    102  O   UNL     1     -13.941  12.498  10.605  1.00  0.00    -0.237 OA
ATOM    103  O   UNL     1     -11.620  13.259  10.936  1.00  0.00    -0.744 OA
ENDBRANCH  99 100
ENDBRANCH  67  92
ENDBRANCH  41  42
ENDBRANCH  34  36
ENDBRANCH  33  34
ENDBRANCH  32  33
ENDBRANCH   1  32
TORSDOF 19
