REMARK SMILES O=C(CC1(CC(=O)OCCOCCOC(=O)c2ccc(-c3c4nc(c(-c5c(F)cc(S(=O)(=O)[O-])cc5F)c5ccc([nH]5)c(-c5c(F)cc(S(=O)(=O)[O-])cc5F)c5nc(c(-c6c(F)cc(S(=O)(=O)[O-])cc6F)c6ccc3[nH]6)C=C5)C=C4)cc2)CCCC1)NNc1ccc([N+](=O)[O-])cc1
REMARK SMILES IDX 9 1 8 2 6 3 7 4 5 5 4 6 83 7 86 8 84 9 85 10 3 11 2 12 1 13
REMARK SMILES IDX 87 14 88 16 89 18 90 19 97 20 91 21 96 22 92 23 93 24 94 25
REMARK SMILES IDX 95 26 10 27 11 28 12 29 13 30 14 31 15 32 16 33 17 34 18 35
REMARK SMILES IDX 82 36 19 37 81 38 20 39 21 40 22 41 75 42 23 43 80 44 74 45
REMARK SMILES IDX 76 46 24 47 79 48 73 49 72 50 25 52 59 53 38 54 58 55 39 56
REMARK SMILES IDX 42 57 57 58 77 59 40 60 41 61 56 63 78 64 43 65 26 66 27 67
REMARK SMILES IDX 36 68 28 69 29 70 35 71 37 72 30 73 31 74 32 75 33 76 34 77
REMARK SMILES IDX 60 78 61 79 70 80 62 81 63 82 69 83 71 84 64 85 65 86 66 87
REMARK SMILES IDX 67 88 68 89 44 90 45 91 54 92 46 93 47 94 53 95 55 96 48 97
REMARK SMILES IDX 49 98 50 99 51 100 52 101
REMARK H PARENT 87 15 88 17 76 51 42 62
REMARK Flexibility Score: inf
ROOT
ATOM      1  C   UNL     1       0.991   2.889   2.321  1.00  0.00     0.261 C 
ENDROOT
BRANCH   1   2
ATOM      2  O   UNL     1       2.111   2.710   1.423  1.00  0.00    -0.463 OA
BRANCH   2   3
ATOM      3  C   UNL     1       3.144   1.974   1.895  1.00  0.00     0.306 C 
ATOM      4  O   UNL     1       3.193   1.482   3.016  1.00  0.00    -0.252 OA
BRANCH   3   5
ATOM      5  C   UNL     1       4.347   1.933   0.967  1.00  0.00     0.130 C 
BRANCH   5   6
ATOM      6  C   UNL     1       4.246   1.653  -0.562  1.00  0.00    -0.010 C 
ATOM      7  C   UNL     1       5.660   1.931  -1.170  1.00  0.00     0.008 C 
ATOM      8  C   UNL     1       3.469   2.765  -1.311  1.00  0.00     0.008 C 
ATOM      9  C   UNL     1       5.814   3.445  -1.224  1.00  0.00     0.001 C 
ATOM     10  C   UNL     1       4.389   3.992  -1.290  1.00  0.00     0.001 C 
BRANCH   6  11
ATOM     11  C   UNL     1       3.874   0.215  -1.052  1.00  0.00     0.109 C 
BRANCH  11  12
ATOM     12  C   UNL     1       3.145  -0.812  -0.210  1.00  0.00     0.238 C 
ATOM     13  O   UNL     1       2.204  -1.467  -0.663  1.00  0.00    -0.273 OA
ATOM     14  N   UNL     1       3.648  -1.044   1.042  1.00  0.00    -0.270 N 
ATOM     15  H   UNL     1       4.491  -0.633   1.340  1.00  0.00     0.191 HD
BRANCH  14  16
ATOM     16  N   UNL     1       2.923  -1.881   1.870  1.00  0.00    -0.299 N 
ATOM     17  H   UNL     1       2.143  -2.363   1.513  1.00  0.00     0.188 HD
BRANCH  16  18
ATOM     18  C   UNL     1       3.285  -2.048   3.207  1.00  0.00     0.055 A 
ATOM     19  C   UNL     1       2.658  -3.064   3.945  1.00  0.00     0.034 A 
ATOM     20  C   UNL     1       4.315  -1.327   3.827  1.00  0.00     0.034 A 
ATOM     21  C   UNL     1       3.078  -3.387   5.239  1.00  0.00     0.088 A 
ATOM     22  C   UNL     1       4.745  -1.631   5.121  1.00  0.00     0.088 A 
ATOM     23  C   UNL     1       4.141  -2.681   5.812  1.00  0.00     0.269 A 
BRANCH  23  24
ATOM     24  N   UNL     1       4.655  -3.070   7.128  1.00  0.00     0.062 N 
ATOM     25  O   UNL     1       4.108  -4.022   7.704  1.00  0.00    -0.258 OA
ATOM     26  O   UNL     1       5.627  -2.445   7.577  1.00  0.00    -0.258 OA
ENDBRANCH  23  24
ENDBRANCH  16  18
ENDBRANCH  14  16
ENDBRANCH  11  12
ENDBRANCH   6  11
ENDBRANCH   5   6
ENDBRANCH   3   5
ENDBRANCH   2   3
ENDBRANCH   1   2
BRANCH   1  27
ATOM     27  C   UNL     1      -0.331   2.482   1.665  1.00  0.00     0.202 C 
BRANCH  27  28
ATOM     28  O   UNL     1      -0.570   1.081   1.500  1.00  0.00    -0.374 OA
BRANCH  28  29
ATOM     29  C   UNL     1       0.271   0.391   0.583  1.00  0.00     0.202 C 
BRANCH  29  30
ATOM     30  C   UNL     1      -0.069   0.477  -0.912  1.00  0.00     0.261 C 
BRANCH  30  31
ATOM     31  O   UNL     1      -0.384   1.798  -1.336  1.00  0.00    -0.460 OA
BRANCH  31  32
ATOM     32  C   UNL     1      -1.713   2.032  -1.393  1.00  0.00     0.338 C 
ATOM     33  O   UNL     1      -2.626   1.238  -1.226  1.00  0.00    -0.246 OA
BRANCH  32  34
ATOM     34  C   UNL     1      -1.906   3.478  -1.508  1.00  0.00     0.060 A 
ATOM     35  C   UNL     1      -2.743   4.079  -0.564  1.00  0.00     0.016 A 
ATOM     36  C   UNL     1      -1.276   4.220  -2.510  1.00  0.00     0.016 A 
ATOM     37  C   UNL     1      -3.003   5.435  -0.656  1.00  0.00     0.010 A 
ATOM     38  C   UNL     1      -1.540   5.583  -2.602  1.00  0.00     0.010 A 
ATOM     39  C   UNL     1      -2.436   6.179  -1.698  1.00  0.00    -0.014 A 
BRANCH  39  40
ATOM     40  C   UNL     1      -2.911   7.556  -1.920  1.00  0.00     0.031 A 
ATOM     41  C   UNL     1      -3.922   7.795  -3.002  1.00  0.00     0.074 A 
ATOM     42  C   UNL     1      -2.477   8.544  -1.121  1.00  0.00     0.049 A 
ATOM     43  N   UNL     1      -4.487   8.913  -3.369  1.00  0.00    -0.248 NA
ATOM     44  C   UNL     1      -4.354   6.619  -3.778  1.00  0.00     0.031 C 
ATOM     45  C   UNL     1      -1.516   8.382  -0.028  1.00  0.00     0.029 A 
ATOM     46  N   UNL     1      -2.787   9.876  -1.102  1.00  0.00    -0.354 N 
ATOM     47  C   UNL     1      -5.334   8.578  -4.418  1.00  0.00     0.074 A 
ATOM     48  C   UNL     1      -5.188   7.160  -4.654  1.00  0.00     0.031 C 
ATOM     49  C   UNL     1      -1.312   9.576   0.553  1.00  0.00     0.029 A 
ATOM     50  C   UNL     1      -2.099  10.586  -0.148  1.00  0.00     0.049 A 
ATOM     51  H   UNL     1      -3.441  10.286  -1.713  1.00  0.00     0.167 HD
ATOM     52  C   UNL     1      -6.165   9.389  -5.111  1.00  0.00     0.037 A 
ATOM     53  C   UNL     1      -2.095  11.908   0.105  1.00  0.00     0.037 A 
ATOM     54  C   UNL     1      -6.294  10.798  -4.846  1.00  0.00     0.049 A 
ATOM     55  C   UNL     1      -2.993  12.795  -0.716  1.00  0.00     0.074 A 
ATOM     56  C   UNL     1      -7.121  11.717  -5.464  1.00  0.00     0.029 A 
ATOM     57  N   UNL     1      -5.566  11.492  -3.888  1.00  0.00    -0.354 N 
ATOM     58  N   UNL     1      -3.818  12.464  -1.682  1.00  0.00    -0.248 NA
ATOM     59  C   UNL     1      -2.967  14.230  -0.411  1.00  0.00     0.031 C 
ATOM     60  C   UNL     1      -6.848  12.977  -4.923  1.00  0.00     0.029 A 
ATOM     61  C   UNL     1      -5.900  12.834  -3.921  1.00  0.00     0.049 A 
ATOM     62  H   UNL     1      -4.909  11.088  -3.276  1.00  0.00     0.167 HD
ATOM     63  C   UNL     1      -4.428  13.646  -2.085  1.00  0.00     0.074 A 
ATOM     64  C   UNL     1      -3.889  14.696  -1.242  1.00  0.00     0.031 C 
ATOM     65  C   UNL     1      -5.346  13.852  -3.063  1.00  0.00     0.037 A 
BRANCH  52  66
ATOM     66  C   UNL     1      -6.971   8.790  -6.230  1.00  0.00     0.058 A 
ATOM     67  C   UNL     1      -8.043   7.915  -5.991  1.00  0.00     0.135 A 
ATOM     68  C   UNL     1      -6.699   9.140  -7.562  1.00  0.00     0.135 A 
ATOM     69  F   UNL     1      -8.332   7.525  -4.739  1.00  0.00    -0.206 F 
ATOM     70  C   UNL     1      -8.812   7.405  -7.032  1.00  0.00     0.059 A 
ATOM     71  C   UNL     1      -7.472   8.665  -8.617  1.00  0.00     0.059 A 
ATOM     72  F   UNL     1      -5.678   9.963  -7.849  1.00  0.00    -0.206 F 
ATOM     73  C   UNL     1      -8.524   7.793  -8.342  1.00  0.00     0.060 A 
BRANCH  73  74
ATOM     74  S   UNL     1      -9.559   7.157  -9.678  1.00  0.00     0.124 S 
ATOM     75  O   UNL     1      -9.170   5.750  -9.704  1.00  0.00    -0.237 OA
ATOM     76  O   UNL     1     -10.904   7.434  -9.185  1.00  0.00    -0.237 OA
ATOM     77  O   UNL     1      -9.143   7.942 -10.836  1.00  0.00    -0.744 OA
ENDBRANCH  73  74
ENDBRANCH  52  66
BRANCH  53  78
ATOM     78  C   UNL     1      -1.200  12.464   1.155  1.00  0.00     0.058 A 
ATOM     79  C   UNL     1      -1.714  13.049   2.321  1.00  0.00     0.135 A 
ATOM     80  C   UNL     1       0.196  12.423   1.008  1.00  0.00     0.135 A 
ATOM     81  F   UNL     1      -3.041  13.115   2.509  1.00  0.00    -0.206 F 
ATOM     82  C   UNL     1      -0.880  13.596   3.291  1.00  0.00     0.059 A 
ATOM     83  C   UNL     1       1.051  12.935   1.978  1.00  0.00     0.059 A 
ATOM     84  F   UNL     1       0.743  11.859  -0.080  1.00  0.00    -0.206 F 
ATOM     85  C   UNL     1       0.503  13.534   3.110  1.00  0.00     0.060 A 
BRANCH  85  86
ATOM     86  S   UNL     1       1.578  14.224   4.386  1.00  0.00     0.124 S 
ATOM     87  O   UNL     1       1.363  15.655   4.207  1.00  0.00    -0.237 OA
ATOM     88  O   UNL     1       1.022  13.640   5.602  1.00  0.00    -0.237 OA
ATOM     89  O   UNL     1       2.901  13.732   4.011  1.00  0.00    -0.744 OA
ENDBRANCH  85  86
ENDBRANCH  53  78
BRANCH  65  90
ATOM     90  C   UNL     1      -5.846  15.258  -3.249  1.00  0.00     0.058 A 
ATOM     91  C   UNL     1      -5.035  16.262  -3.798  1.00  0.00     0.135 A 
ATOM     92  C   UNL     1      -7.172  15.587  -2.922  1.00  0.00     0.135 A 
ATOM     93  F   UNL     1      -3.759  16.000  -4.122  1.00  0.00    -0.206 F 
ATOM     94  C   UNL     1      -5.512  17.554  -3.989  1.00  0.00     0.059 A 
ATOM     95  C   UNL     1      -7.680  16.862  -3.138  1.00  0.00     0.059 A 
ATOM     96  F   UNL     1      -7.993  14.658  -2.406  1.00  0.00    -0.206 F 
ATOM     97  C   UNL     1      -6.838  17.843  -3.659  1.00  0.00     0.060 A 
BRANCH  97  98
ATOM     98  S   UNL     1      -7.451  19.516  -3.941  1.00  0.00     0.124 S 
ATOM     99  O   UNL     1      -6.768  20.260  -2.888  1.00  0.00    -0.237 OA
ATOM    100  O   UNL     1      -7.003  19.786  -5.303  1.00  0.00    -0.237 OA
ATOM    101  O   UNL     1      -8.896  19.381  -3.777  1.00  0.00    -0.744 OA
ENDBRANCH  97  98
ENDBRANCH  65  90
ENDBRANCH  39  40
ENDBRANCH  32  34
ENDBRANCH  31  32
ENDBRANCH  30  31
ENDBRANCH  29  30
ENDBRANCH  28  29
ENDBRANCH  27  28
ENDBRANCH   1  27
TORSDOF 23
