REMARK SMILES CN1C(=O)C[C@@H](C(=O)OCCOCCOC(=O)c2ccc(-c3c4nc(c(-c5c(F)cc(S(=O)(=O)[O-])cc5F)c5ccc([nH]5)c(-c5c(F)cc(S(=O)(=O)[O-])cc5F)c5nc(c(-c6c(F)cc(S(=O)(=O)[O-])cc6F)c6ccc3[nH]6)C=C5)C=C4)cc2)C12CCN(C(=O)c1ccccc1-n1cccn1)CC2
REMARK SMILES IDX 13 1 12 2 11 3 10 4 9 5 7 6 8 7 6 8 1 9 2 10 3 11 84 12 4 13
REMARK SMILES IDX 5 14 85 15 102 16 86 17 101 18 87 19 88 20 89 21 90 22 91 23
REMARK SMILES IDX 95 24 92 25 94 26 93 27 96 28 97 29 100 30 98 31 99 32 14 33
REMARK SMILES IDX 15 34 16 35 17 36 18 37 19 38 83 39 20 40 82 41 21 42 22 43
REMARK SMILES IDX 23 44 76 45 24 46 81 47 75 48 77 49 25 50 80 51 74 52 73 53
REMARK SMILES IDX 26 55 60 56 39 57 59 58 40 59 43 60 58 61 78 62 41 63 42 64
REMARK SMILES IDX 57 66 79 67 44 68 27 69 28 70 37 71 29 72 30 73 36 74 38 75
REMARK SMILES IDX 31 76 32 77 33 78 34 79 35 80 61 81 62 82 71 83 63 84 64 85
REMARK SMILES IDX 70 86 72 87 65 88 66 89 67 90 68 91 69 92 45 93 46 94 55 95
REMARK SMILES IDX 47 96 48 97 54 98 56 99 49 100 50 101 51 102 52 103 53 104
REMARK H PARENT 77 54 43 65
REMARK Flexibility Score: inf
ROOT
ATOM      1  C   UNL     1      -5.449  -1.443   0.654  1.00  0.00     0.202 C 
ENDROOT
BRANCH   1   2
ATOM      2  O   UNL     1      -5.713  -1.624   2.043  1.00  0.00    -0.374 OA
BRANCH   2   3
ATOM      3  C   UNL     1      -4.752  -1.110   2.966  1.00  0.00     0.202 C 
BRANCH   3   4
ATOM      4  C   UNL     1      -3.467  -1.931   3.138  1.00  0.00     0.261 C 
BRANCH   4   5
ATOM      5  O   UNL     1      -2.548  -1.881   2.022  1.00  0.00    -0.463 OA
BRANCH   5   6
ATOM      6  C   UNL     1      -2.457  -3.010   1.283  1.00  0.00     0.311 C 
ATOM      7  O   UNL     1      -3.218  -3.969   1.386  1.00  0.00    -0.252 OA
BRANCH   6   8
ATOM      8  C   UNL     1      -1.254  -3.085   0.359  1.00  0.00     0.134 C 
ATOM      9  C   UNL     1       1.233  -0.277   0.557  1.00  0.00     0.147 C 
ATOM     10  N   UNL     1       0.466  -1.510   0.612  1.00  0.00    -0.339 N 
ATOM     11  C   UNL     1       0.809  -2.557   1.450  1.00  0.00     0.223 C 
ATOM     12  C   UNL     1      -0.623  -1.842  -0.318  1.00  0.00     0.060 C 
ATOM     13  O   UNL     1       1.735  -2.586   2.245  1.00  0.00    -0.275 OA
ATOM     14  C   UNL     1      -0.113  -3.710   1.172  1.00  0.00     0.118 C 
ATOM     15  C   UNL     1      -1.566  -0.653  -0.572  1.00  0.00     0.051 C 
ATOM     16  C   UNL     1       0.009  -2.261  -1.688  1.00  0.00     0.051 C 
ATOM     17  C   UNL     1      -2.579  -0.935  -1.672  1.00  0.00     0.122 C 
ATOM     18  C   UNL     1      -1.012  -2.439  -2.816  1.00  0.00     0.122 C 
ATOM     19  N   UNL     1      -1.898  -1.287  -2.914  1.00  0.00    -0.338 N 
ATOM     20  C   UNL     1      -2.113  -0.695  -4.161  1.00  0.00     0.256 C 
ATOM     21  O   UNL     1      -1.609  -1.103  -5.204  1.00  0.00    -0.269 OA
BRANCH  20  22
ATOM     22  C   UNL     1      -3.025   0.467  -4.261  1.00  0.00     0.065 A 
ATOM     23  C   UNL     1      -4.240   0.229  -4.924  1.00  0.00     0.016 A 
ATOM     24  C   UNL     1      -2.794   1.708  -3.645  1.00  0.00     0.077 A 
ATOM     25  C   UNL     1      -5.244   1.197  -4.926  1.00  0.00     0.001 A 
ATOM     26  C   UNL     1      -3.835   2.652  -3.604  1.00  0.00     0.029 A 
ATOM     27  C   UNL     1      -5.049   2.398  -4.247  1.00  0.00     0.002 A 
BRANCH  24  28
ATOM     28  N   UNL     1      -1.550   2.056  -3.058  1.00  0.00    -0.240 N 
ATOM     29  C   UNL     1      -0.287   1.610  -3.384  1.00  0.00     0.115 A 
ATOM     30  N   UNL     1      -1.500   2.952  -2.036  1.00  0.00    -0.177 NA
ATOM     31  C   UNL     1       0.595   2.216  -2.522  1.00  0.00     0.042 A 
ATOM     32  C   UNL     1      -0.209   3.030  -1.713  1.00  0.00     0.135 A 
ENDBRANCH  24  28
ENDBRANCH  20  22
ENDBRANCH   6   8
ENDBRANCH   5   6
ENDBRANCH   4   5
ENDBRANCH   3   4
ENDBRANCH   2   3
ENDBRANCH   1   2
BRANCH   1  33
ATOM     33  C   UNL     1      -5.574  -0.005   0.149  1.00  0.00     0.261 C 
BRANCH  33  34
ATOM     34  O   UNL     1      -4.546   0.815   0.728  1.00  0.00    -0.460 OA
BRANCH  34  35
ATOM     35  C   UNL     1      -4.834   2.133   0.683  1.00  0.00     0.338 C 
ATOM     36  O   UNL     1      -5.657   2.674  -0.048  1.00  0.00    -0.246 OA
BRANCH  35  37
ATOM     37  C   UNL     1      -4.197   2.809   1.822  1.00  0.00     0.060 A 
ATOM     38  C   UNL     1      -4.970   3.002   2.973  1.00  0.00     0.016 A 
ATOM     39  C   UNL     1      -2.925   3.374   1.717  1.00  0.00     0.016 A 
ATOM     40  C   UNL     1      -4.507   3.840   3.986  1.00  0.00     0.010 A 
ATOM     41  C   UNL     1      -2.455   4.204   2.747  1.00  0.00     0.010 A 
ATOM     42  C   UNL     1      -3.271   4.492   3.857  1.00  0.00    -0.014 A 
BRANCH  42  43
ATOM     43  C   UNL     1      -2.960   5.611   4.790  1.00  0.00     0.031 A 
ATOM     44  C   UNL     1      -3.189   7.031   4.328  1.00  0.00     0.074 A 
ATOM     45  C   UNL     1      -2.591   5.373   6.064  1.00  0.00     0.049 A 
ATOM     46  N   UNL     1      -3.115   8.147   5.009  1.00  0.00    -0.248 NA
ATOM     47  C   UNL     1      -3.554   7.218   2.914  1.00  0.00     0.031 C 
ATOM     48  C   UNL     1      -2.344   4.053   6.641  1.00  0.00     0.029 A 
ATOM     49  N   UNL     1      -2.379   6.240   7.109  1.00  0.00    -0.354 N 
ATOM     50  C   UNL     1      -3.448   9.160   4.115  1.00  0.00     0.074 A 
ATOM     51  C   UNL     1      -3.668   8.535   2.830  1.00  0.00     0.031 C 
ATOM     52  C   UNL     1      -2.024   4.196   7.939  1.00  0.00     0.029 A 
ATOM     53  C   UNL     1      -2.041   5.616   8.287  1.00  0.00     0.049 A 
ATOM     54  H   UNL     1      -2.462   7.217   7.022  1.00  0.00     0.167 HD
ATOM     55  C   UNL     1      -3.587  10.488   4.346  1.00  0.00     0.037 A 
ATOM     56  C   UNL     1      -1.784   6.130   9.507  1.00  0.00     0.037 A 
ATOM     57  C   UNL     1      -3.369  11.118   5.621  1.00  0.00     0.049 A 
ATOM     58  C   UNL     1      -1.910   7.616   9.729  1.00  0.00     0.074 A 
ATOM     59  C   UNL     1      -3.476  12.459   5.949  1.00  0.00     0.029 A 
ATOM     60  N   UNL     1      -3.006  10.451   6.780  1.00  0.00    -0.354 N 
ATOM     61  N   UNL     1      -2.258   8.552   8.878  1.00  0.00    -0.248 NA
ATOM     62  C   UNL     1      -1.621   8.115  11.083  1.00  0.00     0.031 C 
ATOM     63  C   UNL     1      -3.151  12.607   7.301  1.00  0.00     0.029 A 
ATOM     64  C   UNL     1      -2.875  11.353   7.822  1.00  0.00     0.049 A 
ATOM     65  H   UNL     1      -2.861   9.480   6.851  1.00  0.00     0.167 HD
ATOM     66  C   UNL     1      -2.250   9.743   9.598  1.00  0.00     0.074 A 
ATOM     67  C   UNL     1      -1.883   9.409  10.958  1.00  0.00     0.031 C 
ATOM     68  C   UNL     1      -2.518  11.002   9.172  1.00  0.00     0.037 A 
BRANCH  55  69
ATOM     69  C   UNL     1      -4.011  11.353   3.192  1.00  0.00     0.058 A 
ATOM     70  C   UNL     1      -5.336  11.348   2.729  1.00  0.00     0.135 A 
ATOM     71  C   UNL     1      -3.104  12.232   2.579  1.00  0.00     0.135 A 
ATOM     72  F   UNL     1      -6.238  10.514   3.270  1.00  0.00    -0.206 F 
ATOM     73  C   UNL     1      -5.745  12.175   1.688  1.00  0.00     0.059 A 
ATOM     74  C   UNL     1      -3.497  13.082   1.549  1.00  0.00     0.059 A 
ATOM     75  F   UNL     1      -1.825  12.273   2.982  1.00  0.00    -0.206 F 
ATOM     76  C   UNL     1      -4.818  13.040   1.105  1.00  0.00     0.060 A 
BRANCH  76  77
ATOM     77  S   UNL     1      -5.371  14.123  -0.230  1.00  0.00     0.124 S 
ATOM     78  O   UNL     1      -5.498  13.180  -1.337  1.00  0.00    -0.237 OA
ATOM     79  O   UNL     1      -6.624  14.655   0.296  1.00  0.00    -0.237 OA
ATOM     80  O   UNL     1      -4.286  15.092  -0.353  1.00  0.00    -0.744 OA
ENDBRANCH  76  77
ENDBRANCH  55  69
BRANCH  56  81
ATOM     81  C   UNL     1      -1.381   5.239  10.629  1.00  0.00     0.058 A 
ATOM     82  C   UNL     1      -2.228   5.015  11.725  1.00  0.00     0.135 A 
ATOM     83  C   UNL     1      -0.118   4.628  10.645  1.00  0.00     0.135 A 
ATOM     84  F   UNL     1      -3.443   5.585  11.760  1.00  0.00    -0.206 F 
ATOM     85  C   UNL     1      -1.827   4.245  12.812  1.00  0.00     0.059 A 
ATOM     86  C   UNL     1       0.298   3.835  11.710  1.00  0.00     0.059 A 
ATOM     87  F   UNL     1       0.726   4.801   9.616  1.00  0.00    -0.206 F 
ATOM     88  C   UNL     1      -0.557   3.664  12.798  1.00  0.00     0.060 A 
BRANCH  88  89
ATOM     89  S   UNL     1      -0.042   2.655  14.205  1.00  0.00     0.124 S 
ATOM     90  O   UNL     1       0.321   3.677  15.180  1.00  0.00    -0.237 OA
ATOM     91  O   UNL     1      -1.250   1.892  14.499  1.00  0.00    -0.237 OA
ATOM     92  O   UNL     1       1.067   1.874  13.664  1.00  0.00    -0.744 OA
ENDBRANCH  88  89
ENDBRANCH  56  81
BRANCH  68  93
ATOM     93  C   UNL     1      -2.445  12.107  10.189  1.00  0.00     0.058 A 
ATOM     94  C   UNL     1      -1.214  12.587  10.661  1.00  0.00     0.135 A 
ATOM     95  C   UNL     1      -3.615  12.720  10.664  1.00  0.00     0.135 A 
ATOM     96  F   UNL     1      -0.066  12.032  10.240  1.00  0.00    -0.206 F 
ATOM     97  C   UNL     1      -1.145  13.619  11.591  1.00  0.00     0.059 A 
ATOM     98  C   UNL     1      -3.569  13.770  11.576  1.00  0.00     0.059 A 
ATOM     99  F   UNL     1      -4.818  12.307  10.233  1.00  0.00    -0.206 F 
ATOM    100  C   UNL     1      -2.329  14.203  12.045  1.00  0.00     0.060 A 
BRANCH 100 101
ATOM    101  S   UNL     1      -2.229  15.559  13.234  1.00  0.00     0.124 S 
ATOM    102  O   UNL     1      -1.960  14.840  14.475  1.00  0.00    -0.237 OA
ATOM    103  O   UNL     1      -1.125  16.357  12.711  1.00  0.00    -0.237 OA
ATOM    104  O   UNL     1      -3.545  16.186  13.142  1.00  0.00    -0.744 OA
ENDBRANCH 100 101
ENDBRANCH  68  93
ENDBRANCH  42  43
ENDBRANCH  35  37
ENDBRANCH  34  35
ENDBRANCH  33  34
ENDBRANCH   1  33
TORSDOF 19
