REMARK SMILES Cc1c[nH]c(C[N@@H+](C)[C@@H](C(=O)OCCOCCOC(=O)c2ccc(-c3c4nc(c(-c5c(F)cc(S(=O)(=O)[O-])cc5F)c5ccc([nH]5)c(-c5c(F)cc(S(=O)(=O)[O-])cc5F)c5nc(c(-c6c(F)cc(S(=O)(=O)[O-])cc6F)c6ccc3[nH]6)C=C5)C=C4)cc2)c2ccc(NC(=O)N3CCCC3)cc2)n1
REMARK SMILES IDX 15 1 14 2 13 3 12 4 10 5 11 6 9 7 7 8 8 9 6 11 5 12 1 13
REMARK SMILES IDX 2 14 3 15 101 16 4 17 87 19 88 20 100 21 89 22 99 23 90 24
REMARK SMILES IDX 91 25 92 26 93 28 94 29 95 30 98 31 96 32 97 33 16 34 17 35
REMARK SMILES IDX 18 36 19 37 20 38 21 39 22 40 86 41 23 42 85 43 24 44 25 45
REMARK SMILES IDX 26 46 79 47 27 48 84 49 78 50 80 51 28 52 83 53 77 54 76 55
REMARK SMILES IDX 29 57 63 58 42 59 62 60 43 61 46 62 61 63 81 64 44 65 45 66
REMARK SMILES IDX 60 68 82 69 47 70 30 71 31 72 40 73 32 74 33 75 39 76 41 77
REMARK SMILES IDX 34 78 35 79 36 80 37 81 38 82 64 83 65 84 74 85 66 86 67 87
REMARK SMILES IDX 73 88 75 89 68 90 69 91 70 92 71 93 72 94 48 95 49 96 58 97
REMARK SMILES IDX 50 98 51 99 57 100 59 101 52 102 53 103 54 104 55 105 56 106
REMARK H PARENT 7 10 4 18 91 27 80 56 46 67
REMARK Flexibility Score: inf
ROOT
ATOM      1  O   UNL     1      -5.553  -1.278   1.438  1.00  0.00    -0.374 OA
ENDROOT
BRANCH   1   2
ATOM      2  C   UNL     1      -6.345  -0.221   1.982  1.00  0.00     0.202 C 
BRANCH   2   3
ATOM      3  C   UNL     1      -5.652   0.665   3.019  1.00  0.00     0.261 C 
BRANCH   3   4
ATOM      4  O   UNL     1      -4.486   1.316   2.477  1.00  0.00    -0.459 OA
BRANCH   4   5
ATOM      5  C   UNL     1      -3.602   1.734   3.426  1.00  0.00     0.369 C 
ATOM      6  O   UNL     1      -3.850   1.691   4.630  1.00  0.00    -0.245 OA
BRANCH   5   7
ATOM      7  C   UNL     1      -2.202   2.122   2.886  1.00  0.00     0.326 C 
BRANCH   7   8
ATOM      8  N   UNL     1      -2.136   2.833   1.568  1.00  0.00    -0.316 N 
ATOM      9  C   UNL     1      -3.131   3.910   1.496  1.00  0.00     0.334 C 
ATOM     10  H   UNL     1      -1.171   3.160   1.611  1.00  0.00     0.349 HD
BRANCH   8  11
ATOM     11  C   UNL     1      -2.138   2.089   0.297  1.00  0.00     0.339 C 
BRANCH  11  12
ATOM     12  C   UNL     1      -0.958   1.205  -0.030  1.00  0.00     0.161 A 
ATOM     13  C   UNL     1       2.470   0.322  -0.524  1.00  0.00     0.068 C 
ATOM     14  C   UNL     1       0.993   0.374  -0.467  1.00  0.00     0.056 A 
ATOM     15  C   UNL     1       0.097  -0.646  -0.682  1.00  0.00     0.107 A 
ATOM     16  N   UNL     1       0.321   1.532  -0.130  1.00  0.00    -0.233 NA
ATOM     17  N   UNL     1      -1.124  -0.111  -0.395  1.00  0.00    -0.344 N 
ATOM     18  H   UNL     1      -1.984  -0.589  -0.440  1.00  0.00     0.167 HD
ENDBRANCH  11  12
ENDBRANCH   8  11
ENDBRANCH   7   8
BRANCH   7  19
ATOM     19  C   UNL     1      -1.160   1.025   3.104  1.00  0.00     0.021 A 
ATOM     20  C   UNL     1      -1.495  -0.269   3.518  1.00  0.00     0.012 A 
ATOM     21  C   UNL     1       0.201   1.312   2.915  1.00  0.00     0.012 A 
ATOM     22  C   UNL     1      -0.520  -1.264   3.598  1.00  0.00     0.027 A 
ATOM     23  C   UNL     1       1.161   0.294   2.929  1.00  0.00     0.027 A 
ATOM     24  C   UNL     1       0.780  -1.024   3.165  1.00  0.00     0.042 A 
BRANCH  24  25
ATOM     25  N   UNL     1       1.727  -2.043   2.952  1.00  0.00    -0.308 N 
ATOM     26  C   UNL     1       1.599  -3.399   2.941  1.00  0.00     0.321 C 
ATOM     27  H   UNL     1       2.641  -1.719   2.782  1.00  0.00     0.171 HD
ATOM     28  O   UNL     1       2.596  -4.086   3.179  1.00  0.00    -0.248 OA
ATOM     29  N   UNL     1       0.388  -3.972   2.683  1.00  0.00    -0.325 N 
ATOM     30  C   UNL     1      -0.534  -3.636   1.615  1.00  0.00     0.121 C 
ATOM     31  C   UNL     1       0.032  -5.251   3.249  1.00  0.00     0.121 C 
ATOM     32  C   UNL     1      -1.855  -4.194   2.115  1.00  0.00     0.023 C 
ATOM     33  C   UNL     1      -1.453  -5.426   2.930  1.00  0.00     0.023 C 
ENDBRANCH  24  25
ENDBRANCH   7  19
ENDBRANCH   5   7
ENDBRANCH   4   5
ENDBRANCH   3   4
ENDBRANCH   2   3
ENDBRANCH   1   2
BRANCH   1  34
ATOM     34  C   UNL     1      -4.520  -0.904   0.532  1.00  0.00     0.202 C 
BRANCH  34  35
ATOM     35  C   UNL     1      -4.969  -0.422  -0.857  1.00  0.00     0.261 C 
BRANCH  35  36
ATOM     36  O   UNL     1      -5.716   0.807  -0.801  1.00  0.00    -0.460 OA
BRANCH  36  37
ATOM     37  C   UNL     1      -6.952   0.730  -1.351  1.00  0.00     0.338 C 
ATOM     38  O   UNL     1      -7.410  -0.214  -1.991  1.00  0.00    -0.246 OA
BRANCH  37  39
ATOM     39  C   UNL     1      -7.795   1.854  -0.916  1.00  0.00     0.060 A 
ATOM     40  C   UNL     1      -8.963   1.537  -0.211  1.00  0.00     0.016 A 
ATOM     41  C   UNL     1      -7.521   3.175  -1.278  1.00  0.00     0.016 A 
ATOM     42  C   UNL     1      -9.895   2.530   0.081  1.00  0.00     0.010 A 
ATOM     43  C   UNL     1      -8.464   4.171  -0.990  1.00  0.00     0.010 A 
ATOM     44  C   UNL     1      -9.675   3.845  -0.349  1.00  0.00    -0.014 A 
BRANCH  44  45
ATOM     45  C   UNL     1     -10.796   4.816  -0.276  1.00  0.00     0.031 A 
ATOM     46  C   UNL     1     -11.604   5.091  -1.518  1.00  0.00     0.074 A 
ATOM     47  C   UNL     1     -11.141   5.385   0.894  1.00  0.00     0.049 A 
ATOM     48  N   UNL     1     -12.632   5.882  -1.680  1.00  0.00    -0.248 NA
ATOM     49  C   UNL     1     -11.203   4.372  -2.739  1.00  0.00     0.031 C 
ATOM     50  C   UNL     1     -10.468   5.160   2.173  1.00  0.00     0.029 A 
ATOM     51  N   UNL     1     -12.149   6.266   1.196  1.00  0.00    -0.354 N 
ATOM     52  C   UNL     1     -12.997   5.763  -3.017  1.00  0.00     0.074 A 
ATOM     53  C   UNL     1     -12.063   4.844  -3.630  1.00  0.00     0.031 C 
ATOM     54  C   UNL     1     -11.080   5.890   3.122  1.00  0.00     0.029 A 
ATOM     55  C   UNL     1     -12.167   6.655   2.515  1.00  0.00     0.049 A 
ATOM     56  H   UNL     1     -12.799   6.590   0.531  1.00  0.00     0.167 HD
ATOM     57  C   UNL     1     -14.023   6.356  -3.671  1.00  0.00     0.037 A 
ATOM     58  C   UNL     1     -12.959   7.540   3.154  1.00  0.00     0.037 A 
ATOM     59  C   UNL     1     -14.959   7.260  -3.055  1.00  0.00     0.049 A 
ATOM     60  C   UNL     1     -14.055   8.236   2.388  1.00  0.00     0.074 A 
ATOM     61  C   UNL     1     -16.043   7.899  -3.631  1.00  0.00     0.029 A 
ATOM     62  N   UNL     1     -14.920   7.656  -1.727  1.00  0.00    -0.354 N 
ATOM     63  N   UNL     1     -14.398   8.098   1.129  1.00  0.00    -0.248 NA
ATOM     64  C   UNL     1     -14.876   9.204   3.129  1.00  0.00     0.031 C 
ATOM     65  C   UNL     1     -16.630   8.721  -2.663  1.00  0.00     0.029 A 
ATOM     66  C   UNL     1     -15.946   8.551  -1.470  1.00  0.00     0.049 A 
ATOM     67  H   UNL     1     -14.261   7.348  -1.064  1.00  0.00     0.167 HD
ATOM     68  C   UNL     1     -15.490   8.939   0.936  1.00  0.00     0.074 A 
ATOM     69  C   UNL     1     -15.758   9.572   2.210  1.00  0.00     0.031 C 
ATOM     70  C   UNL     1     -16.207   9.165  -0.193  1.00  0.00     0.037 A 
BRANCH  57  71
ATOM     71  C   UNL     1     -14.182   6.067  -5.139  1.00  0.00     0.058 A 
ATOM     72  C   UNL     1     -14.652   4.829  -5.604  1.00  0.00     0.135 A 
ATOM     73  C   UNL     1     -13.910   7.063  -6.091  1.00  0.00     0.135 A 
ATOM     74  F   UNL     1     -14.908   3.834  -4.739  1.00  0.00    -0.206 F 
ATOM     75  C   UNL     1     -14.834   4.584  -6.962  1.00  0.00     0.059 A 
ATOM     76  C   UNL     1     -14.109   6.849  -7.451  1.00  0.00     0.059 A 
ATOM     77  F   UNL     1     -13.453   8.264  -5.700  1.00  0.00    -0.206 F 
ATOM     78  C   UNL     1     -14.563   5.602  -7.878  1.00  0.00     0.060 A 
BRANCH  78  79
ATOM     79  S   UNL     1     -14.826   5.276  -9.634  1.00  0.00     0.124 S 
ATOM     80  O   UNL     1     -13.716   4.375  -9.931  1.00  0.00    -0.237 OA
ATOM     81  O   UNL     1     -16.154   4.670  -9.643  1.00  0.00    -0.237 OA
ATOM     82  O   UNL     1     -14.739   6.600 -10.243  1.00  0.00    -0.744 OA
ENDBRANCH  78  79
ENDBRANCH  57  71
BRANCH  58  83
ATOM     83  C   UNL     1     -12.733   7.840   4.594  1.00  0.00     0.058 A 
ATOM     84  C   UNL     1     -13.668   7.470   5.573  1.00  0.00     0.135 A 
ATOM     85  C   UNL     1     -11.581   8.522   5.017  1.00  0.00     0.135 A 
ATOM     86  F   UNL     1     -14.790   6.827   5.219  1.00  0.00    -0.206 F 
ATOM     87  C   UNL     1     -13.480   7.784   6.916  1.00  0.00     0.059 A 
ATOM     88  C   UNL     1     -11.357   8.822   6.357  1.00  0.00     0.059 A 
ATOM     89  F   UNL     1     -10.650   8.889   4.122  1.00  0.00    -0.206 F 
ATOM     90  C   UNL     1     -12.320   8.460   7.298  1.00  0.00     0.060 A 
BRANCH  90  91
ATOM     91  S   UNL     1     -12.068   8.833   9.046  1.00  0.00     0.124 S 
ATOM     92  O   UNL     1     -13.016   9.921   9.254  1.00  0.00    -0.237 OA
ATOM     93  O   UNL     1     -12.402   7.563   9.682  1.00  0.00    -0.237 OA
ATOM     94  O   UNL     1     -10.657   9.204   9.109  1.00  0.00    -0.744 OA
ENDBRANCH  90  91
ENDBRANCH  58  83
BRANCH  70  95
ATOM     95  C   UNL     1     -17.378  10.105  -0.098  1.00  0.00     0.058 A 
ATOM     96  C   UNL     1     -17.204  11.492   0.027  1.00  0.00     0.135 A 
ATOM     97  C   UNL     1     -18.691   9.615  -0.192  1.00  0.00     0.135 A 
ATOM     98  F   UNL     1     -15.970  12.012   0.126  1.00  0.00    -0.206 F 
ATOM     99  C   UNL     1     -18.291  12.358   0.080  1.00  0.00     0.059 A 
ATOM    100  C   UNL     1     -19.792  10.465  -0.170  1.00  0.00     0.059 A 
ATOM    101  F   UNL     1     -18.913   8.298  -0.325  1.00  0.00    -0.206 F 
ATOM    102  C   UNL     1     -19.582  11.835  -0.022  1.00  0.00     0.060 A 
BRANCH 102 103
ATOM    103  S   UNL     1     -20.983  12.973   0.014  1.00  0.00     0.124 S 
ATOM    104  O   UNL     1     -21.027  13.341   1.425  1.00  0.00    -0.237 OA
ATOM    105  O   UNL     1     -20.556  14.025  -0.903  1.00  0.00    -0.237 OA
ATOM    106  O   UNL     1     -22.098  12.155  -0.456  1.00  0.00    -0.744 OA
ENDBRANCH 102 103
ENDBRANCH  70  95
ENDBRANCH  44  45
ENDBRANCH  37  39
ENDBRANCH  36  37
ENDBRANCH  35  36
ENDBRANCH  34  35
ENDBRANCH   1  34
TORSDOF 22
