REMARK SMILES O=C(Cn1nc(C(=O)OCCOCCOC(=O)c2ccc(-c3c4nc(c(-c5c(F)cc(S(=O)(=O)[O-])cc5F)c5ccc([nH]5)c(-c5c(F)cc(S(=O)(=O)[O-])cc5F)c5nc(c(-c6c(F)cc(S(=O)(=O)[O-])cc6F)c6ccc3[nH]6)C=C5)C=C4)cc2)c2ccccc2c1=O)Nc1ccc2c(c1)C(=O)c1ccccc1C2=O
REMARK SMILES IDX 12 1 11 2 10 3 9 4 7 5 8 6 6 7 4 8 5 9 90 10 89 11 91 12
REMARK SMILES IDX 84 13 88 14 85 15 87 16 86 17 3 18 2 19 1 20 92 21 93 23
REMARK SMILES IDX 94 24 98 25 95 26 97 27 96 28 99 29 107 30 100 31 101 32
REMARK SMILES IDX 106 33 108 34 102 35 105 36 103 37 104 38 13 39 14 40 15 41
REMARK SMILES IDX 16 42 17 43 18 44 19 45 83 46 20 47 82 48 21 49 22 50 23 51
REMARK SMILES IDX 76 52 24 53 81 54 75 55 77 56 25 57 80 58 74 59 73 60 26 62
REMARK SMILES IDX 60 63 39 64 59 65 40 66 43 67 58 68 78 69 41 70 42 71 57 73
REMARK SMILES IDX 79 74 44 75 27 76 28 77 37 78 29 79 30 80 36 81 38 82 31 83
REMARK SMILES IDX 32 84 33 85 34 86 35 87 61 88 62 89 71 90 63 91 64 92 70 93
REMARK SMILES IDX 72 94 65 95 66 96 67 97 68 98 69 99 45 100 46 101 55 102
REMARK SMILES IDX 47 103 48 104 54 105 56 106 49 107 50 108 51 109 52 110
REMARK SMILES IDX 53 111
REMARK H PARENT 92 22 77 61 43 72
REMARK Flexibility Score: inf
ROOT
ATOM      1  O   UNL     1       7.176   0.224  -6.696  1.00  0.00    -0.374 OA
ENDROOT
BRANCH   1   2
ATOM      2  C   UNL     1       7.701  -1.004  -6.173  1.00  0.00     0.202 C 
BRANCH   2   3
ATOM      3  C   UNL     1       8.180  -0.849  -4.728  1.00  0.00     0.261 C 
BRANCH   3   4
ATOM      4  O   UNL     1       7.023  -0.675  -3.898  1.00  0.00    -0.458 OA
BRANCH   4   5
ATOM      5  C   UNL     1       7.166   0.138  -2.836  1.00  0.00     0.359 C 
ATOM      6  O   UNL     1       8.184   0.602  -2.358  1.00  0.00    -0.244 OA
BRANCH   5   7
ATOM      7  C   UNL     1       5.779   0.629  -2.464  1.00  0.00     0.176 A 
ATOM      8  N   UNL     1       3.666   0.189  -1.643  1.00  0.00    -0.219 N 
ATOM      9  N   UNL     1       4.973  -0.200  -1.864  1.00  0.00    -0.161 NA
ATOM     10  C   UNL     1       3.144   1.409  -2.075  1.00  0.00     0.275 A 
ATOM     11  C   UNL     1       4.097   2.384  -2.629  1.00  0.00     0.051 A 
ATOM     12  O   UNL     1       1.957   1.708  -2.002  1.00  0.00    -0.267 OA
ATOM     13  C   UNL     1       5.408   1.997  -2.866  1.00  0.00     0.022 A 
ATOM     14  C   UNL     1       3.674   3.682  -2.948  1.00  0.00     0.014 A 
ATOM     15  C   UNL     1       6.299   2.894  -3.473  1.00  0.00     0.011 A 
ATOM     16  C   UNL     1       4.566   4.581  -3.533  1.00  0.00     0.001 A 
ATOM     17  C   UNL     1       5.873   4.183  -3.807  1.00  0.00     0.001 A 
BRANCH   8  18
ATOM     18  C   UNL     1       2.722  -0.854  -1.203  1.00  0.00     0.248 C 
BRANCH  18  19
ATOM     19  C   UNL     1       1.932  -0.444   0.046  1.00  0.00     0.246 C 
ATOM     20  O   UNL     1       0.789  -0.838   0.269  1.00  0.00    -0.273 OA
ATOM     21  N   UNL     1       2.688   0.247   0.970  1.00  0.00    -0.324 N 
ATOM     22  H   UNL     1       3.659   0.088   0.993  1.00  0.00     0.169 HD
BRANCH  21  23
ATOM     23  C   UNL     1       2.141   1.165   1.877  1.00  0.00     0.042 A 
ATOM     24  C   UNL     1       2.380   0.968   3.240  1.00  0.00     0.027 A 
ATOM     25  C   UNL     1       1.816   2.432   1.387  1.00  0.00     0.039 A 
ATOM     26  C   UNL     1       2.408   2.057   4.112  1.00  0.00     0.015 A 
ATOM     27  C   UNL     1       1.941   3.525   2.239  1.00  0.00     0.036 A 
ATOM     28  C   UNL     1       2.289   3.341   3.579  1.00  0.00     0.034 A 
ATOM     29  C   UNL     1       2.056   4.869   1.642  1.00  0.00     0.194 C 
ATOM     30  C   UNL     1       2.857   4.485   4.325  1.00  0.00     0.194 C 
ATOM     31  O   UNL     1       1.399   5.219   0.674  1.00  0.00    -0.289 OA
ATOM     32  C   UNL     1       3.145   5.700   2.183  1.00  0.00     0.034 A 
ATOM     33  C   UNL     1       3.560   5.494   3.500  1.00  0.00     0.034 A 
ATOM     34  O   UNL     1       2.877   4.524   5.546  1.00  0.00    -0.289 OA
ATOM     35  C   UNL     1       3.864   6.540   1.330  1.00  0.00     0.013 A 
ATOM     36  C   UNL     1       4.718   6.110   3.972  1.00  0.00     0.013 A 
ATOM     37  C   UNL     1       5.039   7.131   1.792  1.00  0.00     0.001 A 
ATOM     38  C   UNL     1       5.468   6.911   3.106  1.00  0.00     0.001 A 
ENDBRANCH  21  23
ENDBRANCH  18  19
ENDBRANCH   8  18
ENDBRANCH   5   7
ENDBRANCH   4   5
ENDBRANCH   3   4
ENDBRANCH   2   3
ENDBRANCH   1   2
BRANCH   1  39
ATOM     39  C   UNL     1       5.769   0.426  -6.513  1.00  0.00     0.202 C 
BRANCH  39  40
ATOM     40  C   UNL     1       4.909  -0.229  -7.598  1.00  0.00     0.261 C 
BRANCH  40  41
ATOM     41  O   UNL     1       4.760  -1.632  -7.321  1.00  0.00    -0.460 OA
BRANCH  41  42
ATOM     42  C   UNL     1       5.329  -2.478  -8.214  1.00  0.00     0.338 C 
ATOM     43  O   UNL     1       5.853  -2.173  -9.272  1.00  0.00    -0.246 OA
BRANCH  42  44
ATOM     44  C   UNL     1       5.381  -3.844  -7.639  1.00  0.00     0.060 A 
ATOM     45  C   UNL     1       4.411  -4.325  -6.752  1.00  0.00     0.016 A 
ATOM     46  C   UNL     1       6.458  -4.660  -8.009  1.00  0.00     0.016 A 
ATOM     47  C   UNL     1       4.509  -5.630  -6.256  1.00  0.00     0.010 A 
ATOM     48  C   UNL     1       6.557  -5.959  -7.510  1.00  0.00     0.010 A 
ATOM     49  C   UNL     1       5.575  -6.457  -6.642  1.00  0.00    -0.014 A 
BRANCH  49  50
ATOM     50  C   UNL     1       5.608  -7.884  -6.246  1.00  0.00     0.031 A 
ATOM     51  C   UNL     1       6.417  -8.352  -5.074  1.00  0.00     0.074 A 
ATOM     52  C   UNL     1       4.922  -8.769  -6.993  1.00  0.00     0.049 A 
ATOM     53  N   UNL     1       6.534  -9.562  -4.590  1.00  0.00    -0.248 NA
ATOM     54  C   UNL     1       7.199  -7.335  -4.357  1.00  0.00     0.031 C 
ATOM     55  C   UNL     1       4.123  -8.431  -8.173  1.00  0.00     0.029 A 
ATOM     56  N   UNL     1       4.793 -10.128  -6.878  1.00  0.00    -0.354 N 
ATOM     57  C   UNL     1       7.382  -9.454  -3.497  1.00  0.00     0.074 A 
ATOM     58  C   UNL     1       7.783  -8.063  -3.413  1.00  0.00     0.031 C 
ATOM     59  C   UNL     1       3.584  -9.555  -8.672  1.00  0.00     0.029 A 
ATOM     60  C   UNL     1       4.005 -10.688  -7.854  1.00  0.00     0.049 A 
ATOM     61  H   UNL     1       5.224 -10.653  -6.165  1.00  0.00     0.167 HD
ATOM     62  C   UNL     1       7.776 -10.424  -2.637  1.00  0.00     0.037 A 
ATOM     63  C   UNL     1       3.657 -11.971  -8.063  1.00  0.00     0.037 A 
ATOM     64  C   UNL     1       7.390 -11.808  -2.735  1.00  0.00     0.049 A 
ATOM     65  C   UNL     1       4.140 -13.033  -7.121  1.00  0.00     0.074 A 
ATOM     66  C   UNL     1       7.709 -12.855  -1.886  1.00  0.00     0.029 A 
ATOM     67  N   UNL     1       6.611 -12.344  -3.749  1.00  0.00    -0.354 N 
ATOM     68  N   UNL     1       4.895 -12.904  -6.056  1.00  0.00    -0.248 NA
ATOM     69  C   UNL     1       3.722 -14.413  -7.403  1.00  0.00     0.031 C 
ATOM     70  C   UNL     1       7.145 -14.028  -2.402  1.00  0.00     0.029 A 
ATOM     71  C   UNL     1       6.454 -13.707  -3.559  1.00  0.00     0.049 A 
ATOM     72  H   UNL     1       6.225 -11.831  -4.496  1.00  0.00     0.167 HD
ATOM     73  C   UNL     1       5.029 -14.183  -5.531  1.00  0.00     0.074 A 
ATOM     74  C   UNL     1       4.275 -15.072  -6.393  1.00  0.00     0.031 C 
ATOM     75  C   UNL     1       5.711 -14.582  -4.431  1.00  0.00     0.037 A 
BRANCH  62  76
ATOM     76  C   UNL     1       8.661 -10.018  -1.496  1.00  0.00     0.058 A 
ATOM     77  C   UNL     1       8.134  -9.369  -0.368  1.00  0.00     0.135 A 
ATOM     78  C   UNL     1      10.030 -10.324  -1.499  1.00  0.00     0.135 A 
ATOM     79  F   UNL     1       6.832  -9.045  -0.323  1.00  0.00    -0.206 F 
ATOM     80  C   UNL     1       8.938  -9.023   0.712  1.00  0.00     0.059 A 
ATOM     81  C   UNL     1      10.851  -9.998  -0.423  1.00  0.00     0.059 A 
ATOM     82  F   UNL     1      10.582 -10.942  -2.555  1.00  0.00    -0.206 F 
ATOM     83  C   UNL     1      10.297  -9.338   0.674  1.00  0.00     0.060 A 
BRANCH  83  84
ATOM     84  S   UNL     1      11.329  -8.882   2.083  1.00  0.00     0.124 S 
ATOM     85  O   UNL     1      11.489  -7.447   1.871  1.00  0.00    -0.237 OA
ATOM     86  O   UNL     1      10.498  -9.265   3.220  1.00  0.00    -0.237 OA
ATOM     87  O   UNL     1      12.535  -9.683   1.894  1.00  0.00    -0.744 OA
ENDBRANCH  83  84
ENDBRANCH  62  76
BRANCH  63  88
ATOM     88  C   UNL     1       2.769 -12.306  -9.201  1.00  0.00     0.058 A 
ATOM     89  C   UNL     1       1.405 -12.550  -8.992  1.00  0.00     0.135 A 
ATOM     90  C   UNL     1       3.253 -12.339 -10.517  1.00  0.00     0.135 A 
ATOM     91  F   UNL     1       0.903 -12.528  -7.747  1.00  0.00    -0.206 F 
ATOM     92  C   UNL     1       0.546 -12.816 -10.051  1.00  0.00     0.059 A 
ATOM     93  C   UNL     1       2.410 -12.591 -11.594  1.00  0.00     0.059 A 
ATOM     94  F   UNL     1       4.550 -12.096 -10.762  1.00  0.00    -0.206 F 
ATOM     95  C   UNL     1       1.058 -12.832 -11.350  1.00  0.00     0.060 A 
BRANCH  95  96
ATOM     96  S   UNL     1      -0.077 -13.106 -12.728  1.00  0.00     0.124 S 
ATOM     97  O   UNL     1      -0.255 -14.552 -12.677  1.00  0.00    -0.237 OA
ATOM     98  O   UNL     1      -1.235 -12.305 -12.340  1.00  0.00    -0.237 OA
ATOM     99  O   UNL     1       0.667 -12.598 -13.877  1.00  0.00    -0.744 OA
ENDBRANCH  95  96
ENDBRANCH  63  88
BRANCH  75 100
ATOM    100  C   UNL     1       5.671 -16.042  -4.093  1.00  0.00     0.058 A 
ATOM    101  C   UNL     1       6.483 -16.967  -4.767  1.00  0.00     0.135 A 
ATOM    102  C   UNL     1       4.849 -16.516  -3.059  1.00  0.00     0.135 A 
ATOM    103  F   UNL     1       7.279 -16.562  -5.769  1.00  0.00    -0.206 F 
ATOM    104  C   UNL     1       6.474 -18.317  -4.433  1.00  0.00     0.059 A 
ATOM    105  C   UNL     1       4.834 -17.860  -2.699  1.00  0.00     0.059 A 
ATOM    106  F   UNL     1       4.057 -15.668  -2.383  1.00  0.00    -0.206 F 
ATOM    107  C   UNL     1       5.645 -18.754  -3.398  1.00  0.00     0.060 A 
BRANCH 107 108
ATOM    108  S   UNL     1       5.667 -20.502  -2.944  1.00  0.00     0.124 S 
ATOM    109  O   UNL     1       4.825 -21.085  -3.984  1.00  0.00    -0.237 OA
ATOM    110  O   UNL     1       7.087 -20.831  -3.021  1.00  0.00    -0.237 OA
ATOM    111  O   UNL     1       5.101 -20.508  -1.599  1.00  0.00    -0.744 OA
ENDBRANCH 107 108
ENDBRANCH  75 100
ENDBRANCH  49  50
ENDBRANCH  42  44
ENDBRANCH  41  42
ENDBRANCH  40  41
ENDBRANCH  39  40
ENDBRANCH   1  39
TORSDOF 20
