REMARK SMILES CC[C@H](CNC(=O)[C@H]1CSc2ccccc21)C(=O)OCCOCCOC(=O)c1ccc(-c2c3nc(c(-c4c(F)cc(S(=O)(=O)[O-])cc4F)c4ccc([nH]4)c(-c4c(F)cc(S(=O)(=O)[O-])cc4F)c4nc(c(-c5c(F)cc(S(=O)(=O)[O-])cc5F)c5ccc2[nH]5)C=C4)C=C3)cc1
REMARK SMILES IDX 22 1 21 2 20 3 19 4 17 5 18 6 3 7 2 8 1 9 4 10 5 11 6 12
REMARK SMILES IDX 7 14 8 15 9 16 16 17 10 18 11 19 15 20 12 21 14 22 13 23
REMARK SMILES IDX 23 24 24 25 25 26 26 27 27 28 28 29 29 30 93 31 30 32 92 33
REMARK SMILES IDX 31 34 32 35 33 36 86 37 34 38 91 39 85 40 87 41 35 42 90 43
REMARK SMILES IDX 84 44 83 45 36 47 70 48 49 49 69 50 50 51 53 52 68 53 88 54
REMARK SMILES IDX 51 55 52 56 67 58 89 59 54 60 37 61 38 62 47 63 39 64 40 65
REMARK SMILES IDX 46 66 48 67 41 68 42 69 43 70 44 71 45 72 71 73 72 74 81 75
REMARK SMILES IDX 73 76 74 77 80 78 82 79 75 80 76 81 77 82 78 83 79 84 55 85
REMARK SMILES IDX 56 86 65 87 57 88 58 89 64 90 66 91 59 92 60 93 61 94 62 95
REMARK SMILES IDX 63 96
REMARK H PARENT 5 13 87 46 53 57
REMARK Flexibility Score: inf
ROOT
ATOM      1  O   UNL     1       0.699   4.273  -4.838  1.00  0.00    -0.374 OA
ENDROOT
BRANCH   1   2
ATOM      2  C   UNL     1      -0.588   3.755  -5.152  1.00  0.00     0.202 C 
BRANCH   2   3
ATOM      3  C   UNL     1      -0.776   2.236  -5.061  1.00  0.00     0.261 C 
BRANCH   3   4
ATOM      4  O   UNL     1      -0.414   1.638  -3.802  1.00  0.00    -0.463 OA
BRANCH   4   5
ATOM      5  C   UNL     1       0.782   0.989  -3.812  1.00  0.00     0.310 C 
ATOM      6  O   UNL     1       1.592   1.037  -4.734  1.00  0.00    -0.252 OA
BRANCH   5   7
ATOM      7  C   UNL     1       1.001   0.065  -2.629  1.00  0.00     0.118 C 
BRANCH   7   8
ATOM      8  C   UNL     1       0.522  -1.355  -3.002  1.00  0.00     0.014 C 
ATOM      9  C   UNL     1      -0.939  -1.445  -3.441  1.00  0.00     0.005 C 
ENDBRANCH   7   8
BRANCH   7  10
ATOM     10  C   UNL     1       0.478   0.457  -1.245  1.00  0.00     0.131 C 
BRANCH  10  11
ATOM     11  N   UNL     1       0.561   1.848  -0.878  1.00  0.00    -0.355 N 
ATOM     12  C   UNL     1      -0.314   2.659  -0.230  1.00  0.00     0.228 C 
ATOM     13  H   UNL     1       1.401   2.288  -1.143  1.00  0.00     0.163 HD
ATOM     14  O   UNL     1       0.180   3.718   0.189  1.00  0.00    -0.274 OA
BRANCH  12  15
ATOM     15  C   UNL     1      -1.804   2.383   0.015  1.00  0.00     0.120 C 
ATOM     16  C   UNL     1      -2.577   1.329  -0.778  1.00  0.00     0.093 C 
ATOM     17  C   UNL     1      -2.127   2.139   1.472  1.00  0.00    -0.021 A 
ATOM     18  S   UNL     1      -2.751  -0.138   0.305  1.00  0.00    -0.125 SA
ATOM     19  C   UNL     1      -2.559   0.844   1.760  1.00  0.00     0.011 A 
ATOM     20  C   UNL     1      -2.053   3.093   2.484  1.00  0.00     0.006 A 
ATOM     21  C   UNL     1      -2.853   0.457   3.058  1.00  0.00     0.015 A 
ATOM     22  C   UNL     1      -2.380   2.723   3.789  1.00  0.00     0.000 A 
ATOM     23  C   UNL     1      -2.760   1.406   4.078  1.00  0.00     0.001 A 
ENDBRANCH  12  15
ENDBRANCH  10  11
ENDBRANCH   7  10
ENDBRANCH   5   7
ENDBRANCH   4   5
ENDBRANCH   3   4
ENDBRANCH   2   3
ENDBRANCH   1   2
BRANCH   1  24
ATOM     24  C   UNL     1       1.033   4.387  -3.454  1.00  0.00     0.202 C 
BRANCH  24  25
ATOM     25  C   UNL     1       0.238   5.424  -2.650  1.00  0.00     0.261 C 
BRANCH  25  26
ATOM     26  O   UNL     1      -1.124   4.999  -2.434  1.00  0.00    -0.460 OA
BRANCH  26  27
ATOM     27  C   UNL     1      -2.068   5.931  -2.706  1.00  0.00     0.338 C 
ATOM     28  O   UNL     1      -1.890   7.095  -3.043  1.00  0.00    -0.246 OA
BRANCH  27  29
ATOM     29  C   UNL     1      -3.393   5.292  -2.708  1.00  0.00     0.060 A 
ATOM     30  C   UNL     1      -3.980   4.858  -1.520  1.00  0.00     0.016 A 
ATOM     31  C   UNL     1      -4.092   5.193  -3.915  1.00  0.00     0.016 A 
ATOM     32  C   UNL     1      -5.254   4.284  -1.546  1.00  0.00     0.010 A 
ATOM     33  C   UNL     1      -5.391   4.679  -3.929  1.00  0.00     0.010 A 
ATOM     34  C   UNL     1      -5.992   4.230  -2.743  1.00  0.00    -0.014 A 
BRANCH  34  35
ATOM     35  C   UNL     1      -7.436   3.862  -2.722  1.00  0.00     0.031 A 
ATOM     36  C   UNL     1      -7.966   2.661  -3.454  1.00  0.00     0.074 A 
ATOM     37  C   UNL     1      -8.295   4.674  -2.071  1.00  0.00     0.049 A 
ATOM     38  N   UNL     1      -9.201   2.235  -3.549  1.00  0.00    -0.248 NA
ATOM     39  C   UNL     1      -6.991   1.843  -4.188  1.00  0.00     0.031 C 
ATOM     40  C   UNL     1      -7.918   5.899  -1.363  1.00  0.00     0.029 A 
ATOM     41  N   UNL     1      -9.653   4.595  -1.893  1.00  0.00    -0.354 N 
ATOM     42  C   UNL     1      -9.158   1.105  -4.357  1.00  0.00     0.074 A 
ATOM     43  C   UNL     1      -7.775   0.934  -4.756  1.00  0.00     0.031 C 
ATOM     44  C   UNL     1      -9.007   6.430  -0.790  1.00  0.00     0.029 A 
ATOM     45  C   UNL     1     -10.170   5.619  -1.135  1.00  0.00     0.049 A 
ATOM     46  H   UNL     1     -10.206   3.873  -2.273  1.00  0.00     0.167 HD
ATOM     47  C   UNL     1     -10.173   0.283  -4.722  1.00  0.00     0.037 A 
ATOM     48  C   UNL     1     -11.435   5.890  -0.761  1.00  0.00     0.037 A 
ATOM     49  C   UNL     1     -11.548   0.455  -4.320  1.00  0.00     0.049 A 
ATOM     50  C   UNL     1     -12.544   4.976  -1.190  1.00  0.00     0.074 A 
ATOM     51  C   UNL     1     -12.633  -0.361  -4.596  1.00  0.00     0.029 A 
ATOM     52  N   UNL     1     -12.033   1.517  -3.570  1.00  0.00    -0.354 N 
ATOM     53  N   UNL     1     -12.474   3.882  -1.909  1.00  0.00    -0.248 NA
ATOM     54  C   UNL     1     -13.903   5.335  -0.763  1.00  0.00     0.031 C 
ATOM     55  C   UNL     1     -13.779   0.232  -4.056  1.00  0.00     0.029 A 
ATOM     56  C   UNL     1     -13.404   1.393  -3.400  1.00  0.00     0.049 A 
ATOM     57  H   UNL     1     -11.485   2.251  -3.211  1.00  0.00     0.167 HD
ATOM     58  C   UNL     1     -13.779   3.416  -2.017  1.00  0.00     0.074 A 
ATOM     59  C   UNL     1     -14.615   4.338  -1.274  1.00  0.00     0.031 C 
ATOM     60  C   UNL     1     -14.237   2.323  -2.675  1.00  0.00     0.037 A 
BRANCH  47  61
ATOM     61  C   UNL     1      -9.837  -0.883  -5.614  1.00  0.00     0.058 A 
ATOM     62  C   UNL     1      -9.107  -1.986  -5.141  1.00  0.00     0.135 A 
ATOM     63  C   UNL     1     -10.279  -0.917  -6.947  1.00  0.00     0.135 A 
ATOM     64  F   UNL     1      -8.654  -2.005  -3.877  1.00  0.00    -0.206 F 
ATOM     65  C   UNL     1      -8.793  -3.060  -5.967  1.00  0.00     0.059 A 
ATOM     66  C   UNL     1      -9.998  -1.993  -7.785  1.00  0.00     0.059 A 
ATOM     67  F   UNL     1     -10.987   0.106  -7.450  1.00  0.00    -0.206 F 
ATOM     68  C   UNL     1      -9.238  -3.051  -7.290  1.00  0.00     0.060 A 
BRANCH  68  69
ATOM     69  S   UNL     1      -8.793  -4.439  -8.357  1.00  0.00     0.124 S 
ATOM     70  O   UNL     1      -7.367  -4.202  -8.560  1.00  0.00    -0.237 OA
ATOM     71  O   UNL     1      -9.131  -5.591  -7.527  1.00  0.00    -0.237 OA
ATOM     72  O   UNL     1      -9.635  -4.249  -9.534  1.00  0.00    -0.744 OA
ENDBRANCH  68  69
ENDBRANCH  47  61
BRANCH  48  73
ATOM     73  C   UNL     1     -11.693   7.076   0.095  1.00  0.00     0.058 A 
ATOM     74  C   UNL     1     -11.975   6.924   1.459  1.00  0.00     0.135 A 
ATOM     75  C   UNL     1     -11.564   8.381  -0.409  1.00  0.00     0.135 A 
ATOM     76  F   UNL     1     -12.115   5.696   1.982  1.00  0.00    -0.206 F 
ATOM     77  C   UNL     1     -12.103   8.023   2.301  1.00  0.00     0.059 A 
ATOM     78  C   UNL     1     -11.665   9.495   0.418  1.00  0.00     0.059 A 
ATOM     79  F   UNL     1     -11.278   8.575  -1.706  1.00  0.00    -0.206 F 
ATOM     80  C   UNL     1     -11.929   9.304   1.774  1.00  0.00     0.060 A 
BRANCH  80  81
ATOM     81  S   UNL     1     -11.981  10.714   2.901  1.00  0.00     0.124 S 
ATOM     82  O   UNL     1     -13.398  10.768   3.241  1.00  0.00    -0.237 OA
ATOM     83  O   UNL     1     -11.085  10.282   3.969  1.00  0.00    -0.237 OA
ATOM     84  O   UNL     1     -11.485  11.817   2.084  1.00  0.00    -0.744 OA
ENDBRANCH  80  81
ENDBRANCH  48  73
BRANCH  60  85
ATOM     85  C   UNL     1     -15.717   2.057  -2.631  1.00  0.00     0.058 A 
ATOM     86  C   UNL     1     -16.623   2.829  -3.374  1.00  0.00     0.135 A 
ATOM     87  C   UNL     1     -16.229   0.982  -1.886  1.00  0.00     0.135 A 
ATOM     88  F   UNL     1     -16.187   3.875  -4.095  1.00  0.00    -0.206 F 
ATOM     89  C   UNL     1     -17.987   2.553  -3.372  1.00  0.00     0.059 A 
ATOM     90  C   UNL     1     -17.586   0.673  -1.888  1.00  0.00     0.059 A 
ATOM     91  F   UNL     1     -15.405   0.208  -1.161  1.00  0.00    -0.206 F 
ATOM     92  C   UNL     1     -18.458   1.469  -2.629  1.00  0.00     0.060 A 
BRANCH  92  93
ATOM     93  S   UNL     1     -20.225   1.095  -2.673  1.00  0.00     0.124 S 
ATOM     94  O   UNL     1     -20.778   2.192  -1.884  1.00  0.00    -0.237 OA
ATOM     95  O   UNL     1     -20.515   1.133  -4.103  1.00  0.00    -0.237 OA
ATOM     96  O   UNL     1     -20.309  -0.226  -2.056  1.00  0.00    -0.744 OA
ENDBRANCH  92  93
ENDBRANCH  60  85
ENDBRANCH  34  35
ENDBRANCH  27  29
ENDBRANCH  26  27
ENDBRANCH  25  26
ENDBRANCH  24  25
ENDBRANCH   1  24
TORSDOF 21
