REMARK SMILES C[C@H](NC(=O)c1cc(S(=O)(=O)N(C)C)cs1)C(=O)OCCOCCOC(=O)c1ccc(-c2c3nc(c(-c4c(F)cc(S(=O)(=O)[O-])cc4F)c4ccc([nH]4)c(-c4c(F)cc(S(=O)(=O)[O-])cc4F)c4nc(c(-c5c(F)cc(S(=O)(=O)[O-])cc5F)c5ccc2[nH]5)C=C4)C=C3)cc1
REMARK SMILES IDX 21 1 20 2 19 3 17 4 18 5 2 6 1 7 3 8 4 9 5 11 6 12 7 13
REMARK SMILES IDX 16 14 8 15 15 16 9 17 10 18 11 19 12 20 13 21 14 22 22 23
REMARK SMILES IDX 23 24 24 25 25 26 26 27 27 28 28 29 29 30 93 31 30 32 92 33
REMARK SMILES IDX 31 34 32 35 33 36 86 37 34 38 91 39 85 40 87 41 35 42 90 43
REMARK SMILES IDX 84 44 83 45 36 47 70 48 49 49 69 50 50 51 53 52 68 53 88 54
REMARK SMILES IDX 51 55 52 56 67 58 89 59 54 60 37 61 38 62 47 63 39 64 40 65
REMARK SMILES IDX 46 66 48 67 41 68 42 69 43 70 44 71 45 72 71 73 72 74 81 75
REMARK SMILES IDX 73 76 74 77 80 78 82 79 75 80 76 81 77 82 78 83 79 84 55 85
REMARK SMILES IDX 56 86 65 87 57 88 58 89 64 90 66 91 59 92 60 93 61 94 62 95
REMARK SMILES IDX 63 96
REMARK H PARENT 3 10 87 46 53 57
REMARK Flexibility Score: inf
ROOT
ATOM      1  C   UNL     1      -3.607  -0.584   0.206  1.00  0.00     0.202 C 
ENDROOT
BRANCH   1   2
ATOM      2  C   UNL     1      -2.912  -1.734   0.936  1.00  0.00     0.261 C 
BRANCH   2   3
ATOM      3  O   UNL     1      -1.489  -1.511   0.969  1.00  0.00    -0.462 OA
BRANCH   3   4
ATOM      4  C   UNL     1      -0.740  -2.634   1.119  1.00  0.00     0.328 C 
ATOM      5  O   UNL     1      -1.198  -3.747   1.351  1.00  0.00    -0.250 OA
BRANCH   4   6
ATOM      6  C   UNL     1       0.768  -2.357   1.026  1.00  0.00     0.189 C 
ATOM      7  C   UNL     1       1.386  -2.566   2.402  1.00  0.00     0.043 C 
BRANCH   6   8
ATOM      8  N   UNL     1       1.171  -1.032   0.530  1.00  0.00    -0.338 N 
ATOM      9  C   UNL     1       1.834  -0.733  -0.636  1.00  0.00     0.262 C 
ATOM     10  H   UNL     1       0.936  -0.267   1.103  1.00  0.00     0.164 HD
ATOM     11  O   UNL     1       2.251   0.409  -0.811  1.00  0.00    -0.268 OA
BRANCH   9  12
ATOM     12  C   UNL     1       1.918  -1.768  -1.639  1.00  0.00     0.093 A 
ATOM     13  C   UNL     1       0.910  -2.182  -2.479  1.00  0.00     0.047 A 
ATOM     14  S   UNL     1       3.366  -2.628  -1.915  1.00  0.00    -0.137 S 
ATOM     15  C   UNL     1       1.316  -3.237  -3.338  1.00  0.00     0.094 A 
ATOM     16  C   UNL     1       2.625  -3.608  -3.119  1.00  0.00     0.087 A 
BRANCH  15  17
ATOM     17  S   UNL     1       0.242  -3.987  -4.472  1.00  0.00     0.243 S 
ATOM     18  O   UNL     1       0.976  -3.997  -5.718  1.00  0.00    -0.207 OA
ATOM     19  O   UNL     1      -0.145  -5.203  -3.792  1.00  0.00    -0.207 OA
BRANCH  17  20
ATOM     20  N   UNL     1      -1.124  -2.980  -4.643  1.00  0.00    -0.204 NA
ATOM     21  C   UNL     1      -0.913  -1.755  -5.444  1.00  0.00     0.124 C 
ATOM     22  C   UNL     1      -2.364  -3.686  -5.023  1.00  0.00     0.124 C 
ENDBRANCH  17  20
ENDBRANCH  15  17
ENDBRANCH   9  12
ENDBRANCH   6   8
ENDBRANCH   4   6
ENDBRANCH   3   4
ENDBRANCH   2   3
ENDBRANCH   1   2
BRANCH   1  23
ATOM     23  O   UNL     1      -3.374  -0.557  -1.208  1.00  0.00    -0.374 OA
BRANCH  23  24
ATOM     24  C   UNL     1      -2.100  -0.074  -1.626  1.00  0.00     0.202 C 
BRANCH  24  25
ATOM     25  C   UNL     1      -1.974   1.443  -1.785  1.00  0.00     0.261 C 
BRANCH  25  26
ATOM     26  O   UNL     1      -2.300   2.137  -0.574  1.00  0.00    -0.460 OA
BRANCH  26  27
ATOM     27  C   UNL     1      -3.518   2.732  -0.593  1.00  0.00     0.338 C 
ATOM     28  O   UNL     1      -4.271   2.830  -1.548  1.00  0.00    -0.246 OA
BRANCH  27  29
ATOM     29  C   UNL     1      -3.914   3.122   0.774  1.00  0.00     0.060 A 
ATOM     30  C   UNL     1      -5.230   2.838   1.154  1.00  0.00     0.016 A 
ATOM     31  C   UNL     1      -3.050   3.788   1.649  1.00  0.00     0.016 A 
ATOM     32  C   UNL     1      -5.707   3.274   2.386  1.00  0.00     0.010 A 
ATOM     33  C   UNL     1      -3.533   4.231   2.887  1.00  0.00     0.010 A 
ATOM     34  C   UNL     1      -4.874   4.008   3.241  1.00  0.00    -0.014 A 
BRANCH  34  35
ATOM     35  C   UNL     1      -5.482   4.656   4.427  1.00  0.00     0.031 A 
ATOM     36  C   UNL     1      -5.961   6.077   4.314  1.00  0.00     0.074 A 
ATOM     37  C   UNL     1      -5.690   3.957   5.556  1.00  0.00     0.049 A 
ATOM     38  N   UNL     1      -6.630   6.796   5.176  1.00  0.00    -0.248 NA
ATOM     39  C   UNL     1      -5.648   6.779   3.058  1.00  0.00     0.031 C 
ATOM     40  C   UNL     1      -5.279   2.571   5.781  1.00  0.00     0.029 A 
ATOM     41  N   UNL     1      -6.314   4.317   6.723  1.00  0.00    -0.354 N 
ATOM     42  C   UNL     1      -6.843   8.024   4.561  1.00  0.00     0.074 A 
ATOM     43  C   UNL     1      -6.190   7.970   3.270  1.00  0.00     0.031 C 
ATOM     44  C   UNL     1      -5.660   2.199   7.016  1.00  0.00     0.029 A 
ATOM     45  C   UNL     1      -6.341   3.318   7.665  1.00  0.00     0.049 A 
ATOM     46  H   UNL     1      -6.704   5.208   6.872  1.00  0.00     0.167 HD
ATOM     47  C   UNL     1      -7.536   9.092   5.019  1.00  0.00     0.037 A 
ATOM     48  C   UNL     1      -6.863   3.307   8.906  1.00  0.00     0.037 A 
ATOM     49  C   UNL     1      -8.168   9.155   6.310  1.00  0.00     0.049 A 
ATOM     50  C   UNL     1      -7.604   4.518   9.407  1.00  0.00     0.074 A 
ATOM     51  C   UNL     1      -8.880  10.199   6.874  1.00  0.00     0.029 A 
ATOM     52  N   UNL     1      -8.161   8.127   7.242  1.00  0.00    -0.354 N 
ATOM     53  N   UNL     1      -7.823   5.660   8.801  1.00  0.00    -0.248 NA
ATOM     54  C   UNL     1      -8.185   4.430  10.754  1.00  0.00     0.031 C 
ATOM     55  C   UNL     1      -9.282   9.812   8.159  1.00  0.00     0.029 A 
ATOM     56  C   UNL     1      -8.848   8.515   8.380  1.00  0.00     0.049 A 
ATOM     57  H   UNL     1      -7.731   7.251   7.113  1.00  0.00     0.167 HD
ATOM     58  C   UNL     1      -8.577   6.423   9.686  1.00  0.00     0.074 A 
ATOM     59  C   UNL     1      -8.794   5.604  10.862  1.00  0.00     0.031 C 
ATOM     60  C   UNL     1      -9.048   7.686   9.542  1.00  0.00     0.037 A 
BRANCH  47  61
ATOM     61  C   UNL     1      -7.641  10.282   4.110  1.00  0.00     0.058 A 
ATOM     62  C   UNL     1      -8.494  10.272   2.994  1.00  0.00     0.135 A 
ATOM     63  C   UNL     1      -6.899  11.446   4.359  1.00  0.00     0.135 A 
ATOM     64  F   UNL     1      -9.210   9.175   2.701  1.00  0.00    -0.206 F 
ATOM     65  C   UNL     1      -8.590  11.368   2.144  1.00  0.00     0.059 A 
ATOM     66  C   UNL     1      -6.994  12.562   3.532  1.00  0.00     0.059 A 
ATOM     67  F   UNL     1      -6.064  11.504   5.409  1.00  0.00    -0.206 F 
ATOM     68  C   UNL     1      -7.832  12.507   2.419  1.00  0.00     0.060 A 
BRANCH  68  69
ATOM     69  S   UNL     1      -7.963  13.923   1.306  1.00  0.00     0.124 S 
ATOM     70  O   UNL     1      -7.165  13.474   0.170  1.00  0.00    -0.237 OA
ATOM     71  O   UNL     1      -9.402  14.010   1.075  1.00  0.00    -0.237 OA
ATOM     72  O   UNL     1      -7.390  15.018   2.083  1.00  0.00    -0.744 OA
ENDBRANCH  68  69
ENDBRANCH  47  61
BRANCH  48  73
ATOM     73  C   UNL     1      -6.709   2.104   9.763  1.00  0.00     0.058 A 
ATOM     74  C   UNL     1      -7.793   1.258  10.037  1.00  0.00     0.135 A 
ATOM     75  C   UNL     1      -5.465   1.780  10.325  1.00  0.00     0.135 A 
ATOM     76  F   UNL     1      -9.003   1.533   9.527  1.00  0.00    -0.206 F 
ATOM     77  C   UNL     1      -7.654   0.139  10.851  1.00  0.00     0.059 A 
ATOM     78  C   UNL     1      -5.296   0.656  11.126  1.00  0.00     0.059 A 
ATOM     79  F   UNL     1      -4.395   2.552  10.080  1.00  0.00    -0.206 F 
ATOM     80  C   UNL     1      -6.400  -0.153  11.392  1.00  0.00     0.060 A 
BRANCH  80  81
ATOM     81  S   UNL     1      -6.209  -1.636  12.407  1.00  0.00     0.124 S 
ATOM     82  O   UNL     1      -6.743  -1.185  13.687  1.00  0.00    -0.237 OA
ATOM     83  O   UNL     1      -7.019  -2.613  11.685  1.00  0.00    -0.237 OA
ATOM     84  O   UNL     1      -4.770  -1.879  12.370  1.00  0.00    -0.744 OA
ENDBRANCH  80  81
ENDBRANCH  48  73
BRANCH  60  85
ATOM     85  C   UNL     1      -9.850   8.251  10.680  1.00  0.00     0.058 A 
ATOM     86  C   UNL     1      -9.236   8.675  11.868  1.00  0.00     0.135 A 
ATOM     87  C   UNL     1     -11.243   8.387  10.573  1.00  0.00     0.135 A 
ATOM     88  F   UNL     1      -7.907   8.562  12.019  1.00  0.00    -0.206 F 
ATOM     89  C   UNL     1      -9.980   9.186  12.927  1.00  0.00     0.059 A 
ATOM     90  C   UNL     1     -12.004   8.914  11.611  1.00  0.00     0.059 A 
ATOM     91  F   UNL     1     -11.876   8.006   9.452  1.00  0.00    -0.206 F 
ATOM     92  C   UNL     1     -11.365   9.295  12.791  1.00  0.00     0.060 A 
BRANCH  92  93
ATOM     93  S   UNL     1     -12.326   9.963  14.166  1.00  0.00     0.124 S 
ATOM     94  O   UNL     1     -12.429   8.800  15.042  1.00  0.00    -0.237 OA
ATOM     95  O   UNL     1     -11.477  11.047  14.650  1.00  0.00    -0.237 OA
ATOM     96  O   UNL     1     -13.570  10.387  13.533  1.00  0.00    -0.744 OA
ENDBRANCH  92  93
ENDBRANCH  60  85
ENDBRANCH  34  35
ENDBRANCH  27  29
ENDBRANCH  26  27
ENDBRANCH  25  26
ENDBRANCH  24  25
ENDBRANCH  23  24
ENDBRANCH   1  23
TORSDOF 21
