REMARK SMILES C[C@@H](C(=O)OCCOCCOC(=O)c1ccc(-c2c3nc(c(-c4c(F)cc(S(=O)(=O)[O-])cc4F)c4ccc([nH]4)c(-c4c(F)cc(S(=O)(=O)[O-])cc4F)c4nc(c(-c5c(F)cc(S(=O)(=O)[O-])cc5F)c5ccc2[nH]5)C=C4)C=C3)cc1)[C@@H](C)C(=O)c1ccc(Br)cc1
REMARK SMILES IDX 8 1 7 2 6 3 5 4 3 5 4 6 2 7 1 8 80 9 81 10 82 11 83 12 84 13
REMARK SMILES IDX 85 14 90 15 86 16 89 17 87 18 88 19 9 20 10 21 11 22 12 23
REMARK SMILES IDX 13 24 14 25 15 26 79 27 16 28 78 29 17 30 18 31 19 32 72 33
REMARK SMILES IDX 20 34 77 35 71 36 73 37 21 38 76 39 70 40 69 41 22 43 56 44
REMARK SMILES IDX 35 45 55 46 36 47 39 48 54 49 74 50 37 51 38 52 53 54 75 55
REMARK SMILES IDX 40 56 23 57 24 58 33 59 25 60 26 61 32 62 34 63 27 64 28 65
REMARK SMILES IDX 29 66 30 67 31 68 57 69 58 70 67 71 59 72 60 73 66 74 68 75
REMARK SMILES IDX 61 76 62 77 63 78 64 79 65 80 41 81 42 82 51 83 43 84 44 85
REMARK SMILES IDX 50 86 52 87 45 88 46 89 47 90 48 91 49 92
REMARK H PARENT 73 42 39 53
REMARK Flexibility Score: inf
ROOT
ATOM      1  O   UNL     1       0.668   0.870  -4.618  1.00  0.00    -0.374 OA
ENDROOT
BRANCH   1   2
ATOM      2  C   UNL     1       2.007   1.352  -4.578  1.00  0.00     0.202 C 
BRANCH   2   3
ATOM      3  C   UNL     1       2.440   2.216  -3.388  1.00  0.00     0.261 C 
BRANCH   3   4
ATOM      4  O   UNL     1       2.067   1.672  -2.112  1.00  0.00    -0.463 OA
BRANCH   4   5
ATOM      5  C   UNL     1       1.003   2.283  -1.529  1.00  0.00     0.309 C 
ATOM      6  O   UNL     1       0.445   3.267  -1.998  1.00  0.00    -0.252 OA
BRANCH   5   7
ATOM      7  C   UNL     1       0.590   1.647  -0.198  1.00  0.00     0.106 C 
ATOM      8  C   UNL     1       1.091   0.202  -0.023  1.00  0.00     0.021 C 
BRANCH   7   9
ATOM      9  C   UNL     1      -0.949   1.731  -0.021  1.00  0.00     0.072 C 
ATOM     10  C   UNL     1      -1.440   1.268   1.353  1.00  0.00     0.017 C 
BRANCH   9  11
ATOM     11  C   UNL     1      -1.721   3.020  -0.371  1.00  0.00     0.166 C 
ATOM     12  O   UNL     1      -2.791   2.902  -0.983  1.00  0.00    -0.294 OA
BRANCH  11  13
ATOM     13  C   UNL     1      -1.350   4.401   0.108  1.00  0.00     0.018 A 
ATOM     14  C   UNL     1      -2.333   5.401  -0.011  1.00  0.00     0.013 A 
ATOM     15  C   UNL     1      -0.100   4.773   0.610  1.00  0.00     0.013 A 
ATOM     16  C   UNL     1      -2.070   6.727   0.351  1.00  0.00     0.016 A 
ATOM     17  C   UNL     1       0.176   6.103   0.954  1.00  0.00     0.016 A 
ATOM     18  C   UNL     1      -0.810   7.073   0.825  1.00  0.00     0.018 A 
ATOM     19  Br  UNL     1      -0.432   8.865   1.286  1.00  0.00    -0.051 Br
ENDBRANCH  11  13
ENDBRANCH   9  11
ENDBRANCH   7   9
ENDBRANCH   5   7
ENDBRANCH   4   5
ENDBRANCH   3   4
ENDBRANCH   2   3
ENDBRANCH   1   2
BRANCH   1  20
ATOM     20  C   UNL     1       0.279  -0.148  -3.699  1.00  0.00     0.202 C 
BRANCH  20  21
ATOM     21  C   UNL     1       1.013  -1.494  -3.740  1.00  0.00     0.261 C 
BRANCH  21  22
ATOM     22  O   UNL     1       2.405  -1.385  -3.386  1.00  0.00    -0.460 OA
BRANCH  22  23
ATOM     23  C   UNL     1       3.260  -1.847  -4.329  1.00  0.00     0.338 C 
ATOM     24  O   UNL     1       2.965  -2.404  -5.383  1.00  0.00    -0.246 OA
BRANCH  23  25
ATOM     25  C   UNL     1       4.639  -1.426  -4.034  1.00  0.00     0.060 A 
ATOM     26  C   UNL     1       5.291  -0.629  -4.984  1.00  0.00     0.016 A 
ATOM     27  C   UNL     1       5.323  -1.899  -2.912  1.00  0.00     0.016 A 
ATOM     28  C   UNL     1       6.646  -0.342  -4.843  1.00  0.00     0.010 A 
ATOM     29  C   UNL     1       6.688  -1.619  -2.779  1.00  0.00     0.010 A 
ATOM     30  C   UNL     1       7.362  -0.873  -3.764  1.00  0.00    -0.014 A 
BRANCH  30  31
ATOM     31  C   UNL     1       8.843  -0.780  -3.764  1.00  0.00     0.031 A 
ATOM     32  C   UNL     1       9.646  -1.955  -4.255  1.00  0.00     0.074 A 
ATOM     33  C   UNL     1       9.461   0.350  -3.377  1.00  0.00     0.049 A 
ATOM     34  N   UNL     1      10.943  -2.099  -4.330  1.00  0.00    -0.248 NA
ATOM     35  C   UNL     1       8.882  -3.122  -4.726  1.00  0.00     0.031 C 
ATOM     36  C   UNL     1       8.789   1.566  -2.922  1.00  0.00     0.029 A 
ATOM     37  N   UNL     1      10.797   0.655  -3.304  1.00  0.00    -0.354 N 
ATOM     38  C   UNL     1      11.153  -3.369  -4.855  1.00  0.00     0.074 A 
ATOM     39  C   UNL     1       9.850  -3.966  -5.051  1.00  0.00     0.031 C 
ATOM     40  C   UNL     1       9.718   2.483  -2.603  1.00  0.00     0.029 A 
ATOM     41  C   UNL     1      11.048   1.910  -2.807  1.00  0.00     0.049 A 
ATOM     42  H   UNL     1      11.507   0.033  -3.582  1.00  0.00     0.167 HD
ATOM     43  C   UNL     1      12.325  -3.977  -5.156  1.00  0.00     0.037 A 
ATOM     44  C   UNL     1      12.218   2.519  -2.528  1.00  0.00     0.037 A 
ATOM     45  C   UNL     1      13.620  -3.379  -4.957  1.00  0.00     0.049 A 
ATOM     46  C   UNL     1      13.511   1.800  -2.812  1.00  0.00     0.074 A 
ATOM     47  C   UNL     1      14.866  -3.912  -5.235  1.00  0.00     0.029 A 
ATOM     48  N   UNL     1      13.834  -2.116  -4.426  1.00  0.00    -0.354 N 
ATOM     49  N   UNL     1      13.694   0.604  -3.320  1.00  0.00    -0.248 NA
ATOM     50  C   UNL     1      14.755   2.513  -2.490  1.00  0.00     0.031 C 
ATOM     51  C   UNL     1      15.836  -2.986  -4.834  1.00  0.00     0.029 A 
ATOM     52  C   UNL     1      15.193  -1.859  -4.349  1.00  0.00     0.049 A 
ATOM     53  H   UNL     1      13.125  -1.493  -4.146  1.00  0.00     0.167 HD
ATOM     54  C   UNL     1      15.072   0.431  -3.400  1.00  0.00     0.074 A 
ATOM     55  C   UNL     1      15.675   1.649  -2.897  1.00  0.00     0.031 C 
ATOM     56  C   UNL     1      15.776  -0.638  -3.850  1.00  0.00     0.037 A 
BRANCH  43  57
ATOM     57  C   UNL     1      12.260  -5.373  -5.710  1.00  0.00     0.058 A 
ATOM     58  C   UNL     1      11.826  -5.625  -7.022  1.00  0.00     0.135 A 
ATOM     59  C   UNL     1      12.658  -6.469  -4.929  1.00  0.00     0.135 A 
ATOM     60  F   UNL     1      11.416  -4.615  -7.805  1.00  0.00    -0.206 F 
ATOM     61  C   UNL     1      11.765  -6.919  -7.531  1.00  0.00     0.059 A 
ATOM     62  C   UNL     1      12.628  -7.769  -5.426  1.00  0.00     0.059 A 
ATOM     63  F   UNL     1      13.077  -6.284  -3.668  1.00  0.00    -0.206 F 
ATOM     64  C   UNL     1      12.166  -7.985  -6.723  1.00  0.00     0.060 A 
BRANCH  64  65
ATOM     65  S   UNL     1      12.081  -9.659  -7.395  1.00  0.00     0.124 S 
ATOM     66  O   UNL     1      10.643  -9.909  -7.367  1.00  0.00    -0.237 OA
ATOM     67  O   UNL     1      12.669  -9.495  -8.721  1.00  0.00    -0.237 OA
ATOM     68  O   UNL     1      12.873 -10.444  -6.454  1.00  0.00    -0.744 OA
ENDBRANCH  64  65
ENDBRANCH  43  57
BRANCH  44  69
ATOM     69  C   UNL     1      12.219   3.880  -1.930  1.00  0.00     0.058 A 
ATOM     70  C   UNL     1      12.641   4.998  -2.663  1.00  0.00     0.135 A 
ATOM     71  C   UNL     1      11.789   4.087  -0.609  1.00  0.00     0.135 A 
ATOM     72  F   UNL     1      13.071   4.848  -3.925  1.00  0.00    -0.206 F 
ATOM     73  C   UNL     1      12.646   6.273  -2.107  1.00  0.00     0.059 A 
ATOM     74  C   UNL     1      11.764   5.355  -0.039  1.00  0.00     0.059 A 
ATOM     75  F   UNL     1      11.366   3.050   0.131  1.00  0.00    -0.206 F 
ATOM     76  C   UNL     1      12.203   6.442  -0.794  1.00  0.00     0.060 A 
BRANCH  76  77
ATOM     77  S   UNL     1      12.158   8.107  -0.097  1.00  0.00     0.124 S 
ATOM     78  O   UNL     1      13.571   8.353   0.165  1.00  0.00    -0.237 OA
ATOM     79  O   UNL     1      11.565   8.879  -1.185  1.00  0.00    -0.237 OA
ATOM     80  O   UNL     1      11.313   7.953   1.083  1.00  0.00    -0.744 OA
ENDBRANCH  76  77
ENDBRANCH  44  69
BRANCH  56  81
ATOM     81  C   UNL     1      17.276  -0.532  -3.848  1.00  0.00     0.058 A 
ATOM     82  C   UNL     1      18.019  -0.611  -2.661  1.00  0.00     0.135 A 
ATOM     83  C   UNL     1      17.980  -0.405  -5.057  1.00  0.00     0.135 A 
ATOM     84  F   UNL     1      17.393  -0.728  -1.479  1.00  0.00    -0.206 F 
ATOM     85  C   UNL     1      19.409  -0.548  -2.668  1.00  0.00     0.059 A 
ATOM     86  C   UNL     1      19.371  -0.364  -5.090  1.00  0.00     0.059 A 
ATOM     87  F   UNL     1      17.317  -0.336  -6.222  1.00  0.00    -0.206 F 
ATOM     88  C   UNL     1      20.076  -0.425  -3.889  1.00  0.00     0.060 A 
BRANCH  88  89
ATOM     89  S   UNL     1      21.881  -0.377  -3.890  1.00  0.00     0.124 S 
ATOM     90  O   UNL     1      22.139   0.979  -3.419  1.00  0.00    -0.237 OA
ATOM     91  O   UNL     1      22.224  -1.448  -2.959  1.00  0.00    -0.237 OA
ATOM     92  O   UNL     1      22.226  -0.635  -5.285  1.00  0.00    -0.744 OA
ENDBRANCH  88  89
ENDBRANCH  56  81
ENDBRANCH  30  31
ENDBRANCH  23  25
ENDBRANCH  22  23
ENDBRANCH  21  22
ENDBRANCH  20  21
ENDBRANCH   1  20
TORSDOF 20
