REMARK SMILES Cc1ccc2nc3c(c(C(=O)OCCOCCOC(=O)c4ccc(-c5c6nc(c(-c7c(F)cc(S(=O)(=O)[O-])cc7F)c7ccc([nH]7)c(-c7c(F)cc(S(=O)(=O)[O-])cc7F)c7nc(c(-c8c(F)cc(S(=O)(=O)[O-])cc8F)c8ccc5[nH]8)C=C7)C=C6)cc4)c2c1)C[C@H](C)CC3
REMARK SMILES IDX 16 1 15 2 14 3 13 4 12 5 10 6 11 7 9 8 1 9 2 10 3 11 88 12
REMARK SMILES IDX 4 13 87 14 5 15 6 16 8 17 7 18 89 19 93 20 90 21 92 22 91 23
REMARK SMILES IDX 17 24 18 25 19 26 20 27 21 28 22 29 86 30 23 31 85 32 24 33
REMARK SMILES IDX 25 34 26 35 79 36 27 37 84 38 78 39 80 40 28 41 83 42 77 43
REMARK SMILES IDX 76 44 29 46 63 47 42 48 62 49 43 50 46 51 61 52 81 53 44 54
REMARK SMILES IDX 45 55 60 57 82 58 47 59 30 60 31 61 40 62 32 63 33 64 39 65
REMARK SMILES IDX 41 66 34 67 35 68 36 69 37 70 38 71 64 72 65 73 74 74 66 75
REMARK SMILES IDX 67 76 73 77 75 78 68 79 69 80 70 81 71 82 72 83 48 84 49 85
REMARK SMILES IDX 58 86 50 87 51 88 57 89 59 90 52 91 53 92 54 93 55 94 56 95
REMARK H PARENT 80 45 46 56
REMARK Flexibility Score: inf
ROOT
ATOM      1  C   UNL     1       2.699  -5.246   3.497  1.00  0.00     0.202 C 
ENDROOT
BRANCH   1   2
ATOM      2  O   UNL     1       4.091  -5.032   3.723  1.00  0.00    -0.374 OA
BRANCH   2   3
ATOM      3  C   UNL     1       4.661  -3.801   3.275  1.00  0.00     0.202 C 
BRANCH   3   4
ATOM      4  C   UNL     1       4.831  -3.635   1.765  1.00  0.00     0.261 C 
BRANCH   4   5
ATOM      5  O   UNL     1       3.543  -3.638   1.131  1.00  0.00    -0.460 OA
BRANCH   5   6
ATOM      6  C   UNL     1       3.405  -4.487   0.089  1.00  0.00     0.339 C 
ATOM      7  O   UNL     1       4.294  -5.139  -0.435  1.00  0.00    -0.246 OA
BRANCH   6   8
ATOM      8  C   UNL     1       1.970  -4.668  -0.251  1.00  0.00     0.074 A 
ATOM      9  C   UNL     1       0.837   0.259  -0.261  1.00  0.00     0.044 C 
ATOM     10  C   UNL     1       0.528  -1.166  -0.619  1.00  0.00    -0.050 A 
ATOM     11  C   UNL     1      -0.697  -1.509  -1.178  1.00  0.00     0.005 A 
ATOM     12  C   UNL     1       1.437  -2.189  -0.324  1.00  0.00     0.014 A 
ATOM     13  C   UNL     1      -1.006  -2.851  -1.408  1.00  0.00     0.029 A 
ATOM     14  C   UNL     1       1.127  -3.562  -0.541  1.00  0.00     0.015 A 
ATOM     15  C   UNL     1      -0.134  -3.879  -1.077  1.00  0.00     0.071 A 
ATOM     16  N   UNL     1      -0.547  -5.139  -1.289  1.00  0.00    -0.253 NA
ATOM     17  C   UNL     1       1.494  -5.994  -0.350  1.00  0.00    -0.011 A 
ATOM     18  C   UNL     1       0.245  -6.175  -0.929  1.00  0.00     0.045 A 
ATOM     19  C   UNL     1       2.295  -7.181   0.143  1.00  0.00     0.041 C 
ATOM     20  C   UNL     1      -0.339  -7.546  -1.164  1.00  0.00     0.057 C 
ATOM     21  C   UNL     1       1.442  -8.446   0.336  1.00  0.00    -0.009 C 
ATOM     22  C   UNL     1       0.653  -8.690  -0.950  1.00  0.00     0.010 C 
ATOM     23  C   UNL     1       2.314  -9.642   0.709  1.00  0.00     0.008 C 
ENDBRANCH   6   8
ENDBRANCH   5   6
ENDBRANCH   4   5
ENDBRANCH   3   4
ENDBRANCH   2   3
ENDBRANCH   1   2
BRANCH   1  24
ATOM     24  C   UNL     1       1.700  -4.523   4.408  1.00  0.00     0.261 C 
BRANCH  24  25
ATOM     25  O   UNL     1       1.776  -3.095   4.309  1.00  0.00    -0.460 OA
BRANCH  25  26
ATOM     26  C   UNL     1       2.404  -2.485   5.345  1.00  0.00     0.338 C 
ATOM     27  O   UNL     1       2.876  -3.015   6.338  1.00  0.00    -0.246 OA
BRANCH  26  28
ATOM     28  C   UNL     1       2.619  -1.067   5.003  1.00  0.00     0.060 A 
ATOM     29  C   UNL     1       1.554  -0.244   4.633  1.00  0.00     0.016 A 
ATOM     30  C   UNL     1       3.922  -0.559   5.080  1.00  0.00     0.016 A 
ATOM     31  C   UNL     1       1.798   1.103   4.361  1.00  0.00     0.010 A 
ATOM     32  C   UNL     1       4.163   0.785   4.803  1.00  0.00     0.010 A 
ATOM     33  C   UNL     1       3.099   1.630   4.460  1.00  0.00    -0.014 A 
BRANCH  33  34
ATOM     34  C   UNL     1       3.325   3.088   4.321  1.00  0.00     0.031 A 
ATOM     35  C   UNL     1       3.979   3.663   3.101  1.00  0.00     0.074 A 
ATOM     36  C   UNL     1       2.944   3.891   5.333  1.00  0.00     0.049 A 
ATOM     37  N   UNL     1       4.201   4.918   2.805  1.00  0.00    -0.248 NA
ATOM     38  C   UNL     1       4.449   2.711   2.085  1.00  0.00     0.031 C 
ATOM     39  C   UNL     1       2.332   3.431   6.582  1.00  0.00     0.029 A 
ATOM     40  N   UNL     1       3.005   5.253   5.473  1.00  0.00    -0.354 N 
ATOM     41  C   UNL     1       4.817   4.912   1.560  1.00  0.00     0.074 A 
ATOM     42  C   UNL     1       4.982   3.523   1.181  1.00  0.00     0.031 C 
ATOM     43  C   UNL     1       2.044   4.496   7.346  1.00  0.00     0.029 A 
ATOM     44  C   UNL     1       2.479   5.708   6.659  1.00  0.00     0.049 A 
ATOM     45  H   UNL     1       3.389   5.849   4.789  1.00  0.00     0.167 HD
ATOM     46  C   UNL     1       5.190   5.970   0.800  1.00  0.00     0.037 A 
ATOM     47  C   UNL     1       2.360   6.960   7.139  1.00  0.00     0.037 A 
ATOM     48  C   UNL     1       5.040   7.348   1.202  1.00  0.00     0.049 A 
ATOM     49  C   UNL     1       2.829   8.114   6.296  1.00  0.00     0.074 A 
ATOM     50  C   UNL     1       5.360   8.491   0.489  1.00  0.00     0.029 A 
ATOM     51  N   UNL     1       4.541   7.772   2.426  1.00  0.00    -0.354 N 
ATOM     52  N   UNL     1       3.347   8.096   5.091  1.00  0.00    -0.248 NA
ATOM     53  C   UNL     1       2.697   9.456   6.876  1.00  0.00     0.031 C 
ATOM     54  C   UNL     1       5.109   9.601   1.302  1.00  0.00     0.029 A 
ATOM     55  C   UNL     1       4.575   9.156   2.501  1.00  0.00     0.049 A 
ATOM     56  H   UNL     1       4.212   7.176   3.138  1.00  0.00     0.167 HD
ATOM     57  C   UNL     1       3.588   9.425   4.761  1.00  0.00     0.074 A 
ATOM     58  C   UNL     1       3.137  10.220   5.886  1.00  0.00     0.031 C 
ATOM     59  C   UNL     1       4.135   9.938   3.631  1.00  0.00     0.037 A 
BRANCH  46  60
ATOM     60  C   UNL     1       5.793   5.687  -0.549  1.00  0.00     0.058 A 
ATOM     61  C   UNL     1       5.018   5.178  -1.604  1.00  0.00     0.135 A 
ATOM     62  C   UNL     1       7.140   5.985  -0.814  1.00  0.00     0.135 A 
ATOM     63  F   UNL     1       3.728   4.862  -1.405  1.00  0.00    -0.206 F 
ATOM     64  C   UNL     1       5.561   4.954  -2.865  1.00  0.00     0.059 A 
ATOM     65  C   UNL     1       7.698   5.795  -2.076  1.00  0.00     0.059 A 
ATOM     66  F   UNL     1       7.928   6.475   0.157  1.00  0.00    -0.206 F 
ATOM     67  C   UNL     1       6.902   5.269  -3.092  1.00  0.00     0.060 A 
BRANCH  67  68
ATOM     68  S   UNL     1       7.583   4.978  -4.738  1.00  0.00     0.124 S 
ATOM     69  O   UNL     1       7.569   3.519  -4.804  1.00  0.00    -0.237 OA
ATOM     70  O   UNL     1       6.621   5.661  -5.596  1.00  0.00    -0.237 OA
ATOM     71  O   UNL     1       8.908   5.588  -4.673  1.00  0.00    -0.744 OA
ENDBRANCH  67  68
ENDBRANCH  46  60
BRANCH  47  72
ATOM     72  C   UNL     1       1.738   7.181   8.471  1.00  0.00     0.058 A 
ATOM     73  C   UNL     1       0.475   7.779   8.585  1.00  0.00     0.135 A 
ATOM     74  C   UNL     1       2.373   6.763   9.651  1.00  0.00     0.135 A 
ATOM     75  F   UNL     1      -0.170   8.201   7.487  1.00  0.00    -0.206 F 
ATOM     76  C   UNL     1      -0.135   7.962   9.822  1.00  0.00     0.059 A 
ATOM     77  C   UNL     1       1.772   6.909  10.897  1.00  0.00     0.059 A 
ATOM     78  F   UNL     1       3.576   6.171   9.594  1.00  0.00    -0.206 F 
ATOM     79  C   UNL     1       0.518   7.514  10.972  1.00  0.00     0.060 A 
BRANCH  79  80
ATOM     80  S   UNL     1      -0.314   7.702  12.563  1.00  0.00     0.124 S 
ATOM     81  O   UNL     1      -0.298   9.149  12.736  1.00  0.00    -0.237 OA
ATOM     82  O   UNL     1      -1.619   7.104  12.293  1.00  0.00    -0.237 OA
ATOM     83  O   UNL     1       0.536   6.947  13.479  1.00  0.00    -0.744 OA
ENDBRANCH  79  80
ENDBRANCH  47  72
BRANCH  59  84
ATOM     84  C   UNL     1       4.279  11.435   3.548  1.00  0.00     0.058 A 
ATOM     85  C   UNL     1       5.222  12.126   4.325  1.00  0.00     0.135 A 
ATOM     86  C   UNL     1       3.505  12.180   2.643  1.00  0.00     0.135 A 
ATOM     87  F   UNL     1       5.983  11.465   5.211  1.00  0.00    -0.206 F 
ATOM     88  C   UNL     1       5.378  13.505   4.223  1.00  0.00     0.059 A 
ATOM     89  C   UNL     1       3.666  13.555   2.502  1.00  0.00     0.059 A 
ATOM     90  F   UNL     1       2.594  11.569   1.869  1.00  0.00    -0.206 F 
ATOM     91  C   UNL     1       4.598  14.211   3.305  1.00  0.00     0.060 A 
BRANCH  91  92
ATOM     92  S   UNL     1       4.838  15.994   3.164  1.00  0.00     0.124 S 
ATOM     93  O   UNL     1       4.298  16.466   4.434  1.00  0.00    -0.237 OA
ATOM     94  O   UNL     1       6.285  16.101   3.011  1.00  0.00    -0.237 OA
ATOM     95  O   UNL     1       4.060  16.351   1.981  1.00  0.00    -0.744 OA
ENDBRANCH  91  92
ENDBRANCH  59  84
ENDBRANCH  33  34
ENDBRANCH  26  28
ENDBRANCH  25  26
ENDBRANCH  24  25
ENDBRANCH   1  24
TORSDOF 17
