REMARK SMILES Cc1cc(C(=O)OCCOCCOC(=O)c2ccc(-c3c4nc(c(-c5c(F)cc(S(=O)(=O)[O-])cc5F)c5ccc([nH]5)c(-c5c(F)cc(S(=O)(=O)[O-])cc5F)c5nc(c(-c6c(F)cc(S(=O)(=O)[O-])cc6F)c6ccc3[nH]6)C=C5)C=C4)cc2)c(C)n1[C@@H]1C[N@H+]2CC[C@@H]1CC2
REMARK SMILES IDX 11 1 10 2 9 3 8 4 7 5 5 6 6 7 4 8 1 9 2 10 3 11 84 12 82 13
REMARK SMILES IDX 83 14 85 15 86 16 90 17 87 18 91 19 89 20 92 21 88 22 12 24
REMARK SMILES IDX 13 25 14 26 15 27 16 28 17 29 81 30 18 31 80 32 19 33 20 34
REMARK SMILES IDX 21 35 74 36 22 37 79 38 73 39 75 40 23 41 78 42 72 43 71 44
REMARK SMILES IDX 24 46 58 47 37 48 57 49 38 50 41 51 56 52 76 53 39 54 40 55
REMARK SMILES IDX 55 57 77 58 42 59 25 60 26 61 35 62 27 63 28 64 34 65 36 66
REMARK SMILES IDX 29 67 30 68 31 69 32 70 33 71 59 72 60 73 69 74 61 75 62 76
REMARK SMILES IDX 68 77 70 78 63 79 64 80 65 81 66 82 67 83 43 84 44 85 53 86
REMARK SMILES IDX 45 87 46 88 52 89 54 90 47 91 48 92 49 93 50 94 51 95
REMARK H PARENT 87 23 75 45 41 56
REMARK Flexibility Score: inf
ROOT
ATOM      1  C   UNL     1       0.006   3.708   4.733  1.00  0.00     0.202 C 
ENDROOT
BRANCH   1   2
ATOM      2  O   UNL     1      -1.025   4.667   5.034  1.00  0.00    -0.374 OA
BRANCH   2   3
ATOM      3  C   UNL     1      -2.350   4.160   5.180  1.00  0.00     0.202 C 
BRANCH   3   4
ATOM      4  C   UNL     1      -3.147   4.018   3.869  1.00  0.00     0.261 C 
BRANCH   4   5
ATOM      5  O   UNL     1      -2.447   3.219   2.910  1.00  0.00    -0.460 OA
BRANCH   5   6
ATOM      6  C   UNL     1      -1.812   3.888   1.908  1.00  0.00     0.340 C 
ATOM      7  O   UNL     1      -2.000   5.077   1.623  1.00  0.00    -0.246 OA
BRANCH   6   8
ATOM      8  C   UNL     1      -0.850   3.032   1.222  1.00  0.00     0.081 A 
ATOM      9  C   UNL     1       0.283  -0.268   0.038  1.00  0.00     0.064 C 
ATOM     10  C   UNL     1       0.143   1.166   0.400  1.00  0.00     0.016 A 
ATOM     11  C   UNL     1      -0.843   1.625   1.246  1.00  0.00     0.038 A 
ATOM     12  N   UNL     1       0.871   2.265  -0.051  1.00  0.00    -0.339 N 
ATOM     13  C   UNL     1       0.264   3.419   0.477  1.00  0.00     0.030 A 
ATOM     14  C   UNL     1       0.738   4.832   0.309  1.00  0.00     0.065 C 
BRANCH  12  15
ATOM     15  C   UNL     1       1.976   2.290  -1.019  1.00  0.00     0.145 C 
ATOM     16  C   UNL     1       1.667   1.653  -2.394  1.00  0.00     0.288 C 
ATOM     17  C   UNL     1       3.400   1.847  -0.564  1.00  0.00     0.029 C 
ATOM     18  N   UNL     1       2.792   0.815  -2.890  1.00  0.00    -0.333 N 
ATOM     19  C   UNL     1       4.385   2.314  -1.671  1.00  0.00     0.067 C 
ATOM     20  C   UNL     1       3.555   0.322  -0.558  1.00  0.00     0.067 C 
ATOM     21  C   UNL     1       4.004   1.654  -3.012  1.00  0.00     0.262 C 
ATOM     22  C   UNL     1       3.065  -0.252  -1.899  1.00  0.00     0.262 C 
ATOM     23  H   UNL     1       2.548   0.411  -3.795  1.00  0.00     0.348 HD
ENDBRANCH  12  15
ENDBRANCH   6   8
ENDBRANCH   5   6
ENDBRANCH   4   5
ENDBRANCH   3   4
ENDBRANCH   2   3
ENDBRANCH   1   2
BRANCH   1  24
ATOM     24  C   UNL     1       0.641   2.929   5.925  1.00  0.00     0.261 C 
BRANCH  24  25
ATOM     25  O   UNL     1       0.474   1.457   6.002  1.00  0.00    -0.460 OA
BRANCH  25  26
ATOM     26  C   UNL     1      -0.071   0.961   7.165  1.00  0.00     0.338 C 
ATOM     27  O   UNL     1      -0.795   1.654   7.875  1.00  0.00    -0.246 OA
BRANCH  26  28
ATOM     28  C   UNL     1       0.166  -0.537   7.510  1.00  0.00     0.060 A 
ATOM     29  C   UNL     1      -0.887  -1.209   8.103  1.00  0.00     0.016 A 
ATOM     30  C   UNL     1       1.346  -1.316   7.459  1.00  0.00     0.016 A 
ATOM     31  C   UNL     1      -0.767  -2.575   8.557  1.00  0.00     0.010 A 
ATOM     32  C   UNL     1       1.478  -2.717   8.022  1.00  0.00     0.010 A 
ATOM     33  C   UNL     1       0.416  -3.424   8.618  1.00  0.00    -0.014 A 
BRANCH  33  34
ATOM     34  C   UNL     1       0.321  -4.880   9.543  1.00  0.00     0.031 A 
ATOM     35  C   UNL     1      -0.822  -4.560  10.444  1.00  0.00     0.074 A 
ATOM     36  C   UNL     1       0.921  -6.114   9.941  1.00  0.00     0.049 A 
ATOM     37  N   UNL     1      -0.674  -3.521  11.212  1.00  0.00    -0.248 NA
ATOM     38  C   UNL     1      -2.214  -4.969  10.246  1.00  0.00     0.031 C 
ATOM     39  C   UNL     1       2.252  -6.655   9.586  1.00  0.00     0.029 A 
ATOM     40  N   UNL     1       0.502  -7.213  10.829  1.00  0.00    -0.354 N 
ATOM     41  C   UNL     1      -1.878  -3.258  11.799  1.00  0.00     0.074 A 
ATOM     42  C   UNL     1      -2.826  -4.080  11.046  1.00  0.00     0.031 C 
ATOM     43  C   UNL     1       2.461  -7.933  10.047  1.00  0.00     0.029 A 
ATOM     44  C   UNL     1       1.335  -8.437  10.845  1.00  0.00     0.049 A 
ATOM     45  H   UNL     1      -0.303  -7.136  11.390  1.00  0.00     0.167 HD
ATOM     46  C   UNL     1      -1.792  -3.013  13.136  1.00  0.00     0.037 A 
ATOM     47  C   UNL     1       1.213  -9.684  11.521  1.00  0.00     0.037 A 
ATOM     48  C   UNL     1      -2.021  -4.230  13.869  1.00  0.00     0.049 A 
ATOM     49  C   UNL     1       0.550  -9.346  12.785  1.00  0.00     0.074 A 
ATOM     50  C   UNL     1      -2.943  -5.248  13.707  1.00  0.00     0.029 A 
ATOM     51  N   UNL     1      -0.940  -4.773  14.527  1.00  0.00    -0.354 N 
ATOM     52  N   UNL     1       1.178  -8.758  13.755  1.00  0.00    -0.248 NA
ATOM     53  C   UNL     1      -0.827  -9.737  13.062  1.00  0.00     0.031 C 
ATOM     54  C   UNL     1      -2.168  -6.424  13.752  1.00  0.00     0.029 A 
ATOM     55  C   UNL     1      -0.968  -6.142  14.389  1.00  0.00     0.049 A 
ATOM     56  H   UNL     1      -0.256  -4.262  15.019  1.00  0.00     0.167 HD
ATOM     57  C   UNL     1       0.163  -8.231  14.488  1.00  0.00     0.074 A 
ATOM     58  C   UNL     1      -0.998  -9.056  14.196  1.00  0.00     0.031 C 
ATOM     59  C   UNL     1       0.219  -6.895  14.703  1.00  0.00     0.037 A 
BRANCH  46  60
ATOM     60  C   UNL     1      -0.721  -1.990  13.471  1.00  0.00     0.058 A 
ATOM     61  C   UNL     1      -1.114  -0.712  13.880  1.00  0.00     0.135 A 
ATOM     62  C   UNL     1       0.663  -2.188  13.240  1.00  0.00     0.135 A 
ATOM     63  F   UNL     1      -2.405  -0.461  14.155  1.00  0.00    -0.206 F 
ATOM     64  C   UNL     1      -0.196   0.333  13.999  1.00  0.00     0.059 A 
ATOM     65  C   UNL     1       1.584  -1.145  13.284  1.00  0.00     0.059 A 
ATOM     66  F   UNL     1       1.142  -3.410  12.956  1.00  0.00    -0.206 F 
ATOM     67  C   UNL     1       1.144   0.115  13.667  1.00  0.00     0.060 A 
BRANCH  67  68
ATOM     68  S   UNL     1       2.291   1.510  13.724  1.00  0.00     0.124 S 
ATOM     69  O   UNL     1       1.543   2.556  13.029  1.00  0.00    -0.237 OA
ATOM     70  O   UNL     1       2.447   1.706  15.161  1.00  0.00    -0.237 OA
ATOM     71  O   UNL     1       3.467   1.025  13.009  1.00  0.00    -0.744 OA
ENDBRANCH  67  68
ENDBRANCH  46  60
BRANCH  47  72
ATOM     72  C   UNL     1       1.659 -11.239  11.650  1.00  0.00     0.058 A 
ATOM     73  C   UNL     1       1.583 -11.970  12.905  1.00  0.00     0.135 A 
ATOM     74  C   UNL     1       1.717 -12.120  10.555  1.00  0.00     0.135 A 
ATOM     75  F   UNL     1       1.577 -11.328  14.083  1.00  0.00    -0.206 F 
ATOM     76  C   UNL     1       1.429 -13.377  13.040  1.00  0.00     0.059 A 
ATOM     77  C   UNL     1       1.591 -13.549  10.670  1.00  0.00     0.059 A 
ATOM     78  F   UNL     1       1.812 -11.624   9.314  1.00  0.00    -0.206 F 
ATOM     79  C   UNL     1       1.391 -14.167  11.908  1.00  0.00     0.060 A 
BRANCH  79  80
ATOM     80  S   UNL     1       0.923 -15.935  12.061  1.00  0.00     0.124 S 
ATOM     81  O   UNL     1       2.070 -16.521  12.747  1.00  0.00    -0.237 OA
ATOM     82  O   UNL     1      -0.309 -15.871  12.843  1.00  0.00    -0.237 OA
ATOM     83  O   UNL     1       0.744 -16.359  10.675  1.00  0.00    -0.744 OA
ENDBRANCH  79  80
ENDBRANCH  47  72
BRANCH  59  84
ATOM     84  C   UNL     1       1.551  -6.303  15.125  1.00  0.00     0.058 A 
ATOM     85  C   UNL     1       2.803  -6.467  14.489  1.00  0.00     0.135 A 
ATOM     86  C   UNL     1       1.558  -5.554  16.314  1.00  0.00     0.135 A 
ATOM     87  F   UNL     1       2.922  -7.069  13.296  1.00  0.00    -0.206 F 
ATOM     88  C   UNL     1       3.991  -5.993  15.056  1.00  0.00     0.059 A 
ATOM     89  C   UNL     1       2.720  -5.024  16.866  1.00  0.00     0.059 A 
ATOM     90  F   UNL     1       0.405  -5.323  16.965  1.00  0.00    -0.206 F 
ATOM     91  C   UNL     1       3.940  -5.285  16.253  1.00  0.00     0.060 A 
BRANCH  91  92
ATOM     92  S   UNL     1       5.476  -4.711  17.008  1.00  0.00     0.124 S 
ATOM     93  O   UNL     1       6.046  -5.958  17.511  1.00  0.00    -0.237 OA
ATOM     94  O   UNL     1       6.180  -4.106  15.884  1.00  0.00    -0.237 OA
ATOM     95  O   UNL     1       5.018  -3.783  18.039  1.00  0.00    -0.744 OA
ENDBRANCH  91  92
ENDBRANCH  59  84
ENDBRANCH  33  34
ENDBRANCH  26  28
ENDBRANCH  25  26
ENDBRANCH  24  25
ENDBRANCH   1  24
TORSDOF 18
