REMARK SMILES COC(=O)c1c(NC(=O)[C@@H]2[C@H]3CC[C@H](CC3)[C@H]2C(=O)OCCOCCOC(=O)c2ccc(-c3c4nc(c(-c5c(F)cc(S(=O)(=O)[O-])cc5F)c5ccc([nH]5)c(-c5c(F)cc(S(=O)(=O)[O-])cc5F)c5nc(c(-c6c(F)cc(S(=O)(=O)[O-])cc6F)c6ccc3[nH]6)C=C5)C=C4)cc2)sc(C)c1-c1ccc(C)cc1
REMARK SMILES IDX 22 1 21 2 20 3 18 4 19 5 17 6 10 7 11 8 12 9 16 10 14 11
REMARK SMILES IDX 13 12 15 13 8 14 7 15 9 17 6 18 5 19 98 20 95 21 96 22 97 23
REMARK SMILES IDX 3 24 4 25 2 26 1 27 99 28 100 29 105 30 101 31 104 32 102 33
REMARK SMILES IDX 103 34 23 35 24 36 25 37 26 38 27 39 28 40 29 41 30 42 94 43
REMARK SMILES IDX 31 44 93 45 32 46 33 47 34 48 87 49 35 50 92 51 86 52 88 53
REMARK SMILES IDX 36 54 91 55 85 56 84 57 37 59 71 60 50 61 70 62 51 63 54 64
REMARK SMILES IDX 69 65 89 66 52 67 53 68 68 70 90 71 55 72 38 73 39 74 48 75
REMARK SMILES IDX 40 76 41 77 47 78 49 79 42 80 43 81 44 82 45 83 46 84 72 85
REMARK SMILES IDX 73 86 82 87 74 88 75 89 81 90 83 91 76 92 77 93 78 94 79 95
REMARK SMILES IDX 80 96 56 97 57 98 66 99 58 100 59 101 65 102 67 103 60 104
REMARK SMILES IDX 61 105 62 106 63 107 64 108
REMARK H PARENT 7 16 88 58 54 69
REMARK Flexibility Score: inf
ROOT
ATOM      1  C   UNL     1       6.690   7.639  -0.394  1.00  0.00     0.202 C 
ENDROOT
BRANCH   1   2
ATOM      2  C   UNL     1       5.575   8.599   0.048  1.00  0.00     0.261 C 
BRANCH   2   3
ATOM      3  O   UNL     1       4.317   8.356  -0.610  1.00  0.00    -0.463 OA
BRANCH   3   4
ATOM      4  C   UNL     1       3.537   9.455  -0.791  1.00  0.00     0.310 C 
ATOM      5  O   UNL     1       3.789  10.557  -0.314  1.00  0.00    -0.252 OA
BRANCH   4   6
ATOM      6  C   UNL     1       2.313   9.221  -1.695  1.00  0.00     0.115 C 
ATOM      7  C   UNL     1       2.188   7.829  -2.355  1.00  0.00     0.096 C 
ATOM      8  C   UNL     1       0.825   7.225  -1.837  1.00  0.00     0.002 C 
ATOM      9  C   UNL     1       0.802   7.245  -0.289  1.00  0.00     0.005 C 
ATOM     10  C   UNL     1      -0.360   8.091  -2.321  1.00  0.00     0.005 C 
ATOM     11  C   UNL     1       1.038   9.642  -0.937  1.00  0.00     0.004 C 
ATOM     12  C   UNL     1       0.795   8.686   0.229  1.00  0.00     0.005 C 
ATOM     13  C   UNL     1      -0.128   9.554  -1.937  1.00  0.00     0.005 C 
BRANCH   7  14
ATOM     14  C   UNL     1       2.266   7.701  -3.920  1.00  0.00     0.229 C 
ATOM     15  N   UNL     1       3.230   8.143  -4.783  1.00  0.00    -0.317 N 
ATOM     16  H   UNL     1       3.119   7.754  -5.681  1.00  0.00     0.170 HD
ATOM     17  O   UNL     1       1.446   6.948  -4.479  1.00  0.00    -0.274 OA
BRANCH  15  18
ATOM     18  C   UNL     1       4.319   8.991  -4.728  1.00  0.00     0.111 A 
ATOM     19  C   UNL     1       5.398   9.118  -5.603  1.00  0.00     0.102 A 
ATOM     20  C   UNL     1       6.430   9.952  -4.987  1.00  0.00     0.012 A 
ATOM     21  S   UNL     1       4.356  10.282  -3.659  1.00  0.00    -0.122 S 
ATOM     22  C   UNL     1       6.020  10.468  -3.773  1.00  0.00     0.012 A 
ATOM     23  C   UNL     1       6.736  11.218  -2.703  1.00  0.00     0.057 C 
BRANCH  19  24
ATOM     24  C   UNL     1       5.454   8.478  -6.917  1.00  0.00     0.341 C 
ATOM     25  O   UNL     1       4.486   7.916  -7.424  1.00  0.00    -0.246 OA
BRANCH  24  26
ATOM     26  O   UNL     1       6.650   8.652  -7.537  1.00  0.00    -0.465 OA
ATOM     27  C   UNL     1       6.675   8.418  -8.943  1.00  0.00     0.282 C 
ENDBRANCH  24  26
ENDBRANCH  19  24
BRANCH  20  28
ATOM     28  C   UNL     1       7.696  10.402  -5.532  1.00  0.00    -0.016 A 
ATOM     29  C   UNL     1       7.670  11.415  -6.496  1.00  0.00     0.009 A 
ATOM     30  C   UNL     1       8.912   9.944  -5.020  1.00  0.00     0.009 A 
ATOM     31  C   UNL     1       8.857  11.982  -6.940  1.00  0.00     0.004 A 
ATOM     32  C   UNL     1      10.102  10.522  -5.463  1.00  0.00     0.004 A 
ATOM     33  C   UNL     1      10.081  11.551  -6.415  1.00  0.00    -0.051 A 
ATOM     34  C   UNL     1      11.346  12.207  -6.879  1.00  0.00     0.044 C 
ENDBRANCH  20  28
ENDBRANCH  15  18
ENDBRANCH   7  14
ENDBRANCH   4   6
ENDBRANCH   3   4
ENDBRANCH   2   3
ENDBRANCH   1   2
BRANCH   1  35
ATOM     35  O   UNL     1       6.985   7.536  -1.785  1.00  0.00    -0.374 OA
BRANCH  35  36
ATOM     36  C   UNL     1       5.996   6.947  -2.625  1.00  0.00     0.202 C 
BRANCH  36  37
ATOM     37  C   UNL     1       5.727   5.441  -2.523  1.00  0.00     0.261 C 
BRANCH  37  38
ATOM     38  O   UNL     1       5.319   5.028  -1.212  1.00  0.00    -0.460 OA
BRANCH  38  39
ATOM     39  C   UNL     1       6.241   4.276  -0.561  1.00  0.00     0.338 C 
ATOM     40  O   UNL     1       7.309   3.878  -0.995  1.00  0.00    -0.246 OA
BRANCH  39  41
ATOM     41  C   UNL     1       5.877   4.165   0.861  1.00  0.00     0.060 A 
ATOM     42  C   UNL     1       6.829   4.586   1.797  1.00  0.00     0.016 A 
ATOM     43  C   UNL     1       4.671   3.594   1.271  1.00  0.00     0.016 A 
ATOM     44  C   UNL     1       6.605   4.385   3.152  1.00  0.00     0.010 A 
ATOM     45  C   UNL     1       4.453   3.377   2.635  1.00  0.00     0.010 A 
ATOM     46  C   UNL     1       5.439   3.732   3.573  1.00  0.00    -0.014 A 
BRANCH  46  47
ATOM     47  C   UNL     1       5.369   3.250   4.971  1.00  0.00     0.031 A 
ATOM     48  C   UNL     1       5.745   1.819   5.252  1.00  0.00     0.074 A 
ATOM     49  C   UNL     1       5.067   4.093   5.974  1.00  0.00     0.049 A 
ATOM     50  N   UNL     1       5.789   1.182   6.392  1.00  0.00    -0.248 NA
ATOM     51  C   UNL     1       6.131   1.000   4.090  1.00  0.00     0.031 C 
ATOM     52  C   UNL     1       4.743   5.511   5.816  1.00  0.00     0.029 A 
ATOM     53  N   UNL     1       4.994   3.879   7.326  1.00  0.00    -0.354 N 
ATOM     54  C   UNL     1       6.217  -0.105   6.088  1.00  0.00     0.074 A 
ATOM     55  C   UNL     1       6.376  -0.174   4.653  1.00  0.00     0.031 C 
ATOM     56  C   UNL     1       4.501   6.039   7.029  1.00  0.00     0.029 A 
ATOM     57  C   UNL     1       4.627   4.994   8.041  1.00  0.00     0.049 A 
ATOM     58  H   UNL     1       5.186   3.009   7.745  1.00  0.00     0.167 HD
ATOM     59  C   UNL     1       6.473  -1.131   6.933  1.00  0.00     0.037 A 
ATOM     60  C   UNL     1       4.404   5.141   9.362  1.00  0.00     0.037 A 
ATOM     61  C   UNL     1       6.303  -1.054   8.359  1.00  0.00     0.049 A 
ATOM     62  C   UNL     1       4.607   3.956  10.272  1.00  0.00     0.074 A 
ATOM     63  C   UNL     1       6.509  -2.040   9.307  1.00  0.00     0.029 A 
ATOM     64  N   UNL     1       5.883   0.078   9.043  1.00  0.00    -0.354 N 
ATOM     65  N   UNL     1       5.014   2.744   9.972  1.00  0.00    -0.248 NA
ATOM     66  C   UNL     1       4.325   4.157  11.700  1.00  0.00     0.031 C 
ATOM     67  C   UNL     1       6.174  -1.517  10.560  1.00  0.00     0.029 A 
ATOM     68  C   UNL     1       5.809  -0.189  10.399  1.00  0.00     0.049 A 
ATOM     69  H   UNL     1       5.670   0.944   8.626  1.00  0.00     0.167 HD
ATOM     70  C   UNL     1       5.068   2.050  11.177  1.00  0.00     0.074 A 
ATOM     71  C   UNL     1       4.664   2.982  12.211  1.00  0.00     0.031 C 
ATOM     72  C   UNL     1       5.419   0.761  11.411  1.00  0.00     0.037 A 
BRANCH  59  73
ATOM     73  C   UNL     1       6.950  -2.425   6.333  1.00  0.00     0.058 A 
ATOM     74  C   UNL     1       8.242  -2.554   5.797  1.00  0.00     0.135 A 
ATOM     75  C   UNL     1       6.121  -3.558   6.321  1.00  0.00     0.135 A 
ATOM     76  F   UNL     1       9.069  -1.497   5.762  1.00  0.00    -0.206 F 
ATOM     77  C   UNL     1       8.688  -3.755   5.253  1.00  0.00     0.059 A 
ATOM     78  C   UNL     1       6.555  -4.776   5.806  1.00  0.00     0.059 A 
ATOM     79  F   UNL     1       4.875  -3.488   6.814  1.00  0.00    -0.206 F 
ATOM     80  C   UNL     1       7.837  -4.861   5.264  1.00  0.00     0.060 A 
BRANCH  80  81
ATOM     81  S   UNL     1       8.436  -6.415   4.567  1.00  0.00     0.124 S 
ATOM     82  O   UNL     1       8.441  -6.112   3.139  1.00  0.00    -0.237 OA
ATOM     83  O   UNL     1       9.749  -6.551   5.191  1.00  0.00    -0.237 OA
ATOM     84  O   UNL     1       7.438  -7.389   4.997  1.00  0.00    -0.744 OA
ENDBRANCH  80  81
ENDBRANCH  59  73
BRANCH  60  85
ATOM     85  C   UNL     1       3.948   6.449   9.907  1.00  0.00     0.058 A 
ATOM     86  C   UNL     1       4.760   7.204  10.767  1.00  0.00     0.135 A 
ATOM     87  C   UNL     1       2.674   6.954   9.603  1.00  0.00     0.135 A 
ATOM     88  F   UNL     1       5.984   6.762  11.094  1.00  0.00    -0.206 F 
ATOM     89  C   UNL     1       4.315   8.396  11.331  1.00  0.00     0.059 A 
ATOM     90  C   UNL     1       2.217   8.157  10.132  1.00  0.00     0.059 A 
ATOM     91  F   UNL     1       1.861   6.278   8.776  1.00  0.00    -0.206 F 
ATOM     92  C   UNL     1       3.039   8.862  11.009  1.00  0.00     0.060 A 
BRANCH  92  93
ATOM     93  S   UNL     1       2.472  10.415  11.737  1.00  0.00     0.124 S 
ATOM     94  O   UNL     1       2.208  10.014  13.114  1.00  0.00    -0.237 OA
ATOM     95  O   UNL     1       3.625  11.287  11.535  1.00  0.00    -0.237 OA
ATOM     96  O   UNL     1       1.296  10.749  10.940  1.00  0.00    -0.744 OA
ENDBRANCH  92  93
ENDBRANCH  60  85
BRANCH  72  97
ATOM     97  C   UNL     1       5.425   0.294  12.841  1.00  0.00     0.058 A 
ATOM     98  C   UNL     1       4.235   0.069  13.550  1.00  0.00     0.135 A 
ATOM     99  C   UNL     1       6.639   0.017  13.490  1.00  0.00     0.135 A 
ATOM    100  F   UNL     1       3.048   0.323  12.976  1.00  0.00    -0.206 F 
ATOM    101  C   UNL     1       4.249  -0.390  14.863  1.00  0.00     0.059 A 
ATOM    102  C   UNL     1       6.676  -0.471  14.792  1.00  0.00     0.059 A 
ATOM    103  F   UNL     1       7.806   0.203  12.852  1.00  0.00    -0.206 F 
ATOM    104  C   UNL     1       5.475  -0.659  15.475  1.00  0.00     0.060 A 
BRANCH 104 105
ATOM    105  S   UNL     1       5.477  -1.287  17.167  1.00  0.00     0.124 S 
ATOM    106  O   UNL     1       5.127  -0.090  17.925  1.00  0.00    -0.237 OA
ATOM    107  O   UNL     1       4.454  -2.327  17.116  1.00  0.00    -0.237 OA
ATOM    108  O   UNL     1       6.843  -1.769  17.349  1.00  0.00    -0.744 OA
ENDBRANCH 104 105
ENDBRANCH  72  97
ENDBRANCH  46  47
ENDBRANCH  39  41
ENDBRANCH  38  39
ENDBRANCH  37  38
ENDBRANCH  36  37
ENDBRANCH  35  36
ENDBRANCH   1  35
TORSDOF 22
