REMARK SMILES Cc1nc(NC2CCCCCC2)sc1C(=O)OCCOCCOC(=O)c1ccc(-c2c3nc(c(-c4c(F)cc(S(=O)(=O)[O-])cc4F)c4ccc([nH]4)c(-c4c(F)cc(S(=O)(=O)[O-])cc4F)c4nc(c(-c5c(F)cc(S(=O)(=O)[O-])cc5F)c5ccc2[nH]5)C=C4)C=C3)cc1
REMARK SMILES IDX 19 1 18 2 17 3 15 4 16 5 14 6 1 7 2 8 3 9 4 10 13 11 5 12
REMARK SMILES IDX 6 14 7 15 8 16 9 17 12 19 11 20 10 21 20 23 21 24 22 25
REMARK SMILES IDX 23 26 24 27 25 28 26 29 27 30 91 31 28 32 90 33 29 34 30 35
REMARK SMILES IDX 31 36 84 37 32 38 89 39 83 40 85 41 33 42 88 43 82 44 81 45
REMARK SMILES IDX 34 47 68 48 47 49 67 50 48 51 51 52 66 53 86 54 49 55 50 56
REMARK SMILES IDX 65 58 87 59 52 60 35 61 36 62 45 63 37 64 38 65 44 66 46 67
REMARK SMILES IDX 39 68 40 69 41 70 42 71 43 72 69 73 70 74 79 75 71 76 72 77
REMARK SMILES IDX 78 78 80 79 73 80 74 81 75 82 76 83 77 84 53 85 54 86 63 87
REMARK SMILES IDX 55 88 56 89 62 90 64 91 57 92 58 93 59 94 60 95 61 96
REMARK H PARENT 5 13 85 46 51 57
REMARK Flexibility Score: 90.00
ROOT
ATOM      1  C   UNL     1      -1.013  -5.004  -0.419  1.00  0.00     0.202 C 
ENDROOT
BRANCH   1   2
ATOM      2  C   UNL     1      -1.070  -4.492   1.022  1.00  0.00     0.261 C 
BRANCH   2   3
ATOM      3  O   UNL     1      -1.159  -3.056   1.019  1.00  0.00    -0.459 OA
BRANCH   3   4
ATOM      4  C   UNL     1      -0.083  -2.377   1.502  1.00  0.00     0.350 C 
ATOM      5  O   UNL     1       0.833  -2.898   2.128  1.00  0.00    -0.245 OA
BRANCH   4   6
ATOM      6  C   UNL     1      -0.136  -0.995   1.077  1.00  0.00     0.137 A 
ATOM      7  C   UNL     1      -2.558  -0.548   0.222  1.00  0.00     0.069 C 
ATOM      8  C   UNL     1      -1.137  -0.214   0.518  1.00  0.00     0.065 A 
ATOM      9  N   UNL     1      -0.740   1.077   0.199  1.00  0.00    -0.225 NA
ATOM     10  C   UNL     1       0.520   1.280   0.478  1.00  0.00     0.183 A 
ATOM     11  S   UNL     1       1.312  -0.065   1.183  1.00  0.00    -0.090 S 
BRANCH  10  12
ATOM     12  N   UNL     1       1.199   2.425   0.259  1.00  0.00    -0.359 N 
ATOM     13  H   UNL     1       2.174   2.419   0.397  1.00  0.00     0.163 HD
BRANCH  12  14
ATOM     14  C   UNL     1       0.572   3.672  -0.171  1.00  0.00     0.081 C 
BRANCH  14  15
ATOM     15  C   UNL     1      -0.035   3.570  -1.581  1.00  0.00     0.025 C 
BRANCH  15  16
ATOM     16  C   UNL     1      -1.557   3.468  -1.694  1.00  0.00     0.002 C 
BRANCH  16  17
ATOM     17  C   UNL     1      -2.282   4.800  -1.525  1.00  0.00     0.000 CG0
ATOM     18  G   UNL     1      -2.368   5.303  -0.089  1.00  0.00     0.000 G0
ENDBRANCH  16  17
ENDBRANCH  15  16
ENDBRANCH  14  15
BRANCH  14  19
ATOM     19  C   UNL     1      -0.307   4.240   0.950  1.00  0.00     0.025 C 
BRANCH  19  20
ATOM     20  C   UNL     1      -1.022   5.538   0.587  1.00  0.00     0.002 C 
BRANCH  20  21
ATOM     21  C   UNL     1      -2.368   5.303  -0.089  1.00  0.00     0.000 CG0
ATOM     22  G   UNL     1      -2.282   4.800  -1.525  1.00  0.00     0.000 G0
ENDBRANCH  20  21
ENDBRANCH  19  20
ENDBRANCH  14  19
ENDBRANCH  12  14
ENDBRANCH  10  12
ENDBRANCH   4   6
ENDBRANCH   3   4
ENDBRANCH   2   3
ENDBRANCH   1   2
BRANCH   1  23
ATOM     23  O   UNL     1       0.212  -4.699  -1.092  1.00  0.00    -0.374 OA
BRANCH  23  24
ATOM     24  C   UNL     1       0.257  -3.446  -1.779  1.00  0.00     0.202 C 
BRANCH  24  25
ATOM     25  C   UNL     1      -0.318  -3.469  -3.199  1.00  0.00     0.261 C 
BRANCH  25  26
ATOM     26  O   UNL     1      -1.753  -3.582  -3.176  1.00  0.00    -0.460 OA
BRANCH  26  27
ATOM     27  C   UNL     1      -2.238  -4.792  -3.547  1.00  0.00     0.338 C 
ATOM     28  O   UNL     1      -1.601  -5.740  -3.970  1.00  0.00    -0.246 OA
BRANCH  27  29
ATOM     29  C   UNL     1      -3.671  -4.883  -3.197  1.00  0.00     0.060 A 
ATOM     30  C   UNL     1      -4.101  -6.047  -2.549  1.00  0.00     0.016 A 
ATOM     31  C   UNL     1      -4.585  -3.881  -3.533  1.00  0.00     0.016 A 
ATOM     32  C   UNL     1      -5.455  -6.236  -2.278  1.00  0.00     0.010 A 
ATOM     33  C   UNL     1      -5.945  -4.075  -3.265  1.00  0.00     0.010 A 
ATOM     34  C   UNL     1      -6.390  -5.268  -2.666  1.00  0.00    -0.014 A 
BRANCH  34  35
ATOM     35  C   UNL     1      -7.840  -5.566  -2.562  1.00  0.00     0.031 A 
ATOM     36  C   UNL     1      -8.584  -6.013  -3.791  1.00  0.00     0.074 A 
ATOM     37  C   UNL     1      -8.479  -5.468  -1.382  1.00  0.00     0.049 A 
ATOM     38  N   UNL     1      -9.852  -6.302  -3.933  1.00  0.00    -0.248 NA
ATOM     39  C   UNL     1      -7.793  -6.154  -5.024  1.00  0.00     0.031 C 
ATOM     40  C   UNL     1      -7.860  -5.075  -0.117  1.00  0.00     0.029 A 
ATOM     41  N   UNL     1      -9.795  -5.686  -1.060  1.00  0.00    -0.354 N 
ATOM     42  C   UNL     1     -10.013  -6.655  -5.267  1.00  0.00     0.074 A 
ATOM     43  C   UNL     1      -8.719  -6.515  -5.901  1.00  0.00     0.031 C 
ATOM     44  C   UNL     1      -8.801  -5.067   0.844  1.00  0.00     0.029 A 
ATOM     45  C   UNL     1     -10.090  -5.428   0.257  1.00  0.00     0.049 A 
ATOM     46  H   UNL     1     -10.465  -5.997  -1.711  1.00  0.00     0.167 HD
ATOM     47  C   UNL     1     -11.134  -7.068  -5.905  1.00  0.00     0.037 A 
ATOM     48  C   UNL     1     -11.269  -5.461   0.909  1.00  0.00     0.037 A 
ATOM     49  C   UNL     1     -12.420  -7.206  -5.272  1.00  0.00     0.049 A 
ATOM     50  C   UNL     1     -12.515  -5.869   0.167  1.00  0.00     0.074 A 
ATOM     51  C   UNL     1     -13.613  -7.631  -5.830  1.00  0.00     0.029 A 
ATOM     52  N   UNL     1     -12.683  -6.917  -3.941  1.00  0.00    -0.354 N 
ATOM     53  N   UNL     1     -12.648  -6.221  -1.090  1.00  0.00    -0.248 NA
ATOM     54  C   UNL     1     -13.770  -5.888   0.931  1.00  0.00     0.031 C 
ATOM     55  C   UNL     1     -14.606  -7.559  -4.848  1.00  0.00     0.029 A 
ATOM     56  C   UNL     1     -14.022  -7.134  -3.665  1.00  0.00     0.049 A 
ATOM     57  H   UNL     1     -12.015  -6.603  -3.289  1.00  0.00     0.167 HD
ATOM     58  C   UNL     1     -13.995  -6.526  -1.260  1.00  0.00     0.074 A 
ATOM     59  C   UNL     1     -14.633  -6.326   0.024  1.00  0.00     0.031 C 
ATOM     60  C   UNL     1     -14.643  -6.936  -2.379  1.00  0.00     0.037 A 
BRANCH  47  61
ATOM     61  C   UNL     1     -11.022  -7.383  -7.370  1.00  0.00     0.058 A 
ATOM     62  C   UNL     1     -10.369  -8.537  -7.829  1.00  0.00     0.135 A 
ATOM     63  C   UNL     1     -11.601  -6.534  -8.327  1.00  0.00     0.135 A 
ATOM     64  F   UNL     1      -9.783  -9.373  -6.957  1.00  0.00    -0.206 F 
ATOM     65  C   UNL     1     -10.271  -8.827  -9.186  1.00  0.00     0.059 A 
ATOM     66  C   UNL     1     -11.537  -6.816  -9.689  1.00  0.00     0.059 A 
ATOM     67  F   UNL     1     -12.236  -5.415  -7.943  1.00  0.00    -0.206 F 
ATOM     68  C   UNL     1     -10.857  -7.958 -10.109  1.00  0.00     0.060 A 
BRANCH  68  69
ATOM     69  S   UNL     1     -10.723  -8.347 -11.867  1.00  0.00     0.124 S 
ATOM     70  O   UNL     1      -9.325  -8.018 -12.131  1.00  0.00    -0.237 OA
ATOM     71  O   UNL     1     -11.057  -9.767 -11.900  1.00  0.00    -0.237 OA
ATOM     72  O   UNL     1     -11.703  -7.461 -12.486  1.00  0.00    -0.744 OA
ENDBRANCH  68  69
ENDBRANCH  47  61
BRANCH  48  73
ATOM     73  C   UNL     1     -11.331  -5.085   2.347  1.00  0.00     0.058 A 
ATOM     74  C   UNL     1     -11.574  -6.045   3.339  1.00  0.00     0.135 A 
ATOM     75  C   UNL     1     -11.143  -3.755   2.754  1.00  0.00     0.135 A 
ATOM     76  F   UNL     1     -11.771  -7.328   2.998  1.00  0.00    -0.206 F 
ATOM     77  C   UNL     1     -11.641  -5.700   4.685  1.00  0.00     0.059 A 
ATOM     78  C   UNL     1     -11.182  -3.389   4.096  1.00  0.00     0.059 A 
ATOM     79  F   UNL     1     -10.897  -2.801   1.843  1.00  0.00    -0.206 F 
ATOM     80  C   UNL     1     -11.441  -4.368   5.054  1.00  0.00     0.060 A 
BRANCH  80  81
ATOM     81  S   UNL     1     -11.475  -3.937   6.808  1.00  0.00     0.124 S 
ATOM     82  O   UNL     1     -12.903  -3.990   7.095  1.00  0.00    -0.237 OA
ATOM     83  O   UNL     1     -10.663  -4.997   7.399  1.00  0.00    -0.237 OA
ATOM     84  O   UNL     1     -10.872  -2.608   6.836  1.00  0.00    -0.744 OA
ENDBRANCH  80  81
ENDBRANCH  48  73
BRANCH  60  85
ATOM     85  C   UNL     1     -16.113  -7.230  -2.261  1.00  0.00     0.058 A 
ATOM     86  C   UNL     1     -17.064  -6.203  -2.150  1.00  0.00     0.135 A 
ATOM     87  C   UNL     1     -16.581  -8.553  -2.315  1.00  0.00     0.135 A 
ATOM     88  F   UNL     1     -16.670  -4.921  -2.089  1.00  0.00    -0.206 F 
ATOM     89  C   UNL     1     -18.426  -6.479  -2.076  1.00  0.00     0.059 A 
ATOM     90  C   UNL     1     -17.939  -8.851  -2.268  1.00  0.00     0.059 A 
ATOM     91  F   UNL     1     -15.714  -9.572  -2.431  1.00  0.00    -0.206 F 
ATOM     92  C   UNL     1     -18.854  -7.807  -2.136  1.00  0.00     0.060 A 
BRANCH  92  93
ATOM     93  S   UNL     1     -20.625  -8.151  -2.074  1.00  0.00     0.124 S 
ATOM     94  O   UNL     1     -20.915  -7.943  -0.660  1.00  0.00    -0.237 OA
ATOM     95  O   UNL     1     -21.172  -7.152  -2.987  1.00  0.00    -0.237 OA
ATOM     96  O   UNL     1     -20.719  -9.532  -2.538  1.00  0.00    -0.744 OA
ENDBRANCH  92  93
ENDBRANCH  60  85
ENDBRANCH  34  35
ENDBRANCH  27  29
ENDBRANCH  26  27
ENDBRANCH  25  26
ENDBRANCH  24  25
ENDBRANCH  23  24
ENDBRANCH   1  23
TORSDOF 19
