REMARK SMILES N#CC1=C(N)N2C(=O)[C@@H](CC(=O)OCCOCCOC(=O)c3ccc(-c4c5nc(c(-c6c(F)cc(S(=O)(=O)[O-])cc6F)c6ccc([nH]6)c(-c6c(F)cc(S(=O)(=O)[O-])cc6F)c6nc(c(-c7c(F)cc(S(=O)(=O)[O-])cc7F)c7ccc4[nH]7)C=C6)C=C5)cc3)SC2=C(C#N)[C@H]1c1ccc(Cl)cc1
REMARK SMILES IDX 17 1 16 2 15 3 14 4 13 5 11 6 12 7 10 8 9 9 3 10 4 11 93 12
REMARK SMILES IDX 6 13 90 14 7 15 89 16 8 17 88 18 2 19 1 20 5 21 94 24 95 25
REMARK SMILES IDX 100 26 96 27 99 28 97 29 98 30 91 31 92 32 18 33 19 34 20 35
REMARK SMILES IDX 21 36 22 37 23 38 87 39 24 40 86 41 25 42 26 43 27 44 80 45
REMARK SMILES IDX 28 46 85 47 79 48 81 49 29 50 84 51 78 52 77 53 30 55 64 56
REMARK SMILES IDX 43 57 63 58 44 59 47 60 62 61 82 62 45 63 46 64 61 66 83 67
REMARK SMILES IDX 48 68 31 69 32 70 41 71 33 72 34 73 40 74 42 75 35 76 36 77
REMARK SMILES IDX 37 78 38 79 39 80 65 81 66 82 75 83 67 84 68 85 74 86 76 87
REMARK SMILES IDX 69 88 70 89 71 90 72 91 73 92 49 93 50 94 59 95 51 96 52 97
REMARK SMILES IDX 58 98 60 99 53 100 54 101 55 102 56 103 57 104
REMARK H PARENT 5 22 5 23 81 54 47 65
REMARK Flexibility Score: inf
ROOT
ATOM      1  C   UNL     1       5.843  -2.431  -3.384  1.00  0.00     0.202 C 
ENDROOT
BRANCH   1   2
ATOM      2  O   UNL     1       6.246  -3.460  -4.277  1.00  0.00    -0.374 OA
BRANCH   2   3
ATOM      3  C   UNL     1       6.696  -4.679  -3.693  1.00  0.00     0.202 C 
BRANCH   3   4
ATOM      4  C   UNL     1       8.001  -4.628  -2.881  1.00  0.00     0.261 C 
BRANCH   4   5
ATOM      5  O   UNL     1       8.002  -3.678  -1.780  1.00  0.00    -0.463 OA
BRANCH   5   6
ATOM      6  C   UNL     1       8.924  -2.695  -1.881  1.00  0.00     0.307 C 
ATOM      7  O   UNL     1       9.709  -2.582  -2.822  1.00  0.00    -0.252 OA
BRANCH   6   8
ATOM      8  C   UNL     1       8.839  -1.575  -0.870  1.00  0.00     0.147 C 
BRANCH   8   9
ATOM      9  C   UNL     1       8.228  -1.663   0.527  1.00  0.00     0.154 C 
ATOM     10  C   UNL     1       3.831   0.056  -0.066  1.00  0.00     0.083 C 
ATOM     11  C   UNL     1       4.514  -1.002   0.447  1.00  0.00     0.126 C 
ATOM     12  C   UNL     1       4.531   1.365  -0.414  1.00  0.00     0.107 C 
ATOM     13  N   UNL     1       5.915  -0.951   0.504  1.00  0.00    -0.258 N 
ATOM     14  C   UNL     1       5.905   1.432   0.243  1.00  0.00     0.073 C 
ATOM     15  C   UNL     1       6.762  -2.064   0.672  1.00  0.00     0.247 C 
ATOM     16  C   UNL     1       6.523   0.285   0.569  1.00  0.00     0.099 C 
ATOM     17  O   UNL     1       6.408  -3.214   0.914  1.00  0.00    -0.273 OA
ATOM     18  S   UNL     1       8.164   0.115   1.121  1.00  0.00    -0.093 SA
BRANCH  10  19
ATOM     19  C   UNL     1       2.311   0.056  -0.066  1.00  0.00     0.100 C 
ATOM     20  N   UNL     1       1.050   0.056  -0.066  1.00  0.00    -0.193 NA
ENDBRANCH  10  19
BRANCH  11  21
ATOM     21  N   UNL     1       3.877  -2.133   0.876  1.00  0.00    -0.384 N 
ATOM     22  H   UNL     1       2.895  -2.188   0.843  1.00  0.00     0.158 HD
ATOM     23  H   UNL     1       4.401  -2.894   1.217  1.00  0.00     0.158 HD
ENDBRANCH  11  21
BRANCH  12  24
ATOM     24  C   UNL     1       4.575   1.619  -1.934  1.00  0.00    -0.034 A 
ATOM     25  C   UNL     1       5.777   1.672  -2.669  1.00  0.00     0.006 A 
ATOM     26  C   UNL     1       3.375   1.838  -2.638  1.00  0.00     0.006 A 
ATOM     27  C   UNL     1       5.779   1.943  -4.042  1.00  0.00     0.021 A 
ATOM     28  C   UNL     1       3.376   2.080  -4.016  1.00  0.00     0.021 A 
ATOM     29  C   UNL     1       4.578   2.139  -4.711  1.00  0.00     0.041 A 
ATOM     30  Cl  UNL     1       4.581   2.468  -6.398  1.00  0.00    -0.084 Cl
ENDBRANCH  12  24
BRANCH  14  31
ATOM     31  C   UNL     1       6.511   2.707   0.421  1.00  0.00     0.098 C 
ATOM     32  N   UNL     1       6.981   3.764   0.543  1.00  0.00    -0.193 NA
ENDBRANCH  14  31
ENDBRANCH   8   9
ENDBRANCH   6   8
ENDBRANCH   5   6
ENDBRANCH   4   5
ENDBRANCH   3   4
ENDBRANCH   2   3
ENDBRANCH   1   2
BRANCH   1  33
ATOM     33  C   UNL     1       4.754  -2.788  -2.372  1.00  0.00     0.261 C 
BRANCH  33  34
ATOM     34  O   UNL     1       5.140  -3.856  -1.485  1.00  0.00    -0.460 OA
BRANCH  34  35
ATOM     35  C   UNL     1       4.152  -4.727  -1.160  1.00  0.00     0.338 C 
ATOM     36  O   UNL     1       2.965  -4.595  -1.408  1.00  0.00    -0.246 OA
BRANCH  35  37
ATOM     37  C   UNL     1       4.699  -5.979  -0.589  1.00  0.00     0.060 A 
ATOM     38  C   UNL     1       4.835  -7.082  -1.440  1.00  0.00     0.016 A 
ATOM     39  C   UNL     1       4.893  -6.137   0.786  1.00  0.00     0.016 A 
ATOM     40  C   UNL     1       5.125  -8.346  -0.918  1.00  0.00     0.010 A 
ATOM     41  C   UNL     1       5.191  -7.408   1.308  1.00  0.00     0.010 A 
ATOM     42  C   UNL     1       5.271  -8.531   0.465  1.00  0.00    -0.014 A 
BRANCH  42  43
ATOM     43  C   UNL     1       5.399  -9.914   1.010  1.00  0.00     0.031 A 
ATOM     44  C   UNL     1       4.235 -10.551   1.732  1.00  0.00     0.074 A 
ATOM     45  C   UNL     1       6.523 -10.630   0.807  1.00  0.00     0.049 A 
ATOM     46  N   UNL     1       4.141 -11.744   2.264  1.00  0.00    -0.248 NA
ATOM     47  C   UNL     1       3.016  -9.739   1.871  1.00  0.00     0.031 C 
ATOM     48  C   UNL     1       7.707 -10.151   0.096  1.00  0.00     0.029 A 
ATOM     49  N   UNL     1       6.852 -11.913   1.175  1.00  0.00    -0.354 N 
ATOM     50  C   UNL     1       2.859 -11.827   2.800  1.00  0.00     0.074 A 
ATOM     51  C   UNL     1       2.225 -10.548   2.562  1.00  0.00     0.031 C 
ATOM     52  C   UNL     1       8.632 -11.126   0.077  1.00  0.00     0.029 A 
ATOM     53  C   UNL     1       8.126 -12.285   0.811  1.00  0.00     0.049 A 
ATOM     54  H   UNL     1       6.234 -12.511   1.655  1.00  0.00     0.167 HD
ATOM     55  C   UNL     1       2.261 -12.874   3.420  1.00  0.00     0.037 A 
ATOM     56  C   UNL     1       8.818 -13.416   1.059  1.00  0.00     0.037 A 
ATOM     57  C   UNL     1       2.894 -14.149   3.654  1.00  0.00     0.049 A 
ATOM     58  C   UNL     1       8.157 -14.537   1.821  1.00  0.00     0.074 A 
ATOM     59  C   UNL     1       2.360 -15.274   4.260  1.00  0.00     0.029 A 
ATOM     60  N   UNL     1       4.198 -14.468   3.307  1.00  0.00    -0.354 N 
ATOM     61  N   UNL     1       6.935 -14.607   2.294  1.00  0.00    -0.248 NA
ATOM     62  C   UNL     1       8.967 -15.737   2.080  1.00  0.00     0.031 C 
ATOM     63  C   UNL     1       3.361 -16.247   4.342  1.00  0.00     0.029 A 
ATOM     64  C   UNL     1       4.496 -15.759   3.716  1.00  0.00     0.049 A 
ATOM     65  H   UNL     1       4.822 -13.866   2.839  1.00  0.00     0.167 HD
ATOM     66  C   UNL     1       6.821 -15.868   2.873  1.00  0.00     0.074 A 
ATOM     67  C   UNL     1       8.091 -16.533   2.677  1.00  0.00     0.031 C 
ATOM     68  C   UNL     1       5.759 -16.424   3.508  1.00  0.00     0.037 A 
BRANCH  55  69
ATOM     69  C   UNL     1       0.849 -12.691   3.916  1.00  0.00     0.058 A 
ATOM     70  C   UNL     1      -0.241 -12.584   3.036  1.00  0.00     0.135 A 
ATOM     71  C   UNL     1       0.573 -12.698   5.295  1.00  0.00     0.135 A 
ATOM     72  F   UNL     1      -0.038 -12.559   1.709  1.00  0.00    -0.206 F 
ATOM     73  C   UNL     1      -1.547 -12.469   3.504  1.00  0.00     0.059 A 
ATOM     74  C   UNL     1      -0.728 -12.618   5.784  1.00  0.00     0.059 A 
ATOM     75  F   UNL     1       1.574 -12.801   6.183  1.00  0.00    -0.206 F 
ATOM     76  C   UNL     1      -1.781 -12.494   4.880  1.00  0.00     0.060 A 
BRANCH  76  77
ATOM     77  S   UNL     1      -3.484 -12.369   5.466  1.00  0.00     0.124 S 
ATOM     78  O   UNL     1      -3.815 -10.992   5.113  1.00  0.00    -0.237 OA
ATOM     79  O   UNL     1      -4.157 -13.402   4.686  1.00  0.00    -0.237 OA
ATOM     80  O   UNL     1      -3.374 -12.639   6.897  1.00  0.00    -0.744 OA
ENDBRANCH  76  77
ENDBRANCH  55  69
BRANCH  56  81
ATOM     81  C   UNL     1      10.234 -13.542   0.608  1.00  0.00     0.058 A 
ATOM     82  C   UNL     1      10.617 -14.495  -0.348  1.00  0.00     0.135 A 
ATOM     83  C   UNL     1      11.240 -12.727   1.152  1.00  0.00     0.135 A 
ATOM     84  F   UNL     1       9.699 -15.309  -0.890  1.00  0.00    -0.206 F 
ATOM     85  C   UNL     1      11.947 -14.653  -0.730  1.00  0.00     0.059 A 
ATOM     86  C   UNL     1      12.569 -12.841   0.760  1.00  0.00     0.059 A 
ATOM     87  F   UNL     1      10.930 -11.793   2.065  1.00  0.00    -0.206 F 
ATOM     88  C   UNL     1      12.916 -13.818  -0.171  1.00  0.00     0.060 A 
BRANCH  88  89
ATOM     89  S   UNL     1      14.632 -14.008  -0.697  1.00  0.00     0.124 S 
ATOM     90  O   UNL     1      14.983 -15.291  -0.098  1.00  0.00    -0.237 OA
ATOM     91  O   UNL     1      14.507 -13.993  -2.151  1.00  0.00    -0.237 OA
ATOM     92  O   UNL     1      15.292 -12.841  -0.120  1.00  0.00    -0.744 OA
ENDBRANCH  88  89
ENDBRANCH  56  81
BRANCH  68  93
ATOM     93  C   UNL     1       5.897 -17.843   3.999  1.00  0.00     0.058 A 
ATOM     94  C   UNL     1       6.739 -18.186   5.069  1.00  0.00     0.135 A 
ATOM     95  C   UNL     1       5.133 -18.871   3.418  1.00  0.00     0.135 A 
ATOM     96  F   UNL     1       7.497 -17.248   5.660  1.00  0.00    -0.206 F 
ATOM     97  C   UNL     1       6.841 -19.497   5.526  1.00  0.00     0.059 A 
ATOM     98  C   UNL     1       5.191 -20.181   3.883  1.00  0.00     0.059 A 
ATOM     99  F   UNL     1       4.303 -18.603   2.398  1.00  0.00    -0.206 F 
ATOM    100  C   UNL     1       6.059 -20.487   4.929  1.00  0.00     0.060 A 
BRANCH 100 101
ATOM    101  S   UNL     1       6.176 -22.176   5.556  1.00  0.00     0.124 S 
ATOM    102  O   UNL     1       7.512 -22.563   5.114  1.00  0.00    -0.237 OA
ATOM    103  O   UNL     1       6.015 -21.985   6.994  1.00  0.00    -0.237 OA
ATOM    104  O   UNL     1       5.073 -22.865   4.893  1.00  0.00    -0.744 OA
ENDBRANCH 100 101
ENDBRANCH  68  93
ENDBRANCH  42  43
ENDBRANCH  35  37
ENDBRANCH  34  35
ENDBRANCH  33  34
ENDBRANCH   1  33
TORSDOF 22
