REMARK SMILES CCCC[C@H]1C(=S)c2cc(C(=O)OCCOCCOC(=O)c3ccc(-c4c5nc(c(-c6c(F)cc(S(=O)(=O)[O-])cc6F)c6ccc([nH]6)c(-c6c(F)cc(S(=O)(=O)[O-])cc6F)c6nc(c(-c7c(F)cc(S(=O)(=O)[O-])cc7F)c7ccc4[nH]7)C=C6)C=C5)cc3)ccc2N=C1C
REMARK SMILES IDX 16 1 15 2 14 3 13 4 11 5 12 6 10 7 5 8 6 9 92 10 7 11 8 12
REMARK SMILES IDX 91 13 93 14 9 15 90 16 89 17 88 18 4 19 3 20 2 21 1 22 17 23
REMARK SMILES IDX 18 24 19 25 20 26 21 27 22 28 23 29 87 30 24 31 86 32 25 33
REMARK SMILES IDX 26 34 27 35 80 36 28 37 85 38 79 39 81 40 29 41 84 42 78 43
REMARK SMILES IDX 77 44 30 46 64 47 43 48 63 49 44 50 47 51 62 52 82 53 45 54
REMARK SMILES IDX 46 55 61 57 83 58 48 59 31 60 32 61 41 62 33 63 34 64 40 65
REMARK SMILES IDX 42 66 35 67 36 68 37 69 38 70 39 71 65 72 66 73 75 74 67 75
REMARK SMILES IDX 68 76 74 77 76 78 69 79 70 80 71 81 72 82 73 83 49 84 50 85
REMARK SMILES IDX 59 86 51 87 52 88 58 89 60 90 53 91 54 92 55 93 56 94 57 95
REMARK H PARENT 81 45 47 56
REMARK Flexibility Score: inf
ROOT
ATOM      1  O   UNL     1      -3.175   5.649   8.825  1.00  0.00    -0.374 OA
ENDROOT
BRANCH   1   2
ATOM      2  C   UNL     1      -4.386   5.283   9.484  1.00  0.00     0.202 C 
BRANCH   2   3
ATOM      3  C   UNL     1      -5.484   4.627   8.640  1.00  0.00     0.261 C 
BRANCH   3   4
ATOM      4  O   UNL     1      -5.038   3.408   8.025  1.00  0.00    -0.460 OA
BRANCH   4   5
ATOM      5  C   UNL     1      -4.893   3.485   6.682  1.00  0.00     0.338 C 
ATOM      6  O   UNL     1      -5.201   4.414   5.954  1.00  0.00    -0.246 OA
BRANCH   5   7
ATOM      7  C   UNL     1      -4.092   2.346   6.189  1.00  0.00     0.060 A 
ATOM      8  C   UNL     1      -0.895   0.843   2.784  1.00  0.00     0.075 C 
ATOM      9  C   UNL     1      -1.149   1.883   3.865  1.00  0.00     0.033 C 
ATOM     10  C   UNL     1      -1.245  -0.555   3.293  1.00  0.00     0.024 C 
ATOM     11  S   UNL     1      -0.082   3.165   4.124  1.00  0.00    -0.083 S 
ATOM     12  C   UNL     1      -2.309   1.623   4.734  1.00  0.00     0.016 A 
ATOM     13  N   UNL     1      -1.999  -0.787   4.325  1.00  0.00    -0.257 NA
ATOM     14  C   UNL     1      -0.740  -1.745   2.513  1.00  0.00     0.062 C 
ATOM     15  C   UNL     1      -3.071   2.651   5.285  1.00  0.00     0.027 A 
ATOM     16  C   UNL     1      -2.603   0.283   5.004  1.00  0.00     0.071 A 
ATOM     17  C   UNL     1      -3.578  -0.001   5.969  1.00  0.00     0.030 A 
ATOM     18  C   UNL     1      -4.313   1.025   6.580  1.00  0.00     0.018 A 
BRANCH   8  19
ATOM     19  C   UNL     1      -1.697   1.131   1.499  1.00  0.00     0.015 C 
BRANCH  19  20
ATOM     20  C   UNL     1      -1.338   2.423   0.747  1.00  0.00     0.001 C 
BRANCH  20  21
ATOM     21  C   UNL     1       0.136   2.612   0.376  1.00  0.00    -0.003 C 
ATOM     22  C   UNL     1       0.681   1.546  -0.558  1.00  0.00     0.004 C 
ENDBRANCH  20  21
ENDBRANCH  19  20
ENDBRANCH   8  19
ENDBRANCH   5   7
ENDBRANCH   4   5
ENDBRANCH   3   4
ENDBRANCH   2   3
ENDBRANCH   1   2
BRANCH   1  23
ATOM     23  C   UNL     1      -2.237   4.615   8.526  1.00  0.00     0.202 C 
BRANCH  23  24
ATOM     24  C   UNL     1      -1.422   4.026   9.685  1.00  0.00     0.261 C 
BRANCH  24  25
ATOM     25  O   UNL     1      -2.236   3.309  10.627  1.00  0.00    -0.460 OA
BRANCH  25  26
ATOM     26  C   UNL     1      -2.411   3.925  11.823  1.00  0.00     0.338 C 
ATOM     27  O   UNL     1      -1.917   4.980  12.188  1.00  0.00    -0.246 OA
BRANCH  26  28
ATOM     28  C   UNL     1      -3.474   3.228  12.576  1.00  0.00     0.060 A 
ATOM     29  C   UNL     1      -3.433   1.849  12.782  1.00  0.00     0.016 A 
ATOM     30  C   UNL     1      -4.525   3.994  13.098  1.00  0.00     0.016 A 
ATOM     31  C   UNL     1      -4.441   1.241  13.534  1.00  0.00     0.010 A 
ATOM     32  C   UNL     1      -5.528   3.384  13.853  1.00  0.00     0.010 A 
ATOM     33  C   UNL     1      -5.486   2.004  14.091  1.00  0.00    -0.014 A 
BRANCH  33  34
ATOM     34  C   UNL     1      -6.463   1.361  15.006  1.00  0.00     0.031 A 
ATOM     35  C   UNL     1      -7.882   1.111  14.589  1.00  0.00     0.074 A 
ATOM     36  C   UNL     1      -6.044   0.990  16.232  1.00  0.00     0.049 A 
ATOM     37  N   UNL     1      -8.821   0.460  15.227  1.00  0.00    -0.248 NA
ATOM     38  C   UNL     1      -8.308   1.666  13.296  1.00  0.00     0.031 C 
ATOM     39  C   UNL     1      -4.700   1.226  16.764  1.00  0.00     0.029 A 
ATOM     40  N   UNL     1      -6.690   0.324  17.243  1.00  0.00    -0.354 N 
ATOM     41  C   UNL     1      -9.940   0.501  14.406  1.00  0.00     0.074 A 
ATOM     42  C   UNL     1      -9.581   1.295  13.249  1.00  0.00     0.031 C 
ATOM     43  C   UNL     1      -4.607   0.671  17.982  1.00  0.00     0.029 A 
ATOM     44  C   UNL     1      -5.890   0.069  18.332  1.00  0.00     0.049 A 
ATOM     45  H   UNL     1      -7.636   0.055  17.193  1.00  0.00     0.167 HD
ATOM     46  C   UNL     1     -11.145  -0.093  14.590  1.00  0.00     0.037 A 
ATOM     47  C   UNL     1      -6.155  -0.585  19.480  1.00  0.00     0.037 A 
ATOM     48  C   UNL     1     -11.495  -0.870  15.753  1.00  0.00     0.049 A 
ATOM     49  C   UNL     1      -7.517  -1.191  19.682  1.00  0.00     0.074 A 
ATOM     50  C   UNL     1     -12.676  -1.545  16.010  1.00  0.00     0.029 A 
ATOM     51  N   UNL     1     -10.678  -1.063  16.858  1.00  0.00    -0.354 N 
ATOM     52  N   UNL     1      -8.534  -1.224  18.854  1.00  0.00    -0.248 NA
ATOM     53  C   UNL     1      -7.770  -1.849  20.971  1.00  0.00     0.031 C 
ATOM     54  C   UNL     1     -12.595  -2.097  17.292  1.00  0.00     0.029 A 
ATOM     55  C   UNL     1     -11.343  -1.815  17.814  1.00  0.00     0.049 A 
ATOM     56  H   UNL     1      -9.760  -0.718  16.949  1.00  0.00     0.167 HD
ATOM     57  C   UNL     1      -9.543  -1.913  19.517  1.00  0.00     0.074 A 
ATOM     58  C   UNL     1      -9.006  -2.303  20.805  1.00  0.00     0.031 C 
ATOM     59  C   UNL     1     -10.802  -2.192  19.098  1.00  0.00     0.037 A 
BRANCH  46  60
ATOM     60  C   UNL     1     -12.176   0.054  13.504  1.00  0.00     0.058 A 
ATOM     61  C   UNL     1     -12.030  -0.598  12.268  1.00  0.00     0.135 A 
ATOM     62  C   UNL     1     -13.355   0.785  13.721  1.00  0.00     0.135 A 
ATOM     63  F   UNL     1     -10.919  -1.303  12.002  1.00  0.00    -0.206 F 
ATOM     64  C   UNL     1     -13.005  -0.513  11.281  1.00  0.00     0.059 A 
ATOM     65  C   UNL     1     -14.357   0.861  12.757  1.00  0.00     0.059 A 
ATOM     66  F   UNL     1     -13.549   1.424  14.885  1.00  0.00    -0.206 F 
ATOM     67  C   UNL     1     -14.168   0.216  11.536  1.00  0.00     0.060 A 
BRANCH  67  68
ATOM     68  S   UNL     1     -15.423   0.303  10.242  1.00  0.00     0.124 S 
ATOM     69  O   UNL     1     -14.740   1.099   9.226  1.00  0.00    -0.237 OA
ATOM     70  O   UNL     1     -15.626  -1.104   9.912  1.00  0.00    -0.237 OA
ATOM     71  O   UNL     1     -16.548   0.961  10.899  1.00  0.00    -0.744 OA
ENDBRANCH  67  68
ENDBRANCH  46  60
BRANCH  47  72
ATOM     72  C   UNL     1      -5.093  -0.725  20.512  1.00  0.00     0.058 A 
ATOM     73  C   UNL     1      -4.515  -1.972  20.787  1.00  0.00     0.135 A 
ATOM     74  C   UNL     1      -4.614   0.389  21.221  1.00  0.00     0.135 A 
ATOM     75  F   UNL     1      -4.943  -3.067  20.141  1.00  0.00    -0.206 F 
ATOM     76  C   UNL     1      -3.505  -2.114  21.734  1.00  0.00     0.059 A 
ATOM     77  C   UNL     1      -3.586   0.277  22.152  1.00  0.00     0.059 A 
ATOM     78  F   UNL     1      -5.124   1.607  20.985  1.00  0.00    -0.206 F 
ATOM     79  C   UNL     1      -3.042  -0.982  22.406  1.00  0.00     0.060 A 
BRANCH  79  80
ATOM     80  S   UNL     1      -1.695  -1.174  23.593  1.00  0.00     0.124 S 
ATOM     81  O   UNL     1      -2.345  -1.931  24.656  1.00  0.00    -0.237 OA
ATOM     82  O   UNL     1      -0.702  -1.899  22.807  1.00  0.00    -0.237 OA
ATOM     83  O   UNL     1      -1.339   0.202  23.925  1.00  0.00    -0.744 OA
ENDBRANCH  79  80
ENDBRANCH  47  72
BRANCH  59  84
ATOM     84  C   UNL     1     -11.704  -2.945  20.038  1.00  0.00     0.058 A 
ATOM     85  C   UNL     1     -12.247  -2.329  21.176  1.00  0.00     0.135 A 
ATOM     86  C   UNL     1     -12.107  -4.259  19.749  1.00  0.00     0.135 A 
ATOM     87  F   UNL     1     -11.888  -1.078  21.504  1.00  0.00    -0.206 F 
ATOM     88  C   UNL     1     -13.156  -2.990  21.997  1.00  0.00     0.059 A 
ATOM     89  C   UNL     1     -13.037  -4.929  20.540  1.00  0.00     0.059 A 
ATOM     90  F   UNL     1     -11.624  -4.893  18.669  1.00  0.00    -0.206 F 
ATOM     91  C   UNL     1     -13.554  -4.286  21.663  1.00  0.00     0.060 A 
BRANCH  91  92
ATOM     92  S   UNL     1     -14.788  -5.099  22.701  1.00  0.00     0.124 S 
ATOM     93  O   UNL     1     -14.043  -5.307  23.938  1.00  0.00    -0.237 OA
ATOM     94  O   UNL     1     -15.849  -4.099  22.760  1.00  0.00    -0.237 OA
ATOM     95  O   UNL     1     -15.116  -6.311  21.956  1.00  0.00    -0.744 OA
ENDBRANCH  91  92
ENDBRANCH  59  84
ENDBRANCH  33  34
ENDBRANCH  26  28
ENDBRANCH  25  26
ENDBRANCH  24  25
ENDBRANCH  23  24
ENDBRANCH   1  23
TORSDOF 20
