REMARK SMILES O=C(OCCOCCOC(=O)[C@H](c1ccccc1)N1C(=O)/C(=C/c2ccc(-c3nc4ccccc4s3)o2)SC1=S)c1ccc(-c2c3nc(c(-c4c(F)cc(S(=O)(=O)[O-])cc4F)c4ccc([nH]4)c(-c4c(F)cc(S(=O)(=O)[O-])cc4F)c4nc(c(-c5c(F)cc(S(=O)(=O)[O-])cc5F)c5ccc2[nH]5)C=C4)C=C3)cc1
REMARK SMILES IDX 6 1 5 2 4 3 3 4 2 5 1 6 41 7 42 8 106 9 43 10 105 11 44 12
REMARK SMILES IDX 45 13 46 14 99 15 47 16 104 17 98 18 100 19 48 20 103 21
REMARK SMILES IDX 97 22 96 23 49 25 83 26 62 27 82 28 63 29 66 30 81 31 101 32
REMARK SMILES IDX 64 33 65 34 80 36 102 37 67 38 50 39 51 40 60 41 52 42 53 43
REMARK SMILES IDX 59 44 61 45 54 46 55 47 56 48 57 49 58 50 84 51 85 52 94 53
REMARK SMILES IDX 86 54 87 55 93 56 95 57 88 58 89 59 90 60 91 61 92 62 68 63
REMARK SMILES IDX 69 64 78 65 70 66 71 67 77 68 79 69 72 70 73 71 74 72 75 73
REMARK SMILES IDX 76 74 7 75 8 76 9 77 10 78 11 79 12 80 19 81 20 82 39 83
REMARK SMILES IDX 21 84 22 85 38 86 40 87 23 88 24 89 25 90 37 91 26 92 27 93
REMARK SMILES IDX 28 94 29 95 36 96 30 97 35 98 31 99 34 100 32 101 33 102
REMARK SMILES IDX 13 103 14 104 18 105 15 106 17 107 16 108
REMARK H PARENT 100 24 66 35
REMARK Flexibility Score: inf
ROOT
ATOM      1  O   UNL     1       4.770   3.620   0.624  1.00  0.00    -0.374 OA
ENDROOT
BRANCH   1   2
ATOM      2  C   UNL     1       5.737   2.568   0.629  1.00  0.00     0.202 C 
BRANCH   2   3
ATOM      3  C   UNL     1       6.752   2.476  -0.511  1.00  0.00     0.261 C 
BRANCH   3   4
ATOM      4  O   UNL     1       7.494   3.695  -0.623  1.00  0.00    -0.460 OA
BRANCH   4   5
ATOM      5  C   UNL     1       7.288   4.685  -1.523  1.00  0.00     0.338 C 
ATOM      6  O   UNL     1       8.042   5.655  -1.521  1.00  0.00    -0.246 OA
BRANCH   5   7
ATOM      7  C   UNL     1       6.168   4.654  -2.509  1.00  0.00     0.060 A 
ATOM      8  C   UNL     1       4.958   3.990  -2.303  1.00  0.00     0.016 A 
ATOM      9  C   UNL     1       6.307   5.418  -3.675  1.00  0.00     0.016 A 
ATOM     10  C   UNL     1       3.930   4.034  -3.210  1.00  0.00     0.010 A 
ATOM     11  C   UNL     1       5.258   5.502  -4.594  1.00  0.00     0.010 A 
ATOM     12  C   UNL     1       4.069   4.808  -4.348  1.00  0.00    -0.014 A 
BRANCH  12  13
ATOM     13  C   UNL     1       2.956   4.737  -5.291  1.00  0.00     0.031 A 
ATOM     14  C   UNL     1       3.109   3.835  -6.468  1.00  0.00     0.074 A 
ATOM     15  C   UNL     1       1.786   5.305  -4.947  1.00  0.00     0.049 A 
ATOM     16  N   UNL     1       2.287   3.631  -7.454  1.00  0.00    -0.248 NA
ATOM     17  C   UNL     1       4.347   3.035  -6.532  1.00  0.00     0.031 C 
ATOM     18  C   UNL     1       1.536   6.034  -3.695  1.00  0.00     0.029 A 
ATOM     19  N   UNL     1       0.581   5.325  -5.585  1.00  0.00    -0.354 N 
ATOM     20  C   UNL     1       2.924   2.718  -8.281  1.00  0.00     0.074 A 
ATOM     21  C   UNL     1       4.192   2.387  -7.676  1.00  0.00     0.031 C 
ATOM     22  C   UNL     1       0.253   6.424  -3.662  1.00  0.00     0.029 A 
ATOM     23  C   UNL     1      -0.378   6.051  -4.919  1.00  0.00     0.049 A 
ATOM     24  H   UNL     1       0.414   4.865  -6.440  1.00  0.00     0.167 HD
ATOM     25  C   UNL     1       2.475   2.231  -9.457  1.00  0.00     0.037 A 
ATOM     26  C   UNL     1      -1.606   6.417  -5.328  1.00  0.00     0.037 A 
ATOM     27  C   UNL     1       1.197   2.596 -10.002  1.00  0.00     0.049 A 
ATOM     28  C   UNL     1      -2.031   5.955  -6.697  1.00  0.00     0.074 A 
ATOM     29  C   UNL     1       0.641   2.240 -11.214  1.00  0.00     0.029 A 
ATOM     30  N   UNL     1       0.275   3.410  -9.353  1.00  0.00    -0.354 N 
ATOM     31  N   UNL     1      -1.391   5.168  -7.533  1.00  0.00    -0.248 NA
ATOM     32  C   UNL     1      -3.323   6.438  -7.190  1.00  0.00     0.031 C 
ATOM     33  C   UNL     1      -0.595   2.885 -11.321  1.00  0.00     0.029 A 
ATOM     34  C   UNL     1      -0.839   3.590 -10.149  1.00  0.00     0.049 A 
ATOM     35  H   UNL     1       0.398   3.800  -8.458  1.00  0.00     0.167 HD
ATOM     36  C   UNL     1      -2.211   5.045  -8.646  1.00  0.00     0.074 A 
ATOM     37  C   UNL     1      -3.403   5.823  -8.362  1.00  0.00     0.031 C 
ATOM     38  C   UNL     1      -2.005   4.364  -9.800  1.00  0.00     0.037 A 
BRANCH  25  39
ATOM     39  C   UNL     1       3.402   1.356 -10.245  1.00  0.00     0.058 A 
ATOM     40  C   UNL     1       3.692   0.035  -9.872  1.00  0.00     0.135 A 
ATOM     41  C   UNL     1       4.019   1.862 -11.401  1.00  0.00     0.135 A 
ATOM     42  F   UNL     1       3.168  -0.482  -8.750  1.00  0.00    -0.206 F 
ATOM     43  C   UNL     1       4.563  -0.754 -10.618  1.00  0.00     0.059 A 
ATOM     44  C   UNL     1       4.874   1.085 -12.174  1.00  0.00     0.059 A 
ATOM     45  F   UNL     1       3.800   3.130 -11.783  1.00  0.00    -0.206 F 
ATOM     46  C   UNL     1       5.143  -0.222 -11.772  1.00  0.00     0.060 A 
BRANCH  46  47
ATOM     47  S   UNL     1       6.241  -1.269 -12.748  1.00  0.00     0.124 S 
ATOM     48  O   UNL     1       7.407  -1.367 -11.875  1.00  0.00    -0.237 OA
ATOM     49  O   UNL     1       5.455  -2.490 -12.894  1.00  0.00    -0.237 OA
ATOM     50  O   UNL     1       6.440  -0.504 -13.975  1.00  0.00    -0.744 OA
ENDBRANCH  46  47
ENDBRANCH  25  39
BRANCH  26  51
ATOM     51  C   UNL     1      -2.453   7.321  -4.502  1.00  0.00     0.058 A 
ATOM     52  C   UNL     1      -3.709   6.920  -4.025  1.00  0.00     0.135 A 
ATOM     53  C   UNL     1      -2.035   8.630  -4.201  1.00  0.00     0.135 A 
ATOM     54  F   UNL     1      -4.160   5.683  -4.282  1.00  0.00    -0.206 F 
ATOM     55  C   UNL     1      -4.535   7.791  -3.317  1.00  0.00     0.059 A 
ATOM     56  C   UNL     1      -2.826   9.507  -3.466  1.00  0.00     0.059 A 
ATOM     57  F   UNL     1      -0.837   9.070  -4.619  1.00  0.00    -0.206 F 
ATOM     58  C   UNL     1      -4.086   9.085  -3.048  1.00  0.00     0.060 A 
BRANCH  58  59
ATOM     59  S   UNL     1      -5.169  10.214  -2.145  1.00  0.00     0.124 S 
ATOM     60  O   UNL     1      -6.188  10.504  -3.147  1.00  0.00    -0.237 OA
ATOM     61  O   UNL     1      -5.597   9.392  -1.018  1.00  0.00    -0.237 OA
ATOM     62  O   UNL     1      -4.286  11.325  -1.803  1.00  0.00    -0.744 OA
ENDBRANCH  58  59
ENDBRANCH  26  51
BRANCH  38  63
ATOM     63  C   UNL     1      -3.114   4.399 -10.809  1.00  0.00     0.058 A 
ATOM     64  C   UNL     1      -3.383   5.547 -11.566  1.00  0.00     0.135 A 
ATOM     65  C   UNL     1      -3.865   3.241 -11.063  1.00  0.00     0.135 A 
ATOM     66  F   UNL     1      -2.694   6.679 -11.350  1.00  0.00    -0.206 F 
ATOM     67  C   UNL     1      -4.380   5.553 -12.532  1.00  0.00     0.059 A 
ATOM     68  C   UNL     1      -4.843   3.214 -12.048  1.00  0.00     0.059 A 
ATOM     69  F   UNL     1      -3.631   2.115 -10.369  1.00  0.00    -0.206 F 
ATOM     70  C   UNL     1      -5.100   4.379 -12.769  1.00  0.00     0.060 A 
BRANCH  70  71
ATOM     71  S   UNL     1      -6.357   4.387 -14.061  1.00  0.00     0.124 S 
ATOM     72  O   UNL     1      -7.417   5.168 -13.432  1.00  0.00    -0.237 OA
ATOM     73  O   UNL     1      -5.662   5.035 -15.168  1.00  0.00    -0.237 OA
ATOM     74  O   UNL     1      -6.652   2.971 -14.256  1.00  0.00    -0.744 OA
ENDBRANCH  70  71
ENDBRANCH  38  63
ENDBRANCH  12  13
ENDBRANCH   5   7
ENDBRANCH   4   5
ENDBRANCH   3   4
ENDBRANCH   2   3
ENDBRANCH   1   2
BRANCH   1  75
ATOM     75  C   UNL     1       5.218   4.933   0.979  1.00  0.00     0.202 C 
BRANCH  75  76
ATOM     76  C   UNL     1       4.265   5.498   2.029  1.00  0.00     0.261 C 
BRANCH  76  77
ATOM     77  O   UNL     1       4.439   4.679   3.190  1.00  0.00    -0.461 OA
BRANCH  77  78
ATOM     78  C   UNL     1       3.629   3.582   3.267  1.00  0.00     0.334 C 
ATOM     79  O   UNL     1       2.422   3.633   3.077  1.00  0.00    -0.249 OA
BRANCH  78  80
ATOM     80  C   UNL     1       4.469   2.368   3.766  1.00  0.00     0.232 C 
BRANCH  80  81
ATOM     81  N   UNL     1       4.514   2.441   5.231  1.00  0.00    -0.274 N 
ATOM     82  C   UNL     1       3.911   1.513   6.039  1.00  0.00     0.267 C 
ATOM     83  C   UNL     1       5.182   3.443   5.915  1.00  0.00     0.149 C 
ATOM     84  O   UNL     1       3.626   0.347   5.785  1.00  0.00    -0.268 OA
ATOM     85  C   UNL     1       3.704   2.085   7.378  1.00  0.00     0.084 C 
ATOM     86  S   UNL     1       4.464   3.615   7.505  1.00  0.00    -0.054 SA
ATOM     87  S   UNL     1       6.498   4.361   5.454  1.00  0.00    -0.052 S 
ATOM     88  C   UNL     1       2.949   1.441   8.269  1.00  0.00     0.068 C 
BRANCH  88  89
ATOM     89  C   UNL     1       2.489   2.111   9.418  1.00  0.00     0.129 A 
ATOM     90  C   UNL     1       1.523   3.104   9.470  1.00  0.00     0.051 A 
ATOM     91  O   UNL     1       2.960   1.885  10.680  1.00  0.00    -0.454 OA
ATOM     92  C   UNL     1       1.405   3.493  10.812  1.00  0.00     0.054 A 
ATOM     93  C   UNL     1       2.296   2.721  11.533  1.00  0.00     0.163 A 
BRANCH  93  94
ATOM     94  C   UNL     1       2.480   2.750  12.947  1.00  0.00     0.160 A 
ATOM     95  N   UNL     1       1.479   3.072  13.732  1.00  0.00    -0.233 NA
ATOM     96  S   UNL     1       3.975   2.433  13.710  1.00  0.00    -0.111 S 
ATOM     97  C   UNL     1       1.904   3.088  15.037  1.00  0.00     0.082 A 
ATOM     98  C   UNL     1       3.256   2.799  15.235  1.00  0.00     0.055 A 
ATOM     99  C   UNL     1       1.090   3.383  16.144  1.00  0.00     0.030 A 
ATOM    100  C   UNL     1       3.832   2.830  16.514  1.00  0.00     0.021 A 
ATOM    101  C   UNL     1       1.650   3.409  17.420  1.00  0.00     0.002 A 
ATOM    102  C   UNL     1       3.005   3.145  17.599  1.00  0.00     0.002 A 
ENDBRANCH  93  94
ENDBRANCH  88  89
ENDBRANCH  80  81
BRANCH  80 103
ATOM    103  C   UNL     1       4.010   1.046   3.138  1.00  0.00    -0.014 A 
ATOM    104  C   UNL     1       2.650   0.723   2.973  1.00  0.00     0.006 A 
ATOM    105  C   UNL     1       4.960   0.107   2.696  1.00  0.00     0.006 A 
ATOM    106  C   UNL     1       2.255  -0.453   2.333  1.00  0.00     0.000 A 
ATOM    107  C   UNL     1       4.564  -1.062   2.038  1.00  0.00     0.000 A 
ATOM    108  C   UNL     1       3.212  -1.338   1.851  1.00  0.00     0.000 A 
ENDBRANCH  80 103
ENDBRANCH  78  80
ENDBRANCH  77  78
ENDBRANCH  76  77
ENDBRANCH  75  76
ENDBRANCH   1  75
TORSDOF 21
