REMARK SMILES O=C(OCCOCCOC(=O)[C@@H](F)[C@H](O)c1cccc(Cl)c1)c1ccc(-c2c3nc(c(-c4c(F)cc(S(=O)(=O)[O-])cc4F)c4ccc([nH]4)c(-c4c(F)cc(S(=O)(=O)[O-])cc4F)c4nc(c(-c5c(F)cc(S(=O)(=O)[O-])cc5F)c5ccc2[nH]5)C=C4)C=C3)cc1
REMARK SMILES IDX 5 1 4 2 3 3 2 4 1 5 23 6 24 7 88 8 25 9 87 10 26 11 27 12
REMARK SMILES IDX 28 13 81 14 29 15 86 16 80 17 82 18 30 19 85 20 79 21 78 22
REMARK SMILES IDX 31 24 65 25 44 26 64 27 45 28 48 29 63 30 83 31 46 32 47 33
REMARK SMILES IDX 62 35 84 36 49 37 32 38 33 39 42 40 34 41 35 42 41 43 43 44
REMARK SMILES IDX 36 45 37 46 38 47 39 48 40 49 66 50 67 51 76 52 68 53 69 54
REMARK SMILES IDX 75 55 77 56 70 57 71 58 72 59 73 60 74 61 50 62 51 63 60 64
REMARK SMILES IDX 52 65 53 66 59 67 61 68 54 69 55 70 56 71 57 72 58 73 6 74
REMARK SMILES IDX 7 75 8 76 9 77 10 78 11 79 12 80 13 81 14 82 16 83 17 84
REMARK SMILES IDX 22 85 18 86 20 87 19 88 21 89 15 90
REMARK H PARENT 82 23 48 34 15 91
REMARK Flexibility Score: inf
ROOT
ATOM      1  C   UNL     1       6.924   0.347  -6.895  1.00  0.00     0.202 C 
ENDROOT
BRANCH   1   2
ATOM      2  C   UNL     1       7.741   0.706  -8.140  1.00  0.00     0.261 C 
BRANCH   2   3
ATOM      3  O   UNL     1       8.578  -0.398  -8.523  1.00  0.00    -0.460 OA
BRANCH   3   4
ATOM      4  C   UNL     1       9.874  -0.619  -8.204  1.00  0.00     0.338 C 
ATOM      5  O   UNL     1      10.404  -1.660  -8.591  1.00  0.00    -0.246 OA
BRANCH   4   6
ATOM      6  C   UNL     1      10.707   0.333  -7.406  1.00  0.00     0.060 A 
ATOM      7  C   UNL     1      10.207   1.264  -6.496  1.00  0.00     0.016 A 
ATOM      8  C   UNL     1      12.102   0.223  -7.530  1.00  0.00     0.016 A 
ATOM      9  C   UNL     1      11.032   2.093  -5.768  1.00  0.00     0.010 A 
ATOM     10  C   UNL     1      12.954   1.048  -6.789  1.00  0.00     0.010 A 
ATOM     11  C   UNL     1      12.407   2.001  -5.925  1.00  0.00    -0.014 A 
BRANCH  11  12
ATOM     12  C   UNL     1      13.190   3.075  -5.306  1.00  0.00     0.031 A 
ATOM     13  C   UNL     1      13.589   4.221  -6.183  1.00  0.00     0.074 A 
ATOM     14  C   UNL     1      13.312   3.108  -3.968  1.00  0.00     0.049 A 
ATOM     15  N   UNL     1      14.227   5.313  -5.876  1.00  0.00    -0.248 NA
ATOM     16  C   UNL     1      13.186   4.135  -7.600  1.00  0.00     0.031 C 
ATOM     17  C   UNL     1      12.772   2.100  -3.049  1.00  0.00     0.029 A 
ATOM     18  N   UNL     1      13.870   4.044  -3.146  1.00  0.00    -0.354 N 
ATOM     19  C   UNL     1      14.337   6.025  -7.063  1.00  0.00     0.074 A 
ATOM     20  C   UNL     1      13.695   5.249  -8.097  1.00  0.00     0.031 C 
ATOM     21  C   UNL     1      13.006   2.490  -1.785  1.00  0.00     0.029 A 
ATOM     22  C   UNL     1      13.767   3.733  -1.811  1.00  0.00     0.049 A 
ATOM     23  H   UNL     1      14.305   4.863  -3.477  1.00  0.00     0.167 HD
ATOM     24  C   UNL     1      14.941   7.218  -7.260  1.00  0.00     0.037 A 
ATOM     25  C   UNL     1      14.264   4.380  -0.742  1.00  0.00     0.037 A 
ATOM     26  C   UNL     1      15.565   7.951  -6.193  1.00  0.00     0.049 A 
ATOM     27  C   UNL     1      15.026   5.653  -1.001  1.00  0.00     0.074 A 
ATOM     28  C   UNL     1      16.279   9.131  -6.254  1.00  0.00     0.029 A 
ATOM     29  N   UNL     1      15.544   7.558  -4.859  1.00  0.00    -0.354 N 
ATOM     30  N   UNL     1      15.218   6.279  -2.141  1.00  0.00    -0.248 NA
ATOM     31  C   UNL     1      15.649   6.300   0.157  1.00  0.00     0.031 C 
ATOM     32  C   UNL     1      16.738   9.421  -4.964  1.00  0.00     0.029 A 
ATOM     33  C   UNL     1      16.251   8.460  -4.088  1.00  0.00     0.049 A 
ATOM     34  H   UNL     1      15.091   6.754  -4.514  1.00  0.00     0.167 HD
ATOM     35  C   UNL     1      15.957   7.413  -1.834  1.00  0.00     0.074 A 
ATOM     36  C   UNL     1      16.170   7.386  -0.398  1.00  0.00     0.031 C 
ATOM     37  C   UNL     1      16.419   8.391  -2.655  1.00  0.00     0.037 A 
BRANCH  24  38
ATOM     38  C   UNL     1      15.039   7.710  -8.676  1.00  0.00     0.058 A 
ATOM     39  C   UNL     1      13.924   8.160  -9.402  1.00  0.00     0.135 A 
ATOM     40  C   UNL     1      16.276   7.668  -9.341  1.00  0.00     0.135 A 
ATOM     41  F   UNL     1      12.709   8.183  -8.830  1.00  0.00    -0.206 F 
ATOM     42  C   UNL     1      14.025   8.515 -10.745  1.00  0.00     0.059 A 
ATOM     43  C   UNL     1      16.405   8.045 -10.673  1.00  0.00     0.059 A 
ATOM     44  F   UNL     1      17.372   7.229  -8.702  1.00  0.00    -0.206 F 
ATOM     45  C   UNL     1      15.270   8.448 -11.373  1.00  0.00     0.060 A 
BRANCH  45  46
ATOM     46  S   UNL     1      15.384   8.882 -13.122  1.00  0.00     0.124 S 
ATOM     47  O   UNL     1      14.730   7.738 -13.750  1.00  0.00    -0.237 OA
ATOM     48  O   UNL     1      14.649  10.142 -13.179  1.00  0.00    -0.237 OA
ATOM     49  O   UNL     1      16.821   8.988 -13.354  1.00  0.00    -0.744 OA
ENDBRANCH  45  46
ENDBRANCH  24  38
BRANCH  25  50
ATOM     50  C   UNL     1      14.097   3.823   0.629  1.00  0.00     0.058 A 
ATOM     51  C   UNL     1      13.361   4.499   1.612  1.00  0.00     0.135 A 
ATOM     52  C   UNL     1      14.675   2.592   0.985  1.00  0.00     0.135 A 
ATOM     53  F   UNL     1      12.791   5.681   1.329  1.00  0.00    -0.206 F 
ATOM     54  C   UNL     1      13.216   3.987   2.900  1.00  0.00     0.059 A 
ATOM     55  C   UNL     1      14.520   2.045   2.256  1.00  0.00     0.059 A 
ATOM     56  F   UNL     1      15.384   1.894   0.084  1.00  0.00    -0.206 F 
ATOM     57  C   UNL     1      13.799   2.757   3.211  1.00  0.00     0.060 A 
BRANCH  57  58
ATOM     58  S   UNL     1      13.584   2.088   4.875  1.00  0.00     0.124 S 
ATOM     59  O   UNL     1      14.418   2.988   5.664  1.00  0.00    -0.237 OA
ATOM     60  O   UNL     1      12.144   2.215   5.072  1.00  0.00    -0.237 OA
ATOM     61  O   UNL     1      14.075   0.719   4.754  1.00  0.00    -0.744 OA
ENDBRANCH  57  58
ENDBRANCH  25  50
BRANCH  37  62
ATOM     62  C   UNL     1      17.138   9.536  -2.004  1.00  0.00     0.058 A 
ATOM     63  C   UNL     1      18.431   9.397  -1.478  1.00  0.00     0.135 A 
ATOM     64  C   UNL     1      16.536  10.803  -1.959  1.00  0.00     0.135 A 
ATOM     65  F   UNL     1      19.045   8.203  -1.494  1.00  0.00    -0.206 F 
ATOM     66  C   UNL     1      19.093  10.474  -0.901  1.00  0.00     0.059 A 
ATOM     67  C   UNL     1      17.192  11.900  -1.418  1.00  0.00     0.059 A 
ATOM     68  F   UNL     1      15.305  10.986  -2.464  1.00  0.00    -0.206 F 
ATOM     69  C   UNL     1      18.465  11.722  -0.878  1.00  0.00     0.060 A 
BRANCH  69  70
ATOM     70  S   UNL     1      19.345  13.118  -0.152  1.00  0.00     0.124 S 
ATOM     71  O   UNL     1      19.246  12.818   1.272  1.00  0.00    -0.237 OA
ATOM     72  O   UNL     1      20.676  12.986  -0.738  1.00  0.00    -0.237 OA
ATOM     73  O   UNL     1      18.579  14.275  -0.606  1.00  0.00    -0.744 OA
ENDBRANCH  69  70
ENDBRANCH  37  62
ENDBRANCH  11  12
ENDBRANCH   4   6
ENDBRANCH   3   4
ENDBRANCH   2   3
ENDBRANCH   1   2
BRANCH   1  74
ATOM     74  O   UNL     1       7.679   0.023  -5.728  1.00  0.00    -0.374 OA
BRANCH  74  75
ATOM     75  C   UNL     1       8.103  -1.333  -5.576  1.00  0.00     0.202 C 
BRANCH  75  76
ATOM     76  C   UNL     1       7.659  -1.842  -4.203  1.00  0.00     0.261 C 
BRANCH  76  77
ATOM     77  O   UNL     1       6.225  -1.934  -4.195  1.00  0.00    -0.461 OA
BRANCH  77  78
ATOM     78  C   UNL     1       5.552  -0.771  -3.982  1.00  0.00     0.343 C 
ATOM     79  O   UNL     1       6.011   0.205  -3.397  1.00  0.00    -0.249 OA
BRANCH  78  80
ATOM     80  C   UNL     1       4.194  -0.781  -4.659  1.00  0.00     0.308 C 
ATOM     81  F   UNL     1       4.228  -0.238  -5.915  1.00  0.00    -0.232 F 
BRANCH  80  82
ATOM     82  C   UNL     1       3.503  -2.158  -4.710  1.00  0.00     0.190 C 
BRANCH  82  83
ATOM     83  C   UNL     1       4.129  -3.304  -5.506  1.00  0.00    -0.015 A 
ATOM     84  C   UNL     1       3.919  -4.636  -5.106  1.00  0.00     0.006 A 
ATOM     85  C   UNL     1       4.891  -3.094  -6.666  1.00  0.00     0.027 A 
ATOM     86  C   UNL     1       4.523  -5.703  -5.776  1.00  0.00     0.002 A 
ATOM     87  C   UNL     1       5.514  -4.160  -7.323  1.00  0.00     0.041 A 
ATOM     88  C   UNL     1       5.341  -5.464  -6.876  1.00  0.00     0.020 A 
ATOM     89  Cl  UNL     1       6.514  -3.856  -8.691  1.00  0.00    -0.084 Cl
ENDBRANCH  82  83
BRANCH  82  90
ATOM     90  O   UNL     1       3.258  -2.579  -3.357  1.00  0.00    -0.385 OA
ATOM     91  H   UNL     1       4.105  -2.727  -2.906  1.00  0.00     0.211 HD
ENDBRANCH  82  90
ENDBRANCH  80  82
ENDBRANCH  78  80
ENDBRANCH  77  78
ENDBRANCH  76  77
ENDBRANCH  75  76
ENDBRANCH  74  75
ENDBRANCH   1  74
TORSDOF 20
