REMARK SMILES CC1=C(CC(=O)OCCOCCOC(=O)c2ccc(-c3c4nc(c(-c5c(F)cc(S(=O)(=O)[O-])cc5F)c5ccc([nH]5)c(-c5c(F)cc(S(=O)(=O)[O-])cc5F)c5nc(c(-c6c(F)cc(S(=O)(=O)[O-])cc6F)c6ccc3[nH]6)C=C5)C=C4)cc2)c2cc(F)ccc2/C1=C\c1ccc([S@@+](C)[O-])cc1
REMARK SMILES IDX 10 1 9 2 8 3 7 4 5 5 6 6 4 7 3 8 1 9 2 10 89 11 82 12 88 13
REMARK SMILES IDX 90 14 83 15 87 16 84 17 86 18 85 19 91 20 92 21 99 22 93 23
REMARK SMILES IDX 98 24 94 25 95 26 96 27 97 28 11 29 12 30 13 31 14 32 15 33
REMARK SMILES IDX 16 34 17 35 81 36 18 37 80 38 19 39 20 40 21 41 74 42 22 43
REMARK SMILES IDX 79 44 73 45 75 46 23 47 78 48 72 49 71 50 24 52 58 53 37 54
REMARK SMILES IDX 57 55 38 56 41 57 56 58 76 59 39 60 40 61 55 63 77 64 42 65
REMARK SMILES IDX 25 66 26 67 35 68 27 69 28 70 34 71 36 72 29 73 30 74 31 75
REMARK SMILES IDX 32 76 33 77 59 78 60 79 69 80 61 81 62 82 68 83 70 84 63 85
REMARK SMILES IDX 64 86 65 87 66 88 67 89 43 90 44 91 53 92 45 93 46 94 52 95
REMARK SMILES IDX 54 96 47 97 48 98 49 99 50 100 51 101
REMARK H PARENT 75 51 41 62
REMARK Flexibility Score: inf
ROOT
ATOM      1  O   UNL     1      -1.734   2.208   6.102  1.00  0.00    -0.374 OA
ENDROOT
BRANCH   1   2
ATOM      2  C   UNL     1      -0.616   1.332   6.209  1.00  0.00     0.202 C 
BRANCH   2   3
ATOM      3  C   UNL     1      -0.460   0.206   5.175  1.00  0.00     0.261 C 
BRANCH   3   4
ATOM      4  O   UNL     1      -0.495   0.639   3.798  1.00  0.00    -0.463 OA
BRANCH   4   5
ATOM      5  C   UNL     1      -1.529   0.146   3.063  1.00  0.00     0.310 C 
ATOM      6  O   UNL     1      -2.392  -0.611   3.503  1.00  0.00    -0.252 OA
BRANCH   5   7
ATOM      7  C   UNL     1      -1.583   0.609   1.609  1.00  0.00     0.159 C 
BRANCH   7   8
ATOM      8  C   UNL     1      -0.626   1.639   1.098  1.00  0.00    -0.025 C 
ATOM      9  C   UNL     1       1.186   0.142   0.123  1.00  0.00     0.045 C 
ATOM     10  C   UNL     1       0.543   1.451   0.441  1.00  0.00    -0.039 C 
ATOM     11  C   UNL     1       1.111   2.751   0.037  1.00  0.00    -0.014 C 
ATOM     12  C   UNL     1      -0.915   3.084   1.081  1.00  0.00    -0.011 A 
ATOM     13  C   UNL     1       0.154   3.783   0.488  1.00  0.00    -0.010 A 
ATOM     14  C   UNL     1       2.269   2.908  -0.638  1.00  0.00     0.017 C 
ATOM     15  C   UNL     1      -2.039   3.769   1.527  1.00  0.00     0.048 A 
ATOM     16  C   UNL     1       0.128   5.171   0.406  1.00  0.00     0.012 A 
ATOM     17  C   UNL     1      -2.042   5.161   1.458  1.00  0.00     0.123 A 
ATOM     18  C   UNL     1      -0.966   5.866   0.923  1.00  0.00     0.040 A 
ATOM     19  F   UNL     1      -3.080   5.841   1.963  1.00  0.00    -0.207 F 
BRANCH  14  20
ATOM     20  C   UNL     1       2.849   4.198  -1.024  1.00  0.00    -0.025 A 
ATOM     21  C   UNL     1       3.459   5.004  -0.056  1.00  0.00     0.013 A 
ATOM     22  C   UNL     1       2.678   4.693  -2.320  1.00  0.00     0.013 A 
ATOM     23  C   UNL     1       3.765   6.338  -0.340  1.00  0.00     0.061 A 
ATOM     24  C   UNL     1       3.007   6.022  -2.610  1.00  0.00     0.061 A 
ATOM     25  C   UNL     1       3.507   6.867  -1.611  1.00  0.00     0.152 A 
BRANCH  25  26
ATOM     26  S   UNL     1       3.603   8.651  -1.912  1.00  0.00    -0.018 S 
ATOM     27  C   UNL     1       5.260   8.991  -1.289  1.00  0.00     0.346 C 
ATOM     28  O   UNL     1       3.606   8.862  -3.468  1.00  0.00    -0.612 OA
ENDBRANCH  25  26
ENDBRANCH  14  20
ENDBRANCH   7   8
ENDBRANCH   5   7
ENDBRANCH   4   5
ENDBRANCH   3   4
ENDBRANCH   2   3
ENDBRANCH   1   2
BRANCH   1  29
ATOM     29  C   UNL     1      -1.815   3.046   4.955  1.00  0.00     0.202 C 
BRANCH  29  30
ATOM     30  C   UNL     1      -0.760   4.145   4.779  1.00  0.00     0.261 C 
BRANCH  30  31
ATOM     31  O   UNL     1       0.587   3.674   4.818  1.00  0.00    -0.460 OA
BRANCH  31  32
ATOM     32  C   UNL     1       1.321   4.174   5.839  1.00  0.00     0.338 C 
ATOM     33  O   UNL     1       0.973   4.983   6.686  1.00  0.00    -0.246 OA
BRANCH  32  34
ATOM     34  C   UNL     1       2.602   3.462   5.885  1.00  0.00     0.060 A 
ATOM     35  C   UNL     1       3.478   3.499   4.799  1.00  0.00     0.016 A 
ATOM     36  C   UNL     1       2.932   2.781   7.062  1.00  0.00     0.016 A 
ATOM     37  C   UNL     1       4.714   2.866   4.908  1.00  0.00     0.010 A 
ATOM     38  C   UNL     1       4.168   2.155   7.169  1.00  0.00     0.010 A 
ATOM     39  C   UNL     1       5.074   2.214   6.101  1.00  0.00    -0.014 A 
BRANCH  39  40
ATOM     40  C   UNL     1       6.449   1.699   6.285  1.00  0.00     0.031 A 
ATOM     41  C   UNL     1       6.726   0.228   6.309  1.00  0.00     0.074 A 
ATOM     42  C   UNL     1       7.439   2.593   6.472  1.00  0.00     0.049 A 
ATOM     43  N   UNL     1       7.870  -0.387   6.460  1.00  0.00    -0.248 NA
ATOM     44  C   UNL     1       5.572  -0.670   6.152  1.00  0.00     0.031 C 
ATOM     45  C   UNL     1       7.259   4.048   6.501  1.00  0.00     0.029 A 
ATOM     46  N   UNL     1       8.782   2.420   6.671  1.00  0.00    -0.354 N 
ATOM     47  C   UNL     1       7.581  -1.744   6.401  1.00  0.00     0.074 A 
ATOM     48  C   UNL     1       6.145  -1.863   6.253  1.00  0.00     0.031 C 
ATOM     49  C   UNL     1       8.453   4.634   6.673  1.00  0.00     0.029 A 
ATOM     50  C   UNL     1       9.473   3.600   6.809  1.00  0.00     0.049 A 
ATOM     51  H   UNL     1       9.212   1.535   6.712  1.00  0.00     0.167 HD
ATOM     52  C   UNL     1       8.443  -2.788   6.445  1.00  0.00     0.037 A 
ATOM     53  C   UNL     1      10.783   3.823   7.026  1.00  0.00     0.037 A 
ATOM     54  C   UNL     1       9.868  -2.645   6.612  1.00  0.00     0.049 A 
ATOM     55  C   UNL     1      11.709   2.643   7.128  1.00  0.00     0.074 A 
ATOM     56  C   UNL     1      10.832  -3.637   6.650  1.00  0.00     0.029 A 
ATOM     57  N   UNL     1      10.532  -1.437   6.779  1.00  0.00    -0.354 N 
ATOM     58  N   UNL     1      11.430   1.366   7.012  1.00  0.00    -0.248 NA
ATOM     59  C   UNL     1      13.126   2.931   7.386  1.00  0.00     0.031 C 
ATOM     60  C   UNL     1      12.070  -3.034   6.893  1.00  0.00     0.029 A 
ATOM     61  C   UNL     1      11.889  -1.661   6.947  1.00  0.00     0.049 A 
ATOM     62  H   UNL     1      10.102  -0.551   6.778  1.00  0.00     0.167 HD
ATOM     63  C   UNL     1      12.639   0.698   7.163  1.00  0.00     0.074 A 
ATOM     64  C   UNL     1      13.654   1.714   7.359  1.00  0.00     0.031 C 
ATOM     65  C   UNL     1      12.886  -0.635   7.143  1.00  0.00     0.037 A 
BRANCH  52  66
ATOM     66  C   UNL     1       7.877  -4.174   6.303  1.00  0.00     0.058 A 
ATOM     67  C   UNL     1       7.356  -4.629   5.080  1.00  0.00     0.135 A 
ATOM     68  C   UNL     1       7.913  -5.082   7.374  1.00  0.00     0.135 A 
ATOM     69  F   UNL     1       7.282  -3.800   4.026  1.00  0.00    -0.206 F 
ATOM     70  C   UNL     1       6.874  -5.925   4.931  1.00  0.00     0.059 A 
ATOM     71  C   UNL     1       7.463  -6.392   7.239  1.00  0.00     0.059 A 
ATOM     72  F   UNL     1       8.399  -4.701   8.566  1.00  0.00    -0.206 F 
ATOM     73  C   UNL     1       6.936  -6.801   6.015  1.00  0.00     0.060 A 
BRANCH  73  74
ATOM     74  S   UNL     1       6.318  -8.482   5.793  1.00  0.00     0.124 S 
ATOM     75  O   UNL     1       4.887  -8.246   5.625  1.00  0.00    -0.237 OA
ATOM     76  O   UNL     1       7.031  -8.918   4.596  1.00  0.00    -0.237 OA
ATOM     77  O   UNL     1       6.701  -9.155   7.030  1.00  0.00    -0.744 OA
ENDBRANCH  73  74
ENDBRANCH  52  66
BRANCH  53  78
ATOM     78  C   UNL     1      11.289   5.217   7.125  1.00  0.00     0.058 A 
ATOM     79  C   UNL     1      12.100   5.759   6.118  1.00  0.00     0.135 A 
ATOM     80  C   UNL     1      10.939   6.048   8.202  1.00  0.00     0.135 A 
ATOM     81  F   UNL     1      12.462   5.004   5.070  1.00  0.00    -0.206 F 
ATOM     82  C   UNL     1      12.555   7.072   6.177  1.00  0.00     0.059 A 
ATOM     83  C   UNL     1      11.358   7.373   8.269  1.00  0.00     0.059 A 
ATOM     84  F   UNL     1      10.149   5.583   9.182  1.00  0.00    -0.206 F 
ATOM     85  C   UNL     1      12.171   7.874   7.253  1.00  0.00     0.060 A 
BRANCH  85  86
ATOM     86  S   UNL     1      12.723   9.592   7.284  1.00  0.00     0.124 S 
ATOM     87  O   UNL     1      14.158   9.438   7.492  1.00  0.00    -0.237 OA
ATOM     88  O   UNL     1      12.314  10.063   5.964  1.00  0.00    -0.237 OA
ATOM     89  O   UNL     1      11.981  10.165   8.403  1.00  0.00    -0.744 OA
ENDBRANCH  85  86
ENDBRANCH  53  78
BRANCH  65  90
ATOM     90  C   UNL     1      14.312  -1.079   7.324  1.00  0.00     0.058 A 
ATOM     91  C   UNL     1      14.958  -0.990   8.566  1.00  0.00     0.135 A 
ATOM     92  C   UNL     1      15.015  -1.668   6.259  1.00  0.00     0.135 A 
ATOM     93  F   UNL     1      14.335  -0.427   9.613  1.00  0.00    -0.206 F 
ATOM     94  C   UNL     1      16.257  -1.454   8.744  1.00  0.00     0.059 A 
ATOM     95  C   UNL     1      16.303  -2.168   6.423  1.00  0.00     0.059 A 
ATOM     96  F   UNL     1      14.440  -1.786   5.052  1.00  0.00    -0.206 F 
ATOM     97  C   UNL     1      16.918  -2.050   7.668  1.00  0.00     0.060 A 
BRANCH  97  98
ATOM     98  S   UNL     1      18.585  -2.690   7.931  1.00  0.00     0.124 S 
ATOM     99  O   UNL     1      19.348  -1.459   8.115  1.00  0.00    -0.237 OA
ATOM    100  O   UNL     1      18.414  -3.514   9.123  1.00  0.00    -0.237 OA
ATOM    101  O   UNL     1      18.867  -3.424   6.701  1.00  0.00    -0.744 OA
ENDBRANCH  97  98
ENDBRANCH  65  90
ENDBRANCH  39  40
ENDBRANCH  32  34
ENDBRANCH  31  32
ENDBRANCH  30  31
ENDBRANCH  29  30
ENDBRANCH   1  29
TORSDOF 20
