REMARK SMILES O=C(OCCOCCOC(=O)[C@H]1CCC[N@@H+]1CCn1ccnc1)c1ccc(-c2c3nc(c(-c4c(F)cc(S(=O)(=O)[O-])cc4F)c4ccc([nH]4)c(-c4c(F)cc(S(=O)(=O)[O-])cc4F)c4nc(c(-c5c(F)cc(S(=O)(=O)[O-])cc5F)c5ccc2[nH]5)C=C4)C=C3)cc1
REMARK SMILES IDX 6 1 5 2 4 3 3 4 2 5 1 6 24 7 25 8 89 9 26 10 88 11 27 12
REMARK SMILES IDX 28 13 29 14 82 15 30 16 87 17 81 18 83 19 31 20 86 21 80 22
REMARK SMILES IDX 79 23 32 25 66 26 45 27 65 28 46 29 49 30 64 31 84 32 47 33
REMARK SMILES IDX 48 34 63 36 85 37 50 38 33 39 34 40 43 41 35 42 36 43 42 44
REMARK SMILES IDX 44 45 37 46 38 47 39 48 40 49 41 50 67 51 68 52 77 53 69 54
REMARK SMILES IDX 70 55 76 56 78 57 71 58 72 59 73 60 74 61 75 62 51 63 52 64
REMARK SMILES IDX 61 65 53 66 54 67 60 68 62 69 55 70 56 71 57 72 58 73 59 74
REMARK SMILES IDX 7 75 8 76 9 77 10 78 11 79 12 80 13 81 16 82 14 83 15 84
REMARK SMILES IDX 17 86 18 87 19 88 20 89 23 90 21 91 22 92
REMARK H PARENT 83 24 49 35 16 85
REMARK Flexibility Score: inf
ROOT
ATOM      1  O   UNL     1       4.669   3.857  -2.139  1.00  0.00    -0.374 OA
ENDROOT
BRANCH   1   2
ATOM      2  C   UNL     1       3.871   4.075  -0.982  1.00  0.00     0.202 C 
BRANCH   2   3
ATOM      3  C   UNL     1       2.361   3.882  -1.072  1.00  0.00     0.261 C 
BRANCH   3   4
ATOM      4  O   UNL     1       1.927   2.519  -1.229  1.00  0.00    -0.460 OA
BRANCH   4   5
ATOM      5  C   UNL     1       2.334   1.673  -2.198  1.00  0.00     0.338 C 
ATOM      6  O   UNL     1       2.670   0.526  -1.909  1.00  0.00    -0.246 OA
BRANCH   5   7
ATOM      7  C   UNL     1       2.177   2.054  -3.630  1.00  0.00     0.060 A 
ATOM      8  C   UNL     1       1.850   3.329  -4.081  1.00  0.00     0.016 A 
ATOM      9  C   UNL     1       2.257   1.004  -4.562  1.00  0.00     0.016 A 
ATOM     10  C   UNL     1       1.365   3.509  -5.359  1.00  0.00     0.010 A 
ATOM     11  C   UNL     1       1.825   1.190  -5.866  1.00  0.00     0.010 A 
ATOM     12  C   UNL     1       1.281   2.417  -6.218  1.00  0.00    -0.014 A 
BRANCH  12  13
ATOM     13  C   UNL     1       0.624   2.644  -7.493  1.00  0.00     0.031 A 
ATOM     14  C   UNL     1       1.253   3.707  -8.323  1.00  0.00     0.074 A 
ATOM     15  C   UNL     1      -0.455   1.934  -7.873  1.00  0.00     0.049 A 
ATOM     16  N   UNL     1       0.763   4.854  -8.659  1.00  0.00    -0.248 NA
ATOM     17  C   UNL     1       2.671   3.536  -8.677  1.00  0.00     0.031 C 
ATOM     18  C   UNL     1      -1.024   0.731  -7.258  1.00  0.00     0.029 A 
ATOM     19  N   UNL     1      -1.232   2.103  -8.973  1.00  0.00    -0.354 N 
ATOM     20  C   UNL     1       1.733   5.469  -9.447  1.00  0.00     0.074 A 
ATOM     21  C   UNL     1       2.934   4.691  -9.291  1.00  0.00     0.031 C 
ATOM     22  C   UNL     1      -1.877   0.146  -8.130  1.00  0.00     0.029 A 
ATOM     23  C   UNL     1      -2.027   1.009  -9.288  1.00  0.00     0.049 A 
ATOM     24  H   UNL     1      -1.232   2.932  -9.504  1.00  0.00     0.167 HD
ATOM     25  C   UNL     1       1.416   6.452 -10.335  1.00  0.00     0.037 A 
ATOM     26  C   UNL     1      -2.684   0.809 -10.458  1.00  0.00     0.037 A 
ATOM     27  C   UNL     1       0.139   7.040 -10.030  1.00  0.00     0.049 A 
ATOM     28  C   UNL     1      -2.836   2.145 -11.099  1.00  0.00     0.074 A 
ATOM     29  C   UNL     1      -0.367   7.751  -8.960  1.00  0.00     0.029 A 
ATOM     30  N   UNL     1      -0.951   6.616 -10.750  1.00  0.00    -0.354 N 
ATOM     31  N   UNL     1      -3.567   3.108 -10.599  1.00  0.00    -0.248 NA
ATOM     32  C   UNL     1      -1.795   2.572 -12.024  1.00  0.00     0.031 C 
ATOM     33  C   UNL     1      -1.710   7.298  -8.821  1.00  0.00     0.029 A 
ATOM     34  C   UNL     1      -1.964   6.391  -9.853  1.00  0.00     0.049 A 
ATOM     35  H   UNL     1      -0.997   6.495 -11.726  1.00  0.00     0.167 HD
ATOM     36  C   UNL     1      -2.831   4.266 -10.814  1.00  0.00     0.074 A 
ATOM     37  C   UNL     1      -1.780   3.880 -11.753  1.00  0.00     0.031 C 
ATOM     38  C   UNL     1      -2.964   5.357 -10.004  1.00  0.00     0.037 A 
BRANCH  25  39
ATOM     39  C   UNL     1       2.087   6.632 -11.675  1.00  0.00     0.058 A 
ATOM     40  C   UNL     1       1.772   7.759 -12.463  1.00  0.00     0.135 A 
ATOM     41  C   UNL     1       2.790   5.602 -12.338  1.00  0.00     0.135 A 
ATOM     42  F   UNL     1       1.106   8.799 -11.935  1.00  0.00    -0.206 F 
ATOM     43  C   UNL     1       2.056   7.818 -13.828  1.00  0.00     0.059 A 
ATOM     44  C   UNL     1       3.128   5.663 -13.685  1.00  0.00     0.059 A 
ATOM     45  F   UNL     1       3.096   4.444 -11.742  1.00  0.00    -0.206 F 
ATOM     46  C   UNL     1       2.717   6.753 -14.432  1.00  0.00     0.060 A 
BRANCH  46  47
ATOM     47  S   UNL     1       2.974   6.771 -16.214  1.00  0.00     0.124 S 
ATOM     48  O   UNL     1       1.611   6.633 -16.707  1.00  0.00    -0.237 OA
ATOM     49  O   UNL     1       3.604   8.069 -16.416  1.00  0.00    -0.237 OA
ATOM     50  O   UNL     1       3.846   5.616 -16.437  1.00  0.00    -0.744 OA
ENDBRANCH  46  47
ENDBRANCH  25  39
BRANCH  26  51
ATOM     51  C   UNL     1      -2.773  -0.470 -11.217  1.00  0.00     0.058 A 
ATOM     52  C   UNL     1      -3.659  -0.621 -12.298  1.00  0.00     0.135 A 
ATOM     53  C   UNL     1      -1.797  -1.479 -11.072  1.00  0.00     0.135 A 
ATOM     54  F   UNL     1      -4.602   0.305 -12.529  1.00  0.00    -0.206 F 
ATOM     55  C   UNL     1      -3.559  -1.687 -13.203  1.00  0.00     0.059 A 
ATOM     56  C   UNL     1      -1.685  -2.553 -11.954  1.00  0.00     0.059 A 
ATOM     57  F   UNL     1      -0.859  -1.405 -10.116  1.00  0.00    -0.206 F 
ATOM     58  C   UNL     1      -2.555  -2.639 -13.032  1.00  0.00     0.060 A 
BRANCH  58  59
ATOM     59  S   UNL     1      -2.316  -3.924 -14.284  1.00  0.00     0.124 S 
ATOM     60  O   UNL     1      -3.502  -4.753 -14.095  1.00  0.00    -0.237 OA
ATOM     61  O   UNL     1      -2.271  -3.148 -15.518  1.00  0.00    -0.237 OA
ATOM     62  O   UNL     1      -1.053  -4.546 -13.895  1.00  0.00    -0.744 OA
ENDBRANCH  58  59
ENDBRANCH  26  51
BRANCH  38  63
ATOM     63  C   UNL     1      -4.108   5.401  -9.024  1.00  0.00     0.058 A 
ATOM     64  C   UNL     1      -4.223   4.560  -7.903  1.00  0.00     0.135 A 
ATOM     65  C   UNL     1      -4.999   6.481  -9.110  1.00  0.00     0.135 A 
ATOM     66  F   UNL     1      -3.352   3.562  -7.698  1.00  0.00    -0.206 F 
ATOM     67  C   UNL     1      -5.189   4.779  -6.917  1.00  0.00     0.059 A 
ATOM     68  C   UNL     1      -5.949   6.735  -8.127  1.00  0.00     0.059 A 
ATOM     69  F   UNL     1      -4.899   7.353 -10.127  1.00  0.00    -0.206 F 
ATOM     70  C   UNL     1      -6.041   5.879  -7.032  1.00  0.00     0.060 A 
BRANCH  70  71
ATOM     71  S   UNL     1      -7.206   6.239  -5.699  1.00  0.00     0.124 S 
ATOM     72  O   UNL     1      -8.192   5.176  -5.857  1.00  0.00    -0.237 OA
ATOM     73  O   UNL     1      -6.364   6.151  -4.508  1.00  0.00    -0.237 OA
ATOM     74  O   UNL     1      -7.682   7.584  -6.014  1.00  0.00    -0.744 OA
ENDBRANCH  70  71
ENDBRANCH  38  63
ENDBRANCH  12  13
ENDBRANCH   5   7
ENDBRANCH   4   5
ENDBRANCH   3   4
ENDBRANCH   2   3
ENDBRANCH   1   2
BRANCH   1  75
ATOM     75  C   UNL     1       5.351   2.605  -2.265  1.00  0.00     0.202 C 
BRANCH  75  76
ATOM     76  C   UNL     1       6.404   2.174  -1.233  1.00  0.00     0.261 C 
BRANCH  76  77
ATOM     77  O   UNL     1       5.925   2.168   0.122  1.00  0.00    -0.459 OA
BRANCH  77  78
ATOM     78  C   UNL     1       6.344   3.238   0.855  1.00  0.00     0.364 C 
ATOM     79  O   UNL     1       7.175   4.051   0.458  1.00  0.00    -0.245 OA
BRANCH  78  80
ATOM     80  C   UNL     1       5.604   3.345   2.216  1.00  0.00     0.295 C 
ATOM     81  C   UNL     1       6.600   3.923   3.207  1.00  0.00     0.083 C 
ATOM     82  N   UNL     1       4.535   4.374   2.152  1.00  0.00    -0.322 N 
ATOM     83  C   UNL     1       6.541   5.428   2.941  1.00  0.00     0.068 C 
ATOM     84  C   UNL     1       5.215   5.670   2.225  1.00  0.00     0.263 C 
ATOM     85  H   UNL     1       4.032   4.260   1.272  1.00  0.00     0.348 HD
BRANCH  82  86
ATOM     86  C   UNL     1       3.390   4.228   3.069  1.00  0.00     0.285 C 
BRANCH  86  87
ATOM     87  C   UNL     1       3.536   4.198   4.609  1.00  0.00     0.184 C 
BRANCH  87  88
ATOM     88  N   UNL     1       4.085   5.382   5.236  1.00  0.00    -0.332 N 
ATOM     89  C   UNL     1       3.638   6.668   5.109  1.00  0.00     0.107 A 
ATOM     90  C   UNL     1       5.164   5.410   6.076  1.00  0.00     0.199 A 
ATOM     91  C   UNL     1       4.582   7.435   5.753  1.00  0.00     0.130 A 
ATOM     92  N   UNL     1       5.514   6.642   6.370  1.00  0.00    -0.245 NA
ENDBRANCH  87  88
ENDBRANCH  86  87
ENDBRANCH  82  86
ENDBRANCH  78  80
ENDBRANCH  77  78
ENDBRANCH  76  77
ENDBRANCH  75  76
ENDBRANCH   1  75
TORSDOF 20
