REMARK SMILES O=C(OCCOCCOC(=O)c1nccnc1C(=O)Nc1n[nH]c2ncccc12)c1ccc(-c2c3nc(c(-c4c(F)cc(S(=O)(=O)[O-])cc4F)c4ccc([nH]4)c(-c4c(F)cc(S(=O)(=O)[O-])cc4F)c4nc(c(-c5c(F)cc(S(=O)(=O)[O-])cc5F)c5ccc2[nH]5)C=C4)C=C3)cc1
REMARK SMILES IDX 5 1 4 2 3 3 2 4 1 5 30 6 31 7 95 8 32 9 94 10 33 11 34 12
REMARK SMILES IDX 35 13 88 14 36 15 93 16 87 17 89 18 37 19 92 20 86 21 85 22
REMARK SMILES IDX 38 24 72 25 51 26 71 27 52 28 55 29 70 30 90 31 53 32 54 33
REMARK SMILES IDX 69 35 91 36 56 37 39 38 40 39 49 40 41 41 42 42 48 43 50 44
REMARK SMILES IDX 43 45 44 46 45 47 46 48 47 49 73 50 74 51 83 52 75 53 76 54
REMARK SMILES IDX 82 55 84 56 77 57 78 58 79 59 80 60 81 61 57 62 58 63 67 64
REMARK SMILES IDX 59 65 60 66 66 67 68 68 61 69 62 70 63 71 64 72 65 73 6 74
REMARK SMILES IDX 7 75 8 76 9 77 10 78 11 79 12 80 13 81 17 82 14 83 16 84
REMARK SMILES IDX 15 85 18 86 19 87 20 88 21 90 22 91 29 92 23 93 24 94 28 95
REMARK SMILES IDX 25 97 27 98 26 99
REMARK H PARENT 89 23 55 34 20 89 23 96
REMARK Flexibility Score: inf
ROOT
ATOM      1  C   UNL     1       4.131  -1.031   0.848  1.00  0.00     0.202 C 
ENDROOT
BRANCH   1   2
ATOM      2  C   UNL     1       3.482  -0.362   2.057  1.00  0.00     0.261 C 
BRANCH   2   3
ATOM      3  O   UNL     1       2.087  -0.077   1.855  1.00  0.00    -0.460 OA
BRANCH   3   4
ATOM      4  C   UNL     1       1.581   1.139   1.514  1.00  0.00     0.338 C 
ATOM      5  O   UNL     1       0.371   1.336   1.541  1.00  0.00    -0.246 OA
BRANCH   4   6
ATOM      6  C   UNL     1       2.479   2.252   1.120  1.00  0.00     0.060 A 
ATOM      7  C   UNL     1       3.378   2.149   0.061  1.00  0.00     0.016 A 
ATOM      8  C   UNL     1       2.335   3.486   1.753  1.00  0.00     0.016 A 
ATOM      9  C   UNL     1       4.271   3.161  -0.238  1.00  0.00     0.010 A 
ATOM     10  C   UNL     1       3.135   4.563   1.359  1.00  0.00     0.010 A 
ATOM     11  C   UNL     1       4.140   4.392   0.390  1.00  0.00    -0.014 A 
BRANCH  11  12
ATOM     12  C   UNL     1       5.116   5.461   0.094  1.00  0.00     0.031 A 
ATOM     13  C   UNL     1       5.959   5.962   1.227  1.00  0.00     0.074 A 
ATOM     14  C   UNL     1       5.282   5.922  -1.161  1.00  0.00     0.049 A 
ATOM     15  N   UNL     1       6.675   7.047   1.311  1.00  0.00    -0.248 NA
ATOM     16  C   UNL     1       5.974   5.133   2.445  1.00  0.00     0.031 C 
ATOM     17  C   UNL     1       4.605   5.407  -2.356  1.00  0.00     0.029 A 
ATOM     18  N   UNL     1       6.083   6.921  -1.648  1.00  0.00    -0.354 N 
ATOM     19  C   UNL     1       7.155   7.074   2.614  1.00  0.00     0.074 A 
ATOM     20  C   UNL     1       6.660   5.894   3.283  1.00  0.00     0.031 C 
ATOM     21  C   UNL     1       5.044   6.069  -3.437  1.00  0.00     0.029 A 
ATOM     22  C   UNL     1       5.941   7.130  -3.001  1.00  0.00     0.049 A 
ATOM     23  H   UNL     1       6.702   7.440  -1.085  1.00  0.00     0.167 HD
ATOM     24  C   UNL     1       7.928   8.022   3.191  1.00  0.00     0.037 A 
ATOM     25  C   UNL     1       6.430   8.113  -3.782  1.00  0.00     0.037 A 
ATOM     26  C   UNL     1       8.434   9.154   2.464  1.00  0.00     0.049 A 
ATOM     27  C   UNL     1       7.249   9.184  -3.112  1.00  0.00     0.074 A 
ATOM     28  C   UNL     1       9.185  10.218   2.923  1.00  0.00     0.029 A 
ATOM     29  N   UNL     1       8.247   9.349   1.099  1.00  0.00    -0.354 N 
ATOM     30  N   UNL     1       7.601   9.281  -1.849  1.00  0.00    -0.248 NA
ATOM     31  C   UNL     1       7.710  10.293  -3.954  1.00  0.00     0.031 C 
ATOM     32  C   UNL     1       9.424  11.073   1.841  1.00  0.00     0.029 A 
ATOM     33  C   UNL     1       8.864  10.518   0.698  1.00  0.00     0.049 A 
ATOM     34  H   UNL     1       7.748   8.742   0.506  1.00  0.00     0.167 HD
ATOM     35  C   UNL     1       8.332  10.456  -1.745  1.00  0.00     0.074 A 
ATOM     36  C   UNL     1       8.390  11.023  -3.080  1.00  0.00     0.031 C 
ATOM     37  C   UNL     1       8.899  11.026  -0.652  1.00  0.00     0.037 A 
BRANCH  24  38
ATOM     38  C   UNL     1       8.188   7.896   4.666  1.00  0.00     0.058 A 
ATOM     39  C   UNL     1       9.015   6.896   5.203  1.00  0.00     0.135 A 
ATOM     40  C   UNL     1       7.552   8.768   5.566  1.00  0.00     0.135 A 
ATOM     41  F   UNL     1       9.620   6.013   4.393  1.00  0.00    -0.206 F 
ATOM     42  C   UNL     1       9.171   6.740   6.578  1.00  0.00     0.059 A 
ATOM     43  C   UNL     1       7.716   8.648   6.943  1.00  0.00     0.059 A 
ATOM     44  F   UNL     1       6.738   9.733   5.111  1.00  0.00    -0.206 F 
ATOM     45  C   UNL     1       8.512   7.618   7.440  1.00  0.00     0.060 A 
BRANCH  45  46
ATOM     46  S   UNL     1       8.701   7.387   9.221  1.00  0.00     0.124 S 
ATOM     47  O   UNL     1       7.888   6.196   9.448  1.00  0.00    -0.237 OA
ATOM     48  O   UNL     1      10.142   7.206   9.362  1.00  0.00    -0.237 OA
ATOM     49  O   UNL     1       8.170   8.625   9.783  1.00  0.00    -0.744 OA
ENDBRANCH  45  46
ENDBRANCH  24  38
BRANCH  25  50
ATOM     50  C   UNL     1       6.098   8.168  -5.234  1.00  0.00     0.058 A 
ATOM     51  C   UNL     1       7.089   8.014  -6.215  1.00  0.00     0.135 A 
ATOM     52  C   UNL     1       4.778   8.364  -5.676  1.00  0.00     0.135 A 
ATOM     53  F   UNL     1       8.368   7.833  -5.853  1.00  0.00    -0.206 F 
ATOM     54  C   UNL     1       6.788   8.060  -7.575  1.00  0.00     0.059 A 
ATOM     55  C   UNL     1       4.447   8.384  -7.028  1.00  0.00     0.059 A 
ATOM     56  F   UNL     1       3.785   8.510  -4.785  1.00  0.00    -0.206 F 
ATOM     57  C   UNL     1       5.462   8.243  -7.972  1.00  0.00     0.060 A 
BRANCH  57  58
ATOM     58  S   UNL     1       5.074   8.261  -9.737  1.00  0.00     0.124 S 
ATOM     59  O   UNL     1       5.603   9.559 -10.140  1.00  0.00    -0.237 OA
ATOM     60  O   UNL     1       5.804   7.094 -10.223  1.00  0.00    -0.237 OA
ATOM     61  O   UNL     1       3.620   8.136  -9.761  1.00  0.00    -0.744 OA
ENDBRANCH  57  58
ENDBRANCH  25  50
BRANCH  37  62
ATOM     62  C   UNL     1       9.658  12.300  -0.874  1.00  0.00     0.058 A 
ATOM     63  C   UNL     1       8.998  13.519  -1.086  1.00  0.00     0.135 A 
ATOM     64  C   UNL     1      11.059  12.304  -0.804  1.00  0.00     0.135 A 
ATOM     65  F   UNL     1       7.659  13.559  -1.168  1.00  0.00    -0.206 F 
ATOM     66  C   UNL     1       9.707  14.703  -1.237  1.00  0.00     0.059 A 
ATOM     67  C   UNL     1      11.786  13.480  -0.926  1.00  0.00     0.059 A 
ATOM     68  F   UNL     1      11.730  11.160  -0.592  1.00  0.00    -0.206 F 
ATOM     69  C   UNL     1      11.101  14.674  -1.151  1.00  0.00     0.060 A 
BRANCH  69  70
ATOM     70  S   UNL     1      12.008  16.226  -1.300  1.00  0.00     0.124 S 
ATOM     71  O   UNL     1      11.924  16.478  -2.734  1.00  0.00    -0.237 OA
ATOM     72  O   UNL     1      11.232  17.124  -0.450  1.00  0.00    -0.237 OA
ATOM     73  O   UNL     1      13.337  15.890  -0.797  1.00  0.00    -0.744 OA
ENDBRANCH  69  70
ENDBRANCH  37  62
ENDBRANCH  11  12
ENDBRANCH   4   6
ENDBRANCH   3   4
ENDBRANCH   2   3
ENDBRANCH   1   2
BRANCH   1  74
ATOM     74  O   UNL     1       3.588  -0.672  -0.410  1.00  0.00    -0.374 OA
BRANCH  74  75
ATOM     75  C   UNL     1       2.333  -1.217  -0.812  1.00  0.00     0.202 C 
BRANCH  75  76
ATOM     76  C   UNL     1       2.191  -1.394  -2.483  1.00  0.00     0.261 C 
BRANCH  76  77
ATOM     77  O   UNL     1       3.326  -2.517  -3.754  1.00  0.00    -0.458 OA
BRANCH  77  78
ATOM     78  C   UNL     1       4.362  -3.345  -4.303  1.00  0.00     0.359 C 
ATOM     79  O   UNL     1       4.585  -3.355  -5.514  1.00  0.00    -0.244 OA
BRANCH  78  80
ATOM     80  C   UNL     1       5.139  -4.316  -3.442  1.00  0.00     0.179 A 
ATOM     81  N   UNL     1       4.576  -5.574  -3.597  1.00  0.00    -0.245 NA
ATOM     82  C   UNL     1       6.171  -4.087  -2.510  1.00  0.00     0.161 A 
ATOM     83  C   UNL     1       5.038  -6.570  -2.821  1.00  0.00     0.132 A 
ATOM     84  N   UNL     1       6.570  -5.144  -1.710  1.00  0.00    -0.247 NA
ATOM     85  C   UNL     1       6.010  -6.355  -1.881  1.00  0.00     0.132 A 
BRANCH  82  86
ATOM     86  C   UNL     1       7.032  -2.879  -2.132  1.00  0.00     0.278 C 
ATOM     87  O   UNL     1       8.097  -3.103  -1.538  1.00  0.00    -0.267 OA
ATOM     88  N   UNL     1       6.798  -1.556  -2.389  1.00  0.00    -0.303 N 
ATOM     89  H   UNL     1       7.579  -0.965  -2.290  1.00  0.00     0.172 HD
BRANCH  88  90
ATOM     90  C   UNL     1       5.652  -0.941  -2.759  1.00  0.00     0.164 A 
ATOM     91  N   UNL     1       5.712   0.189  -3.478  1.00  0.00    -0.155 NA
ATOM     92  C   UNL     1       4.374  -1.469  -2.598  1.00  0.00     0.063 A 
ATOM     93  N   UNL     1       4.585   0.267  -4.247  1.00  0.00    -0.259 N 
ATOM     94  C   UNL     1       3.654  -0.686  -3.972  1.00  0.00     0.157 A 
ATOM     95  C   UNL     1       3.554  -2.955  -1.906  1.00  0.00     0.017 A 
ATOM     96  H   UNL     1       4.457   0.954  -4.940  1.00  0.00     0.192 HD
ATOM     97  N   UNL     1       2.223  -1.216  -4.743  1.00  0.00    -0.237 NA
ATOM     98  C   UNL     1       2.078  -3.572  -2.709  1.00  0.00     0.021 A 
ATOM     99  C   UNL     1       1.500  -2.687  -4.123  1.00  0.00     0.113 A 
ENDBRANCH  88  90
ENDBRANCH  82  86
ENDBRANCH  78  80
ENDBRANCH  77  78
ENDBRANCH  76  77
ENDBRANCH  75  76
ENDBRANCH  74  75
ENDBRANCH   1  74
TORSDOF 19
