REMARK SMILES COc1ccc2cc([C@H](C)C(=O)OCCOCCOC(=O)c3ccc(-c4c5nc(c(-c6c(F)cc(S(=O)(=O)[O-])cc6F)c6ccc([nH]6)c(-c6c(F)cc(S(=O)(=O)[O-])cc6F)c6nc(c(-c7c(F)cc(S(=O)(=O)[O-])cc7F)c7ccc4[nH]7)C=C6)C=C5)cc3)ccc2c1
REMARK SMILES IDX 17 1 16 2 15 3 14 4 13 5 11 6 12 7 9 8 10 9 8 10 3 11 4 12
REMARK SMILES IDX 91 13 5 14 90 15 6 16 89 17 7 18 88 19 2 20 1 21 18 22 19 23
REMARK SMILES IDX 20 24 21 25 22 26 23 27 87 28 24 29 86 30 25 31 26 32 27 33
REMARK SMILES IDX 80 34 28 35 85 36 79 37 81 38 29 39 84 40 78 41 77 42 30 44
REMARK SMILES IDX 64 45 43 46 63 47 44 48 47 49 62 50 82 51 45 52 46 53 61 55
REMARK SMILES IDX 83 56 48 57 31 58 32 59 41 60 33 61 34 62 40 63 42 64 35 65
REMARK SMILES IDX 36 66 37 67 38 68 39 69 65 70 66 71 75 72 67 73 68 74 74 75
REMARK SMILES IDX 76 76 69 77 70 78 71 79 72 80 73 81 49 82 50 83 59 84 51 85
REMARK SMILES IDX 52 86 58 87 60 88 53 89 54 90 55 91 56 92 57 93
REMARK H PARENT 81 43 47 54
REMARK Flexibility Score: inf
ROOT
ATOM      1  C   UNL     1       1.921  -2.163  -9.318  1.00  0.00     0.202 C 
ENDROOT
BRANCH   1   2
ATOM      2  O   UNL     1       3.071  -2.384 -10.129  1.00  0.00    -0.374 OA
BRANCH   2   3
ATOM      3  C   UNL     1       4.221  -1.582  -9.853  1.00  0.00     0.202 C 
BRANCH   3   4
ATOM      4  C   UNL     1       4.136  -0.132 -10.329  1.00  0.00     0.261 C 
BRANCH   4   5
ATOM      5  O   UNL     1       3.249   0.625  -9.492  1.00  0.00    -0.463 OA
BRANCH   5   6
ATOM      6  C   UNL     1       2.131   1.165 -10.061  1.00  0.00     0.313 C 
ATOM      7  O   UNL     1       1.734   0.946 -11.198  1.00  0.00    -0.252 OA
BRANCH   6   8
ATOM      8  C   UNL     1       1.436   2.116  -9.077  1.00  0.00     0.126 C 
ATOM      9  C   UNL     1       0.794   1.320  -7.940  1.00  0.00     0.025 C 
BRANCH   8  10
ATOM     10  C   UNL     1       2.461   3.168  -8.675  1.00  0.00    -0.033 A 
ATOM     11  C   UNL     1       7.226   4.493  -7.752  1.00  0.00     0.119 A 
ATOM     12  C   UNL     1       6.860   3.643  -6.710  1.00  0.00     0.047 A 
ATOM     13  C   UNL     1       6.258   4.934  -8.657  1.00  0.00     0.055 A 
ATOM     14  C   UNL     1       5.543   3.188  -6.611  1.00  0.00     0.012 A 
ATOM     15  C   UNL     1       4.942   4.462  -8.591  1.00  0.00    -0.015 A 
ATOM     16  C   UNL     1       4.588   3.557  -7.569  1.00  0.00    -0.018 A 
ATOM     17  C   UNL     1       3.999   4.814  -9.565  1.00  0.00     0.009 A 
ATOM     18  C   UNL     1       3.325   2.957  -7.589  1.00  0.00     0.013 A 
ATOM     19  C   UNL     1       2.770   4.163  -9.615  1.00  0.00     0.005 A 
BRANCH  11  20
ATOM     20  O   UNL     1       8.485   4.960  -8.000  1.00  0.00    -0.497 OA
ATOM     21  C   UNL     1       9.556   4.271  -7.365  1.00  0.00     0.278 C 
ENDBRANCH  11  20
ENDBRANCH   8  10
ENDBRANCH   6   8
ENDBRANCH   5   6
ENDBRANCH   4   5
ENDBRANCH   3   4
ENDBRANCH   2   3
ENDBRANCH   1   2
BRANCH   1  22
ATOM     22  C   UNL     1       1.906  -2.872  -7.960  1.00  0.00     0.261 C 
BRANCH  22  23
ATOM     23  O   UNL     1       2.970  -2.441  -7.094  1.00  0.00    -0.460 OA
BRANCH  23  24
ATOM     24  C   UNL     1       3.974  -3.338  -6.960  1.00  0.00     0.338 C 
ATOM     25  O   UNL     1       4.029  -4.460  -7.458  1.00  0.00    -0.246 OA
BRANCH  24  26
ATOM     26  C   UNL     1       5.111  -2.757  -6.226  1.00  0.00     0.060 A 
ATOM     27  C   UNL     1       6.385  -2.921  -6.785  1.00  0.00     0.016 A 
ATOM     28  C   UNL     1       4.960  -2.168  -4.968  1.00  0.00     0.016 A 
ATOM     29  C   UNL     1       7.517  -2.559  -6.060  1.00  0.00     0.010 A 
ATOM     30  C   UNL     1       6.100  -1.807  -4.240  1.00  0.00     0.010 A 
ATOM     31  C   UNL     1       7.384  -2.042  -4.765  1.00  0.00    -0.014 A 
BRANCH  31  32
ATOM     32  C   UNL     1       8.593  -1.890  -3.917  1.00  0.00     0.031 A 
ATOM     33  C   UNL     1       8.902  -2.937  -2.881  1.00  0.00     0.074 A 
ATOM     34  C   UNL     1       9.428  -0.851  -4.091  1.00  0.00     0.049 A 
ATOM     35  N   UNL     1       9.899  -2.999  -2.037  1.00  0.00    -0.248 NA
ATOM     36  C   UNL     1       7.960  -4.062  -2.785  1.00  0.00     0.031 C 
ATOM     37  C   UNL     1       9.255   0.213  -5.078  1.00  0.00     0.029 A 
ATOM     38  N   UNL     1      10.586  -0.520  -3.433  1.00  0.00    -0.354 N 
ATOM     39  C   UNL     1       9.704  -4.164  -1.304  1.00  0.00     0.074 A 
ATOM     40  C   UNL     1       8.474  -4.760  -1.782  1.00  0.00     0.031 C 
ATOM     41  C   UNL     1      10.262   1.093  -4.944  1.00  0.00     0.029 A 
ATOM     42  C   UNL     1      11.132   0.668  -3.849  1.00  0.00     0.049 A 
ATOM     43  H   UNL     1      10.986  -1.081  -2.730  1.00  0.00     0.167 HD
ATOM     44  C   UNL     1      10.482  -4.695  -0.330  1.00  0.00     0.037 A 
ATOM     45  C   UNL     1      12.199   1.351  -3.388  1.00  0.00     0.037 A 
ATOM     46  C   UNL     1      11.704  -4.101   0.144  1.00  0.00     0.049 A 
ATOM     47  C   UNL     1      13.027   0.770  -2.275  1.00  0.00     0.074 A 
ATOM     48  C   UNL     1      12.580  -4.580   1.103  1.00  0.00     0.029 A 
ATOM     49  N   UNL     1      12.217  -2.888  -0.293  1.00  0.00    -0.354 N 
ATOM     50  N   UNL     1      12.855  -0.353  -1.621  1.00  0.00    -0.248 NA
ATOM     51  C   UNL     1      14.201   1.543  -1.845  1.00  0.00     0.031 C 
ATOM     52  C   UNL     1      13.597  -3.634   1.279  1.00  0.00     0.029 A 
ATOM     53  C   UNL     1      13.381  -2.588   0.396  1.00  0.00     0.049 A 
ATOM     54  H   UNL     1      11.813  -2.324  -0.991  1.00  0.00     0.167 HD
ATOM     55  C   UNL     1      13.906  -0.432  -0.714  1.00  0.00     0.074 A 
ATOM     56  C   UNL     1      14.717   0.752  -0.912  1.00  0.00     0.031 C 
ATOM     57  C   UNL     1      14.177  -1.401   0.197  1.00  0.00     0.037 A 
BRANCH  44  58
ATOM     58  C   UNL     1      10.006  -5.971   0.309  1.00  0.00     0.058 A 
ATOM     59  C   UNL     1      10.022  -7.196  -0.379  1.00  0.00     0.135 A 
ATOM     60  C   UNL     1       9.518  -5.966   1.625  1.00  0.00     0.135 A 
ATOM     61  F   UNL     1      10.465  -7.255  -1.645  1.00  0.00    -0.206 F 
ATOM     62  C   UNL     1       9.528  -8.361   0.200  1.00  0.00     0.059 A 
ATOM     63  C   UNL     1       9.045  -7.125   2.234  1.00  0.00     0.059 A 
ATOM     64  F   UNL     1       9.482  -4.824   2.329  1.00  0.00    -0.206 F 
ATOM     65  C   UNL     1       9.032  -8.313   1.504  1.00  0.00     0.060 A 
BRANCH  65  66
ATOM     66  S   UNL     1       8.358  -9.822   2.231  1.00  0.00     0.124 S 
ATOM     67  O   UNL     1       7.072  -9.922   1.546  1.00  0.00    -0.237 OA
ATOM     68  O   UNL     1       9.353 -10.822   1.859  1.00  0.00    -0.237 OA
ATOM     69  O   UNL     1       8.288  -9.511   3.655  1.00  0.00    -0.744 OA
ENDBRANCH  65  66
ENDBRANCH  44  58
BRANCH  45  70
ATOM     70  C   UNL     1      12.523   2.674  -3.979  1.00  0.00     0.058 A 
ATOM     71  C   UNL     1      13.625   2.844  -4.828  1.00  0.00     0.135 A 
ATOM     72  C   UNL     1      11.697   3.784  -3.744  1.00  0.00     0.135 A 
ATOM     73  F   UNL     1      14.448   1.813  -5.074  1.00  0.00    -0.206 F 
ATOM     74  C   UNL     1      13.893   4.067  -5.432  1.00  0.00     0.059 A 
ATOM     75  C   UNL     1      11.933   5.012  -4.351  1.00  0.00     0.059 A 
ATOM     76  F   UNL     1      10.619   3.665  -2.953  1.00  0.00    -0.206 F 
ATOM     77  C   UNL     1      13.034   5.142  -5.196  1.00  0.00     0.060 A 
BRANCH  77  78
ATOM     78  S   UNL     1      13.327   6.693  -6.074  1.00  0.00     0.124 S 
ATOM     79  O   UNL     1      14.500   7.207  -5.379  1.00  0.00    -0.237 OA
ATOM     80  O   UNL     1      13.543   6.227  -7.440  1.00  0.00    -0.237 OA
ATOM     81  O   UNL     1      12.087   7.433  -5.861  1.00  0.00    -0.744 OA
ENDBRANCH  77  78
ENDBRANCH  45  70
BRANCH  57  82
ATOM     82  C   UNL     1      15.410  -1.234   1.042  1.00  0.00     0.058 A 
ATOM     83  C   UNL     1      15.468  -0.296   2.084  1.00  0.00     0.135 A 
ATOM     84  C   UNL     1      16.529  -2.058   0.839  1.00  0.00     0.135 A 
ATOM     85  F   UNL     1      14.428   0.521   2.316  1.00  0.00    -0.206 F 
ATOM     86  C   UNL     1      16.599  -0.167   2.884  1.00  0.00     0.059 A 
ATOM     87  C   UNL     1      17.662  -1.963   1.642  1.00  0.00     0.059 A 
ATOM     88  F   UNL     1      16.523  -2.978  -0.139  1.00  0.00    -0.206 F 
ATOM     89  C   UNL     1      17.692  -1.006   2.656  1.00  0.00     0.060 A 
BRANCH  89  90
ATOM     90  S   UNL     1      19.142  -0.852   3.720  1.00  0.00     0.124 S 
ATOM     91  O   UNL     1      19.749   0.374   3.213  1.00  0.00    -0.237 OA
ATOM     92  O   UNL     1      18.547  -0.762   5.050  1.00  0.00    -0.237 OA
ATOM     93  O   UNL     1      19.888  -2.079   3.457  1.00  0.00    -0.744 OA
ENDBRANCH  89  90
ENDBRANCH  57  82
ENDBRANCH  31  32
ENDBRANCH  24  26
ENDBRANCH  23  24
ENDBRANCH  22  23
ENDBRANCH   1  22
TORSDOF 19
