REMARK SMILES CC[NH2+][C@]1(C(=O)OCCOCCOC(=O)c2ccc(-c3c4nc(c(-c5c(F)cc(S(=O)(=O)[O-])cc5F)c5ccc([nH]5)c(-c5c(F)cc(S(=O)(=O)[O-])cc5F)c5nc(c(-c6c(F)cc(S(=O)(=O)[O-])cc6F)c6ccc3[nH]6)C=C5)C=C4)cc2)CCC[C@H]1CC[N@H+]1CCC[C@@H](CC)C1
REMARK SMILES IDX 9 1 8 2 7 3 5 4 6 5 4 6 82 7 85 8 83 9 84 10 3 11 2 14 1 15
REMARK SMILES IDX 86 16 87 17 88 18 89 19 95 20 90 22 92 23 91 24 93 25 94 26
REMARK SMILES IDX 10 27 11 28 12 29 13 30 14 31 15 32 16 33 17 34 81 35 18 36
REMARK SMILES IDX 80 37 19 38 20 39 21 40 74 41 22 42 79 43 73 44 75 45 23 46
REMARK SMILES IDX 78 47 72 48 71 49 24 51 58 52 37 53 57 54 38 55 41 56 56 57
REMARK SMILES IDX 76 58 39 59 40 60 55 62 77 63 42 64 25 65 26 66 35 67 27 68
REMARK SMILES IDX 28 69 34 70 36 71 29 72 30 73 31 74 32 75 33 76 59 77 60 78
REMARK SMILES IDX 69 79 61 80 62 81 68 82 70 83 63 84 64 85 65 86 66 87 67 88
REMARK SMILES IDX 43 89 44 90 53 91 45 92 46 93 52 94 54 95 47 96 48 97 49 98
REMARK SMILES IDX 50 99 51 100
REMARK H PARENT 3 12 3 13 88 21 75 50 41 61
REMARK Flexibility Score: inf
ROOT
ATOM      1  C   UNL     1       1.695   0.869  -0.315  1.00  0.00     0.202 C 
ENDROOT
BRANCH   1   2
ATOM      2  C   UNL     1       1.883   1.607   1.015  1.00  0.00     0.261 C 
BRANCH   2   3
ATOM      3  O   UNL     1       1.640   0.749   2.156  1.00  0.00    -0.459 OA
BRANCH   3   4
ATOM      4  C   UNL     1       0.506   0.974   2.859  1.00  0.00     0.368 C 
ATOM      5  O   UNL     1      -0.346   1.782   2.490  1.00  0.00    -0.245 OA
BRANCH   4   6
ATOM      6  C   UNL     1       0.411   0.173   4.205  1.00  0.00     0.197 C 
ATOM      7  C   UNL     1      -1.020   0.524   4.717  1.00  0.00     0.081 C 
ATOM      8  C   UNL     1       0.360  -1.392   4.263  1.00  0.00     0.068 C 
ATOM      9  C   UNL     1      -1.369  -0.470   5.798  1.00  0.00     0.008 C 
ATOM     10  C   UNL     1      -0.566  -1.716   5.469  1.00  0.00     0.011 C 
BRANCH   6  11
ATOM     11  N   UNL     1       1.396   0.737   5.195  1.00  0.00    -0.332 N 
ATOM     12  H   UNL     1       1.465   1.743   5.039  1.00  0.00     0.347 HD
ATOM     13  H   UNL     1       1.044   0.503   6.123  1.00  0.00     0.347 HD
BRANCH  11  14
ATOM     14  C   UNL     1       2.745   0.162   5.099  1.00  0.00     0.257 C 
ATOM     15  C   UNL     1       3.743   0.949   5.933  1.00  0.00     0.071 C 
ENDBRANCH  11  14
ENDBRANCH   6  11
BRANCH   8  16
ATOM     16  C   UNL     1      -0.086  -2.201   3.031  1.00  0.00     0.072 C 
BRANCH  16  17
ATOM     17  C   UNL     1       0.991  -2.423   1.956  1.00  0.00     0.262 C 
BRANCH  17  18
ATOM     18  N   UNL     1       2.310  -2.837   2.466  1.00  0.00    -0.335 N 
ATOM     19  C   UNL     1       2.576  -4.256   2.198  1.00  0.00     0.262 C 
ATOM     20  C   UNL     1       3.357  -2.010   1.841  1.00  0.00     0.265 C 
ATOM     21  H   UNL     1       2.314  -2.705   3.477  1.00  0.00     0.348 HD
ATOM     22  C   UNL     1       3.956  -4.684   2.705  1.00  0.00     0.062 C 
ATOM     23  C   UNL     1       4.760  -2.302   2.368  1.00  0.00     0.044 C 
ATOM     24  C   UNL     1       5.083  -3.791   2.193  1.00  0.00     0.015 C 
BRANCH  23  25
ATOM     25  C   UNL     1       5.856  -1.437   1.703  1.00  0.00     0.006 C 
ATOM     26  C   UNL     1       5.413  -0.111   1.092  1.00  0.00     0.004 C 
ENDBRANCH  23  25
ENDBRANCH  17  18
ENDBRANCH  16  17
ENDBRANCH   8  16
ENDBRANCH   4   6
ENDBRANCH   3   4
ENDBRANCH   2   3
ENDBRANCH   1   2
BRANCH   1  27
ATOM     27  O   UNL     1       0.361   0.915  -0.831  1.00  0.00    -0.374 OA
BRANCH  27  28
ATOM     28  C   UNL     1      -0.521  -0.101  -0.365  1.00  0.00     0.202 C 
BRANCH  28  29
ATOM     29  C   UNL     1      -0.466  -1.414  -1.164  1.00  0.00     0.261 C 
BRANCH  29  30
ATOM     30  O   UNL     1       0.851  -2.003  -1.203  1.00  0.00    -0.460 OA
BRANCH  30  31
ATOM     31  C   UNL     1       1.534  -1.825  -2.364  1.00  0.00     0.338 C 
ATOM     32  O   UNL     1       1.119  -1.276  -3.373  1.00  0.00    -0.246 OA
BRANCH  31  33
ATOM     33  C   UNL     1       2.937  -2.286  -2.226  1.00  0.00     0.060 A 
ATOM     34  C   UNL     1       3.946  -1.508  -2.804  1.00  0.00     0.016 A 
ATOM     35  C   UNL     1       3.276  -3.477  -1.585  1.00  0.00     0.016 A 
ATOM     36  C   UNL     1       5.281  -1.937  -2.777  1.00  0.00     0.010 A 
ATOM     37  C   UNL     1       4.622  -3.877  -1.519  1.00  0.00     0.010 A 
ATOM     38  C   UNL     1       5.643  -3.138  -2.151  1.00  0.00    -0.014 A 
BRANCH  38  39
ATOM     39  C   UNL     1       7.044  -3.672  -2.267  1.00  0.00     0.031 A 
ATOM     40  C   UNL     1       7.289  -4.992  -2.967  1.00  0.00     0.074 A 
ATOM     41  C   UNL     1       8.117  -3.003  -1.786  1.00  0.00     0.049 A 
ATOM     42  N   UNL     1       8.427  -5.582  -3.248  1.00  0.00    -0.248 NA
ATOM     43  C   UNL     1       6.108  -5.750  -3.407  1.00  0.00     0.031 C 
ATOM     44  C   UNL     1       8.079  -1.720  -1.089  1.00  0.00     0.029 A 
ATOM     45  N   UNL     1       9.458  -3.320  -1.796  1.00  0.00    -0.354 N 
ATOM     46  C   UNL     1       8.094  -6.752  -3.920  1.00  0.00     0.074 A 
ATOM     47  C   UNL     1       6.652  -6.852  -3.898  1.00  0.00     0.031 C 
ATOM     48  C   UNL     1       9.317  -1.390  -0.683  1.00  0.00     0.029 A 
ATOM     49  C   UNL     1      10.256  -2.409  -1.140  1.00  0.00     0.049 A 
ATOM     50  H   UNL     1       9.814  -4.127  -2.234  1.00  0.00     0.167 HD
ATOM     51  C   UNL     1       8.896  -7.631  -4.567  1.00  0.00     0.037 A 
ATOM     52  C   UNL     1      11.592  -2.367  -0.952  1.00  0.00     0.037 A 
ATOM     53  C   UNL     1      10.329  -7.537  -4.631  1.00  0.00     0.049 A 
ATOM     54  C   UNL     1      12.474  -3.381  -1.633  1.00  0.00     0.074 A 
ATOM     55  C   UNL     1      11.214  -8.340  -5.331  1.00  0.00     0.029 A 
ATOM     56  N   UNL     1      11.090  -6.590  -3.966  1.00  0.00    -0.354 N 
ATOM     57  N   UNL     1      12.132  -4.402  -2.380  1.00  0.00    -0.248 NA
ATOM     58  C   UNL     1      13.928  -3.199  -1.496  1.00  0.00     0.031 C 
ATOM     59  C   UNL     1      12.514  -7.902  -5.057  1.00  0.00     0.029 A 
ATOM     60  C   UNL     1      12.436  -6.800  -4.222  1.00  0.00     0.049 A 
ATOM     61  H   UNL     1      10.729  -5.873  -3.397  1.00  0.00     0.167 HD
ATOM     62  C   UNL     1      13.324  -4.942  -2.854  1.00  0.00     0.074 A 
ATOM     63  C   UNL     1      14.396  -4.144  -2.300  1.00  0.00     0.031 C 
ATOM     64  C   UNL     1      13.506  -5.994  -3.690  1.00  0.00     0.037 A 
BRANCH  51  65
ATOM     65  C   UNL     1       8.219  -8.753  -5.307  1.00  0.00     0.058 A 
ATOM     66  C   UNL     1       7.457  -8.505  -6.462  1.00  0.00     0.135 A 
ATOM     67  C   UNL     1       8.328 -10.080  -4.865  1.00  0.00     0.135 A 
ATOM     68  F   UNL     1       7.311  -7.251  -6.920  1.00  0.00    -0.206 F 
ATOM     69  C   UNL     1       6.782  -9.525  -7.121  1.00  0.00     0.059 A 
ATOM     70  C   UNL     1       7.686 -11.122  -5.529  1.00  0.00     0.059 A 
ATOM     71  F   UNL     1       9.049 -10.373  -3.772  1.00  0.00    -0.206 F 
ATOM     72  C   UNL     1       6.897 -10.830  -6.641  1.00  0.00     0.060 A 
BRANCH  72  73
ATOM     73  S   UNL     1       5.990 -12.139  -7.490  1.00  0.00     0.124 S 
ATOM     74  O   UNL     1       4.623 -11.873  -7.052  1.00  0.00    -0.237 OA
ATOM     75  O   UNL     1       6.271 -11.855  -8.894  1.00  0.00    -0.237 OA
ATOM     76  O   UNL     1       6.590 -13.362  -6.968  1.00  0.00    -0.744 OA
ENDBRANCH  72  73
ENDBRANCH  51  65
BRANCH  52  77
ATOM     77  C   UNL     1      12.204  -1.272  -0.147  1.00  0.00     0.058 A 
ATOM     78  C   UNL     1      12.912  -0.229  -0.762  1.00  0.00     0.135 A 
ATOM     79  C   UNL     1      12.120  -1.267   1.254  1.00  0.00     0.135 A 
ATOM     80  F   UNL     1      13.028  -0.196  -2.099  1.00  0.00    -0.206 F 
ATOM     81  C   UNL     1      13.540   0.765  -0.019  1.00  0.00     0.059 A 
ATOM     82  C   UNL     1      12.723  -0.271   2.019  1.00  0.00     0.059 A 
ATOM     83  F   UNL     1      11.445  -2.236   1.891  1.00  0.00    -0.206 F 
ATOM     84  C   UNL     1      13.442   0.734   1.373  1.00  0.00     0.060 A 
BRANCH  84  85
ATOM     85  S   UNL     1      14.243   2.046   2.323  1.00  0.00     0.124 S 
ATOM     86  O   UNL     1      15.653   1.712   2.156  1.00  0.00    -0.237 OA
ATOM     87  O   UNL     1      13.784   3.246   1.632  1.00  0.00    -0.237 OA
ATOM     88  O   UNL     1      13.706   1.862   3.668  1.00  0.00    -0.744 OA
ENDBRANCH  84  85
ENDBRANCH  52  77
BRANCH  64  89
ATOM     89  C   UNL     1      14.912  -6.321  -4.114  1.00  0.00     0.058 A 
ATOM     90  C   UNL     1      15.843  -6.888  -3.230  1.00  0.00     0.135 A 
ATOM     91  C   UNL     1      15.318  -6.108  -5.442  1.00  0.00     0.135 A 
ATOM     92  F   UNL     1      15.510  -7.109  -1.949  1.00  0.00    -0.206 F 
ATOM     93  C   UNL     1      17.134  -7.208  -3.640  1.00  0.00     0.059 A 
ATOM     94  C   UNL     1      16.595  -6.447  -5.882  1.00  0.00     0.059 A 
ATOM     95  F   UNL     1      14.466  -5.578  -6.334  1.00  0.00    -0.206 F 
ATOM     96  C   UNL     1      17.500  -6.985  -4.969  1.00  0.00     0.060 A 
BRANCH  96  97
ATOM     97  S   UNL     1      19.167  -7.436  -5.498  1.00  0.00     0.124 S 
ATOM     98  O   UNL     1      19.962  -6.362  -4.913  1.00  0.00    -0.237 OA
ATOM     99  O   UNL     1      19.341  -8.754  -4.894  1.00  0.00    -0.237 OA
ATOM    100  O   UNL     1      19.075  -7.429  -6.955  1.00  0.00    -0.744 OA
ENDBRANCH  96  97
ENDBRANCH  64  89
ENDBRANCH  38  39
ENDBRANCH  31  33
ENDBRANCH  30  31
ENDBRANCH  29  30
ENDBRANCH  28  29
ENDBRANCH  27  28
ENDBRANCH   1  27
TORSDOF 23
