REMARK SMILES CCOc1cc(OCC)cc(-c2ccc([C@@H](C)C(=O)OCCOCCOC(=O)c3ccc(-c4c5nc(c(-c6c(F)cc(S(=O)(=O)[O-])cc6F)c6ccc([nH]6)c(-c6c(F)cc(S(=O)(=O)[O-])cc6F)c6nc(c(-c7c(F)cc(S(=O)(=O)[O-])cc7F)c7ccc4[nH]7)C=C6)C=C5)cc3)cc2F)c1
REMARK SMILES IDX 22 1 21 2 20 3 18 4 19 5 16 6 17 7 15 8 12 9 13 10 96 11
REMARK SMILES IDX 14 12 95 13 97 14 11 15 4 16 5 17 98 18 6 19 10 20 3 21 2 22
REMARK SMILES IDX 1 23 7 24 8 25 9 26 23 27 24 28 25 29 26 30 27 31 28 32
REMARK SMILES IDX 29 33 30 34 94 35 31 36 93 37 32 38 33 39 34 40 87 41 35 42
REMARK SMILES IDX 92 43 86 44 88 45 36 46 91 47 85 48 84 49 37 51 71 52 50 53
REMARK SMILES IDX 70 54 51 55 54 56 69 57 89 58 52 59 53 60 68 62 90 63 55 64
REMARK SMILES IDX 38 65 39 66 48 67 40 68 41 69 47 70 49 71 42 72 43 73 44 74
REMARK SMILES IDX 45 75 46 76 72 77 73 78 82 79 74 80 75 81 81 82 83 83 76 84
REMARK SMILES IDX 77 85 78 86 79 87 80 88 56 89 57 90 66 91 58 92 59 93 65 94
REMARK SMILES IDX 67 95 60 96 61 97 62 98 63 99 64 100
REMARK H PARENT 88 50 54 61
REMARK Flexibility Score: inf
ROOT
ATOM      1  C   UNL     1       7.678   4.767  -1.506  1.00  0.00     0.202 C 
ENDROOT
BRANCH   1   2
ATOM      2  C   UNL     1       8.947   4.548  -0.677  1.00  0.00     0.261 C 
BRANCH   2   3
ATOM      3  O   UNL     1       8.766   3.512   0.304  1.00  0.00    -0.463 OA
BRANCH   3   4
ATOM      4  C   UNL     1       8.786   3.911   1.603  1.00  0.00     0.313 C 
ATOM      5  O   UNL     1       9.051   5.049   1.978  1.00  0.00    -0.252 OA
BRANCH   4   6
ATOM      6  C   UNL     1       8.475   2.795   2.588  1.00  0.00     0.126 C 
ATOM      7  C   UNL     1       9.775   2.154   3.065  1.00  0.00     0.025 C 
BRANCH   6   8
ATOM      8  C   UNL     1       7.448   1.750   2.166  1.00  0.00    -0.031 A 
ATOM      9  C   UNL     1       5.574  -0.321   1.594  1.00  0.00     0.018 A 
ATOM     10  C   UNL     1       6.769  -0.197   0.866  1.00  0.00     0.012 A 
ATOM     11  C   UNL     1       5.317   0.647   2.572  1.00  0.00     0.131 A 
ATOM     12  C   UNL     1       7.694   0.818   1.149  1.00  0.00     0.005 A 
ATOM     13  C   UNL     1       6.229   1.664   2.857  1.00  0.00     0.044 A 
ATOM     14  F   UNL     1       4.190   0.594   3.300  1.00  0.00    -0.206 F 
BRANCH   9  15
ATOM     15  C   UNL     1       4.669  -1.460   1.373  1.00  0.00    -0.008 A 
ATOM     16  C   UNL     1       2.464  -2.377   0.926  1.00  0.00     0.123 A 
ATOM     17  C   UNL     1       2.974  -3.673   0.995  1.00  0.00     0.092 A 
ATOM     18  C   UNL     1       3.300  -1.281   1.137  1.00  0.00     0.055 A 
ATOM     19  C   UNL     1       4.328  -3.881   1.262  1.00  0.00     0.123 A 
ATOM     20  C   UNL     1       5.164  -2.776   1.438  1.00  0.00     0.055 A 
BRANCH  16  21
ATOM     21  O   UNL     1       1.110  -2.225   0.794  1.00  0.00    -0.494 OA
BRANCH  21  22
ATOM     22  C   UNL     1       0.715  -1.580  -0.424  1.00  0.00     0.226 C 
ATOM     23  C   UNL     1       0.579  -0.075  -0.252  1.00  0.00     0.049 C 
ENDBRANCH  21  22
ENDBRANCH  16  21
BRANCH  19  24
ATOM     24  O   UNL     1       4.726  -5.189   1.316  1.00  0.00    -0.494 OA
BRANCH  24  25
ATOM     25  C   UNL     1       5.974  -5.483   1.949  1.00  0.00     0.226 C 
ATOM     26  C   UNL     1       7.118  -5.484   0.948  1.00  0.00     0.049 C 
ENDBRANCH  24  25
ENDBRANCH  19  24
ENDBRANCH   9  15
ENDBRANCH   6   8
ENDBRANCH   4   6
ENDBRANCH   3   4
ENDBRANCH   2   3
ENDBRANCH   1   2
BRANCH   1  27
ATOM     27  O   UNL     1       6.536   5.257  -0.803  1.00  0.00    -0.374 OA
BRANCH  27  28
ATOM     28  C   UNL     1       5.793   4.315  -0.029  1.00  0.00     0.202 C 
BRANCH  28  29
ATOM     29  C   UNL     1       4.881   3.349  -0.797  1.00  0.00     0.261 C 
BRANCH  29  30
ATOM     30  O   UNL     1       5.621   2.421  -1.611  1.00  0.00    -0.460 OA
BRANCH  30  31
ATOM     31  C   UNL     1       5.465   2.577  -2.947  1.00  0.00     0.338 C 
ATOM     32  O   UNL     1       4.720   3.364  -3.518  1.00  0.00    -0.246 OA
BRANCH  31  33
ATOM     33  C   UNL     1       6.478   1.782  -3.664  1.00  0.00     0.060 A 
ATOM     34  C   UNL     1       7.346   2.460  -4.530  1.00  0.00     0.016 A 
ATOM     35  C   UNL     1       6.546   0.394  -3.535  1.00  0.00     0.016 A 
ATOM     36  C   UNL     1       8.275   1.748  -5.287  1.00  0.00     0.010 A 
ATOM     37  C   UNL     1       7.470  -0.320  -4.306  1.00  0.00     0.010 A 
ATOM     38  C   UNL     1       8.327   0.350  -5.199  1.00  0.00    -0.014 A 
BRANCH  38  39
ATOM     39  C   UNL     1       9.221  -0.418  -6.100  1.00  0.00     0.031 A 
ATOM     40  C   UNL     1       8.648  -1.082  -7.321  1.00  0.00     0.074 A 
ATOM     41  C   UNL     1      10.536  -0.517  -5.830  1.00  0.00     0.049 A 
ATOM     42  N   UNL     1       9.237  -1.858  -8.193  1.00  0.00    -0.248 NA
ATOM     43  C   UNL     1       7.223  -0.839  -7.595  1.00  0.00     0.031 C 
ATOM     44  C   UNL     1      11.214   0.117  -4.700  1.00  0.00     0.029 A 
ATOM     45  N   UNL     1      11.532  -1.204  -6.478  1.00  0.00    -0.354 N 
ATOM     46  C   UNL     1       8.257  -2.204  -9.116  1.00  0.00     0.074 A 
ATOM     47  C   UNL     1       7.029  -1.570  -8.685  1.00  0.00     0.031 C 
ATOM     48  C   UNL     1      12.513  -0.226  -4.723  1.00  0.00     0.029 A 
ATOM     49  C   UNL     1      12.750  -1.134  -5.844  1.00  0.00     0.049 A 
ATOM     50  H   UNL     1      11.389  -1.698  -7.317  1.00  0.00     0.167 HD
ATOM     51  C   UNL     1       8.374  -2.975 -10.224  1.00  0.00     0.037 A 
ATOM     52  C   UNL     1      13.913  -1.759  -6.115  1.00  0.00     0.037 A 
ATOM     53  C   UNL     1       9.599  -3.603 -10.646  1.00  0.00     0.049 A 
ATOM     54  C   UNL     1      13.996  -2.683  -7.303  1.00  0.00     0.074 A 
ATOM     55  C   UNL     1       9.825  -4.377 -11.772  1.00  0.00     0.029 A 
ATOM     56  N   UNL     1      10.801  -3.543  -9.956  1.00  0.00    -0.354 N 
ATOM     57  N   UNL     1      13.070  -2.976  -8.184  1.00  0.00    -0.248 NA
ATOM     58  C   UNL     1      15.278  -3.365  -7.529  1.00  0.00     0.031 C 
ATOM     59  C   UNL     1      11.148  -4.831 -11.732  1.00  0.00     0.029 A 
ATOM     60  C   UNL     1      11.762  -4.297 -10.610  1.00  0.00     0.049 A 
ATOM     61  H   UNL     1      10.949  -3.039  -9.124  1.00  0.00     0.167 HD
ATOM     62  C   UNL     1      13.662  -3.864  -9.077  1.00  0.00     0.074 A 
ATOM     63  C   UNL     1      15.031  -4.046  -8.639  1.00  0.00     0.031 C 
ATOM     64  C   UNL     1      13.121  -4.475 -10.161  1.00  0.00     0.037 A 
BRANCH  51  65
ATOM     65  C   UNL     1       7.138  -3.208 -11.048  1.00  0.00     0.058 A 
ATOM     66  C   UNL     1       6.579  -2.199 -11.847  1.00  0.00     0.135 A 
ATOM     67  C   UNL     1       6.532  -4.475 -11.075  1.00  0.00     0.135 A 
ATOM     68  F   UNL     1       7.109  -0.965 -11.846  1.00  0.00    -0.206 F 
ATOM     69  C   UNL     1       5.451  -2.430 -12.628  1.00  0.00     0.059 A 
ATOM     70  C   UNL     1       5.418  -4.737 -11.868  1.00  0.00     0.059 A 
ATOM     71  F   UNL     1       7.024  -5.476 -10.329  1.00  0.00    -0.206 F 
ATOM     72  C   UNL     1       4.878  -3.703 -12.633  1.00  0.00     0.060 A 
BRANCH  72  73
ATOM     73  S   UNL     1       3.421  -3.990 -13.659  1.00  0.00     0.124 S 
ATOM     74  O   UNL     1       2.396  -3.258 -12.920  1.00  0.00    -0.237 OA
ATOM     75  O   UNL     1       3.819  -3.405 -14.935  1.00  0.00    -0.237 OA
ATOM     76  O   UNL     1       3.280  -5.442 -13.655  1.00  0.00    -0.744 OA
ENDBRANCH  72  73
ENDBRANCH  51  65
BRANCH  52  77
ATOM     77  C   UNL     1      15.087  -1.561  -5.223  1.00  0.00     0.058 A 
ATOM     78  C   UNL     1      16.224  -0.868  -5.662  1.00  0.00     0.135 A 
ATOM     79  C   UNL     1      15.092  -2.062  -3.912  1.00  0.00     0.135 A 
ATOM     80  F   UNL     1      16.273  -0.383  -6.912  1.00  0.00    -0.206 F 
ATOM     81  C   UNL     1      17.330  -0.686  -4.837  1.00  0.00     0.059 A 
ATOM     82  C   UNL     1      16.175  -1.871  -3.059  1.00  0.00     0.059 A 
ATOM     83  F   UNL     1      14.025  -2.725  -3.440  1.00  0.00    -0.206 F 
ATOM     84  C   UNL     1      17.293  -1.188  -3.535  1.00  0.00     0.060 A 
BRANCH  84  85
ATOM     85  S   UNL     1      18.710  -0.899  -2.453  1.00  0.00     0.124 S 
ATOM     86  O   UNL     1      19.696  -1.820  -3.008  1.00  0.00    -0.237 OA
ATOM     87  O   UNL     1      18.971   0.521  -2.664  1.00  0.00    -0.237 OA
ATOM     88  O   UNL     1      18.197  -1.244  -1.130  1.00  0.00    -0.744 OA
ENDBRANCH  84  85
ENDBRANCH  52  77
BRANCH  64  89
ATOM     89  C   UNL     1      14.006  -5.392 -10.959  1.00  0.00     0.058 A 
ATOM     90  C   UNL     1      14.372  -6.659 -10.479  1.00  0.00     0.135 A 
ATOM     91  C   UNL     1      14.438  -5.029 -12.245  1.00  0.00     0.135 A 
ATOM     92  F   UNL     1      13.994  -7.052  -9.252  1.00  0.00    -0.206 F 
ATOM     93  C   UNL     1      15.146  -7.529 -11.240  1.00  0.00     0.059 A 
ATOM     94  C   UNL     1      15.191  -5.894 -13.034  1.00  0.00     0.059 A 
ATOM     95  F   UNL     1      14.110  -3.832 -12.756  1.00  0.00    -0.206 F 
ATOM     96  C   UNL     1      15.546  -7.140 -12.519  1.00  0.00     0.060 A 
BRANCH  96  97
ATOM     97  S   UNL     1      16.509  -8.299 -13.515  1.00  0.00     0.124 S 
ATOM     98  O   UNL     1      17.807  -8.251 -12.850  1.00  0.00    -0.237 OA
ATOM     99  O   UNL     1      15.761  -9.542 -13.356  1.00  0.00    -0.237 OA
ATOM    100  O   UNL     1      16.467  -7.716 -14.852  1.00  0.00    -0.744 OA
ENDBRANCH  96  97
ENDBRANCH  64  89
ENDBRANCH  38  39
ENDBRANCH  31  33
ENDBRANCH  30  31
ENDBRANCH  29  30
ENDBRANCH  28  29
ENDBRANCH  27  28
ENDBRANCH   1  27
TORSDOF 23
