REMARK SMILES CSc1nc(O)nc(C)c1C(=O)N1C[C@@H](O)C[C@@H]1C(=O)OCCOCCOC(=O)c1ccc(-c2c3nc(c(-c4c(F)cc(S(=O)(=O)[O-])cc4F)c4ccc([nH]4)c(-c4c(F)cc(S(=O)(=O)[O-])cc4F)c4nc(c(-c5c(F)cc(S(=O)(=O)[O-])cc5F)c5ccc2[nH]5)C=C4)C=C3)cc1
REMARK SMILES IDX 24 1 23 2 22 3 21 4 19 5 20 6 18 7 13 8 14 9 15 10 17 11
REMARK SMILES IDX 11 12 12 13 10 14 3 15 4 16 5 17 8 18 7 19 9 20 2 21 1 22
REMARK SMILES IDX 6 23 16 25 25 27 26 28 27 29 28 30 29 31 30 32 31 33 95 34
REMARK SMILES IDX 32 35 94 36 33 37 34 38 35 39 88 40 36 41 93 42 87 43 89 44
REMARK SMILES IDX 37 45 92 46 86 47 85 48 38 50 72 51 51 52 71 53 52 54 55 55
REMARK SMILES IDX 70 56 90 57 53 58 54 59 69 61 91 62 56 63 39 64 40 65 49 66
REMARK SMILES IDX 41 67 42 68 48 69 50 70 43 71 44 72 45 73 46 74 47 75 73 76
REMARK SMILES IDX 74 77 83 78 75 79 76 80 82 81 84 82 77 83 78 84 79 85 80 86
REMARK SMILES IDX 81 87 57 88 58 89 67 90 59 91 60 92 66 93 68 94 61 95 62 96
REMARK SMILES IDX 63 97 64 98 65 99
REMARK H PARENT 6 24 16 26 89 49 55 60
REMARK Flexibility Score: inf
ROOT
ATOM      1  O   UNL     1      -2.704  -2.819   4.528  1.00  0.00    -0.374 OA
ENDROOT
BRANCH   1   2
ATOM      2  C   UNL     1      -3.871  -2.005   4.612  1.00  0.00     0.202 C 
BRANCH   2   3
ATOM      3  C   UNL     1      -3.825  -0.612   3.981  1.00  0.00     0.261 C 
BRANCH   3   4
ATOM      4  O   UNL     1      -3.671  -0.708   2.556  1.00  0.00    -0.462 OA
BRANCH   4   5
ATOM      5  C   UNL     1      -2.491  -0.238   2.062  1.00  0.00     0.329 C 
ATOM      6  O   UNL     1      -1.675   0.415   2.696  1.00  0.00    -0.250 OA
BRANCH   5   7
ATOM      7  C   UNL     1      -2.326  -0.662   0.602  1.00  0.00     0.198 C 
ATOM      8  N   UNL     1      -0.953  -1.136   0.303  1.00  0.00    -0.322 N 
ATOM      9  C   UNL     1      -0.497  -0.445  -0.886  1.00  0.00     0.152 C 
ATOM     10  C   UNL     1      -1.128   0.933  -0.732  1.00  0.00     0.136 C 
ATOM     11  C   UNL     1      -2.547   0.557  -0.304  1.00  0.00     0.071 C 
BRANCH   8  12
ATOM     12  C   UNL     1      -0.570  -2.445   0.526  1.00  0.00     0.259 C 
ATOM     13  O   UNL     1      -1.258  -3.338   0.042  1.00  0.00    -0.269 OA
BRANCH  12  14
ATOM     14  C   UNL     1       0.621  -2.755   1.415  1.00  0.00     0.093 A 
ATOM     15  C   UNL     1       1.481  -1.802   1.991  1.00  0.00     0.116 A 
ATOM     16  N   UNL     1       2.503  -2.116   2.827  1.00  0.00    -0.188 NA
ATOM     17  C   UNL     1       2.641  -3.390   3.133  1.00  0.00     0.315 A 
ATOM     18  C   UNL     1       0.919  -4.082   1.793  1.00  0.00     0.058 A 
ATOM     19  N   UNL     1       1.923  -4.394   2.662  1.00  0.00    -0.200 NA
ATOM     20  C   UNL     1       0.201  -5.338   1.387  1.00  0.00     0.068 C 
BRANCH  15  21
ATOM     21  S   UNL     1       1.414  -0.031   1.812  1.00  0.00    -0.109 SA
ATOM     22  C   UNL     1       2.685   0.184   0.549  1.00  0.00     0.092 C 
ENDBRANCH  15  21
BRANCH  17  23
ATOM     23  O   UNL     1       3.584  -3.732   4.046  1.00  0.00    -0.479 OA
ATOM     24  H   UNL     1       4.131  -3.071   4.424  1.00  0.00     0.297 HD
ENDBRANCH  17  23
ENDBRANCH  12  14
ENDBRANCH   8  12
BRANCH  10  25
ATOM     25  O   UNL     1      -1.084   1.703  -1.915  1.00  0.00    -0.391 OA
ATOM     26  H   UNL     1      -1.523   1.219  -2.632  1.00  0.00     0.211 HD
ENDBRANCH  10  25
ENDBRANCH   5   7
ENDBRANCH   4   5
ENDBRANCH   3   4
ENDBRANCH   2   3
ENDBRANCH   1   2
BRANCH   1  27
ATOM     27  C   UNL     1      -2.385  -3.396   3.267  1.00  0.00     0.202 C 
BRANCH  27  28
ATOM     28  C   UNL     1      -3.180  -4.603   2.760  1.00  0.00     0.261 C 
BRANCH  28  29
ATOM     29  O   UNL     1      -4.584  -4.356   2.671  1.00  0.00    -0.460 OA
BRANCH  29  30
ATOM     30  C   UNL     1      -5.298  -4.880   3.694  1.00  0.00     0.338 C 
ATOM     31  O   UNL     1      -4.885  -5.557   4.624  1.00  0.00    -0.246 OA
BRANCH  30  32
ATOM     32  C   UNL     1      -6.657  -4.335   3.632  1.00  0.00     0.060 A 
ATOM     33  C   UNL     1      -7.094  -3.550   4.707  1.00  0.00     0.016 A 
ATOM     34  C   UNL     1      -7.497  -4.630   2.558  1.00  0.00     0.016 A 
ATOM     35  C   UNL     1      -8.397  -3.077   4.729  1.00  0.00     0.010 A 
ATOM     36  C   UNL     1      -8.816  -4.184   2.598  1.00  0.00     0.010 A 
ATOM     37  C   UNL     1      -9.273  -3.443   3.701  1.00  0.00    -0.014 A 
BRANCH  37  38
ATOM     38  C   UNL     1     -10.720  -3.249   3.908  1.00  0.00     0.031 A 
ATOM     39  C   UNL     1     -11.500  -4.386   4.502  1.00  0.00     0.074 A 
ATOM     40  C   UNL     1     -11.304  -2.077   3.612  1.00  0.00     0.049 A 
ATOM     41  N   UNL     1     -12.776  -4.468   4.759  1.00  0.00    -0.248 NA
ATOM     42  C   UNL     1     -10.733  -5.595   4.857  1.00  0.00     0.031 C 
ATOM     43  C   UNL     1     -10.615  -0.900   3.087  1.00  0.00     0.029 A 
ATOM     44  N   UNL     1     -12.613  -1.690   3.714  1.00  0.00    -0.354 N 
ATOM     45  C   UNL     1     -12.967  -5.729   5.309  1.00  0.00     0.074 A 
ATOM     46  C   UNL     1     -11.684  -6.395   5.315  1.00  0.00     0.031 C 
ATOM     47  C   UNL     1     -11.516   0.080   2.900  1.00  0.00     0.029 A 
ATOM     48  C   UNL     1     -12.843  -0.413   3.264  1.00  0.00     0.049 A 
ATOM     49  H   UNL     1     -13.321  -2.271   4.074  1.00  0.00     0.167 HD
ATOM     50  C   UNL     1     -14.112  -6.274   5.778  1.00  0.00     0.037 A 
ATOM     51  C   UNL     1     -14.001   0.264   3.145  1.00  0.00     0.037 A 
ATOM     52  C   UNL     1     -15.381  -5.600   5.751  1.00  0.00     0.049 A 
ATOM     53  C   UNL     1     -15.279  -0.400   3.586  1.00  0.00     0.074 A 
ATOM     54  C   UNL     1     -16.607  -6.057   6.198  1.00  0.00     0.029 A 
ATOM     55  N   UNL     1     -15.588  -4.326   5.239  1.00  0.00    -0.354 N 
ATOM     56  N   UNL     1     -15.451  -1.589   4.116  1.00  0.00    -0.248 NA
ATOM     57  C   UNL     1     -16.520   0.366   3.414  1.00  0.00     0.031 C 
ATOM     58  C   UNL     1     -17.565  -5.083   5.904  1.00  0.00     0.029 A 
ATOM     59  C   UNL     1     -16.928  -3.992   5.331  1.00  0.00     0.049 A 
ATOM     60  H   UNL     1     -14.886  -3.746   4.866  1.00  0.00     0.167 HD
ATOM     61  C   UNL     1     -16.815  -1.704   4.364  1.00  0.00     0.074 A 
ATOM     62  C   UNL     1     -17.419  -0.458   3.936  1.00  0.00     0.031 C 
ATOM     63  C   UNL     1     -17.506  -2.743   4.896  1.00  0.00     0.037 A 
BRANCH  50  64
ATOM     64  C   UNL     1     -14.045  -7.668   6.335  1.00  0.00     0.058 A 
ATOM     65  C   UNL     1     -13.410  -7.946   7.556  1.00  0.00     0.135 A 
ATOM     66  C   UNL     1     -14.657  -8.735   5.658  1.00  0.00     0.135 A 
ATOM     67  F   UNL     1     -12.786  -6.968   8.232  1.00  0.00    -0.206 F 
ATOM     68  C   UNL     1     -13.371  -9.234   8.079  1.00  0.00     0.059 A 
ATOM     69  C   UNL     1     -14.656 -10.026   6.177  1.00  0.00     0.059 A 
ATOM     70  F   UNL     1     -15.268  -8.527   4.481  1.00  0.00    -0.206 F 
ATOM     71  C   UNL     1     -14.004 -10.267   7.385  1.00  0.00     0.060 A 
BRANCH  71  72
ATOM     72  S   UNL     1     -13.964 -11.927   8.092  1.00  0.00     0.124 S 
ATOM     73  O   UNL     1     -12.550 -12.267   7.962  1.00  0.00    -0.237 OA
ATOM     74  O   UNL     1     -14.437 -11.694   9.452  1.00  0.00    -0.237 OA
ATOM     75  O   UNL     1     -14.870 -12.685   7.235  1.00  0.00    -0.744 OA
ENDBRANCH  71  72
ENDBRANCH  50  64
BRANCH  51  76
ATOM     76  C   UNL     1     -13.994   1.643   2.591  1.00  0.00     0.058 A 
ATOM     77  C   UNL     1     -14.274   2.750   3.404  1.00  0.00     0.135 A 
ATOM     78  C   UNL     1     -13.675   1.885   1.245  1.00  0.00     0.135 A 
ATOM     79  F   UNL     1     -14.595   2.569   4.695  1.00  0.00    -0.206 F 
ATOM     80  C   UNL     1     -14.240   4.048   2.905  1.00  0.00     0.059 A 
ATOM     81  C   UNL     1     -13.609   3.175   0.729  1.00  0.00     0.059 A 
ATOM     82  F   UNL     1     -13.388   0.861   0.426  1.00  0.00    -0.206 F 
ATOM     83  C   UNL     1     -13.896   4.251   1.567  1.00  0.00     0.060 A 
BRANCH  83  84
ATOM     84  S   UNL     1     -13.789   5.945   0.953  1.00  0.00     0.124 S 
ATOM     85  O   UNL     1     -15.186   6.362   0.988  1.00  0.00    -0.237 OA
ATOM     86  O   UNL     1     -12.910   6.568   1.938  1.00  0.00    -0.237 OA
ATOM     87  O   UNL     1     -13.212   5.784  -0.379  1.00  0.00    -0.744 OA
ENDBRANCH  83  84
ENDBRANCH  51  76
BRANCH  63  88
ATOM     88  C   UNL     1     -18.991  -2.580   5.066  1.00  0.00     0.058 A 
ATOM     89  C   UNL     1     -19.863  -2.595   3.966  1.00  0.00     0.135 A 
ATOM     90  C   UNL     1     -19.556  -2.493   6.349  1.00  0.00     0.135 A 
ATOM     91  F   UNL     1     -19.375  -2.672   2.718  1.00  0.00    -0.206 F 
ATOM     92  C   UNL     1     -21.241  -2.511   4.131  1.00  0.00     0.059 A 
ATOM     93  C   UNL     1     -20.933  -2.440   6.540  1.00  0.00     0.059 A 
ATOM     94  F   UNL     1     -18.767  -2.488   7.436  1.00  0.00    -0.206 F 
ATOM     95  C   UNL     1     -21.767  -2.442   5.423  1.00  0.00     0.060 A 
BRANCH  95  96
ATOM     96  S   UNL     1     -23.559  -2.377   5.620  1.00  0.00     0.124 S 
ATOM     97  O   UNL     1     -23.865  -1.048   5.101  1.00  0.00    -0.237 OA
ATOM     98  O   UNL     1     -24.001  -3.497   4.794  1.00  0.00    -0.237 OA
ATOM     99  O   UNL     1     -23.752  -2.549   7.056  1.00  0.00    -0.744 OA
ENDBRANCH  95  96
ENDBRANCH  63  88
ENDBRANCH  37  38
ENDBRANCH  30  32
ENDBRANCH  29  30
ENDBRANCH  28  29
ENDBRANCH  27  28
ENDBRANCH   1  27
TORSDOF 22
