REMARK SMILES CC[C@](C)([NH2+]CC(=O)Nc1c(Cl)ccc(C)c1Cl)C(=O)OCCOCCOC(=O)c1ccc(-c2c3nc(c(-c4c(F)cc(S(=O)(=O)[O-])cc4F)c4ccc([nH]4)c(-c4c(F)cc(S(=O)(=O)[O-])cc4F)c4nc(c(-c5c(F)cc(S(=O)(=O)[O-])cc5F)c5ccc2[nH]5)C=C4)C=C3)cc1
REMARK SMILES IDX 23 1 22 2 21 3 19 4 20 5 3 6 4 7 2 8 1 9 5 10 6 13 7 14 8 15
REMARK SMILES IDX 9 16 10 18 11 19 17 20 12 21 13 22 15 23 18 24 14 25 16 26
REMARK SMILES IDX 24 27 25 28 26 29 27 30 28 31 29 32 30 33 31 34 95 35 32 36
REMARK SMILES IDX 94 37 33 38 34 39 35 40 88 41 36 42 93 43 87 44 89 45 37 46
REMARK SMILES IDX 92 47 86 48 85 49 38 51 72 52 51 53 71 54 52 55 55 56 70 57
REMARK SMILES IDX 90 58 53 59 54 60 69 62 91 63 56 64 39 65 40 66 49 67 41 68
REMARK SMILES IDX 42 69 48 70 50 71 43 72 44 73 45 74 46 75 47 76 73 77 74 78
REMARK SMILES IDX 83 79 75 80 76 81 82 82 84 83 77 84 78 85 79 86 80 87 81 88
REMARK SMILES IDX 57 89 58 90 67 91 59 92 60 93 66 94 68 95 61 96 62 97 63 98
REMARK SMILES IDX 64 99 65 100
REMARK H PARENT 5 11 5 12 9 17 89 50 55 61
REMARK Flexibility Score: inf
ROOT
ATOM      1  C   UNL     1       5.176  -1.517   2.657  1.00  0.00     0.202 C 
ENDROOT
BRANCH   1   2
ATOM      2  C   UNL     1       4.236  -0.328   2.476  1.00  0.00     0.261 C 
BRANCH   2   3
ATOM      3  O   UNL     1       2.881  -0.625   2.846  1.00  0.00    -0.459 OA
BRANCH   3   4
ATOM      4  C   UNL     1       1.863  -0.565   1.933  1.00  0.00     0.367 C 
ATOM      5  O   UNL     1       2.032  -0.329   0.743  1.00  0.00    -0.245 OA
BRANCH   4   6
ATOM      6  C   UNL     1       0.481  -0.996   2.566  1.00  0.00     0.191 C 
ATOM      7  C   UNL     1       0.149  -2.318   1.819  1.00  0.00     0.092 C 
BRANCH   6   8
ATOM      8  C   UNL     1      -0.738  -0.071   2.348  1.00  0.00     0.077 C 
ATOM      9  C   UNL     1      -2.071  -0.493   2.989  1.00  0.00     0.011 C 
ENDBRANCH   6   8
BRANCH   6  10
ATOM     10  N   UNL     1       0.632  -1.181   4.019  1.00  0.00    -0.325 N 
ATOM     11  H   UNL     1       1.234  -1.994   4.152  1.00  0.00     0.347 HD
ATOM     12  H   UNL     1      -0.331  -1.253   4.348  1.00  0.00     0.347 HD
BRANCH  10  13
ATOM     13  C   UNL     1       1.200  -0.082   4.856  1.00  0.00     0.363 C 
BRANCH  13  14
ATOM     14  C   UNL     1       0.732   1.397   4.775  1.00  0.00     0.279 C 
ATOM     15  O   UNL     1      -0.021   1.799   5.680  1.00  0.00    -0.268 OA
ATOM     16  N   UNL     1       1.105   2.386   3.893  1.00  0.00    -0.319 N 
ATOM     17  H   UNL     1       0.784   3.271   4.179  1.00  0.00     0.170 HD
BRANCH  16  18
ATOM     18  C   UNL     1       1.835   2.456   2.677  1.00  0.00     0.079 A 
ATOM     19  C   UNL     1       1.180   2.544   1.428  1.00  0.00     0.066 A 
ATOM     20  C   UNL     1       3.197   2.812   2.665  1.00  0.00     0.069 A 
ATOM     21  Cl  UNL     1      -0.507   2.924   1.274  1.00  0.00    -0.082 Cl
ATOM     22  C   UNL     1       1.893   2.511   0.224  1.00  0.00     0.023 A 
ATOM     23  C   UNL     1       3.925   2.906   1.449  1.00  0.00    -0.030 A 
ATOM     24  Cl  UNL     1       3.966   3.240   4.160  1.00  0.00    -0.082 Cl
ATOM     25  C   UNL     1       3.272   2.645   0.238  1.00  0.00     0.006 A 
ATOM     26  C   UNL     1       5.351   3.379   1.368  1.00  0.00     0.046 C 
ENDBRANCH  16  18
ENDBRANCH  13  14
ENDBRANCH  10  13
ENDBRANCH   6  10
ENDBRANCH   4   6
ENDBRANCH   3   4
ENDBRANCH   2   3
ENDBRANCH   1   2
BRANCH   1  27
ATOM     27  O   UNL     1       4.949  -2.666   1.850  1.00  0.00    -0.374 OA
BRANCH  27  28
ATOM     28  C   UNL     1       3.724  -3.367   2.021  1.00  0.00     0.202 C 
BRANCH  28  29
ATOM     29  C   UNL     1       3.499  -4.173   3.308  1.00  0.00     0.261 C 
BRANCH  29  30
ATOM     30  O   UNL     1       3.742  -3.452   4.524  1.00  0.00    -0.460 OA
BRANCH  30  31
ATOM     31  C   UNL     1       4.923  -3.770   5.114  1.00  0.00     0.338 C 
ATOM     32  O   UNL     1       5.746  -4.575   4.722  1.00  0.00    -0.246 OA
BRANCH  31  33
ATOM     33  C   UNL     1       5.187  -2.880   6.260  1.00  0.00     0.060 A 
ATOM     34  C   UNL     1       6.411  -2.200   6.268  1.00  0.00     0.016 A 
ATOM     35  C   UNL     1       4.333  -2.829   7.363  1.00  0.00     0.016 A 
ATOM     36  C   UNL     1       6.827  -1.533   7.415  1.00  0.00     0.010 A 
ATOM     37  C   UNL     1       4.755  -2.162   8.518  1.00  0.00     0.010 A 
ATOM     38  C   UNL     1       6.028  -1.563   8.565  1.00  0.00    -0.014 A 
BRANCH  38  39
ATOM     39  C   UNL     1       6.627  -1.152   9.858  1.00  0.00     0.031 A 
ATOM     40  C   UNL     1       7.125  -2.221  10.795  1.00  0.00     0.074 A 
ATOM     41  C   UNL     1       6.790   0.148  10.157  1.00  0.00     0.049 A 
ATOM     42  N   UNL     1       7.694  -2.101  11.966  1.00  0.00    -0.248 NA
ATOM     43  C   UNL     1       6.962  -3.615  10.348  1.00  0.00     0.031 C 
ATOM     44  C   UNL     1       6.396   1.267   9.301  1.00  0.00     0.029 A 
ATOM     45  N   UNL     1       7.337   0.746  11.263  1.00  0.00    -0.354 N 
ATOM     46  C   UNL     1       7.945  -3.398  12.401  1.00  0.00     0.074 A 
ATOM     47  C   UNL     1       7.436  -4.291  11.383  1.00  0.00     0.031 C 
ATOM     48  C   UNL     1       6.717   2.418   9.915  1.00  0.00     0.029 A 
ATOM     49  C   UNL     1       7.306   2.119  11.219  1.00  0.00     0.049 A 
ATOM     50  H   UNL     1       7.717   0.239  12.017  1.00  0.00     0.167 HD
ATOM     51  C   UNL     1       8.552  -3.807  13.541  1.00  0.00     0.037 A 
ATOM     52  C   UNL     1       7.696   3.026  12.135  1.00  0.00     0.037 A 
ATOM     53  C   UNL     1       9.058  -2.907  14.545  1.00  0.00     0.049 A 
ATOM     54  C   UNL     1       8.304   2.547  13.428  1.00  0.00     0.074 A 
ATOM     55  C   UNL     1       9.705  -3.213  15.729  1.00  0.00     0.029 A 
ATOM     56  N   UNL     1       8.966  -1.523  14.486  1.00  0.00    -0.354 N 
ATOM     57  N   UNL     1       8.551   1.319  13.820  1.00  0.00    -0.248 NA
ATOM     58  C   UNL     1       8.690   3.577  14.401  1.00  0.00     0.031 C 
ATOM     59  C   UNL     1       9.950  -2.018  16.414  1.00  0.00     0.029 A 
ATOM     60  C   UNL     1       9.516  -0.962  15.627  1.00  0.00     0.049 A 
ATOM     61  H   UNL     1       8.567  -1.014  13.743  1.00  0.00     0.167 HD
ATOM     62  C   UNL     1       9.155   1.431  15.070  1.00  0.00     0.074 A 
ATOM     63  C   UNL     1       9.242   2.848  15.361  1.00  0.00     0.031 C 
ATOM     64  C   UNL     1       9.601   0.453  15.898  1.00  0.00     0.037 A 
BRANCH  51  65
ATOM     65  C   UNL     1       8.667  -5.290  13.778  1.00  0.00     0.058 A 
ATOM     66  C   UNL     1       9.515  -6.106  13.012  1.00  0.00     0.135 A 
ATOM     67  C   UNL     1       7.926  -5.902  14.802  1.00  0.00     0.135 A 
ATOM     68  F   UNL     1      10.235  -5.579  12.008  1.00  0.00    -0.206 F 
ATOM     69  C   UNL     1       9.598  -7.478  13.229  1.00  0.00     0.059 A 
ATOM     70  C   UNL     1       8.017  -7.267  15.058  1.00  0.00     0.059 A 
ATOM     71  F   UNL     1       7.097  -5.173  15.566  1.00  0.00    -0.206 F 
ATOM     72  C   UNL     1       8.843  -8.050  14.254  1.00  0.00     0.060 A 
BRANCH  72  73
ATOM     73  S   UNL     1       8.955  -9.833  14.519  1.00  0.00     0.124 S 
ATOM     74  O   UNL     1       8.241 -10.346  13.355  1.00  0.00    -0.237 OA
ATOM     75  O   UNL     1      10.397 -10.056  14.527  1.00  0.00    -0.237 OA
ATOM     76  O   UNL     1       8.286 -10.030  15.802  1.00  0.00    -0.744 OA
ENDBRANCH  72  73
ENDBRANCH  51  65
BRANCH  52  77
ATOM     77  C   UNL     1       7.526   4.479  11.863  1.00  0.00     0.058 A 
ATOM     78  C   UNL     1       8.635   5.316  11.674  1.00  0.00     0.135 A 
ATOM     79  C   UNL     1       6.250   5.060  11.783  1.00  0.00     0.135 A 
ATOM     80  F   UNL     1       9.877   4.812  11.751  1.00  0.00    -0.206 F 
ATOM     81  C   UNL     1       8.489   6.678  11.432  1.00  0.00     0.059 A 
ATOM     82  C   UNL     1       6.077   6.414  11.513  1.00  0.00     0.059 A 
ATOM     83  F   UNL     1       5.154   4.302  11.946  1.00  0.00    -0.206 F 
ATOM     84  C   UNL     1       7.204   7.217  11.348  1.00  0.00     0.060 A 
BRANCH  84  85
ATOM     85  S   UNL     1       7.026   8.977  10.985  1.00  0.00     0.124 S 
ATOM     86  O   UNL     1       7.479   9.582  12.233  1.00  0.00    -0.237 OA
ATOM     87  O   UNL     1       7.912   9.142   9.837  1.00  0.00    -0.237 OA
ATOM     88  O   UNL     1       5.603   9.119  10.695  1.00  0.00    -0.744 OA
ENDBRANCH  84  85
ENDBRANCH  52  77
BRANCH  64  89
ATOM     89  C   UNL     1      10.267   0.881  17.179  1.00  0.00     0.058 A 
ATOM     90  C   UNL     1       9.546   1.453  18.238  1.00  0.00     0.135 A 
ATOM     91  C   UNL     1      11.646   0.677  17.361  1.00  0.00     0.135 A 
ATOM     92  F   UNL     1       8.228   1.674  18.117  1.00  0.00    -0.206 F 
ATOM     93  C   UNL     1      10.173   1.842  19.418  1.00  0.00     0.059 A 
ATOM     94  C   UNL     1      12.287   1.027  18.545  1.00  0.00     0.059 A 
ATOM     95  F   UNL     1      12.382   0.121  16.386  1.00  0.00    -0.206 F 
ATOM     96  C   UNL     1      11.545   1.624  19.562  1.00  0.00     0.060 A 
BRANCH  96  97
ATOM     97  S   UNL     1      12.343   2.116  21.105  1.00  0.00     0.124 S 
ATOM     98  O   UNL     1      12.356   3.570  20.978  1.00  0.00    -0.237 OA
ATOM     99  O   UNL     1      11.436   1.575  22.112  1.00  0.00    -0.237 OA
ATOM    100  O   UNL     1      13.650   1.468  21.034  1.00  0.00    -0.744 OA
ENDBRANCH  96  97
ENDBRANCH  64  89
ENDBRANCH  38  39
ENDBRANCH  31  33
ENDBRANCH  30  31
ENDBRANCH  29  30
ENDBRANCH  28  29
ENDBRANCH  27  28
ENDBRANCH   1  27
TORSDOF 22
