REMARK SMILES C[C@@H](Sc1nc(-c2ccc3c(c2)OCO3)ccc1C#N)C(=O)OCCOCCOC(=O)c1ccc(-c2c3nc(c(-c4c(F)cc(S(=O)(=O)[O-])cc4F)c4ccc([nH]4)c(-c4c(F)cc(S(=O)(=O)[O-])cc4F)c4nc(c(-c5c(F)cc(S(=O)(=O)[O-])cc5F)c5ccc2[nH]5)C=C4)C=C3)cc1
REMARK SMILES IDX 26 1 25 2 24 3 23 4 21 5 22 6 2 7 1 8 3 9 4 10 5 11 18 12
REMARK SMILES IDX 6 13 17 14 16 15 19 16 20 17 7 18 8 19 12 20 9 21 11 22
REMARK SMILES IDX 10 23 13 24 15 25 14 26 27 27 28 28 29 29 30 30 31 31 32 32
REMARK SMILES IDX 33 33 97 34 34 35 96 36 35 37 36 38 37 39 90 40 38 41 95 42
REMARK SMILES IDX 89 43 91 44 39 45 94 46 88 47 87 48 40 50 74 51 53 52 73 53
REMARK SMILES IDX 54 54 57 55 72 56 92 57 55 58 56 59 71 61 93 62 58 63 41 64
REMARK SMILES IDX 42 65 51 66 43 67 44 68 50 69 52 70 45 71 46 72 47 73 48 74
REMARK SMILES IDX 49 75 75 76 76 77 85 78 77 79 78 80 84 81 86 82 79 83 80 84
REMARK SMILES IDX 81 85 82 86 83 87 59 88 60 89 69 90 61 91 62 92 68 93 70 94
REMARK SMILES IDX 63 95 64 96 65 97 66 98 67 99
REMARK H PARENT 91 49 57 60
REMARK Flexibility Score: inf
ROOT
ATOM      1  O   UNL     1      -3.333  -0.846  -1.445  1.00  0.00    -0.374 OA
ENDROOT
BRANCH   1   2
ATOM      2  C   UNL     1      -3.754  -0.771  -0.086  1.00  0.00     0.202 C 
BRANCH   2   3
ATOM      3  C   UNL     1      -3.011  -1.605   0.962  1.00  0.00     0.261 C 
BRANCH   3   4
ATOM      4  O   UNL     1      -1.624  -1.250   1.065  1.00  0.00    -0.462 OA
BRANCH   4   5
ATOM      5  C   UNL     1      -0.743  -2.151   0.548  1.00  0.00     0.319 C 
ATOM      6  O   UNL     1      -1.054  -3.216   0.025  1.00  0.00    -0.251 OA
BRANCH   5   7
ATOM      7  C   UNL     1       0.702  -1.691   0.671  1.00  0.00     0.160 C 
ATOM      8  C   UNL     1       0.900  -0.193   0.453  1.00  0.00     0.032 C 
BRANCH   7   9
ATOM      9  S   UNL     1       1.312  -2.242   2.302  1.00  0.00    -0.090 SA
BRANCH   9  10
ATOM     10  C   UNL     1       3.044  -2.366   1.921  1.00  0.00     0.115 A 
ATOM     11  N   UNL     1       3.692  -1.175   1.871  1.00  0.00    -0.240 NA
ATOM     12  C   UNL     1       3.695  -3.580   1.730  1.00  0.00     0.084 A 
ATOM     13  C   UNL     1       5.025  -1.163   1.644  1.00  0.00     0.072 A 
ATOM     14  C   UNL     1       5.078  -3.559   1.539  1.00  0.00     0.024 A 
ATOM     15  C   UNL     1       5.752  -2.340   1.503  1.00  0.00     0.030 A 
BRANCH  12  16
ATOM     16  C   UNL     1       3.006  -4.834   1.688  1.00  0.00     0.102 C 
ATOM     17  N   UNL     1       2.502  -5.874   1.602  1.00  0.00    -0.192 NA
ENDBRANCH  12  16
BRANCH  13  18
ATOM     18  C   UNL     1       5.653   0.164   1.552  1.00  0.00     0.004 A 
ATOM     19  C   UNL     1       6.556   0.471   0.501  1.00  0.00     0.014 A 
ATOM     20  C   UNL     1       5.376   1.156   2.512  1.00  0.00     0.061 A 
ATOM     21  C   UNL     1       7.194   1.714   0.421  1.00  0.00     0.051 A 
ATOM     22  C   UNL     1       6.032   2.366   2.419  1.00  0.00     0.166 A 
ATOM     23  C   UNL     1       6.920   2.635   1.406  1.00  0.00     0.165 A 
ATOM     24  O   UNL     1       5.910   3.405   3.288  1.00  0.00    -0.454 OA
ATOM     25  O   UNL     1       7.468   3.875   1.508  1.00  0.00    -0.454 OA
ATOM     26  C   UNL     1       6.854   4.341   2.729  1.00  0.00     0.468 C 
ENDBRANCH  13  18
ENDBRANCH   9  10
ENDBRANCH   7   9
ENDBRANCH   5   7
ENDBRANCH   4   5
ENDBRANCH   3   4
ENDBRANCH   2   3
ENDBRANCH   1   2
BRANCH   1  27
ATOM     27  C   UNL     1      -2.099  -0.237  -1.810  1.00  0.00     0.202 C 
BRANCH  27  28
ATOM     28  C   UNL     1      -1.990   1.296  -1.802  1.00  0.00     0.261 C 
BRANCH  28  29
ATOM     29  O   UNL     1      -2.272   1.897  -0.528  1.00  0.00    -0.460 OA
BRANCH  29  30
ATOM     30  C   UNL     1      -3.464   2.547  -0.486  1.00  0.00     0.338 C 
ATOM     31  O   UNL     1      -4.250   2.689  -1.409  1.00  0.00    -0.246 OA
BRANCH  30  32
ATOM     32  C   UNL     1      -3.821   2.919   0.895  1.00  0.00     0.060 A 
ATOM     33  C   UNL     1      -5.050   2.450   1.374  1.00  0.00     0.016 A 
ATOM     34  C   UNL     1      -3.055   3.807   1.651  1.00  0.00     0.016 A 
ATOM     35  C   UNL     1      -5.556   2.930   2.575  1.00  0.00     0.010 A 
ATOM     36  C   UNL     1      -3.567   4.285   2.866  1.00  0.00     0.010 A 
ATOM     37  C   UNL     1      -4.841   3.887   3.309  1.00  0.00    -0.014 A 
BRANCH  37  38
ATOM     38  C   UNL     1      -5.511   4.535   4.467  1.00  0.00     0.031 A 
ATOM     39  C   UNL     1      -6.005   5.954   4.350  1.00  0.00     0.074 A 
ATOM     40  C   UNL     1      -5.763   3.822   5.581  1.00  0.00     0.049 A 
ATOM     41  N   UNL     1      -6.663   6.676   5.221  1.00  0.00    -0.248 NA
ATOM     42  C   UNL     1      -5.720   6.654   3.087  1.00  0.00     0.031 C 
ATOM     43  C   UNL     1      -5.355   2.434   5.800  1.00  0.00     0.029 A 
ATOM     44  N   UNL     1      -6.432   4.160   6.730  1.00  0.00    -0.354 N 
ATOM     45  C   UNL     1      -6.879   7.907   4.611  1.00  0.00     0.074 A 
ATOM     46  C   UNL     1      -6.234   7.853   3.317  1.00  0.00     0.031 C 
ATOM     47  C   UNL     1      -5.788   2.037   7.008  1.00  0.00     0.029 A 
ATOM     48  C   UNL     1      -6.468   3.151   7.663  1.00  0.00     0.049 A 
ATOM     49  H   UNL     1      -6.846   5.042   6.873  1.00  0.00     0.167 HD
ATOM     50  C   UNL     1      -7.570   8.976   5.078  1.00  0.00     0.037 A 
ATOM     51  C   UNL     1      -6.973   3.133   8.912  1.00  0.00     0.037 A 
ATOM     52  C   UNL     1      -8.204   9.023   6.373  1.00  0.00     0.049 A 
ATOM     53  C   UNL     1      -7.680   4.357   9.433  1.00  0.00     0.074 A 
ATOM     54  C   UNL     1      -8.928  10.058   6.940  1.00  0.00     0.029 A 
ATOM     55  N   UNL     1      -8.189   7.994   7.305  1.00  0.00    -0.354 N 
ATOM     56  N   UNL     1      -7.895   5.505   8.835  1.00  0.00    -0.248 NA
ATOM     57  C   UNL     1      -8.226   4.277  10.794  1.00  0.00     0.031 C 
ATOM     58  C   UNL     1      -9.296   9.680   8.236  1.00  0.00     0.029 A 
ATOM     59  C   UNL     1      -8.868   8.380   8.451  1.00  0.00     0.049 A 
ATOM     60  H   UNL     1      -7.759   7.119   7.172  1.00  0.00     0.167 HD
ATOM     61  C   UNL     1      -8.622   6.275   9.739  1.00  0.00     0.074 A 
ATOM     62  C   UNL     1      -8.835   5.448  10.909  1.00  0.00     0.031 C 
ATOM     63  C   UNL     1      -9.070   7.550   9.614  1.00  0.00     0.037 A 
BRANCH  50  64
ATOM     64  C   UNL     1      -7.671  10.191   4.191  1.00  0.00     0.058 A 
ATOM     65  C   UNL     1      -8.427  10.182   3.007  1.00  0.00     0.135 A 
ATOM     66  C   UNL     1      -7.051  11.398   4.557  1.00  0.00     0.135 A 
ATOM     67  F   UNL     1      -9.029   9.054   2.597  1.00  0.00    -0.206 F 
ATOM     68  C   UNL     1      -8.546  11.316   2.208  1.00  0.00     0.059 A 
ATOM     69  C   UNL     1      -7.185  12.553   3.791  1.00  0.00     0.059 A 
ATOM     70  F   UNL     1      -6.315  11.468   5.677  1.00  0.00    -0.206 F 
ATOM     71  C   UNL     1      -7.926  12.499   2.612  1.00  0.00     0.060 A 
BRANCH  71  72
ATOM     72  S   UNL     1      -8.112  13.965   1.574  1.00  0.00     0.124 S 
ATOM     73  O   UNL     1      -7.339  13.588   0.394  1.00  0.00    -0.237 OA
ATOM     74  O   UNL     1      -9.558  14.032   1.390  1.00  0.00    -0.237 OA
ATOM     75  O   UNL     1      -7.535  15.033   2.385  1.00  0.00    -0.744 OA
ENDBRANCH  71  72
ENDBRANCH  50  64
BRANCH  51  76
ATOM     76  C   UNL     1      -6.803   1.925   9.765  1.00  0.00     0.058 A 
ATOM     77  C   UNL     1      -7.899   1.157  10.184  1.00  0.00     0.135 A 
ATOM     78  C   UNL     1      -5.526   1.523  10.191  1.00  0.00     0.135 A 
ATOM     79  F   UNL     1      -9.142   1.501   9.813  1.00  0.00    -0.206 F 
ATOM     80  C   UNL     1      -7.740   0.052  11.016  1.00  0.00     0.059 A 
ATOM     81  C   UNL     1      -5.338   0.401  10.990  1.00  0.00     0.059 A 
ATOM     82  F   UNL     1      -4.440   2.213   9.809  1.00  0.00    -0.206 F 
ATOM     83  C   UNL     1      -6.454  -0.319  11.411  1.00  0.00     0.060 A 
BRANCH  83  84
ATOM     84  S   UNL     1      -6.255  -1.772  12.463  1.00  0.00     0.124 S 
ATOM     85  O   UNL     1      -6.809  -1.298  13.726  1.00  0.00    -0.237 OA
ATOM     86  O   UNL     1      -7.046  -2.772  11.753  1.00  0.00    -0.237 OA
ATOM     87  O   UNL     1      -4.813  -2.000  12.453  1.00  0.00    -0.744 OA
ENDBRANCH  83  84
ENDBRANCH  51  76
BRANCH  63  88
ATOM     88  C   UNL     1      -9.868   8.115  10.763  1.00  0.00     0.058 A 
ATOM     89  C   UNL     1      -9.289   8.373  12.016  1.00  0.00     0.135 A 
ATOM     90  C   UNL     1     -11.234   8.407  10.605  1.00  0.00     0.135 A 
ATOM     91  F   UNL     1      -7.989   8.113  12.227  1.00  0.00    -0.206 F 
ATOM     92  C   UNL     1     -10.045   8.845  13.085  1.00  0.00     0.059 A 
ATOM     93  C   UNL     1     -11.999   8.919  11.648  1.00  0.00     0.059 A 
ATOM     94  F   UNL     1     -11.839   8.197   9.425  1.00  0.00    -0.206 F 
ATOM     95  C   UNL     1     -11.401   9.112  12.892  1.00  0.00     0.060 A 
BRANCH  95  96
ATOM     96  S   UNL     1     -12.371   9.714  14.290  1.00  0.00     0.124 S 
ATOM     97  O   UNL     1     -12.448   8.523  15.129  1.00  0.00    -0.237 OA
ATOM     98  O   UNL     1     -11.538  10.798  14.801  1.00  0.00    -0.237 OA
ATOM     99  O   UNL     1     -13.629  10.133  13.678  1.00  0.00    -0.744 OA
ENDBRANCH  95  96
ENDBRANCH  63  88
ENDBRANCH  37  38
ENDBRANCH  30  32
ENDBRANCH  29  30
ENDBRANCH  28  29
ENDBRANCH  27  28
ENDBRANCH   1  27
TORSDOF 21
