REMARK SMILES COc1ccc(C(F)(F)F)cc1-c1cccnc1C(=O)OCCOCCOC(=O)c1ccc(-c2c3nc(c(-c4c(F)cc(S(=O)(=O)[O-])cc4F)c4ccc([nH]4)c(-c4c(F)cc(S(=O)(=O)[O-])cc4F)c4nc(c(-c5c(F)cc(S(=O)(=O)[O-])cc5F)c5ccc2[nH]5)C=C4)C=C3)cc1
REMARK SMILES IDX 25 1 24 2 23 3 22 4 21 5 19 6 20 7 18 8 13 9 14 10 15 11
REMARK SMILES IDX 17 12 16 13 12 14 3 15 4 16 5 17 11 18 6 19 2 20 1 21 7 22
REMARK SMILES IDX 8 23 9 24 10 25 26 26 27 27 28 28 29 29 30 30 31 31 95 32
REMARK SMILES IDX 32 33 94 34 33 35 34 36 35 37 88 38 36 39 93 40 87 41 89 42
REMARK SMILES IDX 37 43 92 44 86 45 85 46 38 48 72 49 51 50 71 51 52 52 55 53
REMARK SMILES IDX 70 54 90 55 53 56 54 57 69 59 91 60 56 61 39 62 40 63 49 64
REMARK SMILES IDX 41 65 42 66 48 67 50 68 43 69 44 70 45 71 46 72 47 73 73 74
REMARK SMILES IDX 74 75 83 76 75 77 76 78 82 79 84 80 77 81 78 82 79 83 80 84
REMARK SMILES IDX 81 85 57 86 58 87 67 88 59 89 60 90 66 91 68 92 61 93 62 94
REMARK SMILES IDX 63 95 64 96 65 97
REMARK H PARENT 89 47 55 58
REMARK Flexibility Score: inf
ROOT
ATOM      1  C   UNL     1       2.373   2.750   3.421  1.00  0.00     0.202 C 
ENDROOT
BRANCH   1   2
ATOM      2  O   UNL     1       2.595   4.136   3.682  1.00  0.00    -0.374 OA
BRANCH   2   3
ATOM      3  C   UNL     1       2.274   5.055   2.636  1.00  0.00     0.202 C 
BRANCH   3   4
ATOM      4  C   UNL     1       3.270   5.097   1.478  1.00  0.00     0.261 C 
BRANCH   4   5
ATOM      5  O   UNL     1       3.273   3.838   0.785  1.00  0.00    -0.458 OA
BRANCH   5   6
ATOM      6  C   UNL     1       4.494   3.319   0.504  1.00  0.00     0.357 C 
ATOM      7  O   UNL     1       5.566   3.871   0.713  1.00  0.00    -0.244 OA
BRANCH   6   8
ATOM      8  C   UNL     1       4.383   1.919  -0.029  1.00  0.00     0.156 A 
ATOM      9  C   UNL     1       3.465   1.507  -1.014  1.00  0.00     0.019 A 
ATOM     10  C   UNL     1       3.614   0.177  -1.456  1.00  0.00     0.013 A 
ATOM     11  C   UNL     1       4.557  -0.679  -0.891  1.00  0.00     0.021 A 
ATOM     12  N   UNL     1       5.314   1.087   0.537  1.00  0.00    -0.249 NA
ATOM     13  C   UNL     1       5.368  -0.185   0.107  1.00  0.00     0.112 A 
BRANCH   9  14
ATOM     14  C   UNL     1       2.363   2.337  -1.559  1.00  0.00     0.027 A 
ATOM     15  C   UNL     1       1.029   1.875  -1.624  1.00  0.00     0.126 A 
ATOM     16  C   UNL     1      -0.010   2.696  -2.074  1.00  0.00     0.048 A 
ATOM     17  C   UNL     1       0.248   4.019  -2.422  1.00  0.00     0.017 A 
ATOM     18  C   UNL     1       2.601   3.655  -1.995  1.00  0.00     0.025 A 
ATOM     19  C   UNL     1       1.556   4.517  -2.376  1.00  0.00     0.056 A 
BRANCH  15  20
ATOM     20  O   UNL     1       0.697   0.568  -1.355  1.00  0.00    -0.496 OA
ATOM     21  C   UNL     1       0.434   0.369   0.032  1.00  0.00     0.278 C 
ENDBRANCH  15  20
BRANCH  19  22
ATOM     22  C   UNL     1       1.828   5.972  -2.679  1.00  0.00     0.416 C 
ATOM     23  F   UNL     1       1.449   6.336  -3.929  1.00  0.00    -0.166 F 
ATOM     24  F   UNL     1       1.167   6.798  -1.819  1.00  0.00    -0.166 F 
ATOM     25  F   UNL     1       3.144   6.306  -2.561  1.00  0.00    -0.166 F 
ENDBRANCH  19  22
ENDBRANCH   9  14
ENDBRANCH   6   8
ENDBRANCH   5   6
ENDBRANCH   4   5
ENDBRANCH   3   4
ENDBRANCH   2   3
ENDBRANCH   1   2
BRANCH   1  26
ATOM     26  C   UNL     1       0.922   2.269   3.542  1.00  0.00     0.261 C 
BRANCH  26  27
ATOM     27  O   UNL     1       0.050   2.857   2.558  1.00  0.00    -0.460 OA
BRANCH  27  28
ATOM     28  C   UNL     1      -0.853   3.737   3.053  1.00  0.00     0.338 C 
ATOM     29  O   UNL     1      -1.023   4.036   4.231  1.00  0.00    -0.246 OA
BRANCH  28  30
ATOM     30  C   UNL     1      -1.551   4.434   1.959  1.00  0.00     0.060 A 
ATOM     31  C   UNL     1      -1.514   5.834   1.945  1.00  0.00     0.016 A 
ATOM     32  C   UNL     1      -2.315   3.738   1.019  1.00  0.00     0.016 A 
ATOM     33  C   UNL     1      -2.267   6.546   1.012  1.00  0.00     0.010 A 
ATOM     34  C   UNL     1      -3.075   4.455   0.088  1.00  0.00     0.010 A 
ATOM     35  C   UNL     1      -3.077   5.862   0.096  1.00  0.00    -0.014 A 
BRANCH  35  36
ATOM     36  C   UNL     1      -3.995   6.615  -0.797  1.00  0.00     0.031 A 
ATOM     37  C   UNL     1      -5.457   6.699  -0.459  1.00  0.00     0.074 A 
ATOM     38  C   UNL     1      -3.525   7.218  -1.904  1.00  0.00     0.049 A 
ATOM     39  N   UNL     1      -6.432   7.247  -1.137  1.00  0.00    -0.248 NA
ATOM     40  C   UNL     1      -5.875   6.090   0.813  1.00  0.00     0.031 C 
ATOM     41  C   UNL     1      -2.122   7.255  -2.309  1.00  0.00     0.029 A 
ATOM     42  N   UNL     1      -4.179   7.901  -2.898  1.00  0.00    -0.354 N 
ATOM     43  C   UNL     1      -7.580   7.051  -0.378  1.00  0.00     0.074 A 
ATOM     44  C   UNL     1      -7.184   6.306   0.799  1.00  0.00     0.031 C 
ATOM     45  C   UNL     1      -2.022   7.890  -3.489  1.00  0.00     0.029 A 
ATOM     46  C   UNL     1      -3.357   8.292  -3.928  1.00  0.00     0.049 A 
ATOM     47  H   UNL     1      -5.144   8.092  -2.877  1.00  0.00     0.167 HD
ATOM     48  C   UNL     1      -8.844   7.465  -0.634  1.00  0.00     0.037 A 
ATOM     49  C   UNL     1      -3.649   8.887  -5.102  1.00  0.00     0.037 A 
ATOM     50  C   UNL     1      -9.232   8.207  -1.806  1.00  0.00     0.049 A 
ATOM     51  C   UNL     1      -5.075   9.262  -5.406  1.00  0.00     0.074 A 
ATOM     52  C   UNL     1     -10.482   8.700  -2.137  1.00  0.00     0.029 A 
ATOM     53  N   UNL     1      -8.380   8.553  -2.844  1.00  0.00    -0.354 N 
ATOM     54  N   UNL     1      -6.145   9.098  -4.664  1.00  0.00    -0.248 NA
ATOM     55  C   UNL     1      -5.335   9.904  -6.702  1.00  0.00     0.031 C 
ATOM     56  C   UNL     1     -10.396   9.300  -3.398  1.00  0.00     0.029 A 
ATOM     57  C   UNL     1      -9.083   9.223  -3.832  1.00  0.00     0.049 A 
ATOM     58  H   UNL     1      -7.416   8.353  -2.874  1.00  0.00     0.167 HD
ATOM     59  C   UNL     1      -7.200   9.638  -5.393  1.00  0.00     0.074 A 
ATOM     60  C   UNL     1      -6.639  10.140  -6.630  1.00  0.00     0.031 C 
ATOM     61  C   UNL     1      -8.513   9.714  -5.063  1.00  0.00     0.037 A 
BRANCH  48  62
ATOM     62  C   UNL     1      -9.909   7.104   0.364  1.00  0.00     0.058 A 
ATOM     63  C   UNL     1      -9.991   7.732   1.616  1.00  0.00     0.135 A 
ATOM     64  C   UNL     1     -10.880   6.139   0.050  1.00  0.00     0.135 A 
ATOM     65  F   UNL     1      -9.079   8.651   1.973  1.00  0.00    -0.206 F 
ATOM     66  C   UNL     1     -10.982   7.399   2.533  1.00  0.00     0.059 A 
ATOM     67  C   UNL     1     -11.895   5.807   0.942  1.00  0.00     0.059 A 
ATOM     68  F   UNL     1     -10.847   5.508  -1.134  1.00  0.00    -0.206 F 
ATOM     69  C   UNL     1     -11.929   6.432   2.188  1.00  0.00     0.060 A 
BRANCH  69  70
ATOM     70  S   UNL     1     -13.207   6.004   3.390  1.00  0.00     0.124 S 
ATOM     71  O   UNL     1     -12.445   5.220   4.356  1.00  0.00    -0.237 OA
ATOM     72  O   UNL     1     -13.655   7.315   3.850  1.00  0.00    -0.237 OA
ATOM     73  O   UNL     1     -14.179   5.254   2.600  1.00  0.00    -0.744 OA
ENDBRANCH  69  70
ENDBRANCH  48  62
BRANCH  49  74
ATOM     74  C   UNL     1      -2.565   9.150  -6.084  1.00  0.00     0.058 A 
ATOM     75  C   UNL     1      -2.122  10.454  -6.345  1.00  0.00     0.135 A 
ATOM     76  C   UNL     1      -1.941   8.097  -6.771  1.00  0.00     0.135 A 
ATOM     77  F   UNL     1      -2.696  11.494  -5.721  1.00  0.00    -0.206 F 
ATOM     78  C   UNL     1      -1.105  10.708  -7.260  1.00  0.00     0.059 A 
ATOM     79  C   UNL     1      -0.907   8.323  -7.673  1.00  0.00     0.059 A 
ATOM     80  F   UNL     1      -2.322   6.829  -6.548  1.00  0.00    -0.206 F 
ATOM     81  C   UNL     1      -0.501   9.634  -7.917  1.00  0.00     0.060 A 
BRANCH  81  82
ATOM     82  S   UNL     1       0.852   9.971  -9.065  1.00  0.00     0.124 S 
ATOM     83  O   UNL     1       0.136  10.537 -10.203  1.00  0.00    -0.237 OA
ATOM     84  O   UNL     1       1.677  10.902  -8.302  1.00  0.00    -0.237 OA
ATOM     85  O   UNL     1       1.442   8.654  -9.283  1.00  0.00    -0.744 OA
ENDBRANCH  81  82
ENDBRANCH  49  74
BRANCH  61  86
ATOM     86  C   UNL     1      -9.439  10.377  -6.045  1.00  0.00     0.058 A 
ATOM     87  C   UNL     1      -9.832   9.738  -7.231  1.00  0.00     0.135 A 
ATOM     88  C   UNL     1      -9.989  11.640  -5.768  1.00  0.00     0.135 A 
ATOM     89  F   UNL     1      -9.329   8.534  -7.547  1.00  0.00    -0.206 F 
ATOM     90  C   UNL     1     -10.727  10.332  -8.115  1.00  0.00     0.059 A 
ATOM     91  C   UNL     1     -10.904  12.242  -6.626  1.00  0.00     0.059 A 
ATOM     92  F   UNL     1      -9.653  12.291  -4.643  1.00  0.00    -0.206 F 
ATOM     93  C   UNL     1     -11.261  11.584  -7.802  1.00  0.00     0.060 A 
BRANCH  93  94
ATOM     94  S   UNL     1     -12.458  12.323  -8.934  1.00  0.00     0.124 S 
ATOM     95  O   UNL     1     -11.597  12.757 -10.030  1.00  0.00    -0.237 OA
ATOM     96  O   UNL     1     -13.343  11.201  -9.230  1.00  0.00    -0.237 OA
ATOM     97  O   UNL     1     -13.057  13.394  -8.144  1.00  0.00    -0.744 OA
ENDBRANCH  93  94
ENDBRANCH  61  86
ENDBRANCH  35  36
ENDBRANCH  28  30
ENDBRANCH  27  28
ENDBRANCH  26  27
ENDBRANCH   1  26
TORSDOF 20
