REMARK SMILES C[C@@H](Nc1cccc(C(=O)OCCOCCOC(=O)c2ccc(-c3c4nc(c(-c5c(F)cc(S(=O)(=O)[O-])cc5F)c5ccc([nH]5)c(-c5c(F)cc(S(=O)(=O)[O-])cc5F)c5nc(c(-c6c(F)cc(S(=O)(=O)[O-])cc6F)c6ccc3[nH]6)C=C5)C=C4)cc2)c1)C1CC[NH+](C)CC1
REMARK SMILES IDX 14 1 13 2 12 3 11 4 9 5 10 6 8 7 4 8 5 9 86 10 6 11 7 12
REMARK SMILES IDX 3 13 2 15 1 16 87 17 88 18 93 19 89 20 92 21 90 22 91 23
REMARK SMILES IDX 15 25 16 26 17 27 18 28 19 29 20 30 21 31 85 32 22 33 84 34
REMARK SMILES IDX 23 35 24 36 25 37 78 38 26 39 83 40 77 41 79 42 27 43 82 44
REMARK SMILES IDX 76 45 75 46 28 48 62 49 41 50 61 51 42 52 45 53 60 54 80 55
REMARK SMILES IDX 43 56 44 57 59 59 81 60 46 61 29 62 30 63 39 64 31 65 32 66
REMARK SMILES IDX 38 67 40 68 33 69 34 70 35 71 36 72 37 73 63 74 64 75 73 76
REMARK SMILES IDX 65 77 66 78 72 79 74 80 67 81 68 82 69 83 70 84 71 85 47 86
REMARK SMILES IDX 48 87 57 88 49 89 50 90 56 91 58 92 51 93 52 94 53 95 54 96
REMARK SMILES IDX 55 97
REMARK H PARENT 3 14 90 24 79 47 45 58
REMARK Flexibility Score: inf
ROOT
ATOM      1  O   UNL     1      -4.264  -0.149   8.700  1.00  0.00    -0.374 OA
ENDROOT
BRANCH   1   2
ATOM      2  C   UNL     1      -4.758  -1.083   7.745  1.00  0.00     0.202 C 
BRANCH   2   3
ATOM      3  C   UNL     1      -4.852  -0.648   6.284  1.00  0.00     0.261 C 
BRANCH   3   4
ATOM      4  O   UNL     1      -3.587  -0.223   5.768  1.00  0.00    -0.460 OA
BRANCH   4   5
ATOM      5  C   UNL     1      -3.500   1.108   5.556  1.00  0.00     0.338 C 
ATOM      6  O   UNL     1      -4.352   1.952   5.785  1.00  0.00    -0.246 OA
BRANCH   5   7
ATOM      7  C   UNL     1      -2.207   1.457   4.964  1.00  0.00     0.062 A 
ATOM      8  C   UNL     1       0.446   0.739   3.414  1.00  0.00     0.035 A 
ATOM      9  C   UNL     1       0.505   2.433   2.743  1.00  0.00     0.026 A 
ATOM     10  C   UNL     1      -0.829   0.267   4.630  1.00  0.00     0.041 A 
ATOM     11  C   UNL     1      -0.797   3.627   3.172  1.00  0.00     0.003 A 
ATOM     12  C   UNL     1      -2.183   3.113   4.224  1.00  0.00     0.016 A 
BRANCH   8  13
ATOM     13  N   UNL     1       1.130  -0.264   2.727  1.00  0.00    -0.382 N 
ATOM     14  H   UNL     1       1.851  -0.779   3.158  1.00  0.00     0.160 HD
BRANCH  13  15
ATOM     15  C   UNL     1       0.732  -0.527   1.325  1.00  0.00     0.079 C 
ATOM     16  C   UNL     1       1.743   0.113   0.365  1.00  0.00     0.031 C 
BRANCH  15  17
ATOM     17  C   UNL     1      -0.734  -0.273   0.838  1.00  0.00     0.022 C 
ATOM     18  C   UNL     1      -1.165   1.135   0.429  1.00  0.00     0.067 C 
ATOM     19  C   UNL     1      -1.832  -0.828   1.714  1.00  0.00     0.067 C 
ATOM     20  C   UNL     1      -1.657   2.055   1.561  1.00  0.00     0.262 C 
ATOM     21  C   UNL     1      -2.285   0.134   2.819  1.00  0.00     0.262 C 
ATOM     22  N   UNL     1      -1.438   1.533   3.022  1.00  0.00    -0.337 N 
ATOM     23  C   UNL     1      -0.321   2.241   4.633  1.00  0.00     0.332 C 
ATOM     24  H   UNL     1      -1.097   2.042   3.837  1.00  0.00     0.347 HD
ENDBRANCH  15  17
ENDBRANCH  13  15
ENDBRANCH   8  13
ENDBRANCH   5   7
ENDBRANCH   4   5
ENDBRANCH   3   4
ENDBRANCH   2   3
ENDBRANCH   1   2
BRANCH   1  25
ATOM     25  C   UNL     1      -2.903   0.268   8.628  1.00  0.00     0.202 C 
BRANCH  25  26
ATOM     26  C   UNL     1      -1.786  -0.754   8.875  1.00  0.00     0.261 C 
BRANCH  26  27
ATOM     27  O   UNL     1      -1.809  -1.885   7.989  1.00  0.00    -0.460 OA
BRANCH  27  28
ATOM     28  C   UNL     1      -2.178  -3.044   8.590  1.00  0.00     0.338 C 
ATOM     29  O   UNL     1      -2.479  -3.203   9.761  1.00  0.00    -0.246 OA
BRANCH  28  30
ATOM     30  C   UNL     1      -2.340  -4.115   7.593  1.00  0.00     0.060 A 
ATOM     31  C   UNL     1      -3.593  -4.738   7.510  1.00  0.00     0.016 A 
ATOM     32  C   UNL     1      -1.251  -4.600   6.867  1.00  0.00     0.016 A 
ATOM     33  C   UNL     1      -3.748  -5.888   6.744  1.00  0.00     0.010 A 
ATOM     34  C   UNL     1      -1.406  -5.764   6.109  1.00  0.00     0.010 A 
ATOM     35  C   UNL     1      -2.642  -6.436   6.083  1.00  0.00    -0.014 A 
BRANCH  35  36
ATOM     36  C   UNL     1      -2.742  -7.805   5.527  1.00  0.00     0.031 A 
ATOM     37  C   UNL     1      -2.224  -8.957   6.344  1.00  0.00     0.074 A 
ATOM     38  C   UNL     1      -3.328  -8.021   4.337  1.00  0.00     0.049 A 
ATOM     39  N   UNL     1      -2.188 -10.231   6.054  1.00  0.00    -0.248 NA
ATOM     40  C   UNL     1      -1.676  -8.626   7.670  1.00  0.00     0.031 C 
ATOM     41  C   UNL     1      -3.915  -6.987   3.487  1.00  0.00     0.029 A 
ATOM     42  N   UNL     1      -3.524  -9.185   3.640  1.00  0.00    -0.354 N 
ATOM     43  C   UNL     1      -1.607 -10.853   7.153  1.00  0.00     0.074 A 
ATOM     44  C   UNL     1      -1.279  -9.812   8.104  1.00  0.00     0.031 C 
ATOM     45  C   UNL     1      -4.402  -7.564   2.375  1.00  0.00     0.029 A 
ATOM     46  C   UNL     1      -4.130  -9.000   2.422  1.00  0.00     0.049 A 
ATOM     47  H   UNL     1      -3.256 -10.069   3.980  1.00  0.00     0.167 HD
ATOM     48  C   UNL     1      -1.373 -12.172   7.354  1.00  0.00     0.037 A 
ATOM     49  C   UNL     1      -4.415  -9.888   1.449  1.00  0.00     0.037 A 
ATOM     50  C   UNL     1      -1.699 -13.198   6.398  1.00  0.00     0.049 A 
ATOM     51  C   UNL     1      -4.078 -11.340   1.659  1.00  0.00     0.074 A 
ATOM     52  C   UNL     1      -1.511 -14.565   6.502  1.00  0.00     0.029 A 
ATOM     53  N   UNL     1      -2.272 -12.967   5.155  1.00  0.00    -0.354 N 
ATOM     54  N   UNL     1      -3.534 -11.918   2.704  1.00  0.00    -0.248 NA
ATOM     55  C   UNL     1      -4.394 -12.261   0.559  1.00  0.00     0.031 C 
ATOM     56  C   UNL     1      -1.927 -15.155   5.303  1.00  0.00     0.029 A 
ATOM     57  C   UNL     1      -2.422 -14.162   4.471  1.00  0.00     0.049 A 
ATOM     58  H   UNL     1      -2.533 -12.083   4.810  1.00  0.00     0.167 HD
ATOM     59  C   UNL     1      -3.467 -13.274   2.400  1.00  0.00     0.074 A 
ATOM     60  C   UNL     1      -4.031 -13.429   1.074  1.00  0.00     0.031 C 
ATOM     61  C   UNL     1      -2.987 -14.297   3.151  1.00  0.00     0.037 A 
BRANCH  48  62
ATOM     62  C   UNL     1      -0.700 -12.566   8.641  1.00  0.00     0.058 A 
ATOM     63  C   UNL     1      -1.359 -12.486   9.878  1.00  0.00     0.135 A 
ATOM     64  C   UNL     1       0.628 -13.023   8.636  1.00  0.00     0.135 A 
ATOM     65  F   UNL     1      -2.624 -12.039   9.943  1.00  0.00    -0.206 F 
ATOM     66  C   UNL     1      -0.713 -12.804  11.069  1.00  0.00     0.059 A 
ATOM     67  C   UNL     1       1.284 -13.374   9.812  1.00  0.00     0.059 A 
ATOM     68  F   UNL     1       1.306 -13.119   7.482  1.00  0.00    -0.206 F 
ATOM     69  C   UNL     1       0.612 -13.241  11.026  1.00  0.00     0.060 A 
BRANCH  69  70
ATOM     70  S   UNL     1       1.449 -13.624  12.580  1.00  0.00     0.124 S 
ATOM     71  O   UNL     1       1.689 -12.288  13.117  1.00  0.00    -0.237 OA
ATOM     72  O   UNL     1       0.451 -14.420  13.286  1.00  0.00    -0.237 OA
ATOM     73  O   UNL     1       2.640 -14.352  12.154  1.00  0.00    -0.744 OA
ENDBRANCH  69  70
ENDBRANCH  48  62
BRANCH  49  74
ATOM     74  C   UNL     1      -5.054  -9.420   0.192  1.00  0.00     0.058 A 
ATOM     75  C   UNL     1      -6.389  -9.732  -0.101  1.00  0.00     0.135 A 
ATOM     76  C   UNL     1      -4.352  -8.621  -0.725  1.00  0.00     0.135 A 
ATOM     77  F   UNL     1      -7.098 -10.502   0.739  1.00  0.00    -0.206 F 
ATOM     78  C   UNL     1      -7.008  -9.268  -1.258  1.00  0.00     0.059 A 
ATOM     79  C   UNL     1      -4.956  -8.127  -1.876  1.00  0.00     0.059 A 
ATOM     80  F   UNL     1      -3.075  -8.287  -0.486  1.00  0.00    -0.206 F 
ATOM     81  C   UNL     1      -6.285  -8.459  -2.135  1.00  0.00     0.060 A 
BRANCH  81  82
ATOM     82  S   UNL     1      -7.121  -7.798  -3.594  1.00  0.00     0.124 S 
ATOM     83  O   UNL     1      -7.236  -8.986  -4.431  1.00  0.00    -0.237 OA
ATOM     84  O   UNL     1      -8.368  -7.292  -3.027  1.00  0.00    -0.237 OA
ATOM     85  O   UNL     1      -6.199  -6.773  -4.073  1.00  0.00    -0.744 OA
ENDBRANCH  81  82
ENDBRANCH  49  74
BRANCH  61  86
ATOM     86  C   UNL     1      -3.080 -15.683   2.572  1.00  0.00     0.058 A 
ATOM     87  C   UNL     1      -2.239 -16.108   1.532  1.00  0.00     0.135 A 
ATOM     88  C   UNL     1      -3.987 -16.614   3.105  1.00  0.00     0.135 A 
ATOM     89  F   UNL     1      -1.360 -15.255   0.983  1.00  0.00    -0.206 F 
ATOM     90  C   UNL     1      -2.308 -17.402   1.026  1.00  0.00     0.059 A 
ATOM     91  C   UNL     1      -4.054 -17.921   2.633  1.00  0.00     0.059 A 
ATOM     92  F   UNL     1      -4.806 -16.262   4.109  1.00  0.00    -0.206 F 
ATOM     93  C   UNL     1      -3.218 -18.302   1.585  1.00  0.00     0.060 A 
BRANCH  93  94
ATOM     94  S   UNL     1      -3.273 -19.989   0.942  1.00  0.00     0.124 S 
ATOM     95  O   UNL     1      -3.953 -19.795  -0.334  1.00  0.00    -0.237 OA
ATOM     96  O   UNL     1      -1.859 -20.339   0.860  1.00  0.00    -0.237 OA
ATOM     97  O   UNL     1      -4.034 -20.713   1.956  1.00  0.00    -0.744 OA
ENDBRANCH  93  94
ENDBRANCH  61  86
ENDBRANCH  35  36
ENDBRANCH  28  30
ENDBRANCH  27  28
ENDBRANCH  26  27
ENDBRANCH  25  26
ENDBRANCH   1  25
TORSDOF 20
