REMARK SMILES CC(C)CC[C@@]1(CC(=O)OCCOCCOC(=O)c2ccc(-c3c4nc(c(-c5c(F)cc(S(=O)(=O)[O-])cc5F)c5ccc([nH]5)c(-c5c(F)cc(S(=O)(=O)[O-])cc5F)c5nc(c(-c6c(F)cc(S(=O)(=O)[O-])cc6F)c6ccc3[nH]6)C=C5)C=C4)cc2)CCOC(C)(C)C1
REMARK SMILES IDX 12 1 11 2 10 3 8 4 9 5 7 6 6 7 85 8 91 9 86 10 88 11 87 12
REMARK SMILES IDX 89 13 90 14 5 15 4 16 2 17 1 18 3 19 13 20 14 21 15 22 16 23
REMARK SMILES IDX 17 24 18 25 19 26 20 27 84 28 21 29 83 30 22 31 23 32 24 33
REMARK SMILES IDX 77 34 25 35 82 36 76 37 78 38 26 39 81 40 75 41 74 42 27 44
REMARK SMILES IDX 61 45 40 46 60 47 41 48 44 49 59 50 79 51 42 52 43 53 58 55
REMARK SMILES IDX 80 56 45 57 28 58 29 59 38 60 30 61 31 62 37 63 39 64 32 65
REMARK SMILES IDX 33 66 34 67 35 68 36 69 62 70 63 71 72 72 64 73 65 74 71 75
REMARK SMILES IDX 73 76 66 77 67 78 68 79 69 80 70 81 46 82 47 83 56 84 48 85
REMARK SMILES IDX 49 86 55 87 57 88 50 89 51 90 52 91 53 92 54 93
REMARK H PARENT 78 43 44 54
REMARK Flexibility Score: inf
ROOT
ATOM      1  C   UNL     1       2.394  -0.796  -2.475  1.00  0.00     0.202 C 
ENDROOT
BRANCH   1   2
ATOM      2  C   UNL     1       2.449   0.720  -2.771  1.00  0.00     0.261 C 
BRANCH   2   3
ATOM      3  O   UNL     1       1.533   1.554  -1.991  1.00  0.00    -0.463 OA
BRANCH   3   4
ATOM      4  C   UNL     1       1.196   2.709  -2.632  1.00  0.00     0.306 C 
ATOM      5  O   UNL     1       1.783   3.080  -3.653  1.00  0.00    -0.252 OA
BRANCH   4   6
ATOM      6  C   UNL     1      -0.027   3.550  -2.162  1.00  0.00     0.130 C 
BRANCH   6   7
ATOM      7  C   UNL     1      -0.981   3.596  -0.891  1.00  0.00    -0.014 C 
ATOM      8  C   UNL     1      -1.513   5.084  -0.899  1.00  0.00     0.036 C 
ATOM      9  C   UNL     1      -0.212   3.446   0.454  1.00  0.00     0.042 C 
ATOM     10  C   UNL     1      -2.263   5.479   0.362  1.00  0.00     0.161 C 
ATOM     11  C   UNL     1      -0.920   4.023   1.733  1.00  0.00     0.063 C 
ATOM     12  O   UNL     1      -1.422   5.347   1.498  1.00  0.00    -0.376 OA
ATOM     13  C   UNL     1      -2.039   3.152   2.341  1.00  0.00     0.042 C 
ATOM     14  C   UNL     1       0.133   4.186   2.843  1.00  0.00     0.042 C 
BRANCH   7  15
ATOM     15  C   UNL     1      -2.299   2.708  -0.884  1.00  0.00     0.008 C 
BRANCH  15  16
ATOM     16  C   UNL     1      -2.561   1.511  -1.789  1.00  0.00     0.003 C 
BRANCH  16  17
ATOM     17  C   UNL     1      -1.363   0.615  -1.950  1.00  0.00    -0.017 C 
ATOM     18  C   UNL     1      -1.026  -0.165  -0.681  1.00  0.00     0.007 C 
ATOM     19  C   UNL     1      -1.419  -0.149  -3.267  1.00  0.00     0.007 C 
ENDBRANCH  16  17
ENDBRANCH  15  16
ENDBRANCH   7  15
ENDBRANCH   6   7
ENDBRANCH   4   6
ENDBRANCH   3   4
ENDBRANCH   2   3
ENDBRANCH   1   2
BRANCH   1  20
ATOM     20  O   UNL     1       1.063  -1.297  -2.478  1.00  0.00    -0.374 OA
BRANCH  20  21
ATOM     21  C   UNL     1       0.871  -2.664  -2.117  1.00  0.00     0.202 C 
BRANCH  21  22
ATOM     22  C   UNL     1       0.950  -2.989  -0.614  1.00  0.00     0.261 C 
BRANCH  22  23
ATOM     23  O   UNL     1       1.727  -2.008   0.070  1.00  0.00    -0.460 OA
BRANCH  23  24
ATOM     24  C   UNL     1       2.595  -2.471   0.983  1.00  0.00     0.338 C 
ATOM     25  O   UNL     1       2.626  -3.571   1.495  1.00  0.00    -0.246 OA
BRANCH  24  26
ATOM     26  C   UNL     1       3.679  -1.484   1.055  1.00  0.00     0.060 A 
ATOM     27  C   UNL     1       4.798  -1.718   0.247  1.00  0.00     0.016 A 
ATOM     28  C   UNL     1       3.632  -0.407   1.941  1.00  0.00     0.016 A 
ATOM     29  C   UNL     1       5.935  -0.944   0.414  1.00  0.00     0.010 A 
ATOM     30  C   UNL     1       4.780   0.370   2.112  1.00  0.00     0.010 A 
ATOM     31  C   UNL     1       5.955   0.041   1.411  1.00  0.00    -0.014 A 
BRANCH  31  32
ATOM     32  C   UNL     1       7.280   0.457   1.923  1.00  0.00     0.031 A 
ATOM     33  C   UNL     1       7.817  -0.268   3.131  1.00  0.00     0.074 A 
ATOM     34  C   UNL     1       8.029   1.357   1.266  1.00  0.00     0.049 A 
ATOM     35  N   UNL     1       8.976  -0.154   3.723  1.00  0.00    -0.248 NA
ATOM     36  C   UNL     1       6.923  -1.261   3.753  1.00  0.00     0.031 C 
ATOM     37  C   UNL     1       7.619   2.079   0.064  1.00  0.00     0.029 A 
ATOM     38  N   UNL     1       9.298   1.804   1.518  1.00  0.00    -0.354 N 
ATOM     39  C   UNL     1       8.949  -1.058   4.779  1.00  0.00     0.074 A 
ATOM     40  C   UNL     1       7.645  -1.678   4.779  1.00  0.00     0.031 C 
ATOM     41  C   UNL     1       8.621   2.890  -0.316  1.00  0.00     0.029 A 
ATOM     42  C   UNL     1       9.731   2.754   0.626  1.00  0.00     0.049 A 
ATOM     43  H   UNL     1       9.848   1.477   2.266  1.00  0.00     0.167 HD
ATOM     44  C   UNL     1       9.931  -1.360   5.661  1.00  0.00     0.037 A 
ATOM     45  C   UNL     1      10.890   3.440   0.587  1.00  0.00     0.037 A 
ATOM     46  C   UNL     1      11.223  -0.730   5.654  1.00  0.00     0.049 A 
ATOM     47  C   UNL     1      11.954   3.130   1.606  1.00  0.00     0.074 A 
ATOM     48  C   UNL     1      12.294  -0.947   6.499  1.00  0.00     0.029 A 
ATOM     49  N   UNL     1      11.612   0.252   4.753  1.00  0.00    -0.354 N 
ATOM     50  N   UNL     1      11.925   2.261   2.590  1.00  0.00    -0.248 NA
ATOM     51  C   UNL     1      13.213   3.878   1.502  1.00  0.00     0.031 C 
ATOM     52  C   UNL     1      13.317  -0.063   6.138  1.00  0.00     0.029 A 
ATOM     53  C   UNL     1      12.902   0.668   5.034  1.00  0.00     0.049 A 
ATOM     54  H   UNL     1      11.053   0.602   4.022  1.00  0.00     0.167 HD
ATOM     55  C   UNL     1      13.163   2.349   3.216  1.00  0.00     0.074 A 
ATOM     56  C   UNL     1      13.925   3.344   2.486  1.00  0.00     0.031 C 
ATOM     57  C   UNL     1      13.632   1.669   4.294  1.00  0.00     0.037 A 
BRANCH  44  58
ATOM     58  C   UNL     1       9.614  -2.386   6.716  1.00  0.00     0.058 A 
ATOM     59  C   UNL     1       9.439  -3.745   6.401  1.00  0.00     0.135 A 
ATOM     60  C   UNL     1       9.450  -2.002   8.056  1.00  0.00     0.135 A 
ATOM     61  F   UNL     1       9.561  -4.166   5.131  1.00  0.00    -0.206 F 
ATOM     62  C   UNL     1       9.069  -4.675   7.367  1.00  0.00     0.059 A 
ATOM     63  C   UNL     1       9.109  -2.921   9.044  1.00  0.00     0.059 A 
ATOM     64  F   UNL     1       9.601  -0.717   8.414  1.00  0.00    -0.206 F 
ATOM     65  C   UNL     1       8.897  -4.251   8.685  1.00  0.00     0.060 A 
BRANCH  65  66
ATOM     66  S   UNL     1       8.383  -5.461   9.924  1.00  0.00     0.124 S 
ATOM     67  O   UNL     1       6.974  -5.643   9.584  1.00  0.00    -0.237 OA
ATOM     68  O   UNL     1       9.255  -6.595   9.636  1.00  0.00    -0.237 OA
ATOM     69  O   UNL     1       8.640  -4.781  11.190  1.00  0.00    -0.744 OA
ENDBRANCH  65  66
ENDBRANCH  44  58
BRANCH  45  70
ATOM     70  C   UNL     1      11.082   4.483  -0.454  1.00  0.00     0.058 A 
ATOM     71  C   UNL     1      11.957   4.292  -1.532  1.00  0.00     0.135 A 
ATOM     72  C   UNL     1      10.338   5.674  -0.419  1.00  0.00     0.135 A 
ATOM     73  F   UNL     1      12.698   3.176  -1.606  1.00  0.00    -0.206 F 
ATOM     74  C   UNL     1      12.083   5.240  -2.544  1.00  0.00     0.059 A 
ATOM     75  C   UNL     1      10.428   6.625  -1.430  1.00  0.00     0.059 A 
ATOM     76  F   UNL     1       9.479   5.899   0.587  1.00  0.00    -0.206 F 
ATOM     77  C   UNL     1      11.305   6.399  -2.490  1.00  0.00     0.060 A 
BRANCH  77  78
ATOM     78  S   UNL     1      11.404   7.576  -3.856  1.00  0.00     0.124 S 
ATOM     79  O   UNL     1      12.708   8.187  -3.624  1.00  0.00    -0.237 OA
ATOM     80  O   UNL     1      11.306   6.702  -5.021  1.00  0.00    -0.237 OA
ATOM     81  O   UNL     1      10.251   8.444  -3.635  1.00  0.00    -0.744 OA
ENDBRANCH  77  78
ENDBRANCH  45  70
BRANCH  57  82
ATOM     82  C   UNL     1      15.035   1.969   4.742  1.00  0.00     0.058 A 
ATOM     83  C   UNL     1      15.356   3.163   5.404  1.00  0.00     0.135 A 
ATOM     84  C   UNL     1      16.056   1.022   4.560  1.00  0.00     0.135 A 
ATOM     85  F   UNL     1      14.415   4.101   5.600  1.00  0.00    -0.206 F 
ATOM     86  C   UNL     1      16.648   3.420   5.850  1.00  0.00     0.059 A 
ATOM     87  C   UNL     1      17.349   1.247   5.021  1.00  0.00     0.059 A 
ATOM     88  F   UNL     1      15.798  -0.143   3.944  1.00  0.00    -0.206 F 
ATOM     89  C   UNL     1      17.638   2.455   5.655  1.00  0.00     0.060 A 
BRANCH  89  90
ATOM     90  S   UNL     1      19.303   2.787   6.266  1.00  0.00     0.124 S 
ATOM     91  O   UNL     1      19.785   3.757   5.288  1.00  0.00    -0.237 OA
ATOM     92  O   UNL     1      19.048   3.309   7.604  1.00  0.00    -0.237 OA
ATOM     93  O   UNL     1      19.948   1.478   6.223  1.00  0.00    -0.744 OA
ENDBRANCH  89  90
ENDBRANCH  57  82
ENDBRANCH  31  32
ENDBRANCH  24  26
ENDBRANCH  23  24
ENDBRANCH  22  23
ENDBRANCH  21  22
ENDBRANCH  20  21
ENDBRANCH   1  20
TORSDOF 21
