REMARK SMILES CCOc1cc2c(cc1C(=O)OCCOCCOC(=O)c1ccc(-c3c4nc(c(-c5c(F)cc(S(=O)(=O)[O-])cc5F)c5ccc([nH]5)c(-c5c(F)cc(S(=O)(=O)[O-])cc5F)c5nc(c(-c6c(F)cc(S(=O)(=O)[O-])cc6F)c6ccc3[nH]6)C=C5)C=C4)cc1)CCC2
REMARK SMILES IDX 16 1 15 2 14 3 13 4 12 5 10 6 11 7 9 8 4 9 5 10 6 11 8 12
REMARK SMILES IDX 7 13 89 14 87 15 88 16 3 17 2 18 1 19 17 20 18 21 19 22
REMARK SMILES IDX 20 23 21 24 22 25 86 26 23 27 85 28 24 29 25 30 26 31 79 32
REMARK SMILES IDX 27 33 84 34 78 35 80 36 28 37 83 38 77 39 76 40 29 42 63 43
REMARK SMILES IDX 42 44 62 45 43 46 46 47 61 48 81 49 44 50 45 51 60 53 82 54
REMARK SMILES IDX 47 55 30 56 31 57 40 58 32 59 33 60 39 61 41 62 34 63 35 64
REMARK SMILES IDX 36 65 37 66 38 67 64 68 65 69 74 70 66 71 67 72 73 73 75 74
REMARK SMILES IDX 68 75 69 76 70 77 71 78 72 79 48 80 49 81 58 82 50 83 51 84
REMARK SMILES IDX 57 85 59 86 52 87 53 88 54 89 55 90 56 91
REMARK H PARENT 80 41 46 52
REMARK Flexibility Score: inf
ROOT
ATOM      1  C   UNL     1       2.439   6.137   1.112  1.00  0.00     0.202 C 
ENDROOT
BRANCH   1   2
ATOM      2  O   UNL     1       1.624   7.148   0.518  1.00  0.00    -0.374 OA
BRANCH   2   3
ATOM      3  C   UNL     1       0.326   6.758   0.065  1.00  0.00     0.202 C 
BRANCH   3   4
ATOM      4  C   UNL     1       0.269   5.984  -1.254  1.00  0.00     0.261 C 
BRANCH   4   5
ATOM      5  O   UNL     1       0.965   4.730  -1.151  1.00  0.00    -0.460 OA
BRANCH   5   6
ATOM      6  C   UNL     1       1.982   4.574  -2.032  1.00  0.00     0.342 C 
ATOM      7  O   UNL     1       2.280   5.338  -2.940  1.00  0.00    -0.246 OA
BRANCH   6   8
ATOM      8  C   UNL     1       2.873   3.460  -1.646  1.00  0.00     0.102 A 
ATOM      9  C   UNL     1       2.434   2.164  -1.314  1.00  0.00     0.134 A 
ATOM     10  C   UNL     1       3.372   1.134  -1.156  1.00  0.00     0.051 A 
ATOM     11  C   UNL     1       4.721   1.428  -1.265  1.00  0.00    -0.041 A 
ATOM     12  C   UNL     1       4.250   3.754  -1.697  1.00  0.00     0.023 A 
ATOM     13  C   UNL     1       5.157   2.732  -1.501  1.00  0.00    -0.044 A 
ATOM     14  C   UNL     1       5.882   0.487  -1.180  1.00  0.00     0.036 C 
ATOM     15  C   UNL     1       6.650   2.797  -1.532  1.00  0.00     0.036 C 
ATOM     16  C   UNL     1       6.988   1.331  -1.834  1.00  0.00     0.010 C 
BRANCH   9  17
ATOM     17  O   UNL     1       1.099   1.861  -1.283  1.00  0.00    -0.493 OA
BRANCH  17  18
ATOM     18  C   UNL     1       0.637   1.455   0.017  1.00  0.00     0.226 C 
ATOM     19  C   UNL     1       0.551  -0.060   0.136  1.00  0.00     0.049 C 
ENDBRANCH  17  18
ENDBRANCH   9  17
ENDBRANCH   6   8
ENDBRANCH   5   6
ENDBRANCH   4   5
ENDBRANCH   3   4
ENDBRANCH   2   3
ENDBRANCH   1   2
BRANCH   1  20
ATOM     20  C   UNL     1       2.103   5.736   2.554  1.00  0.00     0.261 C 
BRANCH  20  21
ATOM     21  O   UNL     1       0.815   5.108   2.670  1.00  0.00    -0.460 OA
BRANCH  21  22
ATOM     22  C   UNL     1      -0.127   5.859   3.293  1.00  0.00     0.338 C 
ATOM     23  O   UNL     1       0.031   6.955   3.814  1.00  0.00    -0.246 OA
BRANCH  22  24
ATOM     24  C   UNL     1      -1.459   5.254   3.112  1.00  0.00     0.060 A 
ATOM     25  C   UNL     1      -2.481   6.073   2.615  1.00  0.00     0.016 A 
ATOM     26  C   UNL     1      -1.725   3.934   3.485  1.00  0.00     0.016 A 
ATOM     27  C   UNL     1      -3.785   5.590   2.533  1.00  0.00     0.010 A 
ATOM     28  C   UNL     1      -3.038   3.455   3.411  1.00  0.00     0.010 A 
ATOM     29  C   UNL     1      -4.079   4.291   2.968  1.00  0.00    -0.014 A 
BRANCH  29  30
ATOM     30  C   UNL     1      -5.493   3.861   3.088  1.00  0.00     0.031 A 
ATOM     31  C   UNL     1      -6.152   3.888   4.441  1.00  0.00     0.074 A 
ATOM     32  C   UNL     1      -6.188   3.474   2.004  1.00  0.00     0.049 A 
ATOM     33  N   UNL     1      -7.361   3.525   4.782  1.00  0.00    -0.248 NA
ATOM     34  C   UNL     1      -5.335   4.388   5.558  1.00  0.00     0.031 C 
ATOM     35  C   UNL     1      -5.669   3.438   0.638  1.00  0.00     0.029 A 
ATOM     36  N   UNL     1      -7.481   3.030   1.886  1.00  0.00    -0.354 N 
ATOM     37  C   UNL     1      -7.451   3.748   6.151  1.00  0.00     0.074 A 
ATOM     38  C   UNL     1      -6.162   4.246   6.583  1.00  0.00     0.031 C 
ATOM     39  C   UNL     1      -6.633   2.982  -0.181  1.00  0.00     0.029 A 
ATOM     40  C   UNL     1      -7.824   2.668   0.606  1.00  0.00     0.049 A 
ATOM     41  H   UNL     1      -8.104   2.977   2.647  1.00  0.00     0.167 HD
ATOM     42  C   UNL     1      -8.513   3.563   6.971  1.00  0.00     0.037 A 
ATOM     43  C   UNL     1      -8.962   2.126   0.128  1.00  0.00     0.037 A 
ATOM     44  C   UNL     1      -9.791   3.065   6.536  1.00  0.00     0.049 A 
ATOM     45  C   UNL     1     -10.112   1.874   1.067  1.00  0.00     0.074 A 
ATOM     46  C   UNL     1     -10.935   2.856   7.287  1.00  0.00     0.029 A 
ATOM     47  N   UNL     1     -10.094   2.689   5.235  1.00  0.00    -0.354 N 
ATOM     48  N   UNL     1     -10.191   2.107   2.356  1.00  0.00    -0.248 NA
ATOM     49  C   UNL     1     -11.329   1.289   0.488  1.00  0.00     0.031 C 
ATOM     50  C   UNL     1     -11.915   2.311   6.449  1.00  0.00     0.029 A 
ATOM     51  C   UNL     1     -11.398   2.228   5.165  1.00  0.00     0.049 A 
ATOM     52  H   UNL     1      -9.472   2.742   4.473  1.00  0.00     0.167 HD
ATOM     53  C   UNL     1     -11.472   1.721   2.737  1.00  0.00     0.074 A 
ATOM     54  C   UNL     1     -12.136   1.247   1.540  1.00  0.00     0.031 C 
ATOM     55  C   UNL     1     -12.047   1.759   3.965  1.00  0.00     0.037 A 
BRANCH  42  56
ATOM     56  C   UNL     1      -8.323   3.879   8.429  1.00  0.00     0.058 A 
ATOM     57  C   UNL     1      -8.200   5.200   8.890  1.00  0.00     0.135 A 
ATOM     58  C   UNL     1      -8.273   2.847   9.381  1.00  0.00     0.135 A 
ATOM     59  F   UNL     1      -8.223   6.224   8.022  1.00  0.00    -0.206 F 
ATOM     60  C   UNL     1      -8.000   5.485  10.238  1.00  0.00     0.059 A 
ATOM     61  C   UNL     1      -8.101   3.110  10.736  1.00  0.00     0.059 A 
ATOM     62  F   UNL     1      -8.384   1.566   8.995  1.00  0.00    -0.206 F 
ATOM     63  C   UNL     1      -7.947   4.432  11.153  1.00  0.00     0.060 A 
BRANCH  63  64
ATOM     64  S   UNL     1      -7.670   4.814  12.895  1.00  0.00     0.124 S 
ATOM     65  O   UNL     1      -6.252   5.163  12.894  1.00  0.00    -0.237 OA
ATOM     66  O   UNL     1      -8.594   5.920  13.124  1.00  0.00    -0.237 OA
ATOM     67  O   UNL     1      -8.008   3.568  13.575  1.00  0.00    -0.744 OA
ENDBRANCH  63  64
ENDBRANCH  42  56
BRANCH  43  68
ATOM     68  C   UNL     1      -9.061   1.777  -1.313  1.00  0.00     0.058 A 
ATOM     69  C   UNL     1      -9.879   2.512  -2.183  1.00  0.00     0.135 A 
ATOM     70  C   UNL     1      -8.320   0.714  -1.853  1.00  0.00     0.135 A 
ATOM     71  F   UNL     1     -10.616   3.529  -1.712  1.00  0.00    -0.206 F 
ATOM     72  C   UNL     1      -9.964   2.203  -3.538  1.00  0.00     0.059 A 
ATOM     73  C   UNL     1      -8.369   0.402  -3.208  1.00  0.00     0.059 A 
ATOM     74  F   UNL     1      -7.515  -0.013  -1.063  1.00  0.00    -0.206 F 
ATOM     75  C   UNL     1      -9.199   1.149  -4.041  1.00  0.00     0.060 A 
BRANCH  75  76
ATOM     76  S   UNL     1      -9.265   0.799  -5.812  1.00  0.00     0.124 S 
ATOM     77  O   UNL     1     -10.579   0.181  -5.941  1.00  0.00    -0.237 OA
ATOM     78  O   UNL     1      -9.126   2.132  -6.392  1.00  0.00    -0.237 OA
ATOM     79  O   UNL     1      -8.125  -0.088  -6.021  1.00  0.00    -0.744 OA
ENDBRANCH  75  76
ENDBRANCH  43  68
BRANCH  55  80
ATOM     80  C   UNL     1     -13.476   1.303   4.077  1.00  0.00     0.058 A 
ATOM     81  C   UNL     1     -13.826  -0.054   4.004  1.00  0.00     0.135 A 
ATOM     82  C   UNL     1     -14.502   2.232   4.318  1.00  0.00     0.135 A 
ATOM     83  F   UNL     1     -12.886  -0.983   3.770  1.00  0.00    -0.206 F 
ATOM     84  C   UNL     1     -15.146  -0.473   4.144  1.00  0.00     0.059 A 
ATOM     85  C   UNL     1     -15.825   1.834   4.487  1.00  0.00     0.059 A 
ATOM     86  F   UNL     1     -14.220   3.542   4.408  1.00  0.00    -0.206 F 
ATOM     87  C   UNL     1     -16.139   0.479   4.387  1.00  0.00     0.060 A 
BRANCH  87  88
ATOM     88  S   UNL     1     -17.842  -0.080   4.601  1.00  0.00     0.124 S 
ATOM     89  O   UNL     1     -18.222  -0.399   3.229  1.00  0.00    -0.237 OA
ATOM     90  O   UNL     1     -17.687  -1.221   5.498  1.00  0.00    -0.237 OA
ATOM     91  O   UNL     1     -18.510   1.081   5.184  1.00  0.00    -0.744 OA
ENDBRANCH  87  88
ENDBRANCH  55  80
ENDBRANCH  29  30
ENDBRANCH  22  24
ENDBRANCH  21  22
ENDBRANCH  20  21
ENDBRANCH   1  20
TORSDOF 19
