REMARK SMILES C[N@@H+]1CCN(C(=O)c2ccc3[nH]c4c(c3c2)CSCC4)C[C@H]1C(=O)OCCOCCOC(=O)c1ccc(-c2c3nc(c(-c4c(F)cc(S(=O)(=O)[O-])cc4F)c4ccc([nH]4)c(-c4c(F)cc(S(=O)(=O)[O-])cc4F)c4nc(c(-c5c(F)cc(S(=O)(=O)[O-])cc5F)c5ccc2[nH]5)C=C4)C=C3)cc1
REMARK SMILES IDX 29 1 28 2 27 3 26 4 25 5 23 6 24 7 22 8 1 9 2 10 3 11 4 13
REMARK SMILES IDX 21 14 5 15 6 16 7 17 8 18 9 19 16 20 10 21 15 22 11 23 14 24
REMARK SMILES IDX 12 25 13 26 17 27 20 29 18 30 19 31 30 32 31 33 32 34 33 35
REMARK SMILES IDX 34 36 35 37 99 38 36 39 98 40 37 41 38 42 39 43 92 44 40 45
REMARK SMILES IDX 97 46 91 47 93 48 41 49 96 50 90 51 89 52 42 54 76 55 55 56
REMARK SMILES IDX 75 57 56 58 59 59 74 60 94 61 57 62 58 63 73 65 95 66 60 67
REMARK SMILES IDX 43 68 44 69 53 70 45 71 46 72 52 73 54 74 47 75 48 76 49 77
REMARK SMILES IDX 50 78 51 79 77 80 78 81 87 82 79 83 80 84 86 85 88 86 81 87
REMARK SMILES IDX 82 88 83 89 84 90 85 91 61 92 62 93 71 94 63 95 64 96 70 97
REMARK SMILES IDX 72 98 65 99 66 100 67 101 68 102 69 103
REMARK H PARENT 2 12 12 28 93 53 59 64
REMARK Flexibility Score: inf
ROOT
ATOM      1  C   UNL     1       3.768  -2.791   0.387  1.00  0.00     0.202 C 
ENDROOT
BRANCH   1   2
ATOM      2  O   UNL     1       3.327  -4.148   0.411  1.00  0.00    -0.374 OA
BRANCH   2   3
ATOM      3  C   UNL     1       2.647  -4.651  -0.735  1.00  0.00     0.202 C 
BRANCH   3   4
ATOM      4  C   UNL     1       1.218  -4.180  -1.053  1.00  0.00     0.261 C 
BRANCH   4   5
ATOM      5  O   UNL     1       0.976  -2.764  -0.979  1.00  0.00    -0.459 OA
BRANCH   5   6
ATOM      6  C   UNL     1       0.431  -2.382   0.203  1.00  0.00     0.366 C 
ATOM      7  O   UNL     1       0.345  -3.115   1.189  1.00  0.00    -0.245 OA
BRANCH   6   8
ATOM      8  C   UNL     1      -0.161  -0.990   0.244  1.00  0.00     0.314 C 
ATOM      9  C   UNL     1       1.950   0.256  -0.139  1.00  0.00     0.333 C 
ATOM     10  N   UNL     1       0.530   0.160  -0.434  1.00  0.00    -0.323 N 
ATOM     11  C   UNL     1      -0.162   1.402   0.023  1.00  0.00     0.284 C 
ATOM     12  H   UNL     1       0.473   0.021  -1.443  1.00  0.00     0.348 HD
ATOM     13  C   UNL     1      -1.688   1.393  -0.240  1.00  0.00     0.181 C 
ATOM     14  C   UNL     1      -1.599  -1.063  -0.290  1.00  0.00     0.197 C 
ATOM     15  N   UNL     1      -2.309   0.136   0.180  1.00  0.00    -0.326 N 
BRANCH  15  16
ATOM     16  C   UNL     1      -3.422   0.141   1.007  1.00  0.00     0.254 C 
ATOM     17  O   UNL     1      -3.935   1.163   1.455  1.00  0.00    -0.269 OA
BRANCH  16  18
ATOM     18  C   UNL     1      -4.051  -1.156   1.329  1.00  0.00     0.040 A 
ATOM     19  C   UNL     1      -3.432  -2.067   2.190  1.00  0.00     0.016 A 
ATOM     20  C   UNL     1      -5.263  -1.452   0.696  1.00  0.00     0.024 A 
ATOM     21  C   UNL     1      -3.989  -3.334   2.395  1.00  0.00     0.027 A 
ATOM     22  C   UNL     1      -5.852  -2.711   0.915  1.00  0.00     0.004 A 
ATOM     23  C   UNL     1      -5.196  -3.626   1.744  1.00  0.00     0.046 A 
ATOM     24  C   UNL     1      -7.043  -3.336   0.436  1.00  0.00    -0.009 A 
ATOM     25  N   UNL     1      -5.939  -4.787   1.721  1.00  0.00    -0.358 N 
ATOM     26  C   UNL     1      -7.094  -4.584   1.019  1.00  0.00     0.021 A 
ATOM     27  C   UNL     1      -8.031  -2.774  -0.525  1.00  0.00     0.107 C 
ATOM     28  H   UNL     1      -5.677  -5.635   2.147  1.00  0.00     0.166 HD
ATOM     29  C   UNL     1      -8.158  -5.605   0.848  1.00  0.00     0.065 C 
ATOM     30  S   UNL     1      -9.539  -3.766  -0.814  1.00  0.00    -0.157 SA
ATOM     31  C   UNL     1      -9.503  -4.915   0.613  1.00  0.00     0.076 C 
ENDBRANCH  16  18
ENDBRANCH  15  16
ENDBRANCH   6   8
ENDBRANCH   5   6
ENDBRANCH   4   5
ENDBRANCH   3   4
ENDBRANCH   2   3
ENDBRANCH   1   2
BRANCH   1  32
ATOM     32  C   UNL     1       4.740  -2.366  -0.725  1.00  0.00     0.261 C 
BRANCH  32  33
ATOM     33  O   UNL     1       4.093  -2.379  -2.004  1.00  0.00    -0.460 OA
BRANCH  33  34
ATOM     34  C   UNL     1       4.935  -2.691  -3.032  1.00  0.00     0.338 C 
ATOM     35  O   UNL     1       6.112  -2.444  -3.112  1.00  0.00    -0.246 OA
BRANCH  34  36
ATOM     36  C   UNL     1       4.228  -3.740  -3.799  1.00  0.00     0.060 A 
ATOM     37  C   UNL     1       2.935  -3.534  -4.281  1.00  0.00     0.016 A 
ATOM     38  C   UNL     1       4.799  -5.022  -3.773  1.00  0.00     0.016 A 
ATOM     39  C   UNL     1       2.199  -4.636  -4.705  1.00  0.00     0.010 A 
ATOM     40  C   UNL     1       4.048  -6.122  -4.177  1.00  0.00     0.010 A 
ATOM     41  C   UNL     1       2.740  -5.934  -4.628  1.00  0.00    -0.014 A 
BRANCH  41  42
ATOM     42  C   UNL     1       1.964  -7.024  -5.228  1.00  0.00     0.031 A 
ATOM     43  C   UNL     1       1.745  -6.868  -6.694  1.00  0.00     0.074 A 
ATOM     44  C   UNL     1       1.593  -8.188  -4.657  1.00  0.00     0.049 A 
ATOM     45  N   UNL     1       0.629  -6.732  -7.332  1.00  0.00    -0.248 NA
ATOM     46  C   UNL     1       2.944  -6.762  -7.539  1.00  0.00     0.031 C 
ATOM     47  C   UNL     1       1.985  -8.735  -3.358  1.00  0.00     0.029 A 
ATOM     48  N   UNL     1       0.834  -9.189  -5.201  1.00  0.00    -0.354 N 
ATOM     49  C   UNL     1       0.967  -6.697  -8.682  1.00  0.00     0.074 A 
ATOM     50  C   UNL     1       2.403  -6.595  -8.745  1.00  0.00     0.031 C 
ATOM     51  C   UNL     1       1.629 -10.041  -3.303  1.00  0.00     0.029 A 
ATOM     52  C   UNL     1       0.876 -10.386  -4.500  1.00  0.00     0.049 A 
ATOM     53  H   UNL     1       0.303  -9.070  -6.022  1.00  0.00     0.167 HD
ATOM     54  C   UNL     1       0.062  -6.928  -9.671  1.00  0.00     0.037 A 
ATOM     55  C   UNL     1       0.379 -11.582  -4.907  1.00  0.00     0.037 A 
ATOM     56  C   UNL     1      -1.293  -6.842  -9.203  1.00  0.00     0.049 A 
ATOM     57  C   UNL     1      -0.645 -11.327  -5.950  1.00  0.00     0.074 A 
ATOM     58  C   UNL     1      -2.075  -5.855  -8.637  1.00  0.00     0.029 A 
ATOM     59  N   UNL     1      -1.983  -8.015  -9.027  1.00  0.00    -0.354 N 
ATOM     60  N   UNL     1      -1.804 -10.771  -5.734  1.00  0.00    -0.248 NA
ATOM     61  C   UNL     1      -0.265 -11.443  -7.351  1.00  0.00     0.031 C 
ATOM     62  C   UNL     1      -2.977  -6.536  -7.769  1.00  0.00     0.029 A 
ATOM     63  C   UNL     1      -2.691  -7.899  -7.859  1.00  0.00     0.049 A 
ATOM     64  H   UNL     1      -1.971  -8.794  -9.629  1.00  0.00     0.167 HD
ATOM     65  C   UNL     1      -2.109 -10.114  -6.913  1.00  0.00     0.074 A 
ATOM     66  C   UNL     1      -1.209 -10.680  -7.907  1.00  0.00     0.031 C 
ATOM     67  C   UNL     1      -2.864  -8.978  -6.911  1.00  0.00     0.037 A 
BRANCH  54  68
ATOM     68  C   UNL     1       0.408  -7.542 -11.005  1.00  0.00     0.058 A 
ATOM     69  C   UNL     1      -0.521  -7.484 -12.063  1.00  0.00     0.135 A 
ATOM     70  C   UNL     1       1.497  -8.422 -11.189  1.00  0.00     0.135 A 
ATOM     71  F   UNL     1      -1.602  -6.693 -11.980  1.00  0.00    -0.206 F 
ATOM     72  C   UNL     1      -0.411  -8.291 -13.195  1.00  0.00     0.059 A 
ATOM     73  C   UNL     1       1.657  -9.193 -12.335  1.00  0.00     0.059 A 
ATOM     74  F   UNL     1       2.398  -8.645 -10.223  1.00  0.00    -0.206 F 
ATOM     75  C   UNL     1       0.674  -9.156 -13.311  1.00  0.00     0.060 A 
BRANCH  75  76
ATOM     76  S   UNL     1       0.750 -10.294 -14.706  1.00  0.00     0.124 S 
ATOM     77  O   UNL     1      -0.314 -11.233 -14.369  1.00  0.00    -0.237 OA
ATOM     78  O   UNL     1       0.488  -9.409 -15.837  1.00  0.00    -0.237 OA
ATOM     79  O   UNL     1       2.108 -10.823 -14.633  1.00  0.00    -0.744 OA
ENDBRANCH  75  76
ENDBRANCH  54  68
BRANCH  55  80
ATOM     80  C   UNL     1       0.892 -12.953  -4.647  1.00  0.00     0.058 A 
ATOM     81  C   UNL     1       0.110 -14.087  -4.941  1.00  0.00     0.135 A 
ATOM     82  C   UNL     1       2.257 -13.189  -4.393  1.00  0.00     0.135 A 
ATOM     83  F   UNL     1      -1.198 -13.957  -5.210  1.00  0.00    -0.206 F 
ATOM     84  C   UNL     1       0.661 -15.367  -5.045  1.00  0.00     0.059 A 
ATOM     85  C   UNL     1       2.826 -14.459  -4.476  1.00  0.00     0.059 A 
ATOM     86  F   UNL     1       3.101 -12.175  -4.153  1.00  0.00    -0.206 F 
ATOM     87  C   UNL     1       2.028 -15.539  -4.835  1.00  0.00     0.060 A 
BRANCH  87  88
ATOM     88  S   UNL     1       2.777 -17.151  -5.164  1.00  0.00     0.124 S 
ATOM     89  O   UNL     1       2.214 -17.969  -4.096  1.00  0.00    -0.237 OA
ATOM     90  O   UNL     1       2.299 -17.441  -6.511  1.00  0.00    -0.237 OA
ATOM     91  O   UNL     1       4.210 -16.886  -5.058  1.00  0.00    -0.744 OA
ENDBRANCH  87  88
ENDBRANCH  55  80
BRANCH  67  92
ATOM     92  C   UNL     1      -3.702  -8.690  -5.698  1.00  0.00     0.058 A 
ATOM     93  C   UNL     1      -3.174  -8.432  -4.422  1.00  0.00     0.135 A 
ATOM     94  C   UNL     1      -5.086  -8.524  -5.870  1.00  0.00     0.135 A 
ATOM     95  F   UNL     1      -1.851  -8.464  -4.201  1.00  0.00    -0.206 F 
ATOM     96  C   UNL     1      -3.989  -8.061  -3.356  1.00  0.00     0.059 A 
ATOM     97  C   UNL     1      -5.915  -8.118  -4.829  1.00  0.00     0.059 A 
ATOM     98  F   UNL     1      -5.639  -8.697  -7.083  1.00  0.00    -0.206 F 
ATOM     99  C   UNL     1      -5.357  -7.896  -3.572  1.00  0.00     0.060 A 
BRANCH  99 100
ATOM    100  S   UNL     1      -6.367  -7.267  -2.221  1.00  0.00     0.124 S 
ATOM    101  O   UNL     1      -6.340  -8.368  -1.262  1.00  0.00    -0.237 OA
ATOM    102  O   UNL     1      -5.630  -6.072  -1.824  1.00  0.00    -0.237 OA
ATOM    103  O   UNL     1      -7.664  -7.021  -2.845  1.00  0.00    -0.744 OA
ENDBRANCH  99 100
ENDBRANCH  67  92
ENDBRANCH  41  42
ENDBRANCH  34  36
ENDBRANCH  33  34
ENDBRANCH  32  33
ENDBRANCH   1  32
TORSDOF 19
