REMARK SMILES CC(C)N(CCCC(=O)OCCOCCOC(=O)c1ccc(-c2c3nc(c(-c4c(F)cc(S(=O)(=O)[O-])cc4F)c4ccc([nH]4)c(-c4c(F)cc(S(=O)(=O)[O-])cc4F)c4nc(c(-c5c(F)cc(S(=O)(=O)[O-])cc5F)c5ccc2[nH]5)C=C4)C=C3)cc1)C(=O)Cc1c(F)cccc1F
REMARK SMILES IDX 11 1 10 2 8 3 9 4 7 5 6 6 5 7 4 8 2 9 1 10 3 11 85 12 86 13
REMARK SMILES IDX 87 14 88 15 89 16 94 17 90 18 91 19 93 20 95 21 92 22 12 23
REMARK SMILES IDX 13 24 14 25 15 26 16 27 17 28 18 29 19 30 20 31 84 32 21 33
REMARK SMILES IDX 83 34 22 35 23 36 24 37 77 38 25 39 82 40 76 41 78 42 26 43
REMARK SMILES IDX 81 44 75 45 74 46 27 48 61 49 40 50 60 51 41 52 44 53 59 54
REMARK SMILES IDX 79 55 42 56 43 57 58 59 80 60 45 61 28 62 29 63 38 64 30 65
REMARK SMILES IDX 31 66 37 67 39 68 32 69 33 70 34 71 35 72 36 73 62 74 63 75
REMARK SMILES IDX 72 76 64 77 65 78 71 79 73 80 66 81 67 82 68 83 69 84 70 85
REMARK SMILES IDX 46 86 47 87 56 88 48 89 49 90 55 91 57 92 50 93 51 94 52 95
REMARK SMILES IDX 53 96 54 97
REMARK H PARENT 78 47 44 58
REMARK Flexibility Score: inf
ROOT
ATOM      1  C   UNL     1      -5.689   0.488  -1.447  1.00  0.00     0.261 C 
ENDROOT
BRANCH   1   2
ATOM      2  O   UNL     1      -4.594  -0.269  -1.984  1.00  0.00    -0.463 OA
BRANCH   2   3
ATOM      3  C   UNL     1      -4.617  -1.608  -1.754  1.00  0.00     0.305 C 
ATOM      4  O   UNL     1      -5.556  -2.221  -1.262  1.00  0.00    -0.252 OA
BRANCH   3   5
ATOM      5  C   UNL     1      -3.332  -2.305  -2.162  1.00  0.00     0.124 C 
BRANCH   5   6
ATOM      6  C   UNL     1      -2.148  -1.423  -2.562  1.00  0.00     0.033 C 
BRANCH   6   7
ATOM      7  C   UNL     1      -1.679  -0.416  -1.504  1.00  0.00     0.120 C 
BRANCH   7   8
ATOM      8  N   UNL     1      -0.822  -0.978  -0.454  1.00  0.00    -0.340 N 
BRANCH   8   9
ATOM      9  C   UNL     1       0.620  -1.069  -0.781  1.00  0.00     0.078 C 
ATOM     10  C   UNL     1       1.451  -0.024  -0.030  1.00  0.00     0.031 C 
ATOM     11  C   UNL     1       1.189  -2.478  -0.617  1.00  0.00     0.031 C 
ENDBRANCH   8   9
BRANCH   8  12
ATOM     12  C   UNL     1      -1.230  -1.193   0.869  1.00  0.00     0.227 C 
ATOM     13  O   UNL     1      -0.440  -1.547   1.749  1.00  0.00    -0.275 OA
BRANCH  12  14
ATOM     14  C   UNL     1      -2.699  -1.079   1.233  1.00  0.00     0.142 C 
BRANCH  14  15
ATOM     15  C   UNL     1      -3.291   0.280   1.507  1.00  0.00     0.033 A 
ATOM     16  C   UNL     1      -2.651   1.498   1.284  1.00  0.00     0.129 A 
ATOM     17  C   UNL     1      -4.618   0.332   1.955  1.00  0.00     0.129 A 
ATOM     18  F   UNL     1      -1.390   1.538   0.837  1.00  0.00    -0.207 F 
ATOM     19  C   UNL     1      -3.315   2.713   1.459  1.00  0.00     0.040 A 
ATOM     20  C   UNL     1      -5.292   1.538   2.147  1.00  0.00     0.040 A 
ATOM     21  F   UNL     1      -5.293  -0.810   2.154  1.00  0.00    -0.207 F 
ATOM     22  C   UNL     1      -4.640   2.738   1.888  1.00  0.00     0.006 A 
ENDBRANCH  14  15
ENDBRANCH  12  14
ENDBRANCH   8  12
ENDBRANCH   7   8
ENDBRANCH   6   7
ENDBRANCH   5   6
ENDBRANCH   3   5
ENDBRANCH   2   3
ENDBRANCH   1   2
BRANCH   1  23
ATOM     23  C   UNL     1      -6.330   1.459  -2.438  1.00  0.00     0.202 C 
BRANCH  23  24
ATOM     24  O   UNL     1      -6.766   0.931  -3.682  1.00  0.00    -0.374 OA
BRANCH  24  25
ATOM     25  C   UNL     1      -5.782   0.383  -4.553  1.00  0.00     0.202 C 
BRANCH  25  26
ATOM     26  C   UNL     1      -4.709   1.321  -5.131  1.00  0.00     0.261 C 
BRANCH  26  27
ATOM     27  O   UNL     1      -3.875   1.996  -4.166  1.00  0.00    -0.460 OA
BRANCH  27  28
ATOM     28  C   UNL     1      -4.087   3.336  -4.094  1.00  0.00     0.338 C 
ATOM     29  O   UNL     1      -4.965   3.961  -4.678  1.00  0.00    -0.246 OA
BRANCH  28  30
ATOM     30  C   UNL     1      -3.183   4.009  -3.139  1.00  0.00     0.060 A 
ATOM     31  C   UNL     1      -3.753   4.915  -2.234  1.00  0.00     0.016 A 
ATOM     32  C   UNL     1      -1.795   3.934  -3.275  1.00  0.00     0.016 A 
ATOM     33  C   UNL     1      -2.943   5.806  -1.526  1.00  0.00     0.010 A 
ATOM     34  C   UNL     1      -0.984   4.834  -2.568  1.00  0.00     0.010 A 
ATOM     35  C   UNL     1      -1.557   5.811  -1.733  1.00  0.00    -0.014 A 
BRANCH  35  36
ATOM     36  C   UNL     1      -0.748   6.958  -1.236  1.00  0.00     0.031 A 
ATOM     37  C   UNL     1      -0.463   8.110  -2.168  1.00  0.00     0.074 A 
ATOM     38  C   UNL     1      -0.309   7.010   0.034  1.00  0.00     0.049 A 
ATOM     39  N   UNL     1       0.231   9.198  -1.954  1.00  0.00    -0.248 NA
ATOM     40  C   UNL     1      -1.037   8.020  -3.521  1.00  0.00     0.031 C 
ATOM     41  C   UNL     1      -0.533   5.981   1.045  1.00  0.00     0.029 A 
ATOM     42  N   UNL     1       0.422   7.970   0.690  1.00  0.00    -0.354 N 
ATOM     43  C   UNL     1       0.178   9.923  -3.139  1.00  0.00     0.074 A 
ATOM     44  C   UNL     1      -0.595   9.139  -4.079  1.00  0.00     0.031 C 
ATOM     45  C   UNL     1       0.050   6.362   2.195  1.00  0.00     0.029 A 
ATOM     46  C   UNL     1       0.718   7.646   1.993  1.00  0.00     0.049 A 
ATOM     47  H   UNL     1       0.708   8.812   0.266  1.00  0.00     0.167 HD
ATOM     48  C   UNL     1       0.715  11.134  -3.421  1.00  0.00     0.037 A 
ATOM     49  C   UNL     1       1.462   8.297   2.910  1.00  0.00     0.037 A 
ATOM     50  C   UNL     1       1.492  11.917  -2.496  1.00  0.00     0.049 A 
ATOM     51  C   UNL     1       2.093   9.620   2.557  1.00  0.00     0.074 A 
ATOM     52  C   UNL     1       2.094  13.147  -2.702  1.00  0.00     0.029 A 
ATOM     53  N   UNL     1       1.773  11.550  -1.189  1.00  0.00    -0.354 N 
ATOM     54  N   UNL     1       2.031  10.290   1.432  1.00  0.00    -0.248 NA
ATOM     55  C   UNL     1       2.896  10.275   3.601  1.00  0.00     0.031 C 
ATOM     56  C   UNL     1       2.763  13.511  -1.529  1.00  0.00     0.029 A 
ATOM     57  C   UNL     1       2.545  12.526  -0.580  1.00  0.00     0.049 A 
ATOM     58  H   UNL     1       1.469  10.719  -0.758  1.00  0.00     0.167 HD
ATOM     59  C   UNL     1       2.763  11.456   1.642  1.00  0.00     0.074 A 
ATOM     60  C   UNL     1       3.251  11.405   3.003  1.00  0.00     0.031 C 
ATOM     61  C   UNL     1       3.008  12.475   0.783  1.00  0.00     0.037 A 
BRANCH  48  62
ATOM     62  C   UNL     1       0.491  11.688  -4.799  1.00  0.00     0.058 A 
ATOM     63  C   UNL     1      -0.749  12.225  -5.178  1.00  0.00     0.135 A 
ATOM     64  C   UNL     1       1.536  11.719  -5.736  1.00  0.00     0.135 A 
ATOM     65  F   UNL     1      -1.784  12.203  -4.324  1.00  0.00    -0.206 F 
ATOM     66  C   UNL     1      -0.951  12.759  -6.446  1.00  0.00     0.059 A 
ATOM     67  C   UNL     1       1.362  12.266  -7.003  1.00  0.00     0.059 A 
ATOM     68  F   UNL     1       2.740  11.214  -5.423  1.00  0.00    -0.206 F 
ATOM     69  C   UNL     1       0.111  12.774  -7.353  1.00  0.00     0.060 A 
BRANCH  69  70
ATOM     70  S   UNL     1      -0.163  13.476  -8.993  1.00  0.00     0.124 S 
ATOM     71  O   UNL     1      -0.940  12.420  -9.635  1.00  0.00    -0.237 OA
ATOM     72  O   UNL     1      -0.891  14.704  -8.692  1.00  0.00    -0.237 OA
ATOM     73  O   UNL     1       1.188  13.664  -9.512  1.00  0.00    -0.744 OA
ENDBRANCH  69  70
ENDBRANCH  48  62
BRANCH  49  74
ATOM     74  C   UNL     1       1.678   7.700   4.254  1.00  0.00     0.058 A 
ATOM     75  C   UNL     1       1.100   8.263   5.401  1.00  0.00     0.135 A 
ATOM     76  C   UNL     1       2.495   6.571   4.419  1.00  0.00     0.135 A 
ATOM     77  F   UNL     1       0.321   9.351   5.294  1.00  0.00    -0.206 F 
ATOM     78  C   UNL     1       1.343   7.744   6.668  1.00  0.00     0.059 A 
ATOM     79  C   UNL     1       2.732   6.018   5.673  1.00  0.00     0.059 A 
ATOM     80  F   UNL     1       3.063   5.991   3.351  1.00  0.00    -0.206 F 
ATOM     81  C   UNL     1       2.164   6.622   6.794  1.00  0.00     0.060 A 
BRANCH  81  82
ATOM     82  S   UNL     1       2.458   5.938   8.439  1.00  0.00     0.124 S 
ATOM     83  O   UNL     1       3.438   6.876   8.975  1.00  0.00    -0.237 OA
ATOM     84  O   UNL     1       1.128   5.992   9.039  1.00  0.00    -0.237 OA
ATOM     85  O   UNL     1       2.955   4.595   8.158  1.00  0.00    -0.744 OA
ENDBRANCH  81  82
ENDBRANCH  49  74
BRANCH  61  86
ATOM     86  C   UNL     1       3.802  13.644   1.296  1.00  0.00     0.058 A 
ATOM     87  C   UNL     1       5.191  13.570   1.480  1.00  0.00     0.135 A 
ATOM     88  C   UNL     1       3.170  14.872   1.554  1.00  0.00     0.135 A 
ATOM     89  F   UNL     1       5.842  12.419   1.251  1.00  0.00    -0.206 F 
ATOM     90  C   UNL     1       5.924  14.668   1.920  1.00  0.00     0.059 A 
ATOM     91  C   UNL     1       3.886  15.988   1.975  1.00  0.00     0.059 A 
ATOM     92  F   UNL     1       1.844  14.998   1.384  1.00  0.00    -0.206 F 
ATOM     93  C   UNL     1       5.263  15.873   2.165  1.00  0.00     0.060 A 
BRANCH  93  94
ATOM     94  S   UNL     1       6.227  17.303   2.701  1.00  0.00     0.124 S 
ATOM     95  O   UNL     1       6.452  16.995   4.109  1.00  0.00    -0.237 OA
ATOM     96  O   UNL     1       7.404  17.230   1.840  1.00  0.00    -0.237 OA
ATOM     97  O   UNL     1       5.337  18.430   2.438  1.00  0.00    -0.744 OA
ENDBRANCH  93  94
ENDBRANCH  61  86
ENDBRANCH  35  36
ENDBRANCH  28  30
ENDBRANCH  27  28
ENDBRANCH  26  27
ENDBRANCH  25  26
ENDBRANCH  24  25
ENDBRANCH  23  24
ENDBRANCH   1  23
TORSDOF 24
