REMARK SMILES C[C@@](NC(=O)CSCc1ccccc1)(C(=O)OCCOCCOC(=O)c1ccc(-c2c3nc(c(-c4c(F)cc(S(=O)(=O)[O-])cc4F)c4ccc([nH]4)c(-c4c(F)cc(S(=O)(=O)[O-])cc4F)c4nc(c(-c5c(F)cc(S(=O)(=O)[O-])cc5F)c5ccc2[nH]5)C=C4)C=C3)cc1)C1CC1
REMARK SMILES IDX 19 1 18 2 17 3 15 4 16 5 2 6 1 7 3 8 4 9 5 11 6 12 7 13 8 14
REMARK SMILES IDX 9 15 10 16 14 17 11 18 13 19 12 20 92 21 93 22 94 23 20 24
REMARK SMILES IDX 21 25 22 26 23 27 24 28 25 29 26 30 27 31 91 32 28 33 90 34
REMARK SMILES IDX 29 35 30 36 31 37 84 38 32 39 89 40 83 41 85 42 33 43 88 44
REMARK SMILES IDX 82 45 81 46 34 48 68 49 47 50 67 51 48 52 51 53 66 54 86 55
REMARK SMILES IDX 49 56 50 57 65 59 87 60 52 61 35 62 36 63 45 64 37 65 38 66
REMARK SMILES IDX 44 67 46 68 39 69 40 70 41 71 42 72 43 73 69 74 70 75 79 76
REMARK SMILES IDX 71 77 72 78 78 79 80 80 73 81 74 82 75 83 76 84 77 85 53 86
REMARK SMILES IDX 54 87 63 88 55 89 56 90 62 91 64 92 57 93 58 94 59 95 60 96
REMARK SMILES IDX 61 97
REMARK H PARENT 3 10 85 47 51 58
REMARK Flexibility Score: inf
ROOT
ATOM      1  C   UNL     1      -3.967   1.025  -1.006  1.00  0.00     0.202 C 
ENDROOT
BRANCH   1   2
ATOM      2  C   UNL     1      -3.211   0.065  -1.925  1.00  0.00     0.261 C 
BRANCH   2   3
ATOM      3  O   UNL     1      -1.861  -0.086  -1.462  1.00  0.00    -0.461 OA
BRANCH   3   4
ATOM      4  C   UNL     1      -0.991  -0.615  -2.360  1.00  0.00     0.331 C 
ATOM      5  O   UNL     1      -1.315  -1.027  -3.470  1.00  0.00    -0.249 OA
BRANCH   4   6
ATOM      6  C   UNL     1       0.476  -0.591  -1.832  1.00  0.00     0.138 C 
ATOM      7  C   UNL     1       0.664  -0.170  -0.362  1.00  0.00     0.048 C 
BRANCH   6   8
ATOM      8  N   UNL     1       1.095  -1.936  -1.999  1.00  0.00    -0.340 N 
ATOM      9  C   UNL     1       0.697  -3.167  -1.555  1.00  0.00     0.230 C 
ATOM     10  H   UNL     1       1.932  -1.940  -2.517  1.00  0.00     0.164 HD
ATOM     11  O   UNL     1       1.586  -4.008  -1.379  1.00  0.00    -0.274 OA
BRANCH   9  12
ATOM     12  C   UNL     1      -0.768  -3.546  -1.393  1.00  0.00     0.169 C 
BRANCH  12  13
ATOM     13  S   UNL     1      -1.500  -2.892   0.133  1.00  0.00    -0.147 SA
BRANCH  13  14
ATOM     14  C   UNL     1      -1.139  -4.256   1.277  1.00  0.00     0.105 C 
BRANCH  14  15
ATOM     15  C   UNL     1      -2.050  -5.441   1.080  1.00  0.00    -0.038 A 
ATOM     16  C   UNL     1      -3.447  -5.293   1.070  1.00  0.00     0.004 A 
ATOM     17  C   UNL     1      -1.510  -6.728   0.955  1.00  0.00     0.004 A 
ATOM     18  C   UNL     1      -4.282  -6.399   0.917  1.00  0.00     0.000 A 
ATOM     19  C   UNL     1      -2.347  -7.835   0.810  1.00  0.00     0.000 A 
ATOM     20  C   UNL     1      -3.731  -7.671   0.790  1.00  0.00     0.000 A 
ENDBRANCH  14  15
ENDBRANCH  13  14
ENDBRANCH  12  13
ENDBRANCH   9  12
ENDBRANCH   6   8
BRANCH   6  21
ATOM     21  C   UNL     1       1.305   0.383  -2.724  1.00  0.00     0.026 C 
ATOM     22  C   UNL     1       0.667   1.482  -3.560  1.00  0.00     0.007 C 
ATOM     23  C   UNL     1       1.498   1.852  -2.374  1.00  0.00     0.007 C 
ENDBRANCH   6  21
ENDBRANCH   4   6
ENDBRANCH   3   4
ENDBRANCH   2   3
ENDBRANCH   1   2
BRANCH   1  24
ATOM     24  O   UNL     1      -3.539   2.389  -1.068  1.00  0.00    -0.374 OA
BRANCH  24  25
ATOM     25  C   UNL     1      -2.225   2.688  -0.603  1.00  0.00     0.202 C 
BRANCH  25  26
ATOM     26  C   UNL     1      -2.009   2.712   0.917  1.00  0.00     0.261 C 
BRANCH  26  27
ATOM     27  O   UNL     1      -2.291   1.469   1.588  1.00  0.00    -0.460 OA
BRANCH  27  28
ATOM     28  C   UNL     1      -3.414   1.499   2.343  1.00  0.00     0.338 C 
ATOM     29  O   UNL     1      -4.192   2.444   2.455  1.00  0.00    -0.246 OA
BRANCH  28  30
ATOM     30  C   UNL     1      -3.696   0.212   3.004  1.00  0.00     0.060 A 
ATOM     31  C   UNL     1      -4.978  -0.323   2.831  1.00  0.00     0.016 A 
ATOM     32  C   UNL     1      -2.832  -0.321   3.965  1.00  0.00     0.016 A 
ATOM     33  C   UNL     1      -5.438  -1.322   3.687  1.00  0.00     0.010 A 
ATOM     34  C   UNL     1      -3.298  -1.327   4.825  1.00  0.00     0.010 A 
ATOM     35  C   UNL     1      -4.626  -1.782   4.732  1.00  0.00    -0.014 A 
BRANCH  35  36
ATOM     36  C   UNL     1      -5.255  -2.572   5.826  1.00  0.00     0.031 A 
ATOM     37  C   UNL     1      -5.682  -1.867   7.090  1.00  0.00     0.074 A 
ATOM     38  C   UNL     1      -5.530  -3.879   5.669  1.00  0.00     0.049 A 
ATOM     39  N   UNL     1      -6.323  -2.340   8.128  1.00  0.00    -0.248 NA
ATOM     40  C   UNL     1      -5.341  -0.439   7.196  1.00  0.00     0.031 C 
ATOM     41  C   UNL     1      -5.189  -4.675   4.493  1.00  0.00     0.029 A 
ATOM     42  N   UNL     1      -6.170  -4.764   6.501  1.00  0.00    -0.354 N 
ATOM     43  C   UNL     1      -6.457  -1.274   9.011  1.00  0.00     0.074 A 
ATOM     44  C   UNL     1      -5.806  -0.136   8.400  1.00  0.00     0.031 C 
ATOM     45  C   UNL     1      -5.632  -5.931   4.672  1.00  0.00     0.029 A 
ATOM     46  C   UNL     1      -6.279  -6.030   5.980  1.00  0.00     0.049 A 
ATOM     47  H   UNL     1      -6.517  -4.514   7.388  1.00  0.00     0.167 HD
ATOM     48  C   UNL     1      -7.077  -1.240  10.216  1.00  0.00     0.037 A 
ATOM     49  C   UNL     1      -6.840  -7.142   6.496  1.00  0.00     0.037 A 
ATOM     50  C   UNL     1      -7.743  -2.362  10.823  1.00  0.00     0.049 A 
ATOM     51  C   UNL     1      -7.515  -7.082   7.840  1.00  0.00     0.074 A 
ATOM     52  C   UNL     1      -8.418  -2.415  12.031  1.00  0.00     0.029 A 
ATOM     53  N   UNL     1      -7.820  -3.630  10.268  1.00  0.00    -0.354 N 
ATOM     54  N   UNL     1      -7.658  -6.059   8.648  1.00  0.00    -0.248 NA
ATOM     55  C   UNL     1      -8.114  -8.329   8.339  1.00  0.00     0.031 C 
ATOM     56  C   UNL     1      -8.879  -3.723  12.219  1.00  0.00     0.029 A 
ATOM     57  C   UNL     1      -8.520  -4.475  11.113  1.00  0.00     0.049 A 
ATOM     58  H   UNL     1      -7.434  -3.891   9.400  1.00  0.00     0.167 HD
ATOM     59  C   UNL     1      -8.386  -6.531   9.735  1.00  0.00     0.074 A 
ATOM     60  C   UNL     1      -8.660  -7.930   9.480  1.00  0.00     0.031 C 
ATOM     61  C   UNL     1      -8.795  -5.864  10.843  1.00  0.00     0.037 A 
BRANCH  48  62
ATOM     62  C   UNL     1      -7.047   0.060  10.969  1.00  0.00     0.058 A 
ATOM     63  C   UNL     1      -7.852   1.147  10.594  1.00  0.00     0.135 A 
ATOM     64  C   UNL     1      -6.217   0.214  12.091  1.00  0.00     0.135 A 
ATOM     65  F   UNL     1      -8.650   1.058   9.519  1.00  0.00    -0.206 F 
ATOM     66  C   UNL     1      -7.815   2.352  11.290  1.00  0.00     0.059 A 
ATOM     67  C   UNL     1      -6.180   1.402  12.814  1.00  0.00     0.059 A 
ATOM     68  F   UNL     1      -5.427  -0.796  12.490  1.00  0.00    -0.206 F 
ATOM     69  C   UNL     1      -6.971   2.472  12.395  1.00  0.00     0.060 A 
BRANCH  69  70
ATOM     70  S   UNL     1      -6.923   4.041  13.287  1.00  0.00     0.124 S 
ATOM     71  O   UNL     1      -6.093   4.852  12.403  1.00  0.00    -0.237 OA
ATOM     72  O   UNL     1      -8.333   4.413  13.350  1.00  0.00    -0.237 OA
ATOM     73  O   UNL     1      -6.317   3.684  14.566  1.00  0.00    -0.744 OA
ENDBRANCH  69  70
ENDBRANCH  48  62
BRANCH  49  74
ATOM     74  C   UNL     1      -6.810  -8.409   5.722  1.00  0.00     0.058 A 
ATOM     75  C   UNL     1      -7.970  -8.915   5.117  1.00  0.00     0.135 A 
ATOM     76  C   UNL     1      -5.619  -9.134   5.568  1.00  0.00     0.135 A 
ATOM     77  F   UNL     1      -9.134  -8.262   5.247  1.00  0.00    -0.206 F 
ATOM     78  C   UNL     1      -7.953 -10.103   4.393  1.00  0.00     0.059 A 
ATOM     79  C   UNL     1      -5.573 -10.313   4.831  1.00  0.00     0.059 A 
ATOM     80  F   UNL     1      -4.483  -8.686   6.124  1.00  0.00    -0.206 F 
ATOM     81  C   UNL     1      -6.748 -10.793   4.254  1.00  0.00     0.060 A 
BRANCH  81  82
ATOM     82  S   UNL     1      -6.717 -12.301   3.260  1.00  0.00     0.124 S 
ATOM     83  O   UNL     1      -7.288 -13.273   4.183  1.00  0.00    -0.237 OA
ATOM     84  O   UNL     1      -7.551 -11.936   2.119  1.00  0.00    -0.237 OA
ATOM     85  O   UNL     1      -5.299 -12.470   2.957  1.00  0.00    -0.744 OA
ENDBRANCH  81  82
ENDBRANCH  49  74
BRANCH  61  86
ATOM     86  C   UNL     1      -9.614  -6.627  11.845  1.00  0.00     0.058 A 
ATOM     87  C   UNL     1      -9.031  -7.564  12.713  1.00  0.00     0.135 A 
ATOM     88  C   UNL     1     -10.994  -6.395  11.960  1.00  0.00     0.135 A 
ATOM     89  F   UNL     1      -7.716  -7.824  12.641  1.00  0.00    -0.206 F 
ATOM     90  C   UNL     1      -9.794  -8.266  13.641  1.00  0.00     0.059 A 
ATOM     91  C   UNL     1     -11.772  -7.071  12.895  1.00  0.00     0.059 A 
ATOM     92  F   UNL     1     -11.598  -5.500  11.162  1.00  0.00    -0.206 F 
ATOM     93  C   UNL     1     -11.165  -8.017  13.721  1.00  0.00     0.060 A 
BRANCH  93  94
ATOM     94  S   UNL     1     -12.149  -8.921  14.936  1.00  0.00     0.124 S 
ATOM     95  O   UNL     1     -12.341 -10.201  14.263  1.00  0.00    -0.237 OA
ATOM     96  O   UNL     1     -11.270  -8.944  16.102  1.00  0.00    -0.237 OA
ATOM     97  O   UNL     1     -13.346  -8.099  15.080  1.00  0.00    -0.744 OA
ENDBRANCH  93  94
ENDBRANCH  61  86
ENDBRANCH  35  36
ENDBRANCH  28  30
ENDBRANCH  27  28
ENDBRANCH  26  27
ENDBRANCH  25  26
ENDBRANCH  24  25
ENDBRANCH   1  24
TORSDOF 23
