REMARK SMILES O=C(OCCOCCOC(=O)[C@H]1CC=CC[C@@H]1C(=O)N[C@@H]1CCCN(c2ccccc2F)C1=O)c1ccc(-c2c3nc(c(-c4c(F)cc(S(=O)(=O)[O-])cc4F)c4ccc([nH]4)c(-c4c(F)cc(S(=O)(=O)[O-])cc4F)c4nc(c(-c5c(F)cc(S(=O)(=O)[O-])cc5F)c5ccc2[nH]5)C=C4)C=C3)cc1
REMARK SMILES IDX 6 1 5 2 4 3 3 4 2 5 1 6 35 7 36 8 100 9 37 10 99 11 38 12
REMARK SMILES IDX 39 13 40 14 93 15 41 16 98 17 92 18 94 19 42 20 97 21 91 22
REMARK SMILES IDX 90 23 43 25 77 26 56 27 76 28 57 29 60 30 75 31 95 32 58 33
REMARK SMILES IDX 59 34 74 36 96 37 61 38 44 39 45 40 54 41 46 42 47 43 53 44
REMARK SMILES IDX 55 45 48 46 49 47 50 48 51 49 52 50 78 51 79 52 88 53 80 54
REMARK SMILES IDX 81 55 87 56 89 57 82 58 83 59 84 60 85 61 86 62 62 63 63 64
REMARK SMILES IDX 72 65 64 66 65 67 71 68 73 69 66 70 67 71 68 72 69 73 70 74
REMARK SMILES IDX 7 75 8 76 9 77 10 78 11 79 12 80 13 81 17 82 14 83 16 84
REMARK SMILES IDX 15 85 18 86 19 87 20 88 21 90 22 91 33 92 23 93 25 94 34 95
REMARK SMILES IDX 24 96 26 97 27 98 31 99 28 100 30 101 32 102 29 103
REMARK H PARENT 94 24 60 35 20 89
REMARK Flexibility Score: inf
ROOT
ATOM      1  O   UNL     1       3.716  -1.292  -2.331  1.00  0.00    -0.374 OA
ENDROOT
BRANCH   1   2
ATOM      2  C   UNL     1       4.518  -0.398  -1.554  1.00  0.00     0.202 C 
BRANCH   2   3
ATOM      3  C   UNL     1       4.470  -0.509  -0.014  1.00  0.00     0.261 C 
BRANCH   3   4
ATOM      4  O   UNL     1       4.417  -1.859   0.479  1.00  0.00    -0.460 OA
BRANCH   4   5
ATOM      5  C   UNL     1       3.325  -2.577   0.847  1.00  0.00     0.338 C 
ATOM      6  O   UNL     1       3.496  -3.661   1.402  1.00  0.00    -0.246 OA
BRANCH   5   7
ATOM      7  C   UNL     1       1.919  -2.144   0.565  1.00  0.00     0.060 A 
ATOM      8  C   UNL     1       1.573  -1.114  -0.304  1.00  0.00     0.016 A 
ATOM      9  C   UNL     1       0.869  -2.863   1.167  1.00  0.00     0.016 A 
ATOM     10  C   UNL     1       0.266  -0.751  -0.534  1.00  0.00     0.010 A 
ATOM     11  C   UNL     1      -0.470  -2.519   0.928  1.00  0.00     0.010 A 
ATOM     12  C   UNL     1      -0.761  -1.440   0.092  1.00  0.00    -0.014 A 
BRANCH  12  13
ATOM     13  C   UNL     1      -2.086  -0.822  -0.049  1.00  0.00     0.031 A 
ATOM     14  C   UNL     1      -2.529   0.104   1.041  1.00  0.00     0.074 A 
ATOM     15  C   UNL     1      -2.683  -0.852  -1.255  1.00  0.00     0.049 A 
ATOM     16  N   UNL     1      -3.578   0.874   1.093  1.00  0.00    -0.248 NA
ATOM     17  C   UNL     1      -1.643   0.210   2.216  1.00  0.00     0.031 C 
ATOM     18  C   UNL     1      -2.171  -1.576  -2.425  1.00  0.00     0.029 A 
ATOM     19  N   UNL     1      -3.787  -0.198  -1.725  1.00  0.00    -0.354 N 
ATOM     20  C   UNL     1      -3.489   1.541   2.308  1.00  0.00     0.074 A 
ATOM     21  C   UNL     1      -2.284   1.092   2.965  1.00  0.00     0.031 C 
ATOM     22  C   UNL     1      -2.935  -1.284  -3.489  1.00  0.00     0.029 A 
ATOM     23  C   UNL     1      -4.026  -0.415  -3.062  1.00  0.00     0.049 A 
ATOM     24  H   UNL     1      -4.357   0.373  -1.161  1.00  0.00     0.167 HD
ATOM     25  C   UNL     1      -4.352   2.444   2.822  1.00  0.00     0.037 A 
ATOM     26  C   UNL     1      -5.031   0.029  -3.840  1.00  0.00     0.037 A 
ATOM     27  C   UNL     1      -5.547   2.850   2.136  1.00  0.00     0.049 A 
ATOM     28  C   UNL     1      -6.054   0.925  -3.200  1.00  0.00     0.074 A 
ATOM     29  C   UNL     1      -6.584   3.639   2.592  1.00  0.00     0.029 A 
ATOM     30  N   UNL     1      -5.855   2.488   0.829  1.00  0.00    -0.354 N 
ATOM     31  N   UNL     1      -6.050   1.439  -1.990  1.00  0.00    -0.248 NA
ATOM     32  C   UNL     1      -7.227   1.280  -4.004  1.00  0.00     0.031 C 
ATOM     33  C   UNL     1      -7.538   3.723   1.572  1.00  0.00     0.029 A 
ATOM     34  C   UNL     1      -7.073   3.028   0.463  1.00  0.00     0.049 A 
ATOM     35  H   UNL     1      -5.289   1.929   0.250  1.00  0.00     0.167 HD
ATOM     36  C   UNL     1      -7.220   2.178  -1.885  1.00  0.00     0.074 A 
ATOM     37  C   UNL     1      -7.895   2.062  -3.165  1.00  0.00     0.031 C 
ATOM     38  C   UNL     1      -7.702   2.880  -0.828  1.00  0.00     0.037 A 
BRANCH  25  39
ATOM     39  C   UNL     1      -4.066   2.949   4.206  1.00  0.00     0.058 A 
ATOM     40  C   UNL     1      -4.798   2.457   5.298  1.00  0.00     0.135 A 
ATOM     41  C   UNL     1      -3.037   3.868   4.469  1.00  0.00     0.135 A 
ATOM     42  F   UNL     1      -5.775   1.557   5.107  1.00  0.00    -0.206 F 
ATOM     43  C   UNL     1      -4.519   2.854   6.601  1.00  0.00     0.059 A 
ATOM     44  C   UNL     1      -2.727   4.264   5.768  1.00  0.00     0.059 A 
ATOM     45  F   UNL     1      -2.276   4.334   3.465  1.00  0.00    -0.206 F 
ATOM     46  C   UNL     1      -3.478   3.755   6.828  1.00  0.00     0.060 A 
BRANCH  46  47
ATOM     47  S   UNL     1      -3.075   4.192   8.533  1.00  0.00     0.124 S 
ATOM     48  O   UNL     1      -4.199   5.047   8.897  1.00  0.00    -0.237 OA
ATOM     49  O   UNL     1      -3.030   2.886   9.184  1.00  0.00    -0.237 OA
ATOM     50  O   UNL     1      -1.784   4.865   8.413  1.00  0.00    -0.744 OA
ENDBRANCH  46  47
ENDBRANCH  25  39
BRANCH  26  51
ATOM     51  C   UNL     1      -5.128  -0.413  -5.258  1.00  0.00     0.058 A 
ATOM     52  C   UNL     1      -5.327  -1.768  -5.575  1.00  0.00     0.135 A 
ATOM     53  C   UNL     1      -4.981   0.485  -6.325  1.00  0.00     0.135 A 
ATOM     54  F   UNL     1      -5.477  -2.674  -4.597  1.00  0.00    -0.206 F 
ATOM     55  C   UNL     1      -5.333  -2.222  -6.889  1.00  0.00     0.059 A 
ATOM     56  C   UNL     1      -5.011   0.059  -7.653  1.00  0.00     0.059 A 
ATOM     57  F   UNL     1      -4.805   1.793  -6.080  1.00  0.00    -0.206 F 
ATOM     58  C   UNL     1      -5.167  -1.302  -7.923  1.00  0.00     0.060 A 
BRANCH  58  59
ATOM     59  S   UNL     1      -5.160  -1.913  -9.623  1.00  0.00     0.124 S 
ATOM     60  O   UNL     1      -3.896  -2.648  -9.662  1.00  0.00    -0.237 OA
ATOM     61  O   UNL     1      -6.369  -2.737  -9.654  1.00  0.00    -0.237 OA
ATOM     62  O   UNL     1      -5.208  -0.701 -10.421  1.00  0.00    -0.744 OA
ENDBRANCH  58  59
ENDBRANCH  26  51
BRANCH  38  63
ATOM     63  C   UNL     1      -9.012   3.581  -1.019  1.00  0.00     0.058 A 
ATOM     64  C   UNL     1      -9.055   4.979  -1.127  1.00  0.00     0.135 A 
ATOM     65  C   UNL     1     -10.225   2.877  -1.003  1.00  0.00     0.135 A 
ATOM     66  F   UNL     1      -7.918   5.693  -1.140  1.00  0.00    -0.206 F 
ATOM     67  C   UNL     1     -10.263   5.660  -1.190  1.00  0.00     0.059 A 
ATOM     68  C   UNL     1     -11.445   3.537  -1.091  1.00  0.00     0.059 A 
ATOM     69  F   UNL     1     -10.227   1.537  -0.912  1.00  0.00    -0.206 F 
ATOM     70  C   UNL     1     -11.452   4.930  -1.165  1.00  0.00     0.060 A 
BRANCH  70  71
ATOM     71  S   UNL     1     -13.013   5.830  -1.252  1.00  0.00     0.124 S 
ATOM     72  O   UNL     1     -13.092   6.416   0.082  1.00  0.00    -0.237 OA
ATOM     73  O   UNL     1     -12.768   6.767  -2.344  1.00  0.00    -0.237 OA
ATOM     74  O   UNL     1     -13.990   4.785  -1.540  1.00  0.00    -0.744 OA
ENDBRANCH  70  71
ENDBRANCH  38  63
ENDBRANCH  12  13
ENDBRANCH   5   7
ENDBRANCH   4   5
ENDBRANCH   3   4
ENDBRANCH   2   3
ENDBRANCH   1   2
BRANCH   1  75
ATOM     75  C   UNL     1       4.019  -2.689  -2.272  1.00  0.00     0.202 C 
BRANCH  75  76
ATOM     76  C   UNL     1       4.374  -3.238  -3.652  1.00  0.00     0.261 C 
BRANCH  76  77
ATOM     77  O   UNL     1       5.738  -2.878  -3.901  1.00  0.00    -0.463 OA
BRANCH  77  78
ATOM     78  C   UNL     1       5.913  -1.656  -4.447  1.00  0.00     0.310 C 
ATOM     79  O   UNL     1       5.115  -1.086  -5.189  1.00  0.00    -0.252 OA
BRANCH  78  80
ATOM     80  C   UNL     1       7.240  -1.051  -4.062  1.00  0.00     0.115 C 
ATOM     81  C   UNL     1       7.806  -1.478  -2.694  1.00  0.00     0.043 C 
ATOM     82  C   UNL     1       8.221  -1.251  -5.215  1.00  0.00     0.097 C 
ATOM     83  C   UNL     1       8.648  -2.709  -2.715  1.00  0.00    -0.030 C 
ATOM     84  C   UNL     1       8.787  -2.689  -5.209  1.00  0.00     0.041 C 
ATOM     85  C   UNL     1       9.066  -3.273  -3.853  1.00  0.00    -0.030 C 
BRANCH  82  86
ATOM     86  C   UNL     1       9.311  -0.188  -5.150  1.00  0.00     0.224 C 
ATOM     87  O   UNL     1      10.460  -0.444  -4.785  1.00  0.00    -0.275 OA
ATOM     88  N   UNL     1       9.049   1.099  -5.513  1.00  0.00    -0.344 N 
ATOM     89  H   UNL     1       9.828   1.698  -5.454  1.00  0.00     0.164 HD
BRANCH  88  90
ATOM     90  C   UNL     1       7.819   1.761  -5.978  1.00  0.00     0.172 C 
ATOM     91  C   UNL     1       8.130   2.521  -7.261  1.00  0.00     0.037 C 
ATOM     92  C   UNL     1       7.218   2.651  -4.850  1.00  0.00     0.249 C 
ATOM     93  C   UNL     1       6.945   3.372  -7.671  1.00  0.00     0.025 C 
ATOM     94  N   UNL     1       6.495   3.784  -5.250  1.00  0.00    -0.308 N 
ATOM     95  O   UNL     1       7.259   2.244  -3.684  1.00  0.00    -0.272 OA
ATOM     96  C   UNL     1       6.656   4.383  -6.578  1.00  0.00     0.126 C 
BRANCH  94  97
ATOM     97  C   UNL     1       5.751   4.547  -4.285  1.00  0.00     0.080 A 
ATOM     98  C   UNL     1       4.476   5.032  -4.618  1.00  0.00     0.029 A 
ATOM     99  C   UNL     1       6.232   4.809  -2.991  1.00  0.00     0.146 A 
ATOM    100  C   UNL     1       3.697   5.714  -3.674  1.00  0.00     0.002 A 
ATOM    101  C   UNL     1       5.455   5.481  -2.047  1.00  0.00     0.041 A 
ATOM    102  F   UNL     1       7.496   4.512  -2.651  1.00  0.00    -0.205 F 
ATOM    103  C   UNL     1       4.181   5.927  -2.386  1.00  0.00     0.003 A 
ENDBRANCH  94  97
ENDBRANCH  88  90
ENDBRANCH  82  86
ENDBRANCH  78  80
ENDBRANCH  77  78
ENDBRANCH  76  77
ENDBRANCH  75  76
ENDBRANCH   1  75
TORSDOF 20
