REMARK SMILES CC(C)C[C@H](NC(=O)[C@H](C)NC(=O)[C@@H](NC(=O)CNC(=O)OCc1ccccc1)C(C)C)C(=O)OCCOCCOC(=O)c1ccc(-c2c3nc(c(-c4c(F)cc(S(=O)(=O)[O-])cc4F)c4ccc([nH]4)c(-c4c(F)cc(S(=O)(=O)[O-])cc4F)c4nc(c(-c5c(F)cc(S(=O)(=O)[O-])cc5F)c5ccc2[nH]5)C=C4)C=C3)cc1
REMARK SMILES IDX 33 1 34 2 5 3 4 4 2 5 1 6 3 7 6 8 7 9 8 11 9 12 10 13 11 14
REMARK SMILES IDX 12 15 13 17 14 18 15 19 16 20 17 22 18 23 19 24 20 25 21 27
REMARK SMILES IDX 22 28 23 29 24 30 25 31 29 32 26 33 28 34 27 35 30 36 31 37
REMARK SMILES IDX 32 38 35 39 36 40 37 41 38 42 39 43 40 44 41 45 42 46 43 47
REMARK SMILES IDX 44 48 45 49 109 50 46 51 108 52 47 53 48 54 49 55 102 56
REMARK SMILES IDX 50 57 107 58 101 59 103 60 51 61 106 62 100 63 99 64 52 66
REMARK SMILES IDX 86 67 65 68 85 69 66 70 69 71 84 72 104 73 67 74 68 75 83 77
REMARK SMILES IDX 105 78 70 79 53 80 54 81 63 82 55 83 56 84 62 85 64 86 57 87
REMARK SMILES IDX 58 88 59 89 60 90 61 91 87 92 88 93 97 94 89 95 90 96 96 97
REMARK SMILES IDX 98 98 91 99 92 100 93 101 94 102 95 103 71 104 72 105 81 106
REMARK SMILES IDX 73 107 74 108 80 109 82 110 75 111 76 112 77 113 78 114
REMARK SMILES IDX 79 115
REMARK H PARENT 6 10 11 16 15 21 19 26 103 65 69 76
REMARK Flexibility Score: inf
ROOT
ATOM      1  C   UNL     1      -2.699   1.752   4.115  1.00  0.00     0.328 C 
ATOM      2  O   UNL     1      -3.604   2.049   4.890  1.00  0.00    -0.250 OA
ENDROOT
BRANCH   1   3
ATOM      3  C   UNL     1      -2.254   2.710   2.998  1.00  0.00     0.192 C 
BRANCH   3   4
ATOM      4  C   UNL     1      -3.318   2.693   1.881  1.00  0.00     0.040 C 
BRANCH   4   5
ATOM      5  C   UNL     1      -3.269   1.594   0.795  1.00  0.00    -0.015 C 
ATOM      6  C   UNL     1      -3.111   0.162   1.301  1.00  0.00     0.007 C 
ATOM      7  C   UNL     1      -4.556   1.688  -0.034  1.00  0.00     0.007 C 
ENDBRANCH   4   5
ENDBRANCH   3   4
BRANCH   3   8
ATOM      8  N   UNL     1      -0.890   2.655   2.454  1.00  0.00    -0.341 N 
ATOM      9  C   UNL     1      -0.076   3.741   2.222  1.00  0.00     0.242 C 
ATOM     10  H   UNL     1      -0.527   1.766   2.238  1.00  0.00     0.164 HD
ATOM     11  O   UNL     1       0.427   3.837   1.099  1.00  0.00    -0.273 OA
BRANCH   9  12
ATOM     12  C   UNL     1       0.387   4.683   3.386  1.00  0.00     0.168 C 
ATOM     13  C   UNL     1      -0.676   5.204   4.333  1.00  0.00     0.041 C 
BRANCH  12  14
ATOM     14  N   UNL     1       1.145   5.815   2.848  1.00  0.00    -0.343 N 
ATOM     15  C   UNL     1       2.194   6.533   3.327  1.00  0.00     0.243 C 
ATOM     16  H   UNL     1       0.832   6.115   1.964  1.00  0.00     0.164 HD
ATOM     17  O   UNL     1       2.465   7.571   2.707  1.00  0.00    -0.273 OA
BRANCH  15  18
ATOM     18  C   UNL     1       3.152   6.067   4.475  1.00  0.00     0.174 C 
BRANCH  18  19
ATOM     19  N   UNL     1       2.500   5.348   5.594  1.00  0.00    -0.343 N 
ATOM     20  C   UNL     1       2.516   4.098   6.132  1.00  0.00     0.240 C 
ATOM     21  H   UNL     1       1.884   5.939   6.085  1.00  0.00     0.164 HD
ATOM     22  O   UNL     1       1.726   3.912   7.066  1.00  0.00    -0.273 OA
BRANCH  20  23
ATOM     23  C   UNL     1       3.408   2.942   5.648  1.00  0.00     0.219 C 
BRANCH  23  24
ATOM     24  N   UNL     1       3.032   2.551   4.309  1.00  0.00    -0.312 N 
ATOM     25  C   UNL     1       3.806   2.232   3.244  1.00  0.00     0.407 C 
ATOM     26  H   UNL     1       2.062   2.510   4.145  1.00  0.00     0.167 HD
ATOM     27  O   UNL     1       3.291   2.160   2.135  1.00  0.00    -0.225 OA
BRANCH  25  28
ATOM     28  O   UNL     1       5.117   2.108   3.535  1.00  0.00    -0.445 OA
BRANCH  28  29
ATOM     29  C   UNL     1       5.982   2.138   2.389  1.00  0.00     0.270 C 
BRANCH  29  30
ATOM     30  C   UNL     1       5.925   0.934   1.478  1.00  0.00    -0.011 A 
ATOM     31  C   UNL     1       5.296  -0.263   1.848  1.00  0.00     0.007 A 
ATOM     32  C   UNL     1       6.505   1.027   0.203  1.00  0.00     0.007 A 
ATOM     33  C   UNL     1       5.197  -1.319   0.943  1.00  0.00     0.000 A 
ATOM     34  C   UNL     1       6.420  -0.037  -0.695  1.00  0.00     0.000 A 
ATOM     35  C   UNL     1       5.754  -1.204  -0.329  1.00  0.00     0.000 A 
ENDBRANCH  29  30
ENDBRANCH  28  29
ENDBRANCH  25  28
ENDBRANCH  23  24
ENDBRANCH  20  23
ENDBRANCH  18  19
BRANCH  18  36
ATOM     36  C   UNL     1       4.463   5.448   3.949  1.00  0.00     0.015 C 
ATOM     37  C   UNL     1       5.019   6.031   2.649  1.00  0.00     0.010 C 
ATOM     38  C   UNL     1       5.569   5.405   5.009  1.00  0.00     0.010 C 
ENDBRANCH  18  36
ENDBRANCH  15  18
ENDBRANCH  12  14
ENDBRANCH   9  12
ENDBRANCH   3   8
ENDBRANCH   1   3
BRANCH   1  39
ATOM     39  O   UNL     1      -2.075   0.548   4.080  1.00  0.00    -0.462 OA
BRANCH  39  40
ATOM     40  C   UNL     1      -2.474  -0.381   5.105  1.00  0.00     0.261 C 
BRANCH  40  41
ATOM     41  C   UNL     1      -1.272  -1.035   5.784  1.00  0.00     0.202 C 
BRANCH  41  42
ATOM     42  O   UNL     1      -0.289  -0.167   6.339  1.00  0.00    -0.374 OA
BRANCH  42  43
ATOM     43  C   UNL     1       0.367   0.738   5.466  1.00  0.00     0.202 C 
BRANCH  43  44
ATOM     44  C   UNL     1       1.251   0.185   4.342  1.00  0.00     0.261 C 
BRANCH  44  45
ATOM     45  O   UNL     1       0.832  -1.017   3.729  1.00  0.00    -0.460 OA
BRANCH  45  46
ATOM     46  C   UNL     1       1.555  -2.091   4.117  1.00  0.00     0.338 C 
ATOM     47  O   UNL     1       2.420  -2.166   4.965  1.00  0.00    -0.246 OA
BRANCH  46  48
ATOM     48  C   UNL     1       1.032  -3.219   3.360  1.00  0.00     0.060 A 
ATOM     49  C   UNL     1       0.314  -4.190   4.055  1.00  0.00     0.016 A 
ATOM     50  C   UNL     1       1.262  -3.297   1.984  1.00  0.00     0.016 A 
ATOM     51  C   UNL     1      -0.150  -5.294   3.364  1.00  0.00     0.010 A 
ATOM     52  C   UNL     1       0.789  -4.403   1.292  1.00  0.00     0.010 A 
ATOM     53  C   UNL     1       0.113  -5.415   1.991  1.00  0.00    -0.014 A 
BRANCH  53  54
ATOM     54  C   UNL     1      -0.237  -6.676   1.319  1.00  0.00     0.031 A 
ATOM     55  C   UNL     1       0.851  -7.669   1.037  1.00  0.00     0.074 A 
ATOM     56  C   UNL     1      -1.526  -6.929   1.040  1.00  0.00     0.049 A 
ATOM     57  N   UNL     1       0.762  -8.852   0.494  1.00  0.00    -0.248 NA
ATOM     58  C   UNL     1       2.221  -7.278   1.414  1.00  0.00     0.031 C 
ATOM     59  C   UNL     1      -2.640  -6.014   1.302  1.00  0.00     0.029 A 
ATOM     60  N   UNL     1      -2.117  -8.030   0.487  1.00  0.00    -0.354 N 
ATOM     61  C   UNL     1       2.058  -9.351   0.471  1.00  0.00     0.074 A 
ATOM     62  C   UNL     1       2.924  -8.327   1.010  1.00  0.00     0.031 C 
ATOM     63  C   UNL     1      -3.784  -6.599   0.915  1.00  0.00     0.029 A 
ATOM     64  C   UNL     1      -3.478  -7.909   0.349  1.00  0.00     0.049 A 
ATOM     65  H   UNL     1      -1.616  -8.833   0.214  1.00  0.00     0.167 HD
ATOM     66  C   UNL     1       2.476 -10.567   0.052  1.00  0.00     0.037 A 
ATOM     67  C   UNL     1      -4.366  -8.761  -0.193  1.00  0.00     0.037 A 
ATOM     68  C   UNL     1       1.588 -11.567  -0.481  1.00  0.00     0.049 A 
ATOM     69  C   UNL     1      -3.862 -10.086  -0.700  1.00  0.00     0.074 A 
ATOM     70  C   UNL     1       1.893 -12.838  -0.933  1.00  0.00     0.029 A 
ATOM     71  N   UNL     1       0.218 -11.404  -0.636  1.00  0.00    -0.354 N 
ATOM     72  N   UNL     1      -2.638 -10.561  -0.692  1.00  0.00    -0.248 NA
ATOM     73  C   UNL     1      -4.858 -10.994  -1.281  1.00  0.00     0.031 C 
ATOM     74  C   UNL     1       0.716 -13.423  -1.411  1.00  0.00     0.029 A 
ATOM     75  C   UNL     1      -0.334 -12.542  -1.199  1.00  0.00     0.049 A 
ATOM     76  H   UNL     1      -0.287 -10.598  -0.383  1.00  0.00     0.167 HD
ATOM     77  C   UNL     1      -2.720 -11.833  -1.246  1.00  0.00     0.074 A 
ATOM     78  C   UNL     1      -4.119 -12.061  -1.549  1.00  0.00     0.031 C 
ATOM     79  C   UNL     1      -1.734 -12.733  -1.489  1.00  0.00     0.037 A 
BRANCH  66  80
ATOM     80  C   UNL     1       3.944 -10.879   0.142  1.00  0.00     0.058 A 
ATOM     81  C   UNL     1       4.581 -11.089   1.375  1.00  0.00     0.135 A 
ATOM     82  C   UNL     1       4.713 -11.026  -1.024  1.00  0.00     0.135 A 
ATOM     83  F   UNL     1       3.901 -10.935   2.523  1.00  0.00    -0.206 F 
ATOM     84  C   UNL     1       5.928 -11.431   1.450  1.00  0.00     0.059 A 
ATOM     85  C   UNL     1       6.054 -11.394  -0.974  1.00  0.00     0.059 A 
ATOM     86  F   UNL     1       4.159 -10.823  -2.229  1.00  0.00    -0.206 F 
ATOM     87  C   UNL     1       6.654 -11.592   0.269  1.00  0.00     0.060 A 
BRANCH  87  88
ATOM     88  S   UNL     1       8.386 -12.086   0.384  1.00  0.00     0.124 S 
ATOM     89  O   UNL     1       8.998 -10.883   0.942  1.00  0.00    -0.237 OA
ATOM     90  O   UNL     1       8.321 -13.236   1.280  1.00  0.00    -0.237 OA
ATOM     91  O   UNL     1       8.747 -12.389  -0.997  1.00  0.00    -0.744 OA
ENDBRANCH  87  88
ENDBRANCH  66  80
BRANCH  67  92
ATOM     92  C   UNL     1      -5.800  -8.384  -0.298  1.00  0.00     0.058 A 
ATOM     93  C   UNL     1      -6.792  -9.070   0.416  1.00  0.00     0.135 A 
ATOM     94  C   UNL     1      -6.208  -7.330  -1.133  1.00  0.00     0.135 A 
ATOM     95  F   UNL     1      -6.454 -10.083   1.228  1.00  0.00    -0.206 F 
ATOM     96  C   UNL     1      -8.140  -8.752   0.280  1.00  0.00     0.059 A 
ATOM     97  C   UNL     1      -7.545  -6.971  -1.260  1.00  0.00     0.059 A 
ATOM     98  F   UNL     1      -5.298  -6.625  -1.822  1.00  0.00    -0.206 F 
ATOM     99  C   UNL     1      -8.506  -7.702  -0.564  1.00  0.00     0.060 A 
BRANCH  99 100
ATOM    100  S   UNL     1     -10.256  -7.290  -0.726  1.00  0.00     0.124 S 
ATOM    101  O   UNL     1     -10.749  -8.415  -1.512  1.00  0.00    -0.237 OA
ATOM    102  O   UNL     1     -10.689  -7.242   0.666  1.00  0.00    -0.237 OA
ATOM    103  O   UNL     1     -10.234  -6.001  -1.412  1.00  0.00    -0.744 OA
ENDBRANCH  99 100
ENDBRANCH  67  92
BRANCH  79 104
ATOM    104  C   UNL     1      -2.149 -14.049  -2.087  1.00  0.00     0.058 A 
ATOM    105  C   UNL     1      -2.607 -14.146  -3.410  1.00  0.00     0.135 A 
ATOM    106  C   UNL     1      -2.069 -15.229  -1.331  1.00  0.00     0.135 A 
ATOM    107  F   UNL     1      -2.706 -13.046  -4.174  1.00  0.00    -0.206 F 
ATOM    108  C   UNL     1      -3.017 -15.361  -3.948  1.00  0.00     0.059 A 
ATOM    109  C   UNL     1      -2.438 -16.460  -1.860  1.00  0.00     0.059 A 
ATOM    110  F   UNL     1      -1.622 -15.194  -0.065  1.00  0.00    -0.206 F 
ATOM    111  C   UNL     1      -2.930 -16.512  -3.163  1.00  0.00     0.060 A 
BRANCH 111 112
ATOM    112  S   UNL     1      -3.464 -18.082  -3.874  1.00  0.00     0.124 S 
ATOM    113  O   UNL     1      -4.914 -17.919  -3.887  1.00  0.00    -0.237 OA
ATOM    114  O   UNL     1      -2.813 -18.070  -5.180  1.00  0.00    -0.237 OA
ATOM    115  O   UNL     1      -2.952 -19.073  -2.933  1.00  0.00    -0.744 OA
ENDBRANCH 111 112
ENDBRANCH  79 104
ENDBRANCH  53  54
ENDBRANCH  46  48
ENDBRANCH  45  46
ENDBRANCH  44  45
ENDBRANCH  43  44
ENDBRANCH  42  43
ENDBRANCH  41  42
ENDBRANCH  40  41
ENDBRANCH  39  40
ENDBRANCH   1  39
TORSDOF 30
