REMARK SMILES C[C@H]1OCC[C@H]1C(=O)N1CCCC[C@@H]1CC(=O)OCCOCCOC(=O)c1ccc(-c2c3nc(c(-c4c(F)cc(S(=O)(=O)[O-])cc4F)c4ccc([nH]4)c(-c4c(F)cc(S(=O)(=O)[O-])cc4F)c4nc(c(-c5c(F)cc(S(=O)(=O)[O-])cc5F)c5ccc2[nH]5)C=C4)C=C3)cc1
REMARK SMILES IDX 21 1 20 2 19 3 18 4 16 5 17 6 15 7 14 8 9 9 10 10 11 11
REMARK SMILES IDX 13 12 12 13 7 14 8 15 6 16 1 17 2 18 3 19 4 20 5 21 22 22
REMARK SMILES IDX 23 23 24 24 25 25 26 26 27 27 28 28 92 29 29 30 91 31 30 32
REMARK SMILES IDX 31 33 32 34 85 35 33 36 90 37 84 38 86 39 34 40 89 41 83 42
REMARK SMILES IDX 82 43 35 45 69 46 48 47 68 48 49 49 52 50 67 51 87 52 50 53
REMARK SMILES IDX 51 54 66 56 88 57 53 58 36 59 37 60 46 61 38 62 39 63 45 64
REMARK SMILES IDX 47 65 40 66 41 67 42 68 43 69 44 70 70 71 71 72 80 73 72 74
REMARK SMILES IDX 73 75 79 76 81 77 74 78 75 79 76 80 77 81 78 82 54 83 55 84
REMARK SMILES IDX 64 85 56 86 57 87 63 88 65 89 58 90 59 91 60 92 61 93 62 94
REMARK H PARENT 86 44 52 55
REMARK Flexibility Score: inf
ROOT
ATOM      1  O   UNL     1       2.904   4.577  -1.532  1.00  0.00    -0.374 OA
ENDROOT
BRANCH   1   2
ATOM      2  C   UNL     1       4.095   4.372  -2.287  1.00  0.00     0.202 C 
BRANCH   2   3
ATOM      3  C   UNL     1       4.775   3.004  -2.174  1.00  0.00     0.261 C 
BRANCH   3   4
ATOM      4  O   UNL     1       3.884   1.915  -2.467  1.00  0.00    -0.463 OA
BRANCH   4   5
ATOM      5  C   UNL     1       3.715   1.052  -1.440  1.00  0.00     0.307 C 
ATOM      6  O   UNL     1       4.322   1.104  -0.373  1.00  0.00    -0.252 OA
BRANCH   5   7
ATOM      7  C   UNL     1       2.671  -0.001  -1.659  1.00  0.00     0.147 C 
BRANCH   7   8
ATOM      8  C   UNL     1       1.648   0.041  -2.796  1.00  0.00     0.096 C 
ATOM      9  N   UNL     1       0.453  -0.817  -2.494  1.00  0.00    -0.339 N 
ATOM     10  C   UNL     1      -0.485  -1.037  -3.594  1.00  0.00     0.120 C 
ATOM     11  C   UNL     1       0.219  -1.482  -4.872  1.00  0.00     0.022 C 
ATOM     12  C   UNL     1       2.306  -0.329  -4.136  1.00  0.00     0.026 C 
ATOM     13  C   UNL     1       1.285  -0.467  -5.262  1.00  0.00     0.004 C 
BRANCH   9  14
ATOM     14  C   UNL     1       0.495  -1.804  -1.514  1.00  0.00     0.228 C 
ATOM     15  O   UNL     1       1.225  -2.788  -1.630  1.00  0.00    -0.274 OA
BRANCH  14  16
ATOM     16  C   UNL     1      -0.369  -1.605  -0.248  1.00  0.00     0.109 C 
ATOM     17  C   UNL     1       1.732  -1.215   1.301  1.00  0.00     0.039 C 
ATOM     18  C   UNL     1       0.298  -0.874   0.919  1.00  0.00     0.127 C 
ATOM     19  O   UNL     1       0.132   0.531   0.638  1.00  0.00    -0.378 OA
ATOM     20  C   UNL     1      -1.056   0.677  -0.155  1.00  0.00     0.161 C 
ATOM     21  C   UNL     1      -1.590  -0.719  -0.426  1.00  0.00     0.044 C 
ENDBRANCH  14  16
ENDBRANCH   9  14
ENDBRANCH   7   8
ENDBRANCH   5   7
ENDBRANCH   4   5
ENDBRANCH   3   4
ENDBRANCH   2   3
ENDBRANCH   1   2
BRANCH   1  22
ATOM     22  C   UNL     1       1.728   3.870  -1.924  1.00  0.00     0.202 C 
BRANCH  22  23
ATOM     23  C   UNL     1       1.184   4.122  -3.338  1.00  0.00     0.261 C 
BRANCH  23  24
ATOM     24  O   UNL     1       2.043   3.598  -4.371  1.00  0.00    -0.460 OA
BRANCH  24  25
ATOM     25  C   UNL     1       2.457   4.516  -5.285  1.00  0.00     0.338 C 
ATOM     26  O   UNL     1       2.122   5.685  -5.354  1.00  0.00    -0.246 OA
BRANCH  25  27
ATOM     27  C   UNL     1       3.546   3.962  -6.111  1.00  0.00     0.060 A 
ATOM     28  C   UNL     1       4.809   4.562  -6.015  1.00  0.00     0.016 A 
ATOM     29  C   UNL     1       3.303   2.967  -7.058  1.00  0.00     0.016 A 
ATOM     30  C   UNL     1       5.827   4.191  -6.891  1.00  0.00     0.010 A 
ATOM     31  C   UNL     1       4.323   2.607  -7.947  1.00  0.00     0.010 A 
ATOM     32  C   UNL     1       5.579   3.241  -7.889  1.00  0.00    -0.014 A 
BRANCH  32  33
ATOM     33  C   UNL     1       6.583   3.034  -8.963  1.00  0.00     0.031 A 
ATOM     34  C   UNL     1       6.391   3.733 -10.284  1.00  0.00     0.074 A 
ATOM     35  C   UNL     1       7.676   2.280  -8.749  1.00  0.00     0.049 A 
ATOM     36  N   UNL     1       7.116   3.667 -11.370  1.00  0.00    -0.248 NA
ATOM     37  C   UNL     1       5.229   4.631 -10.391  1.00  0.00     0.031 C 
ATOM     38  C   UNL     1       8.005   1.604  -7.495  1.00  0.00     0.029 A 
ATOM     39  N   UNL     1       8.715   1.956  -9.586  1.00  0.00    -0.354 N 
ATOM     40  C   UNL     1       6.505   4.515 -12.287  1.00  0.00     0.074 A 
ATOM     41  C   UNL     1       5.329   5.058 -11.642  1.00  0.00     0.031 C 
ATOM     42  C   UNL     1       9.163   0.938  -7.647  1.00  0.00     0.029 A 
ATOM     43  C   UNL     1       9.639   1.111  -9.018  1.00  0.00     0.049 A 
ATOM     44  H   UNL     1       8.792   2.297 -10.507  1.00  0.00     0.167 HD
ATOM     45  C   UNL     1       6.896   4.825 -13.546  1.00  0.00     0.037 A 
ATOM     46  C   UNL     1      10.731   0.528  -9.553  1.00  0.00     0.037 A 
ATOM     47  C   UNL     1       8.065   4.279 -14.186  1.00  0.00     0.049 A 
ATOM     48  C   UNL     1      11.088   0.810 -10.992  1.00  0.00     0.074 A 
ATOM     49  C   UNL     1       8.534   4.514 -15.467  1.00  0.00     0.029 A 
ATOM     50  N   UNL     1       8.950   3.392 -13.593  1.00  0.00    -0.354 N 
ATOM     51  N   UNL     1      10.495   1.607 -11.849  1.00  0.00    -0.248 NA
ATOM     52  C   UNL     1      12.262   0.112 -11.536  1.00  0.00     0.031 C 
ATOM     53  C   UNL     1       9.681   3.738 -15.662  1.00  0.00     0.029 A 
ATOM     54  C   UNL     1       9.954   3.057 -14.487  1.00  0.00     0.049 A 
ATOM     55  H   UNL     1       8.876   3.050 -12.673  1.00  0.00     0.167 HD
ATOM     56  C   UNL     1      11.245   1.533 -13.019  1.00  0.00     0.074 A 
ATOM     57  C   UNL     1      12.338   0.621 -12.758  1.00  0.00     0.031 C 
ATOM     58  C   UNL     1      11.049   2.164 -14.203  1.00  0.00     0.037 A 
BRANCH  45  59
ATOM     59  C   UNL     1       6.048   5.792 -14.325  1.00  0.00     0.058 A 
ATOM     60  C   UNL     1       6.039   7.164 -14.028  1.00  0.00     0.135 A 
ATOM     61  C   UNL     1       5.278   5.352 -15.414  1.00  0.00     0.135 A 
ATOM     62  F   UNL     1       6.741   7.634 -12.985  1.00  0.00    -0.206 F 
ATOM     63  C   UNL     1       5.287   8.064 -14.775  1.00  0.00     0.059 A 
ATOM     64  C   UNL     1       4.537   6.239 -16.190  1.00  0.00     0.059 A 
ATOM     65  F   UNL     1       5.247   4.050 -15.737  1.00  0.00    -0.206 F 
ATOM     66  C   UNL     1       4.541   7.592 -15.857  1.00  0.00     0.060 A 
BRANCH  66  67
ATOM     67  S   UNL     1       3.589   8.778 -16.830  1.00  0.00     0.124 S 
ATOM     68  O   UNL     1       2.509   9.111 -15.906  1.00  0.00    -0.237 OA
ATOM     69  O   UNL     1       4.564   9.836 -17.073  1.00  0.00    -0.237 OA
ATOM     70  O   UNL     1       3.192   8.012 -18.007  1.00  0.00    -0.744 OA
ENDBRANCH  66  67
ENDBRANCH  45  59
BRANCH  46  71
ATOM     71  C   UNL     1      11.561  -0.405  -8.743  1.00  0.00     0.058 A 
ATOM     72  C   UNL     1      12.881  -0.085  -8.393  1.00  0.00     0.135 A 
ATOM     73  C   UNL     1      11.066  -1.657  -8.344  1.00  0.00     0.135 A 
ATOM     74  F   UNL     1      13.404   1.095  -8.760  1.00  0.00    -0.206 F 
ATOM     75  C   UNL     1      13.692  -0.982  -7.705  1.00  0.00     0.059 A 
ATOM     76  C   UNL     1      11.848  -2.560  -7.631  1.00  0.00     0.059 A 
ATOM     77  F   UNL     1       9.807  -2.010  -8.645  1.00  0.00    -0.206 F 
ATOM     78  C   UNL     1      13.167  -2.221  -7.333  1.00  0.00     0.060 A 
BRANCH  78  79
ATOM     79  S   UNL     1      14.224  -3.379  -6.438  1.00  0.00     0.124 S 
ATOM     80  O   UNL     1      15.104  -3.852  -7.499  1.00  0.00    -0.237 OA
ATOM     81  O   UNL     1      14.840  -2.519  -5.432  1.00  0.00    -0.237 OA
ATOM     82  O   UNL     1      13.278  -4.361  -5.917  1.00  0.00    -0.744 OA
ENDBRANCH  78  79
ENDBRANCH  46  71
BRANCH  58  83
ATOM     83  C   UNL     1      12.060   1.933 -15.293  1.00  0.00     0.058 A 
ATOM     84  C   UNL     1      12.127   0.720 -15.995  1.00  0.00     0.135 A 
ATOM     85  C   UNL     1      12.938   2.961 -15.674  1.00  0.00     0.135 A 
ATOM     86  F   UNL     1      11.314  -0.297 -15.667  1.00  0.00    -0.206 F 
ATOM     87  C   UNL     1      13.043   0.526 -17.024  1.00  0.00     0.059 A 
ATOM     88  C   UNL     1      13.844   2.799 -16.718  1.00  0.00     0.059 A 
ATOM     89  F   UNL     1      12.909   4.145 -15.042  1.00  0.00    -0.206 F 
ATOM     90  C   UNL     1      13.897   1.573 -17.380  1.00  0.00     0.060 A 
BRANCH  90  91
ATOM     91  S   UNL     1      15.055   1.321 -18.742  1.00  0.00     0.124 S 
ATOM     92  O   UNL     1      16.052   0.454 -18.123  1.00  0.00    -0.237 OA
ATOM     93  O   UNL     1      14.213   0.696 -19.757  1.00  0.00    -0.237 OA
ATOM     94  O   UNL     1      15.508   2.673 -19.058  1.00  0.00    -0.744 OA
ENDBRANCH  90  91
ENDBRANCH  58  83
ENDBRANCH  32  33
ENDBRANCH  25  27
ENDBRANCH  24  25
ENDBRANCH  23  24
ENDBRANCH  22  23
ENDBRANCH   1  22
TORSDOF 20
