REMARK SMILES O=C(CCc1ccc(S(=O)(=O)Nc2cccc(I)c2)cc1)OCCOCCOC(=O)c1ccc(-c2c3nc(c(-c4c(F)cc(S(=O)(=O)[O-])cc4F)c4ccc([nH]4)c(-c4c(F)cc(S(=O)(=O)[O-])cc4F)c4nc(c(-c5c(F)cc(S(=O)(=O)[O-])cc5F)c5ccc2[nH]5)C=C4)C=C3)cc1
REMARK SMILES IDX 24 1 23 2 22 3 2 4 1 5 3 6 4 7 5 8 6 9 21 10 7 11 20 12 8 13
REMARK SMILES IDX 9 14 10 15 11 16 12 17 13 19 14 20 19 21 15 22 17 23 16 24
REMARK SMILES IDX 18 25 25 26 26 27 27 28 28 29 29 30 30 31 31 32 32 33 96 34
REMARK SMILES IDX 33 35 95 36 34 37 35 38 36 39 89 40 37 41 94 42 88 43 90 44
REMARK SMILES IDX 38 45 93 46 87 47 86 48 39 50 73 51 52 52 72 53 53 54 56 55
REMARK SMILES IDX 71 56 91 57 54 58 55 59 70 61 92 62 57 63 40 64 41 65 50 66
REMARK SMILES IDX 42 67 43 68 49 69 51 70 44 71 45 72 46 73 47 74 48 75 74 76
REMARK SMILES IDX 75 77 84 78 76 79 77 80 83 81 85 82 78 83 79 84 80 85 81 86
REMARK SMILES IDX 82 87 58 88 59 89 68 90 60 91 61 92 67 93 69 94 62 95 63 96
REMARK SMILES IDX 64 97 65 98 66 99
REMARK H PARENT 12 18 90 49 56 60
REMARK Flexibility Score: inf
ROOT
ATOM      1  C   UNL     1       4.330   0.398  -1.349  1.00  0.00     0.202 C 
ENDROOT
BRANCH   1   2
ATOM      2  C   UNL     1       3.588  -0.840  -0.837  1.00  0.00     0.261 C 
BRANCH   2   3
ATOM      3  O   UNL     1       2.321  -0.648  -0.170  1.00  0.00    -0.463 OA
BRANCH   3   4
ATOM      4  C   UNL     1       2.046  -0.054   1.003  1.00  0.00     0.306 C 
ATOM      5  O   UNL     1       0.980  -0.291   1.570  1.00  0.00    -0.252 OA
BRANCH   4   6
ATOM      6  C   UNL     1       2.991   0.955   1.586  1.00  0.00     0.127 C 
BRANCH   6   7
ATOM      7  C   UNL     1       3.753   0.408   2.788  1.00  0.00     0.047 C 
BRANCH   7   8
ATOM      8  C   UNL     1       4.852  -0.536   2.375  1.00  0.00    -0.047 A 
ATOM      9  C   UNL     1       4.761  -1.911   2.615  1.00  0.00     0.005 A 
ATOM     10  C   UNL     1       5.943  -0.043   1.654  1.00  0.00     0.005 A 
ATOM     11  C   UNL     1       5.753  -2.777   2.142  1.00  0.00     0.022 A 
ATOM     12  C   UNL     1       6.871  -0.916   1.094  1.00  0.00     0.022 A 
ATOM     13  C   UNL     1       6.818  -2.277   1.384  1.00  0.00     0.087 A 
BRANCH  13  14
ATOM     14  S   UNL     1       8.102  -3.425   0.919  1.00  0.00     0.261 S 
ATOM     15  O   UNL     1       8.838  -3.739   2.122  1.00  0.00    -0.201 OA
ATOM     16  O   UNL     1       7.444  -4.448   0.131  1.00  0.00    -0.201 OA
BRANCH  14  17
ATOM     17  N   UNL     1       9.132  -2.665  -0.158  1.00  0.00    -0.280 N 
ATOM     18  H   UNL     1       9.239  -3.091  -1.040  1.00  0.00     0.180 HD
BRANCH  17  19
ATOM     19  C   UNL     1       9.868  -1.471   0.065  1.00  0.00     0.050 A 
ATOM     20  C   UNL     1      10.306  -0.795  -1.080  1.00  0.00     0.027 A 
ATOM     21  C   UNL     1       9.988  -0.855   1.313  1.00  0.00     0.041 A 
ATOM     22  C   UNL     1      10.745   0.527  -0.996  1.00  0.00     0.003 A 
ATOM     23  C   UNL     1      10.379   0.484   1.385  1.00  0.00     0.015 A 
ATOM     24  C   UNL     1      10.746   1.181   0.234  1.00  0.00     0.015 A 
ATOM     25  I   UNL     1      10.260   1.492   3.202  1.00  0.00    -0.044 I 
ENDBRANCH  17  19
ENDBRANCH  14  17
ENDBRANCH  13  14
ENDBRANCH   7   8
ENDBRANCH   6   7
ENDBRANCH   4   6
ENDBRANCH   3   4
ENDBRANCH   2   3
ENDBRANCH   1   2
BRANCH   1  26
ATOM     26  O   UNL     1       3.568   1.552  -1.673  1.00  0.00    -0.374 OA
BRANCH  26  27
ATOM     27  C   UNL     1       2.400   1.383  -2.468  1.00  0.00     0.202 C 
BRANCH  27  28
ATOM     28  C   UNL     1       2.634   1.010  -3.931  1.00  0.00     0.261 C 
BRANCH  28  29
ATOM     29  O   UNL     1       3.124  -0.334  -4.072  1.00  0.00    -0.460 OA
BRANCH  29  30
ATOM     30  C   UNL     1       4.396  -0.452  -4.525  1.00  0.00     0.338 C 
ATOM     31  O   UNL     1       5.163   0.452  -4.814  1.00  0.00    -0.246 OA
BRANCH  30  32
ATOM     32  C   UNL     1       4.811  -1.865  -4.452  1.00  0.00     0.060 A 
ATOM     33  C   UNL     1       6.023  -2.172  -3.819  1.00  0.00     0.016 A 
ATOM     34  C   UNL     1       4.045  -2.870  -5.047  1.00  0.00     0.016 A 
ATOM     35  C   UNL     1       6.490  -3.486  -3.810  1.00  0.00     0.010 A 
ATOM     36  C   UNL     1       4.523  -4.182  -5.049  1.00  0.00     0.010 A 
ATOM     37  C   UNL     1       5.760  -4.491  -4.457  1.00  0.00    -0.014 A 
BRANCH  37  38
ATOM     38  C   UNL     1       6.340  -5.843  -4.638  1.00  0.00     0.031 A 
ATOM     39  C   UNL     1       6.970  -6.191  -5.959  1.00  0.00     0.074 A 
ATOM     40  C   UNL     1       6.286  -6.751  -3.647  1.00  0.00     0.049 A 
ATOM     41  N   UNL     1       7.442  -7.336  -6.375  1.00  0.00    -0.248 NA
ATOM     42  C   UNL     1       7.083  -5.101  -6.943  1.00  0.00     0.031 C 
ATOM     43  C   UNL     1       5.742  -6.512  -2.312  1.00  0.00     0.029 A 
ATOM     44  N   UNL     1       6.678  -8.066  -3.621  1.00  0.00    -0.354 N 
ATOM     45  C   UNL     1       7.895  -7.112  -7.670  1.00  0.00     0.074 A 
ATOM     46  C   UNL     1       7.628  -5.723  -7.978  1.00  0.00     0.031 C 
ATOM     47  C   UNL     1       5.808  -7.652  -1.603  1.00  0.00     0.029 A 
ATOM     48  C   UNL     1       6.366  -8.708  -2.446  1.00  0.00     0.049 A 
ATOM     49  H   UNL     1       7.138  -8.507  -4.371  1.00  0.00     0.167 HD
ATOM     50  C   UNL     1       8.481  -7.986  -8.521  1.00  0.00     0.037 A 
ATOM     51  C   UNL     1       6.488 -10.006  -2.104  1.00  0.00     0.037 A 
ATOM     52  C   UNL     1       8.742  -9.366  -8.205  1.00  0.00     0.049 A 
ATOM     53  C   UNL     1       7.079 -10.974  -3.097  1.00  0.00     0.074 A 
ATOM     54  C   UNL     1       9.356 -10.326  -8.990  1.00  0.00     0.029 A 
ATOM     55  N   UNL     1       8.396  -9.985  -7.013  1.00  0.00    -0.354 N 
ATOM     56  N   UNL     1       7.532 -10.743  -4.308  1.00  0.00    -0.248 NA
ATOM     57  C   UNL     1       7.176 -12.380  -2.680  1.00  0.00     0.031 C 
ATOM     58  C   UNL     1       9.334 -11.539  -8.293  1.00  0.00     0.029 A 
ATOM     59  C   UNL     1       8.755 -11.322  -7.053  1.00  0.00     0.049 A 
ATOM     60  H   UNL     1       7.959  -9.540  -6.251  1.00  0.00     0.167 HD
ATOM     61  C   UNL     1       7.990 -11.968  -4.784  1.00  0.00     0.074 A 
ATOM     62  C   UNL     1       7.774 -12.934  -3.727  1.00  0.00     0.031 C 
ATOM     63  C   UNL     1       8.539 -12.268  -5.987  1.00  0.00     0.037 A 
BRANCH  50  64
ATOM     64  C   UNL     1       8.862  -7.490  -9.888  1.00  0.00     0.058 A 
ATOM     65  C   UNL     1       9.958  -6.636 -10.086  1.00  0.00     0.135 A 
ATOM     66  C   UNL     1       8.159  -7.929 -11.022  1.00  0.00     0.135 A 
ATOM     67  F   UNL     1      10.650  -6.170  -9.035  1.00  0.00    -0.206 F 
ATOM     68  C   UNL     1      10.340  -6.229 -11.360  1.00  0.00     0.059 A 
ATOM     69  C   UNL     1       8.538  -7.554 -12.308  1.00  0.00     0.059 A 
ATOM     70  F   UNL     1       7.098  -8.741 -10.888  1.00  0.00    -0.206 F 
ATOM     71  C   UNL     1       9.627  -6.698 -12.466  1.00  0.00     0.060 A 
BRANCH  71  72
ATOM     72  S   UNL     1      10.158  -6.187 -14.114  1.00  0.00     0.124 S 
ATOM     73  O   UNL     1       9.759  -4.783 -14.126  1.00  0.00    -0.237 OA
ATOM     74  O   UNL     1      11.595  -6.436 -14.068  1.00  0.00    -0.237 OA
ATOM     75  O   UNL     1       9.401  -7.061 -15.003  1.00  0.00    -0.744 OA
ENDBRANCH  71  72
ENDBRANCH  50  64
BRANCH  51  76
ATOM     76  C   UNL     1       6.011 -10.481  -0.776  1.00  0.00     0.058 A 
ATOM     77  C   UNL     1       6.908 -10.951   0.194  1.00  0.00     0.135 A 
ATOM     78  C   UNL     1       4.642 -10.506  -0.464  1.00  0.00     0.135 A 
ATOM     79  F   UNL     1       8.226 -10.962  -0.061  1.00  0.00    -0.206 F 
ATOM     80  C   UNL     1       6.466 -11.456   1.413  1.00  0.00     0.059 A 
ATOM     81  C   UNL     1       4.178 -10.979   0.759  1.00  0.00     0.059 A 
ATOM     82  F   UNL     1       3.740 -10.060  -1.353  1.00  0.00    -0.206 F 
ATOM     83  C   UNL     1       5.097 -11.469   1.685  1.00  0.00     0.060 A 
BRANCH  83  84
ATOM     84  S   UNL     1       4.532 -12.117   3.274  1.00  0.00     0.124 S 
ATOM     85  O   UNL     1       4.718 -13.551   3.088  1.00  0.00    -0.237 OA
ATOM     86  O   UNL     1       5.444 -11.470   4.213  1.00  0.00    -0.237 OA
ATOM     87  O   UNL     1       3.146 -11.664   3.346  1.00  0.00    -0.744 OA
ENDBRANCH  83  84
ENDBRANCH  51  76
BRANCH  63  88
ATOM     88  C   UNL     1       8.974 -13.690  -6.217  1.00  0.00     0.058 A 
ATOM     89  C   UNL     1       8.046 -14.723  -6.415  1.00  0.00     0.135 A 
ATOM     90  C   UNL     1      10.339 -14.012  -6.295  1.00  0.00     0.135 A 
ATOM     91  F   UNL     1       6.729 -14.470  -6.346  1.00  0.00    -0.206 F 
ATOM     92  C   UNL     1       8.454 -16.031  -6.659  1.00  0.00     0.059 A 
ATOM     93  C   UNL     1      10.770 -15.307  -6.567  1.00  0.00     0.059 A 
ATOM     94  F   UNL     1      11.270 -13.059  -6.127  1.00  0.00    -0.206 F 
ATOM     95  C   UNL     1       9.819 -16.312  -6.736  1.00  0.00     0.060 A 
BRANCH  95  96
ATOM     96  S   UNL     1      10.336 -18.006  -7.088  1.00  0.00     0.124 S 
ATOM     97  O   UNL     1      10.061 -18.668  -5.817  1.00  0.00    -0.237 OA
ATOM     98  O   UNL     1       9.462 -18.375  -8.197  1.00  0.00    -0.237 OA
ATOM     99  O   UNL     1      11.748 -17.866  -7.431  1.00  0.00    -0.744 OA
ENDBRANCH  95  96
ENDBRANCH  63  88
ENDBRANCH  37  38
ENDBRANCH  30  32
ENDBRANCH  29  30
ENDBRANCH  28  29
ENDBRANCH  27  28
ENDBRANCH  26  27
ENDBRANCH   1  26
TORSDOF 22
