REMARK SMILES Cc1ccc(-c2cc(C(=O)OCCOCCOC(=O)c3ccc(-c4c5nc(c(-c6c(F)cc(S(=O)(=O)[O-])cc6F)c6ccc([nH]6)c(-c6c(F)cc(S(=O)(=O)[O-])cc6F)c6nc(c(-c7c(F)cc(S(=O)(=O)[O-])cc7F)c7ccc4[nH]7)C=C6)C=C5)cc3)ccc2F)cc1O
REMARK SMILES IDX 15 1 14 2 13 3 12 4 11 5 9 6 10 7 8 8 6 9 7 10 88 11 87 12
REMARK SMILES IDX 89 13 86 14 5 15 1 16 2 17 3 18 91 19 4 20 90 21 92 22 16 24
REMARK SMILES IDX 17 25 18 26 19 27 20 28 21 29 85 30 22 31 84 32 23 33 24 34
REMARK SMILES IDX 25 35 78 36 26 37 83 38 77 39 79 40 27 41 82 42 76 43 75 44
REMARK SMILES IDX 28 46 62 47 41 48 61 49 42 50 45 51 60 52 80 53 43 54 44 55
REMARK SMILES IDX 59 57 81 58 46 59 29 60 30 61 39 62 31 63 32 64 38 65 40 66
REMARK SMILES IDX 33 67 34 68 35 69 36 70 37 71 63 72 64 73 73 74 65 75 66 76
REMARK SMILES IDX 72 77 74 78 67 79 68 80 69 81 70 82 71 83 47 84 48 85 57 86
REMARK SMILES IDX 49 87 50 88 56 89 58 90 51 91 52 92 53 93 54 94 55 95
REMARK H PARENT 92 23 79 45 45 56
REMARK Flexibility Score: inf
ROOT
ATOM      1  C   UNL     1       3.383   5.834   2.350  1.00  0.00     0.202 C 
ENDROOT
BRANCH   1   2
ATOM      2  O   UNL     1       3.873   6.066   3.672  1.00  0.00    -0.374 OA
BRANCH   2   3
ATOM      3  C   UNL     1       5.289   6.184   3.827  1.00  0.00     0.202 C 
BRANCH   3   4
ATOM      4  C   UNL     1       6.064   4.865   3.910  1.00  0.00     0.261 C 
BRANCH   4   5
ATOM      5  O   UNL     1       5.957   4.127   2.681  1.00  0.00    -0.460 OA
BRANCH   5   6
ATOM      6  C   UNL     1       5.273   2.964   2.765  1.00  0.00     0.338 C 
ATOM      7  O   UNL     1       4.875   2.414   3.783  1.00  0.00    -0.246 OA
BRANCH   6   8
ATOM      8  C   UNL     1       4.894   2.499   1.411  1.00  0.00     0.060 A 
ATOM      9  C   UNL     1       3.217   1.365   0.046  1.00  0.00     0.018 A 
ATOM     10  C   UNL     1       3.663   1.839   1.287  1.00  0.00     0.027 A 
ATOM     11  C   UNL     1       4.039   1.571  -1.070  1.00  0.00     0.131 A 
ATOM     12  C   UNL     1       5.260   2.240  -0.961  1.00  0.00     0.041 A 
ATOM     13  F   UNL     1       3.664   1.116  -2.275  1.00  0.00    -0.206 F 
ATOM     14  C   UNL     1       5.691   2.712   0.281  1.00  0.00     0.019 A 
BRANCH   9  15
ATOM     15  C   UNL     1       1.947   0.642  -0.037  1.00  0.00    -0.012 A 
ATOM     16  C   UNL     1      -1.772  -1.582  -0.017  1.00  0.00     0.048 C 
ATOM     17  C   UNL     1      -0.499  -0.789  -0.036  1.00  0.00    -0.009 A 
ATOM     18  C   UNL     1       0.729  -1.464  -0.075  1.00  0.00     0.008 A 
ATOM     19  C   UNL     1      -0.482   0.610  -0.010  1.00  0.00     0.119 A 
ATOM     20  C   UNL     1       1.935  -0.758  -0.077  1.00  0.00     0.009 A 
ATOM     21  C   UNL     1       0.721   1.319  -0.008  1.00  0.00     0.055 A 
BRANCH  19  22
ATOM     22  O   UNL     1      -1.622   1.363   0.025  1.00  0.00    -0.508 OA
ATOM     23  H   UNL     1      -2.461   0.944   0.025  1.00  0.00     0.293 HD
ENDBRANCH  19  22
ENDBRANCH   9  15
ENDBRANCH   6   8
ENDBRANCH   5   6
ENDBRANCH   4   5
ENDBRANCH   3   4
ENDBRANCH   2   3
ENDBRANCH   1   2
BRANCH   1  24
ATOM     24  C   UNL     1       3.299   7.058   1.429  1.00  0.00     0.261 C 
BRANCH  24  25
ATOM     25  O   UNL     1       4.600   7.566   1.084  1.00  0.00    -0.460 OA
BRANCH  25  26
ATOM     26  C   UNL     1       4.917   8.753   1.655  1.00  0.00     0.338 C 
ATOM     27  O   UNL     1       4.194   9.449   2.355  1.00  0.00    -0.246 OA
BRANCH  26  28
ATOM     28  C   UNL     1       6.352   9.036   1.470  1.00  0.00     0.060 A 
ATOM     29  C   UNL     1       7.096   9.377   2.607  1.00  0.00     0.016 A 
ATOM     30  C   UNL     1       6.949   9.034   0.207  1.00  0.00     0.016 A 
ATOM     31  C   UNL     1       8.428   9.765   2.479  1.00  0.00     0.010 A 
ATOM     32  C   UNL     1       8.285   9.432   0.080  1.00  0.00     0.010 A 
ATOM     33  C   UNL     1       9.020   9.832   1.211  1.00  0.00    -0.014 A 
BRANCH  33  34
ATOM     34  C   UNL     1      10.359  10.452   1.057  1.00  0.00     0.031 A 
ATOM     35  C   UNL     1      10.451  11.881   0.594  1.00  0.00     0.074 A 
ATOM     36  C   UNL     1      11.475   9.768   1.368  1.00  0.00     0.049 A 
ATOM     37  N   UNL     1      11.511  12.607   0.353  1.00  0.00    -0.248 NA
ATOM     38  C   UNL     1       9.177  12.588   0.381  1.00  0.00     0.031 C 
ATOM     39  C   UNL     1      11.510   8.400   1.885  1.00  0.00     0.029 A 
ATOM     40  N   UNL     1      12.796  10.135   1.299  1.00  0.00    -0.354 N 
ATOM     41  C   UNL     1      11.037  13.855  -0.034  1.00  0.00     0.074 A 
ATOM     42  C   UNL     1       9.592  13.778  -0.031  1.00  0.00     0.031 C 
ATOM     43  C   UNL     1      12.790   8.045   2.091  1.00  0.00     0.029 A 
ATOM     44  C   UNL     1      13.666   9.144   1.687  1.00  0.00     0.049 A 
ATOM     45  H   UNL     1      13.093  11.024   0.999  1.00  0.00     0.167 HD
ATOM     46  C   UNL     1      11.741  14.967  -0.346  1.00  0.00     0.037 A 
ATOM     47  C   UNL     1      15.014   9.122   1.700  1.00  0.00     0.037 A 
ATOM     48  C   UNL     1      13.179  15.039  -0.349  1.00  0.00     0.049 A 
ATOM     49  C   UNL     1      15.777  10.340   1.249  1.00  0.00     0.074 A 
ATOM     50  C   UNL     1      13.985  16.117  -0.671  1.00  0.00     0.029 A 
ATOM     51  N   UNL     1      14.025  13.994  -0.010  1.00  0.00    -0.354 N 
ATOM     52  N   UNL     1      15.315  11.506   0.864  1.00  0.00    -0.248 NA
ATOM     53  C   UNL     1      17.244  10.239   1.226  1.00  0.00     0.031 C 
ATOM     54  C   UNL     1      15.319  15.712  -0.565  1.00  0.00     0.029 A 
ATOM     55  C   UNL     1      15.344  14.396  -0.131  1.00  0.00     0.049 A 
ATOM     56  H   UNL     1      13.731  13.098   0.274  1.00  0.00     0.167 HD
ATOM     57  C   UNL     1      16.433  12.285   0.583  1.00  0.00     0.074 A 
ATOM     58  C   UNL     1      17.594  11.461   0.846  1.00  0.00     0.031 C 
ATOM     59  C   UNL     1      16.491  13.568   0.147  1.00  0.00     0.037 A 
BRANCH  46  60
ATOM     60  C   UNL     1      10.972  16.205  -0.716  1.00  0.00     0.058 A 
ATOM     61  C   UNL     1      10.968  16.677  -2.038  1.00  0.00     0.135 A 
ATOM     62  C   UNL     1      10.294  16.962   0.253  1.00  0.00     0.135 A 
ATOM     63  F   UNL     1      11.593  15.986  -3.005  1.00  0.00    -0.206 F 
ATOM     64  C   UNL     1      10.337  17.867  -2.383  1.00  0.00     0.059 A 
ATOM     65  C   UNL     1       9.636  18.144  -0.074  1.00  0.00     0.059 A 
ATOM     66  F   UNL     1      10.247  16.541   1.527  1.00  0.00    -0.206 F 
ATOM     67  C   UNL     1       9.677  18.596  -1.392  1.00  0.00     0.060 A 
BRANCH  67  68
ATOM     68  S   UNL     1       8.847  20.130  -1.861  1.00  0.00     0.124 S 
ATOM     69  O   UNL     1       9.976  21.005  -2.154  1.00  0.00    -0.237 OA
ATOM     70  O   UNL     1       8.053  19.708  -3.011  1.00  0.00    -0.237 OA
ATOM     71  O   UNL     1       8.075  20.474  -0.671  1.00  0.00    -0.744 OA
ENDBRANCH  67  68
ENDBRANCH  46  60
BRANCH  47  72
ATOM     72  C   UNL     1      15.734   7.904   2.161  1.00  0.00     0.058 A 
ATOM     73  C   UNL     1      15.715   6.718   1.411  1.00  0.00     0.135 A 
ATOM     74  C   UNL     1      16.453   7.905   3.365  1.00  0.00     0.135 A 
ATOM     75  F   UNL     1      15.040   6.663   0.253  1.00  0.00    -0.206 F 
ATOM     76  C   UNL     1      16.364   5.569   1.850  1.00  0.00     0.059 A 
ATOM     77  C   UNL     1      17.132   6.775   3.813  1.00  0.00     0.059 A 
ATOM     78  F   UNL     1      16.515   9.021   4.108  1.00  0.00    -0.206 F 
ATOM     79  C   UNL     1      17.068   5.607   3.054  1.00  0.00     0.060 A 
BRANCH  79  80
ATOM     80  S   UNL     1      17.902   4.103   3.606  1.00  0.00     0.124 S 
ATOM     81  O   UNL     1      16.769   3.256   3.961  1.00  0.00    -0.237 OA
ATOM     82  O   UNL     1      18.642   3.708   2.411  1.00  0.00    -0.237 OA
ATOM     83  O   UNL     1      18.720   4.562   4.724  1.00  0.00    -0.744 OA
ENDBRANCH  79  80
ENDBRANCH  47  72
BRANCH  59  84
ATOM     84  C   UNL     1      17.849  14.184  -0.047  1.00  0.00     0.058 A 
ATOM     85  C   UNL     1      18.305  15.187   0.825  1.00  0.00     0.135 A 
ATOM     86  C   UNL     1      18.659  13.850  -1.143  1.00  0.00     0.135 A 
ATOM     87  F   UNL     1      17.567  15.549   1.886  1.00  0.00    -0.206 F 
ATOM     88  C   UNL     1      19.506  15.852   0.604  1.00  0.00     0.059 A 
ATOM     89  C   UNL     1      19.877  14.485  -1.369  1.00  0.00     0.059 A 
ATOM     90  F   UNL     1      18.273  12.890  -1.999  1.00  0.00    -0.206 F 
ATOM     91  C   UNL     1      20.282  15.498  -0.501  1.00  0.00     0.060 A 
BRANCH  91  92
ATOM     92  S   UNL     1      21.838  16.373  -0.774  1.00  0.00     0.124 S 
ATOM     93  O   UNL     1      21.371  17.689  -1.195  1.00  0.00    -0.237 OA
ATOM     94  O   UNL     1      22.463  16.312   0.544  1.00  0.00    -0.237 OA
ATOM     95  O   UNL     1      22.496  15.580  -1.808  1.00  0.00    -0.744 OA
ENDBRANCH  91  92
ENDBRANCH  59  84
ENDBRANCH  33  34
ENDBRANCH  26  28
ENDBRANCH  25  26
ENDBRANCH  24  25
ENDBRANCH   1  24
TORSDOF 19
