REMARK SMILES O=C(OCCOCCOC(=O)[C@H]1C[C@H](O)CN1S(=O)(=O)c1ccc2c(c1)OCCO2)c1ccc(-c2c3nc(c(-c4c(F)cc(S(=O)(=O)[O-])cc4F)c4ccc([nH]4)c(-c4c(F)cc(S(=O)(=O)[O-])cc4F)c4nc(c(-c5c(F)cc(S(=O)(=O)[O-])cc5F)c5ccc2[nH]5)C=C4)C=C3)cc1
REMARK SMILES IDX 5 1 4 2 3 3 2 4 1 5 31 6 32 7 96 8 33 9 95 10 34 11 35 12
REMARK SMILES IDX 36 13 89 14 37 15 94 16 88 17 90 18 38 19 93 20 87 21 86 22
REMARK SMILES IDX 39 24 73 25 52 26 72 27 53 28 56 29 71 30 91 31 54 32 55 33
REMARK SMILES IDX 70 35 92 36 57 37 40 38 41 39 50 40 42 41 43 42 49 43 51 44
REMARK SMILES IDX 44 45 45 46 46 47 47 48 48 49 74 50 75 51 84 52 76 53 77 54
REMARK SMILES IDX 83 55 85 56 78 57 79 58 80 59 81 60 82 61 58 62 59 63 68 64
REMARK SMILES IDX 60 65 61 66 67 67 69 68 62 69 63 70 64 71 65 72 66 73 6 74
REMARK SMILES IDX 7 75 8 76 9 77 10 78 11 79 12 80 13 81 17 82 14 83 16 84
REMARK SMILES IDX 18 85 19 86 20 87 21 88 22 89 26 90 23 91 25 92 24 93 27 94
REMARK SMILES IDX 30 95 28 96 29 97 15 98
REMARK H PARENT 90 23 56 34 15 99
REMARK Flexibility Score: inf
ROOT
ATOM      1  C   UNL     1       3.976  -1.398   0.207  1.00  0.00     0.202 C 
ENDROOT
BRANCH   1   2
ATOM      2  C   UNL     1       4.039  -0.686   1.558  1.00  0.00     0.261 C 
BRANCH   2   3
ATOM      3  O   UNL     1       2.755  -0.143   1.900  1.00  0.00    -0.460 OA
BRANCH   3   4
ATOM      4  C   UNL     1       2.188   0.942   1.312  1.00  0.00     0.338 C 
ATOM      5  O   UNL     1       0.961   1.035   1.300  1.00  0.00    -0.246 OA
BRANCH   4   6
ATOM      6  C   UNL     1       2.990   2.095   0.790  1.00  0.00     0.060 A 
ATOM      7  C   UNL     1       4.181   2.008   0.058  1.00  0.00     0.016 A 
ATOM      8  C   UNL     1       2.431   3.367   0.991  1.00  0.00     0.016 A 
ATOM      9  C   UNL     1       4.811   3.132  -0.443  1.00  0.00     0.010 A 
ATOM     10  C   UNL     1       3.063   4.510   0.499  1.00  0.00     0.010 A 
ATOM     11  C   UNL     1       4.265   4.385  -0.205  1.00  0.00    -0.014 A 
BRANCH  11  12
ATOM     12  C   UNL     1       5.099   5.546  -0.532  1.00  0.00     0.031 A 
ATOM     13  C   UNL     1       5.861   6.174   0.591  1.00  0.00     0.074 A 
ATOM     14  C   UNL     1       5.274   5.901  -1.816  1.00  0.00     0.049 A 
ATOM     15  N   UNL     1       6.602   7.244   0.592  1.00  0.00    -0.248 NA
ATOM     16  C   UNL     1       5.786   5.489   1.896  1.00  0.00     0.031 C 
ATOM     17  C   UNL     1       4.686   5.213  -2.969  1.00  0.00     0.029 A 
ATOM     18  N   UNL     1       6.017   6.906  -2.369  1.00  0.00    -0.354 N 
ATOM     19  C   UNL     1       7.046   7.386   1.901  1.00  0.00     0.074 A 
ATOM     20  C   UNL     1       6.499   6.293   2.668  1.00  0.00     0.031 C 
ATOM     21  C   UNL     1       5.096   5.819  -4.095  1.00  0.00     0.029 A 
ATOM     22  C   UNL     1       5.910   6.974  -3.737  1.00  0.00     0.049 A 
ATOM     23  H   UNL     1       6.574   7.521  -1.839  1.00  0.00     0.167 HD
ATOM     24  C   UNL     1       7.833   8.362   2.403  1.00  0.00     0.037 A 
ATOM     25  C   UNL     1       6.385   7.905  -4.585  1.00  0.00     0.037 A 
ATOM     26  C   UNL     1       8.352   9.426   1.588  1.00  0.00     0.049 A 
ATOM     27  C   UNL     1       7.172   9.042  -3.987  1.00  0.00     0.074 A 
ATOM     28  C   UNL     1       9.100  10.522   1.966  1.00  0.00     0.029 A 
ATOM     29  N   UNL     1       8.166   9.515   0.212  1.00  0.00    -0.354 N 
ATOM     30  N   UNL     1       7.516   9.234  -2.732  1.00  0.00    -0.248 NA
ATOM     31  C   UNL     1       7.619  10.096  -4.903  1.00  0.00     0.031 C 
ATOM     32  C   UNL     1       9.324  11.300   0.825  1.00  0.00     0.029 A 
ATOM     33  C   UNL     1       8.770  10.658  -0.274  1.00  0.00     0.049 A 
ATOM     34  H   UNL     1       7.676   8.860  -0.335  1.00  0.00     0.167 HD
ATOM     35  C   UNL     1       8.237  10.420  -2.709  1.00  0.00     0.074 A 
ATOM     36  C   UNL     1       8.292  10.891  -4.081  1.00  0.00     0.031 C 
ATOM     37  C   UNL     1       8.801  11.069  -1.659  1.00  0.00     0.037 A 
BRANCH  24  38
ATOM     38  C   UNL     1       8.080   8.352   3.885  1.00  0.00     0.058 A 
ATOM     39  C   UNL     1       8.884   7.384   4.508  1.00  0.00     0.135 A 
ATOM     40  C   UNL     1       7.455   9.306   4.705  1.00  0.00     0.135 A 
ATOM     41  F   UNL     1       9.474   6.423   3.778  1.00  0.00    -0.206 F 
ATOM     42  C   UNL     1       9.037   7.344   5.891  1.00  0.00     0.059 A 
ATOM     43  C   UNL     1       7.615   9.303   6.087  1.00  0.00     0.059 A 
ATOM     44  F   UNL     1       6.659  10.242   4.165  1.00  0.00    -0.206 F 
ATOM     45  C   UNL     1       8.395   8.307   6.673  1.00  0.00     0.060 A 
BRANCH  45  46
ATOM     46  S   UNL     1       8.592   8.237   8.466  1.00  0.00     0.124 S 
ATOM     47  O   UNL     1       7.795   7.060   8.801  1.00  0.00    -0.237 OA
ATOM     48  O   UNL     1      10.036   8.087   8.615  1.00  0.00    -0.237 OA
ATOM     49  O   UNL     1       8.046   9.512   8.919  1.00  0.00    -0.744 OA
ENDBRANCH  45  46
ENDBRANCH  24  38
BRANCH  25  50
ATOM     50  C   UNL     1       6.078   7.832  -6.040  1.00  0.00     0.058 A 
ATOM     51  C   UNL     1       7.087   7.649  -6.996  1.00  0.00     0.135 A 
ATOM     52  C   UNL     1       4.756   7.940  -6.508  1.00  0.00     0.135 A 
ATOM     53  F   UNL     1       8.367   7.547  -6.607  1.00  0.00    -0.206 F 
ATOM     54  C   UNL     1       6.803   7.591  -8.358  1.00  0.00     0.059 A 
ATOM     55  C   UNL     1       4.444   7.854  -7.862  1.00  0.00     0.059 A 
ATOM     56  F   UNL     1       3.746   8.109  -5.641  1.00  0.00    -0.206 F 
ATOM     57  C   UNL     1       5.477   7.694  -8.782  1.00  0.00     0.060 A 
BRANCH  57  58
ATOM     58  S   UNL     1       5.117   7.594 -10.549  1.00  0.00     0.124 S 
ATOM     59  O   UNL     1       5.647   8.865 -11.029  1.00  0.00    -0.237 OA
ATOM     60  O   UNL     1       5.860   6.402 -10.947  1.00  0.00    -0.237 OA
ATOM     61  O   UNL     1       3.664   7.461 -10.591  1.00  0.00    -0.744 OA
ENDBRANCH  57  58
ENDBRANCH  25  50
BRANCH  37  62
ATOM     62  C   UNL     1       9.558  12.326  -1.968  1.00  0.00     0.058 A 
ATOM     63  C   UNL     1       8.900  13.519  -2.303  1.00  0.00     0.135 A 
ATOM     64  C   UNL     1      10.957  12.348  -1.853  1.00  0.00     0.135 A 
ATOM     65  F   UNL     1       7.564  13.543  -2.431  1.00  0.00    -0.206 F 
ATOM     66  C   UNL     1       9.608  14.691  -2.534  1.00  0.00     0.059 A 
ATOM     67  C   UNL     1      11.681  13.517  -2.047  1.00  0.00     0.059 A 
ATOM     68  F   UNL     1      11.627  11.233  -1.521  1.00  0.00    -0.206 F 
ATOM     69  C   UNL     1      10.999  14.681  -2.397  1.00  0.00     0.060 A 
BRANCH  69  70
ATOM     70  S   UNL     1      11.901  16.221  -2.649  1.00  0.00     0.124 S 
ATOM     71  O   UNL     1      11.829  16.368  -4.099  1.00  0.00    -0.237 OA
ATOM     72  O   UNL     1      11.113  17.174  -1.874  1.00  0.00    -0.237 OA
ATOM     73  O   UNL     1      13.227  15.930  -2.112  1.00  0.00    -0.744 OA
ENDBRANCH  69  70
ENDBRANCH  37  62
ENDBRANCH  11  12
ENDBRANCH   4   6
ENDBRANCH   3   4
ENDBRANCH   2   3
ENDBRANCH   1   2
BRANCH   1  74
ATOM     74  O   UNL     1       3.454  -0.522  -0.783  1.00  0.00    -0.374 OA
BRANCH  74  75
ATOM     75  C   UNL     1       2.175  -0.802  -1.336  1.00  0.00     0.202 C 
BRANCH  75  76
ATOM     76  C   UNL     1       2.357  -1.183  -2.796  1.00  0.00     0.261 C 
BRANCH  76  77
ATOM     77  O   UNL     1       3.151  -2.373  -2.852  1.00  0.00    -0.462 OA
BRANCH  77  78
ATOM     78  C   UNL     1       4.498  -2.167  -2.811  1.00  0.00     0.324 C 
ATOM     79  O   UNL     1       5.088  -1.093  -2.775  1.00  0.00    -0.250 OA
BRANCH  78  80
ATOM     80  C   UNL     1       5.232  -3.474  -2.906  1.00  0.00     0.185 C 
ATOM     81  C   UNL     1       4.540  -4.700  -2.289  1.00  0.00     0.065 C 
ATOM     82  N   UNL     1       5.652  -3.859  -4.286  1.00  0.00    -0.181 NA
ATOM     83  C   UNL     1       4.632  -5.788  -3.350  1.00  0.00     0.131 C 
ATOM     84  C   UNL     1       5.796  -5.336  -4.234  1.00  0.00     0.135 C 
BRANCH  82  85
ATOM     85  S   UNL     1       4.717  -3.253  -5.598  1.00  0.00     0.244 S 
ATOM     86  O   UNL     1       3.760  -4.281  -5.968  1.00  0.00    -0.207 OA
ATOM     87  O   UNL     1       4.286  -1.902  -5.372  1.00  0.00    -0.207 OA
BRANCH  85  88
ATOM     88  C   UNL     1       5.950  -3.154  -6.852  1.00  0.00     0.086 A 
ATOM     89  C   UNL     1       6.576  -1.925  -7.110  1.00  0.00     0.026 A 
ATOM     90  C   UNL     1       6.235  -4.288  -7.601  1.00  0.00     0.072 A 
ATOM     91  C   UNL     1       7.490  -1.831  -8.155  1.00  0.00     0.052 A 
ATOM     92  C   UNL     1       7.176  -4.196  -8.609  1.00  0.00     0.162 A 
ATOM     93  C   UNL     1       7.771  -2.963  -8.916  1.00  0.00     0.161 A 
ATOM     94  O   UNL     1       7.454  -5.363  -9.273  1.00  0.00    -0.486 OA
ATOM     95  O   UNL     1       8.635  -2.804  -9.970  1.00  0.00    -0.486 OA
ATOM     96  C   UNL     1       8.605  -5.213 -10.107  1.00  0.00     0.271 C 
ATOM     97  C   UNL     1       8.521  -3.907 -10.878  1.00  0.00     0.271 C 
ENDBRANCH  85  88
ENDBRANCH  82  85
BRANCH  83  98
ATOM     98  O   UNL     1       4.837  -7.066  -2.768  1.00  0.00    -0.392 OA
ATOM     99  H   UNL     1       5.644  -7.051  -2.230  1.00  0.00     0.211 HD
ENDBRANCH  83  98
ENDBRANCH  78  80
ENDBRANCH  77  78
ENDBRANCH  76  77
ENDBRANCH  75  76
ENDBRANCH  74  75
ENDBRANCH   1  74
TORSDOF 20
