REMARK SMILES Cc1cccc(-n2ncc(C(=O)Nc3cccc(C(=O)OCCOCCOC(=O)c4ccc(-c5c6nc(c(-c7c(F)cc(S(=O)(=O)[O-])cc7F)c7ccc([nH]7)c(-c7c(F)cc(S(=O)(=O)[O-])cc7F)c7nc(c(-c8c(F)cc(S(=O)(=O)[O-])cc8F)c8ccc5[nH]8)C=C7)C=C6)cc4)c3C)c2C)c1
REMARK SMILES IDX 24 1 23 2 22 3 21 4 19 5 20 6 18 7 14 8 15 9 96 10 16 11
REMARK SMILES IDX 97 12 17 13 13 14 11 15 12 16 10 18 7 19 8 20 98 21 9 22
REMARK SMILES IDX 99 23 6 24 1 25 2 26 3 27 100 28 4 29 5 30 25 31 26 32 27 33
REMARK SMILES IDX 28 34 29 35 30 36 31 37 95 38 32 39 94 40 33 41 34 42 35 43
REMARK SMILES IDX 88 44 36 45 93 46 87 47 89 48 37 49 92 50 86 51 85 52 38 54
REMARK SMILES IDX 72 55 51 56 71 57 52 58 55 59 70 60 90 61 53 62 54 63 69 65
REMARK SMILES IDX 91 66 56 67 39 68 40 69 49 70 41 71 42 72 48 73 50 74 43 75
REMARK SMILES IDX 44 76 45 77 46 78 47 79 73 80 74 81 83 82 75 83 76 84 82 85
REMARK SMILES IDX 84 86 77 87 78 88 79 89 80 90 81 91 57 92 58 93 67 94 59 95
REMARK SMILES IDX 60 96 66 97 68 98 61 99 62 100 63 101 64 102 65 103
REMARK H PARENT 13 17 89 53 55 64
REMARK Flexibility Score: inf
ROOT
ATOM      1  O   UNL     1      -3.457  10.936  -2.183  1.00  0.00    -0.374 OA
ENDROOT
BRANCH   1   2
ATOM      2  C   UNL     1      -3.215  10.619  -3.552  1.00  0.00     0.202 C 
BRANCH   2   3
ATOM      3  C   UNL     1      -1.783  10.141  -3.666  1.00  0.00     0.261 C 
BRANCH   3   4
ATOM      4  O   UNL     1      -1.554   8.863  -3.055  1.00  0.00    -0.460 OA
BRANCH   4   5
ATOM      5  C   UNL     1      -1.876   8.769  -1.742  1.00  0.00     0.338 C 
ATOM      6  O   UNL     1      -1.379   9.395  -0.832  1.00  0.00    -0.246 OA
BRANCH   5   7
ATOM      7  C   UNL     1      -2.958   7.752  -1.600  1.00  0.00     0.065 A 
ATOM      8  C   UNL     1      -4.385   6.384  -0.261  1.00  0.00     0.045 A 
ATOM      9  C   UNL     1      -4.703   5.594  -1.377  1.00  0.00     0.026 A 
ATOM     10  C   UNL     1      -3.624   7.559  -0.373  1.00  0.00    -0.013 A 
ATOM     11  C   UNL     1      -4.164   5.890  -2.616  1.00  0.00     0.003 A 
ATOM     12  C   UNL     1      -3.421   8.444   0.830  1.00  0.00     0.047 C 
ATOM     13  C   UNL     1      -3.252   6.929  -2.711  1.00  0.00     0.016 A 
BRANCH   8  14
ATOM     14  N   UNL     1      -4.683   5.885   1.010  1.00  0.00    -0.322 N 
ATOM     15  C   UNL     1      -4.255   4.676   1.530  1.00  0.00     0.259 C 
ATOM     16  O   UNL     1      -4.780   4.284   2.574  1.00  0.00    -0.269 OA
ATOM     17  H   UNL     1      -5.249   6.445   1.589  1.00  0.00     0.170 HD
BRANCH  15  18
ATOM     18  C   UNL     1      -3.159   3.932   0.890  1.00  0.00     0.081 A 
ATOM     19  N   UNL     1      -1.722   2.309   0.346  1.00  0.00    -0.237 N 
ATOM     20  N   UNL     1      -1.272   3.398  -0.308  1.00  0.00    -0.175 NA
ATOM     21  C   UNL     1      -2.791   2.618   1.175  1.00  0.00     0.054 A 
ATOM     22  C   UNL     1      -2.127   4.360   0.022  1.00  0.00     0.149 A 
ATOM     23  C   UNL     1      -3.280   1.750   2.280  1.00  0.00     0.068 C 
BRANCH  19  24
ATOM     24  C   UNL     1      -1.052   1.074   0.167  1.00  0.00     0.065 A 
ATOM     25  C   UNL     1       2.549  -0.107  -0.130  1.00  0.00     0.044 C 
ATOM     26  C   UNL     1       1.050  -0.115  -0.077  1.00  0.00    -0.049 A 
ATOM     27  C   UNL     1       0.346  -1.325  -0.042  1.00  0.00     0.003 A 
ATOM     28  C   UNL     1       0.338   1.087  -0.014  1.00  0.00     0.031 A 
ATOM     29  C   UNL     1      -1.046  -1.335   0.068  1.00  0.00     0.002 A 
ATOM     30  C   UNL     1      -1.749  -0.137   0.184  1.00  0.00     0.028 A 
ENDBRANCH  19  24
ENDBRANCH  15  18
ENDBRANCH   8  14
ENDBRANCH   5   7
ENDBRANCH   4   5
ENDBRANCH   3   4
ENDBRANCH   2   3
ENDBRANCH   1   2
BRANCH   1  31
ATOM     31  C   UNL     1      -4.774  11.326  -1.846  1.00  0.00     0.202 C 
BRANCH  31  32
ATOM     32  C   UNL     1      -5.274  12.560  -2.608  1.00  0.00     0.261 C 
BRANCH  32  33
ATOM     33  O   UNL     1      -4.587  13.749  -2.167  1.00  0.00    -0.460 OA
BRANCH  33  34
ATOM     34  C   UNL     1      -3.639  14.231  -3.025  1.00  0.00     0.338 C 
ATOM     35  O   UNL     1      -3.898  14.794  -4.073  1.00  0.00    -0.246 OA
BRANCH  34  36
ATOM     36  C   UNL     1      -2.276  13.915  -2.510  1.00  0.00     0.060 A 
ATOM     37  C   UNL     1      -1.146  13.958  -3.346  1.00  0.00     0.016 A 
ATOM     38  C   UNL     1      -2.168  13.361  -1.240  1.00  0.00     0.016 A 
ATOM     39  C   UNL     1       0.053  13.326  -2.959  1.00  0.00     0.010 A 
ATOM     40  C   UNL     1      -1.038  12.641  -0.922  1.00  0.00     0.010 A 
ATOM     41  C   UNL     1       0.085  12.604  -1.771  1.00  0.00    -0.014 A 
BRANCH  41  42
ATOM     42  C   UNL     1       1.146  11.717  -1.262  1.00  0.00     0.031 A 
ATOM     43  C   UNL     1       1.616  11.984   0.131  1.00  0.00     0.074 A 
ATOM     44  C   UNL     1       1.322  10.476  -1.788  1.00  0.00     0.049 A 
ATOM     45  N   UNL     1       2.331  11.173   0.825  1.00  0.00    -0.248 NA
ATOM     46  C   UNL     1       1.307  13.209   0.877  1.00  0.00     0.031 C 
ATOM     47  C   UNL     1       1.607   9.243  -1.043  1.00  0.00     0.029 A 
ATOM     48  N   UNL     1       1.313  10.034  -3.119  1.00  0.00    -0.354 N 
ATOM     49  C   UNL     1       2.282  11.564   2.141  1.00  0.00     0.074 A 
ATOM     50  C   UNL     1       1.724  12.889   2.109  1.00  0.00     0.031 C 
ATOM     51  C   UNL     1       1.996   8.275  -1.886  1.00  0.00     0.029 A 
ATOM     52  C   UNL     1       2.149   8.896  -3.183  1.00  0.00     0.049 A 
ATOM     53  H   UNL     1       0.819  10.440  -3.867  1.00  0.00     0.167 HD
ATOM     54  C   UNL     1       2.643  10.648   3.084  1.00  0.00     0.037 A 
ATOM     55  C   UNL     1       3.272   8.881  -3.955  1.00  0.00     0.037 A 
ATOM     56  C   UNL     1       3.281   9.498   2.438  1.00  0.00     0.049 A 
ATOM     57  C   UNL     1       4.496   8.680  -3.103  1.00  0.00     0.074 A 
ATOM     58  C   UNL     1       2.904   8.194   2.177  1.00  0.00     0.029 A 
ATOM     59  N   UNL     1       4.429   9.735   1.689  1.00  0.00    -0.354 N 
ATOM     60  N   UNL     1       4.503   8.916  -1.819  1.00  0.00    -0.248 NA
ATOM     61  C   UNL     1       5.768   8.138  -3.568  1.00  0.00     0.031 C 
ATOM     62  C   UNL     1       3.808   7.673   1.203  1.00  0.00     0.029 A 
ATOM     63  C   UNL     1       4.749   8.649   0.907  1.00  0.00     0.049 A 
ATOM     64  H   UNL     1       4.947  10.573   1.715  1.00  0.00     0.167 HD
ATOM     65  C   UNL     1       5.701   8.555  -1.279  1.00  0.00     0.074 A 
ATOM     66  C   UNL     1       6.469   8.088  -2.418  1.00  0.00     0.031 C 
ATOM     67  C   UNL     1       5.939   8.680   0.060  1.00  0.00     0.037 A 
BRANCH  54  68
ATOM     68  C   UNL     1       2.377  10.703   4.576  1.00  0.00     0.058 A 
ATOM     69  C   UNL     1       2.888   9.687   5.419  1.00  0.00     0.135 A 
ATOM     70  C   UNL     1       1.571  11.655   5.235  1.00  0.00     0.135 A 
ATOM     71  F   UNL     1       3.643   8.691   4.933  1.00  0.00    -0.206 F 
ATOM     72  C   UNL     1       2.632   9.628   6.792  1.00  0.00     0.059 A 
ATOM     73  C   UNL     1       1.334  11.638   6.615  1.00  0.00     0.059 A 
ATOM     74  F   UNL     1       0.927  12.622   4.575  1.00  0.00    -0.206 F 
ATOM     75  C   UNL     1       1.859  10.614   7.386  1.00  0.00     0.060 A 
BRANCH  75  76
ATOM     76  S   UNL     1       1.538  10.530   9.158  1.00  0.00     0.124 S 
ATOM     77  O   UNL     1       0.721   9.325   9.261  1.00  0.00    -0.237 OA
ATOM     78  O   UNL     1       2.884  10.436   9.714  1.00  0.00    -0.237 OA
ATOM     79  O   UNL     1       0.838  11.781   9.438  1.00  0.00    -0.744 OA
ENDBRANCH  75  76
ENDBRANCH  54  68
BRANCH  55  80
ATOM     80  C   UNL     1       3.089   9.701  -5.193  1.00  0.00     0.058 A 
ATOM     81  C   UNL     1       2.184   9.172  -6.142  1.00  0.00     0.135 A 
ATOM     82  C   UNL     1       3.197  11.100  -5.126  1.00  0.00     0.135 A 
ATOM     83  F   UNL     1       2.063   7.840  -6.278  1.00  0.00    -0.206 F 
ATOM     84  C   UNL     1       1.261   9.978  -6.807  1.00  0.00     0.059 A 
ATOM     85  C   UNL     1       2.283  11.927  -5.790  1.00  0.00     0.059 A 
ATOM     86  F   UNL     1       4.051  11.667  -4.261  1.00  0.00    -0.206 F 
ATOM     87  C   UNL     1       1.268  11.349  -6.557  1.00  0.00     0.060 A 
BRANCH  87  88
ATOM     88  S   UNL     1      -0.169  12.322  -7.087  1.00  0.00     0.124 S 
ATOM     89  O   UNL     1      -0.126  12.167  -8.536  1.00  0.00    -0.237 OA
ATOM     90  O   UNL     1      -1.272  11.637  -6.416  1.00  0.00    -0.237 OA
ATOM     91  O   UNL     1       0.121  13.661  -6.583  1.00  0.00    -0.744 OA
ENDBRANCH  87  88
ENDBRANCH  55  80
BRANCH  67  92
ATOM     92  C   UNL     1       7.303   8.790   0.707  1.00  0.00     0.058 A 
ATOM     93  C   UNL     1       8.481   9.097   0.006  1.00  0.00     0.135 A 
ATOM     94  C   UNL     1       7.439   8.755   2.120  1.00  0.00     0.135 A 
ATOM     95  F   UNL     1       8.486   9.299  -1.318  1.00  0.00    -0.206 F 
ATOM     96  C   UNL     1       9.710   9.263   0.641  1.00  0.00     0.059 A 
ATOM     97  C   UNL     1       8.640   8.993   2.779  1.00  0.00     0.059 A 
ATOM     98  F   UNL     1       6.397   8.509   2.928  1.00  0.00    -0.206 F 
ATOM     99  C   UNL     1       9.782   9.206   2.028  1.00  0.00     0.060 A 
BRANCH  99 100
ATOM    100  S   UNL     1      11.371   9.435   2.834  1.00  0.00     0.124 S 
ATOM    101  O   UNL     1      11.965   8.111   2.676  1.00  0.00    -0.237 OA
ATOM    102  O   UNL     1      11.980  10.498   2.039  1.00  0.00    -0.237 OA
ATOM    103  O   UNL     1      11.012   9.809   4.197  1.00  0.00    -0.744 OA
ENDBRANCH  99 100
ENDBRANCH  67  92
ENDBRANCH  41  42
ENDBRANCH  34  36
ENDBRANCH  33  34
ENDBRANCH  32  33
ENDBRANCH  31  32
ENDBRANCH   1  31
TORSDOF 20
