REMARK SMILES Cc1cc(CC(=O)C(=O)OCCOCCOC(=O)c2ccc(-c3c4nc(c(-c5c(F)cc(S(=O)(=O)[O-])cc5F)c5ccc([nH]5)c(-c5c(F)cc(S(=O)(=O)[O-])cc5F)c5nc(c(-c6c(F)cc(S(=O)(=O)[O-])cc6F)c6ccc3[nH]6)C=C5)C=C4)cc2)cc2cn[nH]c12
REMARK SMILES IDX 14 1 13 2 12 3 11 4 10 5 8 6 9 7 6 8 7 9 5 10 4 11 1 12 2 13
REMARK SMILES IDX 3 14 90 15 86 16 89 17 85 18 87 19 88 20 15 22 16 23 17 24
REMARK SMILES IDX 18 25 19 26 20 27 84 28 21 29 83 30 22 31 23 32 24 33 77 34
REMARK SMILES IDX 25 35 82 36 76 37 78 38 26 39 81 40 75 41 74 42 27 44 61 45
REMARK SMILES IDX 40 46 60 47 41 48 44 49 59 50 79 51 42 52 43 53 58 55 80 56
REMARK SMILES IDX 45 57 28 58 29 59 38 60 30 61 31 62 37 63 39 64 32 65 33 66
REMARK SMILES IDX 34 67 35 68 36 69 62 70 63 71 72 72 64 73 65 74 71 75 73 76
REMARK SMILES IDX 66 77 67 78 68 79 69 80 70 81 46 82 47 83 56 84 48 85 49 86
REMARK SMILES IDX 55 87 57 88 50 89 51 90 52 91 53 92 54 93
REMARK H PARENT 89 21 78 43 44 54
REMARK Flexibility Score: inf
ROOT
ATOM      1  C   UNL     1       2.193   2.151  -5.242  1.00  0.00     0.202 C 
ENDROOT
BRANCH   1   2
ATOM      2  O   UNL     1       3.589   1.923  -5.096  1.00  0.00    -0.374 OA
BRANCH   2   3
ATOM      3  C   UNL     1       4.306   1.149  -6.058  1.00  0.00     0.202 C 
BRANCH   3   4
ATOM      4  C   UNL     1       3.957  -0.331  -6.195  1.00  0.00     0.261 C 
BRANCH   4   5
ATOM      5  O   UNL     1       2.581  -0.512  -6.554  1.00  0.00    -0.457 OA
BRANCH   5   6
ATOM      6  C   UNL     1       1.847  -1.175  -5.632  1.00  0.00     0.375 C 
ATOM      7  O   UNL     1       2.264  -1.718  -4.633  1.00  0.00    -0.243 OA
BRANCH   6   8
ATOM      8  C   UNL     1       0.349  -1.044  -5.969  1.00  0.00     0.244 C 
ATOM      9  O   UNL     1      -0.039  -1.270  -7.111  1.00  0.00    -0.286 OA
BRANCH   8  10
ATOM     10  C   UNL     1      -0.572  -0.515  -4.879  1.00  0.00     0.124 C 
BRANCH  10  11
ATOM     11  C   UNL     1      -0.306  -1.101  -3.514  1.00  0.00    -0.039 A 
ATOM     12  C   UNL     1       0.959   0.079  -0.094  1.00  0.00     0.047 C 
ATOM     13  C   UNL     1       0.506  -0.818  -1.206  1.00  0.00    -0.025 A 
ATOM     14  C   UNL     1       0.061  -0.283  -2.432  1.00  0.00     0.009 A 
ATOM     15  C   UNL     1       0.602  -2.219  -1.155  1.00  0.00     0.068 A 
ATOM     16  C   UNL     1       0.209  -3.055  -2.191  1.00  0.00     0.020 A 
ATOM     17  N   UNL     1       1.091  -3.066  -0.192  1.00  0.00    -0.278 N 
ATOM     18  C   UNL     1      -0.308  -2.500  -3.369  1.00  0.00     0.016 A 
ATOM     19  C   UNL     1       0.518  -4.358  -1.744  1.00  0.00     0.143 A 
ATOM     20  N   UNL     1       1.041  -4.371  -0.516  1.00  0.00    -0.183 NA
ATOM     21  H   UNL     1       1.450  -2.744   0.667  1.00  0.00     0.190 HD
ENDBRANCH  10  11
ENDBRANCH   8  10
ENDBRANCH   6   8
ENDBRANCH   5   6
ENDBRANCH   4   5
ENDBRANCH   3   4
ENDBRANCH   2   3
ENDBRANCH   1   2
BRANCH   1  22
ATOM     22  C   UNL     1       1.669   2.991  -6.401  1.00  0.00     0.261 C 
BRANCH  22  23
ATOM     23  O   UNL     1       2.091   2.517  -7.668  1.00  0.00    -0.460 OA
BRANCH  23  24
ATOM     24  C   UNL     1       3.159   3.208  -8.133  1.00  0.00     0.338 C 
ATOM     25  O   UNL     1       3.921   3.896  -7.480  1.00  0.00    -0.246 OA
BRANCH  24  26
ATOM     26  C   UNL     1       3.179   3.155  -9.595  1.00  0.00     0.060 A 
ATOM     27  C   UNL     1       4.209   3.884 -10.189  1.00  0.00     0.016 A 
ATOM     28  C   UNL     1       2.014   2.792 -10.285  1.00  0.00     0.016 A 
ATOM     29  C   UNL     1       3.938   4.503 -11.381  1.00  0.00     0.010 A 
ATOM     30  C   UNL     1       1.744   3.421 -11.476  1.00  0.00     0.010 A 
ATOM     31  C   UNL     1       2.668   4.344 -11.953  1.00  0.00    -0.014 A 
BRANCH  31  32
ATOM     32  C   UNL     1       2.410   5.060 -13.178  1.00  0.00     0.031 A 
ATOM     33  C   UNL     1       3.147   4.454 -14.301  1.00  0.00     0.074 A 
ATOM     34  C   UNL     1       1.613   6.137 -13.279  1.00  0.00     0.049 A 
ATOM     35  N   UNL     1       4.277   4.854 -14.778  1.00  0.00    -0.248 NA
ATOM     36  C   UNL     1       2.733   3.120 -14.757  1.00  0.00     0.031 C 
ATOM     37  C   UNL     1       0.677   6.699 -12.306  1.00  0.00     0.029 A 
ATOM     38  N   UNL     1       1.462   6.954 -14.355  1.00  0.00    -0.354 N 
ATOM     39  C   UNL     1       4.585   3.952 -15.783  1.00  0.00     0.074 A 
ATOM     40  C   UNL     1       3.747   2.804 -15.565  1.00  0.00     0.031 C 
ATOM     41  C   UNL     1      -0.092   7.637 -12.915  1.00  0.00     0.029 A 
ATOM     42  C   UNL     1       0.399   7.844 -14.269  1.00  0.00     0.049 A 
ATOM     43  H   UNL     1       2.060   6.917 -15.136  1.00  0.00     0.167 HD
ATOM     44  C   UNL     1       5.287   4.359 -16.873  1.00  0.00     0.037 A 
ATOM     45  C   UNL     1      -0.037   8.663 -15.263  1.00  0.00     0.037 A 
ATOM     46  C   UNL     1       5.981   5.598 -16.609  1.00  0.00     0.049 A 
ATOM     47  C   UNL     1       1.117   8.856 -16.183  1.00  0.00     0.074 A 
ATOM     48  C   UNL     1       6.957   5.996 -15.715  1.00  0.00     0.029 A 
ATOM     49  N   UNL     1       5.397   6.756 -17.067  1.00  0.00    -0.354 N 
ATOM     50  N   UNL     1       2.210   9.488 -15.845  1.00  0.00    -0.248 NA
ATOM     51  C   UNL     1       1.250   7.941 -17.307  1.00  0.00     0.031 C 
ATOM     52  C   UNL     1       6.608   7.328 -15.346  1.00  0.00     0.029 A 
ATOM     53  C   UNL     1       5.476   7.698 -16.074  1.00  0.00     0.049 A 
ATOM     54  H   UNL     1       4.993   6.885 -17.956  1.00  0.00     0.167 HD
ATOM     55  C   UNL     1       3.240   8.752 -16.415  1.00  0.00     0.074 A 
ATOM     56  C   UNL     1       2.582   7.857 -17.366  1.00  0.00     0.031 C 
ATOM     57  C   UNL     1       4.490   8.740 -15.864  1.00  0.00     0.037 A 
BRANCH  44  58
ATOM     58  C   UNL     1       4.994   3.870 -18.271  1.00  0.00     0.058 A 
ATOM     59  C   UNL     1       5.837   4.277 -19.323  1.00  0.00     0.135 A 
ATOM     60  C   UNL     1       3.779   3.263 -18.665  1.00  0.00     0.135 A 
ATOM     61  F   UNL     1       7.012   4.874 -19.067  1.00  0.00    -0.206 F 
ATOM     62  C   UNL     1       5.467   4.158 -20.662  1.00  0.00     0.059 A 
ATOM     63  C   UNL     1       3.417   3.084 -19.992  1.00  0.00     0.059 A 
ATOM     64  F   UNL     1       2.832   2.898 -17.795  1.00  0.00    -0.206 F 
ATOM     65  C   UNL     1       4.247   3.571 -20.984  1.00  0.00     0.060 A 
BRANCH  65  66
ATOM     66  S   UNL     1       3.725   3.498 -22.703  1.00  0.00     0.124 S 
ATOM     67  O   UNL     1       3.542   4.911 -23.011  1.00  0.00    -0.237 OA
ATOM     68  O   UNL     1       4.868   2.846 -23.333  1.00  0.00    -0.237 OA
ATOM     69  O   UNL     1       2.505   2.698 -22.649  1.00  0.00    -0.744 OA
ENDBRANCH  65  66
ENDBRANCH  44  58
BRANCH  45  70
ATOM     70  C   UNL     1      -1.444   8.921 -15.688  1.00  0.00     0.058 A 
ATOM     71  C   UNL     1      -1.738   9.873 -16.685  1.00  0.00     0.135 A 
ATOM     72  C   UNL     1      -2.491   8.040 -15.352  1.00  0.00     0.135 A 
ATOM     73  F   UNL     1      -0.799  10.744 -17.083  1.00  0.00    -0.206 F 
ATOM     74  C   UNL     1      -2.970   9.907 -17.352  1.00  0.00     0.059 A 
ATOM     75  C   UNL     1      -3.729   8.060 -15.998  1.00  0.00     0.059 A 
ATOM     76  F   UNL     1      -2.313   7.069 -14.444  1.00  0.00    -0.206 F 
ATOM     77  C   UNL     1      -3.953   8.977 -17.017  1.00  0.00     0.060 A 
BRANCH  77  78
ATOM     78  S   UNL     1      -5.479   8.903 -17.988  1.00  0.00     0.124 S 
ATOM     79  O   UNL     1      -6.113  10.174 -17.654  1.00  0.00    -0.237 OA
ATOM     80  O   UNL     1      -4.972   8.783 -19.350  1.00  0.00    -0.237 OA
ATOM     81  O   UNL     1      -6.154   7.716 -17.470  1.00  0.00    -0.744 OA
ENDBRANCH  77  78
ENDBRANCH  45  70
BRANCH  57  82
ATOM     82  C   UNL     1       4.811   9.760 -14.798  1.00  0.00     0.058 A 
ATOM     83  C   UNL     1       4.238   9.777 -13.513  1.00  0.00     0.135 A 
ATOM     84  C   UNL     1       5.876  10.642 -15.033  1.00  0.00     0.135 A 
ATOM     85  F   UNL     1       3.273   8.909 -13.178  1.00  0.00    -0.206 F 
ATOM     86  C   UNL     1       4.697  10.641 -12.514  1.00  0.00     0.059 A 
ATOM     87  C   UNL     1       6.368  11.491 -14.045  1.00  0.00     0.059 A 
ATOM     88  F   UNL     1       6.499  10.639 -16.223  1.00  0.00    -0.206 F 
ATOM     89  C   UNL     1       5.772  11.487 -12.786  1.00  0.00     0.060 A 
BRANCH  89  90
ATOM     90  S   UNL     1       6.437  12.525 -11.464  1.00  0.00     0.124 S 
ATOM     91  O   UNL     1       5.356  13.480 -11.247  1.00  0.00    -0.237 OA
ATOM     92  O   UNL     1       6.658  11.562 -10.388  1.00  0.00    -0.237 OA
ATOM     93  O   UNL     1       7.655  13.084 -12.047  1.00  0.00    -0.744 OA
ENDBRANCH  89  90
ENDBRANCH  57  82
ENDBRANCH  31  32
ENDBRANCH  24  26
ENDBRANCH  23  24
ENDBRANCH  22  23
ENDBRANCH   1  22
TORSDOF 19
