REMARK SMILES Cc1nc([C@]2(C)CCCO2)nc(C)c1C(=O)OCCOCCOC(=O)c1ccc(-c2c3nc(c(-c4c(F)cc(S(=O)(=O)[O-])cc4F)c4ccc([nH]4)c(-c4c(F)cc(S(=O)(=O)[O-])cc4F)c4nc(c(-c5c(F)cc(S(=O)(=O)[O-])cc5F)c5ccc2[nH]5)C=C4)C=C3)cc1
REMARK SMILES IDX 21 1 20 2 19 3 18 4 17 5 15 6 16 7 14 8 1 9 2 10 3 11 4 12
REMARK SMILES IDX 12 13 11 14 13 15 5 16 7 17 10 18 6 19 8 20 9 21 22 22 23 23
REMARK SMILES IDX 24 24 25 25 26 26 27 27 91 28 28 29 90 30 29 31 30 32 31 33
REMARK SMILES IDX 84 34 32 35 89 36 83 37 85 38 33 39 88 40 82 41 81 42 34 44
REMARK SMILES IDX 68 45 47 46 67 47 48 48 51 49 66 50 86 51 49 52 50 53 65 55
REMARK SMILES IDX 87 56 52 57 35 58 36 59 45 60 37 61 38 62 44 63 46 64 39 65
REMARK SMILES IDX 40 66 41 67 42 68 43 69 69 70 70 71 79 72 71 73 72 74 78 75
REMARK SMILES IDX 80 76 73 77 74 78 75 79 76 80 77 81 53 82 54 83 63 84 55 85
REMARK SMILES IDX 56 86 62 87 64 88 57 89 58 90 59 91 60 92 61 93
REMARK H PARENT 85 43 51 54
REMARK Flexibility Score: inf
ROOT
ATOM      1  C   UNL     1      -5.162  -2.279   4.662  1.00  0.00     0.202 C 
ENDROOT
BRANCH   1   2
ATOM      2  O   UNL     1      -6.580  -2.121   4.607  1.00  0.00    -0.374 OA
BRANCH   2   3
ATOM      3  C   UNL     1      -7.355  -3.208   4.102  1.00  0.00     0.202 C 
BRANCH   3   4
ATOM      4  C   UNL     1      -7.328  -3.426   2.589  1.00  0.00     0.261 C 
BRANCH   4   5
ATOM      5  O   UNL     1      -5.988  -3.684   2.140  1.00  0.00    -0.460 OA
BRANCH   5   6
ATOM      6  C   UNL     1      -5.519  -2.832   1.205  1.00  0.00     0.341 C 
ATOM      7  O   UNL     1      -6.167  -1.984   0.604  1.00  0.00    -0.246 OA
BRANCH   6   8
ATOM      8  C   UNL     1      -4.060  -2.952   1.061  1.00  0.00     0.102 A 
ATOM      9  C   UNL     1      -4.055  -5.494   1.063  1.00  0.00     0.068 C 
ATOM     10  C   UNL     1      -3.396  -4.157   0.890  1.00  0.00     0.056 A 
ATOM     11  N   UNL     1      -2.072  -4.207   0.596  1.00  0.00    -0.234 NA
ATOM     12  C   UNL     1      -1.394  -3.045   0.486  1.00  0.00     0.160 A 
ATOM     13  C   UNL     1      -3.270  -1.807   1.037  1.00  0.00     0.056 A 
ATOM     14  N   UNL     1      -1.951  -1.846   0.736  1.00  0.00    -0.234 NA
ATOM     15  C   UNL     1      -3.769  -0.458   1.473  1.00  0.00     0.068 C 
BRANCH  12  16
ATOM     16  C   UNL     1       0.060  -3.085  -0.013  1.00  0.00     0.125 C 
ATOM     17  C   UNL     1       0.153  -3.658  -1.430  1.00  0.00     0.046 C 
ATOM     18  O   UNL     1       0.859  -3.977   0.798  1.00  0.00    -0.367 OA
ATOM     19  C   UNL     1       0.714  -1.699   0.048  1.00  0.00     0.051 C 
ATOM     20  C   UNL     1       0.254  -5.148  -1.204  1.00  0.00     0.032 C 
ATOM     21  C   UNL     1       0.894  -5.265   0.166  1.00  0.00     0.161 C 
ENDBRANCH  12  16
ENDBRANCH   6   8
ENDBRANCH   5   6
ENDBRANCH   4   5
ENDBRANCH   3   4
ENDBRANCH   2   3
ENDBRANCH   1   2
BRANCH   1  22
ATOM     22  C   UNL     1      -4.576  -3.187   5.750  1.00  0.00     0.261 C 
BRANCH  22  23
ATOM     23  O   UNL     1      -4.992  -4.556   5.626  1.00  0.00    -0.460 OA
BRANCH  23  24
ATOM     24  C   UNL     1      -5.879  -4.959   6.567  1.00  0.00     0.338 C 
ATOM     25  O   UNL     1      -6.313  -4.299   7.503  1.00  0.00    -0.246 OA
BRANCH  24  26
ATOM     26  C   UNL     1      -6.426  -6.278   6.209  1.00  0.00     0.060 A 
ATOM     27  C   UNL     1      -7.818  -6.396   6.102  1.00  0.00     0.016 A 
ATOM     28  C   UNL     1      -5.602  -7.394   6.054  1.00  0.00     0.016 A 
ATOM     29  C   UNL     1      -8.396  -7.643   5.883  1.00  0.00     0.010 A 
ATOM     30  C   UNL     1      -6.186  -8.647   5.844  1.00  0.00     0.010 A 
ATOM     31  C   UNL     1      -7.585  -8.781   5.792  1.00  0.00    -0.014 A 
BRANCH  31  32
ATOM     32  C   UNL     1      -8.212 -10.125   5.788  1.00  0.00     0.031 A 
ATOM     33  C   UNL     1      -8.240 -10.918   7.066  1.00  0.00     0.074 A 
ATOM     34  C   UNL     1      -8.772 -10.616   4.668  1.00  0.00     0.049 A 
ATOM     35  N   UNL     1      -8.690 -12.126   7.282  1.00  0.00    -0.248 NA
ATOM     36  C   UNL     1      -7.685 -10.260   8.261  1.00  0.00     0.031 C 
ATOM     37  C   UNL     1      -8.838  -9.921   3.383  1.00  0.00     0.029 A 
ATOM     38  N   UNL     1      -9.385 -11.820   4.432  1.00  0.00    -0.354 N 
ATOM     39  C   UNL     1      -8.470 -12.376   8.631  1.00  0.00     0.074 A 
ATOM     40  C   UNL     1      -7.816 -11.207   9.178  1.00  0.00     0.031 C 
ATOM     41  C   UNL     1      -9.444 -10.719   2.487  1.00  0.00     0.029 A 
ATOM     42  C   UNL     1      -9.777 -11.991   3.126  1.00  0.00     0.049 A 
ATOM     43  H   UNL     1      -9.531 -12.497   5.131  1.00  0.00     0.167 HD
ATOM     44  C   UNL     1      -8.794 -13.477   9.350  1.00  0.00     0.037 A 
ATOM     45  C   UNL     1     -10.318 -13.062   2.512  1.00  0.00     0.037 A 
ATOM     46  C   UNL     1      -9.446 -14.636   8.796  1.00  0.00     0.049 A 
ATOM     47  C   UNL     1     -10.610 -14.301   3.318  1.00  0.00     0.074 A 
ATOM     48  C   UNL     1      -9.826 -15.800   9.441  1.00  0.00     0.029 A 
ATOM     49  N   UNL     1      -9.811 -14.780   7.465  1.00  0.00    -0.354 N 
ATOM     50  N   UNL     1     -10.412 -14.519   4.597  1.00  0.00    -0.248 NA
ATOM     51  C   UNL     1     -11.204 -15.438   2.601  1.00  0.00     0.031 C 
ATOM     52  C   UNL     1     -10.376 -16.666   8.492  1.00  0.00     0.029 A 
ATOM     53  C   UNL     1     -10.392 -16.021   7.265  1.00  0.00     0.049 A 
ATOM     54  H   UNL     1      -9.677 -14.100   6.766  1.00  0.00     0.167 HD
ATOM     55  C   UNL     1     -10.882 -15.806   4.842  1.00  0.00     0.074 A 
ATOM     56  C   UNL     1     -11.386 -16.312   3.582  1.00  0.00     0.031 C 
ATOM     57  C   UNL     1     -10.897 -16.505   6.005  1.00  0.00     0.037 A 
BRANCH  44  58
ATOM     58  C   UNL     1      -8.434 -13.492  10.810  1.00  0.00     0.058 A 
ATOM     59  C   UNL     1      -9.113 -12.696  11.746  1.00  0.00     0.135 A 
ATOM     60  C   UNL     1      -7.426 -14.346  11.286  1.00  0.00     0.135 A 
ATOM     61  F   UNL     1     -10.072 -11.847  11.344  1.00  0.00    -0.206 F 
ATOM     62  C   UNL     1      -8.794 -12.734  13.100  1.00  0.00     0.059 A 
ATOM     63  C   UNL     1      -7.109 -14.420  12.639  1.00  0.00     0.059 A 
ATOM     64  F   UNL     1      -6.741 -15.124  10.434  1.00  0.00    -0.206 F 
ATOM     65  C   UNL     1      -7.792 -13.602  13.537  1.00  0.00     0.060 A 
BRANCH  65  66
ATOM     66  S   UNL     1      -7.404 -13.652  15.300  1.00  0.00     0.124 S 
ATOM     67  O   UNL     1      -6.732 -12.370  15.487  1.00  0.00    -0.237 OA
ATOM     68  O   UNL     1      -8.726 -13.769  15.906  1.00  0.00    -0.237 OA
ATOM     69  O   UNL     1      -6.553 -14.831  15.428  1.00  0.00    -0.744 OA
ENDBRANCH  65  66
ENDBRANCH  44  58
BRANCH  45  70
ATOM     70  C   UNL     1     -10.600 -13.020   1.052  1.00  0.00     0.058 A 
ATOM     71  C   UNL     1     -11.914 -13.031   0.562  1.00  0.00     0.135 A 
ATOM     72  C   UNL     1      -9.555 -12.976   0.115  1.00  0.00     0.135 A 
ATOM     73  F   UNL     1     -12.947 -13.082   1.416  1.00  0.00    -0.206 F 
ATOM     74  C   UNL     1     -12.184 -13.021  -0.803  1.00  0.00     0.059 A 
ATOM     75  C   UNL     1      -9.799 -12.937  -1.254  1.00  0.00     0.059 A 
ATOM     76  F   UNL     1      -8.279 -12.951   0.530  1.00  0.00    -0.206 F 
ATOM     77  C   UNL     1     -11.118 -12.973  -1.704  1.00  0.00     0.060 A 
BRANCH  77  78
ATOM     78  S   UNL     1     -11.478 -12.921  -3.473  1.00  0.00     0.124 S 
ATOM     79  O   UNL     1     -11.915 -14.289  -3.723  1.00  0.00    -0.237 OA
ATOM     80  O   UNL     1     -12.514 -11.895  -3.544  1.00  0.00    -0.237 OA
ATOM     81  O   UNL     1     -10.196 -12.548  -4.064  1.00  0.00    -0.744 OA
ENDBRANCH  77  78
ENDBRANCH  45  70
BRANCH  57  82
ATOM     82  C   UNL     1     -11.513 -17.878   5.982  1.00  0.00     0.058 A 
ATOM     83  C   UNL     1     -10.875 -18.966   5.367  1.00  0.00     0.135 A 
ATOM     84  C   UNL     1     -12.734 -18.118   6.635  1.00  0.00     0.135 A 
ATOM     85  F   UNL     1      -9.710 -18.791   4.724  1.00  0.00    -0.206 F 
ATOM     86  C   UNL     1     -11.437 -20.239   5.378  1.00  0.00     0.059 A 
ATOM     87  C   UNL     1     -13.300 -19.388   6.684  1.00  0.00     0.059 A 
ATOM     88  F   UNL     1     -13.381 -17.115   7.250  1.00  0.00    -0.206 F 
ATOM     89  C   UNL     1     -12.649 -20.440   6.041  1.00  0.00     0.060 A 
BRANCH  89  90
ATOM     90  S   UNL     1     -13.351 -22.104   6.076  1.00  0.00     0.124 S 
ATOM     91  O   UNL     1     -13.829 -22.250   4.705  1.00  0.00    -0.237 OA
ATOM     92  O   UNL     1     -12.197 -22.922   6.436  1.00  0.00    -0.237 OA
ATOM     93  O   UNL     1     -14.390 -22.013   7.097  1.00  0.00    -0.744 OA
ENDBRANCH  89  90
ENDBRANCH  57  82
ENDBRANCH  31  32
ENDBRANCH  24  26
ENDBRANCH  23  24
ENDBRANCH  22  23
ENDBRANCH   1  22
TORSDOF 18
