REMARK SMILES O=C(OCCOCCOC(=O)c1ccc(-c2c3nc(c(-c4c(F)cc(S(=O)(=O)[O-])cc4F)c4ccc([nH]4)c(-c4c(F)cc(S(=O)(=O)[O-])cc4F)c4nc(c(-c5c(F)cc(S(=O)(=O)[O-])cc5F)c5ccc2[nH]5)C=C4)C=C3)cc1)C1=Cc2cc(OC(F)(F)F)ccc2O[C@@H]1C(F)(F)F
REMARK SMILES IDX 7 1 6 2 5 3 4 4 3 5 2 6 1 7 78 8 79 9 92 10 80 11 91 12
REMARK SMILES IDX 81 13 90 14 82 15 89 16 88 17 93 18 94 19 95 20 96 21 83 22
REMARK SMILES IDX 84 23 85 24 86 25 87 26 8 27 9 28 10 29 11 30 12 31 13 32
REMARK SMILES IDX 77 33 14 34 76 35 15 36 16 37 17 38 70 39 18 40 75 41 69 42
REMARK SMILES IDX 71 43 19 44 74 45 68 46 67 47 20 49 54 50 33 51 53 52 34 53
REMARK SMILES IDX 37 54 52 55 72 56 35 57 36 58 51 60 73 61 38 62 21 63 22 64
REMARK SMILES IDX 31 65 23 66 24 67 30 68 32 69 25 70 26 71 27 72 28 73 29 74
REMARK SMILES IDX 55 75 56 76 65 77 57 78 58 79 64 80 66 81 59 82 60 83 61 84
REMARK SMILES IDX 62 85 63 86 39 87 40 88 49 89 41 90 42 91 48 92 50 93 43 94
REMARK SMILES IDX 44 95 45 96 46 97 47 98
REMARK H PARENT 71 48 37 59
REMARK Flexibility Score: inf
ROOT
ATOM      1  C   UNL     1       2.801  -1.697  -2.630  1.00  0.00     0.202 C 
ENDROOT
BRANCH   1   2
ATOM      2  O   UNL     1       4.016  -0.961  -2.378  1.00  0.00    -0.374 OA
BRANCH   2   3
ATOM      3  C   UNL     1       4.398   0.214  -1.305  1.00  0.00     0.202 C 
BRANCH   3   4
ATOM      4  C   UNL     1       3.559   0.674   0.645  1.00  0.00     0.261 C 
BRANCH   4   5
ATOM      5  O   UNL     1       2.534   1.783   0.962  1.00  0.00    -0.460 OA
BRANCH   5   6
ATOM      6  C   UNL     1       2.640   2.830   0.138  1.00  0.00     0.338 C 
ATOM      7  O   UNL     1       1.948   3.812   0.049  1.00  0.00    -0.246 OA
BRANCH   6   8
ATOM      8  C   UNL     1       3.545   2.194  -0.794  1.00  0.00     0.087 C 
ATOM      9  C   UNL     1       4.936   2.194  -0.301  1.00  0.00     0.027 C 
ATOM     10  C   UNL     1       2.469   0.610  -1.067  1.00  0.00     0.316 C 
ATOM     11  C   UNL     1       5.766   0.726   0.342  1.00  0.00     0.021 A 
ATOM     12  O   UNL     1       3.310  -0.962  -0.311  1.00  0.00    -0.475 OA
ATOM     13  C   UNL     1       7.018   0.845   0.877  1.00  0.00     0.058 A 
ATOM     14  C   UNL     1       4.971  -0.808   0.437  1.00  0.00     0.128 A 
ATOM     15  C   UNL     1       7.543  -0.315   1.480  1.00  0.00     0.130 A 
ATOM     16  C   UNL     1       5.492  -1.840   1.158  1.00  0.00     0.051 A 
ATOM     17  C   UNL     1       6.802  -1.560   1.656  1.00  0.00     0.050 A 
BRANCH  10  18
ATOM     18  C   UNL     1       2.010   0.964  -2.561  1.00  0.00     0.430 C 
ATOM     19  F   UNL     1       1.118   0.127  -3.119  1.00  0.00    -0.167 F 
ATOM     20  F   UNL     1       1.354   2.166  -2.503  1.00  0.00    -0.167 F 
ATOM     21  F   UNL     1       3.014   1.175  -3.441  1.00  0.00    -0.167 F 
ENDBRANCH  10  18
BRANCH  15  22
ATOM     22  O   UNL     1       8.823  -0.094   1.938  1.00  0.00    -0.406 OA
BRANCH  22  23
ATOM     23  C   UNL     1       9.704  -1.201   2.041  1.00  0.00     0.573 C 
ATOM     24  F   UNL     1       9.477  -1.869   3.186  1.00  0.00    -0.132 F 
ATOM     25  F   UNL     1       9.581  -2.037   0.988  1.00  0.00    -0.132 F 
ATOM     26  F   UNL     1      10.972  -0.732   2.058  1.00  0.00    -0.132 F 
ENDBRANCH  22  23
ENDBRANCH  15  22
ENDBRANCH   6   8
ENDBRANCH   5   6
ENDBRANCH   4   5
ENDBRANCH   3   4
ENDBRANCH   2   3
ENDBRANCH   1   2
BRANCH   1  27
ATOM     27  C   UNL     1       2.882  -3.220  -2.684  1.00  0.00     0.261 C 
BRANCH  27  28
ATOM     28  O   UNL     1       3.443  -3.782  -1.512  1.00  0.00    -0.460 OA
BRANCH  28  29
ATOM     29  C   UNL     1       4.776  -3.974  -1.620  1.00  0.00     0.338 C 
ATOM     30  O   UNL     1       5.508  -3.607  -2.523  1.00  0.00    -0.246 OA
BRANCH  29  31
ATOM     31  C   UNL     1       5.241  -4.731  -0.452  1.00  0.00     0.060 A 
ATOM     32  C   UNL     1       6.581  -4.571  -0.092  1.00  0.00     0.016 A 
ATOM     33  C   UNL     1       4.387  -5.567   0.284  1.00  0.00     0.016 A 
ATOM     34  C   UNL     1       7.073  -5.241   1.014  1.00  0.00     0.010 A 
ATOM     35  C   UNL     1       4.886  -6.256   1.384  1.00  0.00     0.010 A 
ATOM     36  C   UNL     1       6.234  -6.103   1.732  1.00  0.00    -0.014 A 
BRANCH  36  37
ATOM     37  C   UNL     1       6.857  -6.971   2.740  1.00  0.00     0.031 A 
ATOM     38  C   UNL     1       7.322  -8.324   2.304  1.00  0.00     0.074 A 
ATOM     39  C   UNL     1       7.098  -6.494   3.972  1.00  0.00     0.049 A 
ATOM     40  N   UNL     1       8.012  -9.210   2.967  1.00  0.00    -0.248 NA
ATOM     41  C   UNL     1       6.976  -8.728   0.929  1.00  0.00     0.031 C 
ATOM     42  C   UNL     1       6.698  -5.174   4.460  1.00  0.00     0.029 A 
ATOM     43  N   UNL     1       7.754  -7.062   5.028  1.00  0.00    -0.354 N 
ATOM     44  C   UNL     1       8.215 -10.260   2.083  1.00  0.00     0.074 A 
ATOM     45  C   UNL     1       7.525  -9.930   0.856  1.00  0.00     0.031 C 
ATOM     46  C   UNL     1       7.122  -5.033   5.727  1.00  0.00     0.029 A 
ATOM     47  C   UNL     1       7.800  -6.260   6.140  1.00  0.00     0.049 A 
ATOM     48  H   UNL     1       8.155  -7.961   4.993  1.00  0.00     0.167 HD
ATOM     49  C   UNL     1       8.935 -11.386   2.277  1.00  0.00     0.037 A 
ATOM     50  C   UNL     1       8.322  -6.507   7.356  1.00  0.00     0.037 A 
ATOM     51  C   UNL     1       9.582 -11.706   3.522  1.00  0.00     0.049 A 
ATOM     52  C   UNL     1       9.039  -7.815   7.575  1.00  0.00     0.074 A 
ATOM     53  C   UNL     1      10.313 -12.833   3.848  1.00  0.00     0.029 A 
ATOM     54  N   UNL     1       9.561 -10.900   4.654  1.00  0.00    -0.354 N 
ATOM     55  N   UNL     1       9.252  -8.794   6.725  1.00  0.00    -0.248 NA
ATOM     56  C   UNL     1       9.600  -8.046   8.910  1.00  0.00     0.031 C 
ATOM     57  C   UNL     1      10.680 -12.738   5.194  1.00  0.00     0.029 A 
ATOM     58  C   UNL     1      10.244 -11.518   5.688  1.00  0.00     0.049 A 
ATOM     59  H   UNL     1       9.125 -10.020   4.712  1.00  0.00     0.167 HD
ATOM     60  C   UNL     1       9.993  -9.746   7.417  1.00  0.00     0.074 A 
ATOM     61  C   UNL     1      10.218  -9.206   8.743  1.00  0.00     0.031 C 
ATOM     62  C   UNL     1      10.444 -10.959   7.003  1.00  0.00     0.037 A 
BRANCH  49  63
ATOM     63  C   UNL     1       9.034 -12.353   1.132  1.00  0.00     0.058 A 
ATOM     64  C   UNL     1       9.762 -12.049  -0.031  1.00  0.00     0.135 A 
ATOM     65  C   UNL     1       8.416 -13.611   1.206  1.00  0.00     0.135 A 
ATOM     66  F   UNL     1      10.347 -10.848  -0.169  1.00  0.00    -0.206 F 
ATOM     67  C   UNL     1       9.863 -12.953  -1.083  1.00  0.00     0.059 A 
ATOM     68  C   UNL     1       8.530 -14.543   0.179  1.00  0.00     0.059 A 
ATOM     69  F   UNL     1       7.693 -13.947   2.286  1.00  0.00    -0.206 F 
ATOM     70  C   UNL     1       9.250 -14.201  -0.965  1.00  0.00     0.060 A 
BRANCH  70  71
ATOM     71  S   UNL     1       9.422 -15.374  -2.325  1.00  0.00     0.124 S 
ATOM     72  O   UNL     1       8.636 -14.726  -3.371  1.00  0.00    -0.237 OA
ATOM     73  O   UNL     1      10.866 -15.392  -2.535  1.00  0.00    -0.237 OA
ATOM     74  O   UNL     1       8.853 -16.606  -1.787  1.00  0.00    -0.744 OA
ENDBRANCH  70  71
ENDBRANCH  49  63
BRANCH  50  75
ATOM     75  C   UNL     1       8.161  -5.518   8.457  1.00  0.00     0.058 A 
ATOM     76  C   UNL     1       9.261  -4.873   9.041  1.00  0.00     0.135 A 
ATOM     77  C   UNL     1       6.886  -5.219   8.966  1.00  0.00     0.135 A 
ATOM     78  F   UNL     1      10.502  -5.126   8.596  1.00  0.00    -0.206 F 
ATOM     79  C   UNL     1       9.108  -3.994  10.109  1.00  0.00     0.059 A 
ATOM     80  C   UNL     1       6.705  -4.317  10.008  1.00  0.00     0.059 A 
ATOM     81  F   UNL     1       5.796  -5.797   8.437  1.00  0.00    -0.206 F 
ATOM     82  C   UNL     1       7.824  -3.722  10.585  1.00  0.00     0.060 A 
BRANCH  82  83
ATOM     83  S   UNL     1       7.633  -2.560  11.953  1.00  0.00     0.124 S 
ATOM     84  O   UNL     1       8.203  -3.316  13.063  1.00  0.00    -0.237 OA
ATOM     85  O   UNL     1       8.413  -1.417  11.490  1.00  0.00    -0.237 OA
ATOM     86  O   UNL     1       6.191  -2.344  12.012  1.00  0.00    -0.744 OA
ENDBRANCH  82  83
ENDBRANCH  50  75
BRANCH  62  87
ATOM     87  C   UNL     1      11.250 -11.761   7.992  1.00  0.00     0.058 A 
ATOM     88  C   UNL     1      10.678 -12.293   9.159  1.00  0.00     0.135 A 
ATOM     89  C   UNL     1      12.614 -12.010   7.762  1.00  0.00     0.135 A 
ATOM     90  F   UNL     1       9.379 -12.088   9.429  1.00  0.00    -0.206 F 
ATOM     91  C   UNL     1      11.441 -12.988  10.091  1.00  0.00     0.059 A 
ATOM     92  C   UNL     1      13.385 -12.742   8.658  1.00  0.00     0.059 A 
ATOM     93  F   UNL     1      13.210 -11.545   6.653  1.00  0.00    -0.206 F 
ATOM     94  C   UNL     1      12.795 -13.204   9.833  1.00  0.00     0.060 A 
BRANCH  94  95
ATOM     95  S   UNL     1      13.775 -14.095  11.058  1.00  0.00     0.124 S 
ATOM     96  O   UNL     1      13.857 -13.115  12.136  1.00  0.00    -0.237 OA
ATOM     97  O   UNL     1      12.946 -15.266  11.326  1.00  0.00    -0.237 OA
ATOM     98  O   UNL     1      15.028 -14.366  10.360  1.00  0.00    -0.744 OA
ENDBRANCH  94  95
ENDBRANCH  62  87
ENDBRANCH  36  37
ENDBRANCH  29  31
ENDBRANCH  28  29
ENDBRANCH  27  28
ENDBRANCH   1  27
TORSDOF 20
