REMARK SMILES O=C(OCCOCCOC(=O)[C@H]1CSCN1C(=O)c1cccc2cccnc12)c1ccc(-c2c3nc(c(-c4c(F)cc(S(=O)(=O)[O-])cc4F)c4ccc([nH]4)c(-c4c(F)cc(S(=O)(=O)[O-])cc4F)c4nc(c(-c5c(F)cc(S(=O)(=O)[O-])cc5F)c5ccc2[nH]5)C=C4)C=C3)cc1
REMARK SMILES IDX 5 1 4 2 3 3 2 4 1 5 29 6 30 7 94 8 31 9 93 10 32 11 33 12
REMARK SMILES IDX 34 13 87 14 35 15 92 16 86 17 88 18 36 19 91 20 85 21 84 22
REMARK SMILES IDX 37 24 71 25 50 26 70 27 51 28 54 29 69 30 89 31 52 32 53 33
REMARK SMILES IDX 68 35 90 36 55 37 38 38 39 39 48 40 40 41 41 42 47 43 49 44
REMARK SMILES IDX 42 45 43 46 44 47 45 48 46 49 72 50 73 51 82 52 74 53 75 54
REMARK SMILES IDX 81 55 83 56 76 57 77 58 78 59 79 60 80 61 56 62 57 63 66 64
REMARK SMILES IDX 58 65 59 66 65 67 67 68 60 69 61 70 62 71 63 72 64 73 6 74
REMARK SMILES IDX 7 75 8 76 9 77 10 78 11 79 12 80 13 81 16 82 14 83 15 84
REMARK SMILES IDX 17 85 18 86 19 87 20 88 28 89 21 90 23 91 27 92 22 93 24 94
REMARK SMILES IDX 26 95 25 96
REMARK H PARENT 88 23 54 34
REMARK Flexibility Score: inf
ROOT
ATOM      1  C   UNL     1       4.203  -0.169   1.408  1.00  0.00     0.202 C 
ENDROOT
BRANCH   1   2
ATOM      2  C   UNL     1       3.958   1.188   0.750  1.00  0.00     0.261 C 
BRANCH   2   3
ATOM      3  O   UNL     1       2.580   1.297   0.357  1.00  0.00    -0.460 OA
BRANCH   3   4
ATOM      4  C   UNL     1       2.040   0.980  -0.843  1.00  0.00     0.338 C 
ATOM      5  O   UNL     1       0.815   0.993  -0.959  1.00  0.00    -0.246 OA
BRANCH   4   6
ATOM      6  C   UNL     1       2.852   0.655  -2.053  1.00  0.00     0.060 A 
ATOM      7  C   UNL     1       4.062  -0.037  -2.038  1.00  0.00     0.016 A 
ATOM      8  C   UNL     1       2.303   0.989  -3.301  1.00  0.00     0.016 A 
ATOM      9  C   UNL     1       4.714  -0.402  -3.195  1.00  0.00     0.010 A 
ATOM     10  C   UNL     1       2.953   0.628  -4.485  1.00  0.00     0.010 A 
ATOM     11  C   UNL     1       4.159  -0.076  -4.420  1.00  0.00    -0.014 A 
BRANCH  11  12
ATOM     12  C   UNL     1       4.979  -0.384  -5.593  1.00  0.00     0.031 A 
ATOM     13  C   UNL     1       5.790   0.725  -6.174  1.00  0.00     0.074 A 
ATOM     14  C   UNL     1       5.134  -1.670  -5.956  1.00  0.00     0.049 A 
ATOM     15  N   UNL     1       6.548   0.724  -7.231  1.00  0.00    -0.248 NA
ATOM     16  C   UNL     1       5.760   2.011  -5.451  1.00  0.00     0.031 C 
ATOM     17  C   UNL     1       4.516  -2.817  -5.279  1.00  0.00     0.029 A 
ATOM     18  N   UNL     1       5.889  -2.235  -6.943  1.00  0.00    -0.354 N 
ATOM     19  C   UNL     1       7.051   2.014  -7.327  1.00  0.00     0.074 A 
ATOM     20  C   UNL     1       6.528   2.771  -6.215  1.00  0.00     0.031 C 
ATOM     21  C   UNL     1       4.934  -3.950  -5.865  1.00  0.00     0.029 A 
ATOM     22  C   UNL     1       5.772  -3.603  -7.005  1.00  0.00     0.049 A 
ATOM     23  H   UNL     1       6.461  -1.713  -7.551  1.00  0.00     0.167 HD
ATOM     24  C   UNL     1       7.865   2.507  -8.286  1.00  0.00     0.037 A 
ATOM     25  C   UNL     1       6.255  -4.459  -7.923  1.00  0.00     0.037 A 
ATOM     26  C   UNL     1       8.351   1.698  -9.369  1.00  0.00     0.049 A 
ATOM     27  C   UNL     1       7.054  -3.865  -9.052  1.00  0.00     0.074 A 
ATOM     28  C   UNL     1       9.092   2.073 -10.471  1.00  0.00     0.029 A 
ATOM     29  N   UNL     1       8.134   0.326  -9.473  1.00  0.00    -0.354 N 
ATOM     30  N   UNL     1       7.423  -2.615  -9.227  1.00  0.00    -0.248 NA
ATOM     31  C   UNL     1       7.477  -4.776 -10.119  1.00  0.00     0.031 C 
ATOM     32  C   UNL     1       9.287   0.935 -11.263  1.00  0.00     0.029 A 
ATOM     33  C   UNL     1       8.715  -0.160 -10.627  1.00  0.00     0.049 A 
ATOM     34  H   UNL     1       7.640  -0.218  -8.818  1.00  0.00     0.167 HD
ATOM     35  C   UNL     1       8.134  -2.588 -10.417  1.00  0.00     0.074 A 
ATOM     36  C   UNL     1       8.156  -3.955 -10.910  1.00  0.00     0.031 C 
ATOM     37  C   UNL     1       8.711  -1.539 -11.056  1.00  0.00     0.037 A 
BRANCH  24  38
ATOM     38  C   UNL     1       8.167   3.977  -8.238  1.00  0.00     0.058 A 
ATOM     39  C   UNL     1       9.011   4.539  -7.266  1.00  0.00     0.135 A 
ATOM     40  C   UNL     1       7.549   4.848  -9.149  1.00  0.00     0.135 A 
ATOM     41  F   UNL     1       9.594   3.758  -6.343  1.00  0.00    -0.206 F 
ATOM     42  C   UNL     1       9.209   5.915  -7.184  1.00  0.00     0.059 A 
ATOM     43  C   UNL     1       7.752   6.224  -9.101  1.00  0.00     0.059 A 
ATOM     44  F   UNL     1       6.715   4.368 -10.084  1.00  0.00    -0.206 F 
ATOM     45  C   UNL     1       8.571   6.750  -8.103  1.00  0.00     0.060 A 
BRANCH  45  46
ATOM     46  S   UNL     1       8.820   8.534  -7.972  1.00  0.00     0.124 S 
ATOM     47  O   UNL     1       8.044   8.850  -6.777  1.00  0.00    -0.237 OA
ATOM     48  O   UNL     1      10.269   8.637  -7.831  1.00  0.00    -0.237 OA
ATOM     49  O   UNL     1       8.277   9.046  -9.226  1.00  0.00    -0.744 OA
ENDBRANCH  45  46
ENDBRANCH  24  38
BRANCH  25  50
ATOM     50  C   UNL     1       5.928  -5.910  -7.856  1.00  0.00     0.058 A 
ATOM     51  C   UNL     1       6.923  -6.880  -7.668  1.00  0.00     0.135 A 
ATOM     52  C   UNL     1       4.600  -6.361  -7.973  1.00  0.00     0.135 A 
ATOM     53  F   UNL     1       8.207  -6.509  -7.556  1.00  0.00    -0.206 F 
ATOM     54  C   UNL     1       6.620  -8.239  -7.613  1.00  0.00     0.059 A 
ATOM     55  C   UNL     1       4.269  -7.710  -7.891  1.00  0.00     0.059 A 
ATOM     56  F   UNL     1       3.602  -5.480  -8.147  1.00  0.00    -0.206 F 
ATOM     57  C   UNL     1       5.288  -8.644  -7.726  1.00  0.00     0.060 A 
BRANCH  57  58
ATOM     58  S   UNL     1       4.901 -10.406  -7.634  1.00  0.00     0.124 S 
ATOM     59  O   UNL     1       5.409 -10.885  -8.915  1.00  0.00    -0.237 OA
ATOM     60  O   UNL     1       5.649 -10.826  -6.454  1.00  0.00    -0.237 OA
ATOM     61  O   UNL     1       3.449 -10.425  -7.486  1.00  0.00    -0.744 OA
ENDBRANCH  57  58
ENDBRANCH  25  50
BRANCH  37  62
ATOM     62  C   UNL     1       9.440  -1.847 -12.328  1.00  0.00     0.058 A 
ATOM     63  C   UNL     1       8.754  -2.122 -13.519  1.00  0.00     0.135 A 
ATOM     64  C   UNL     1      10.842  -1.790 -12.364  1.00  0.00     0.135 A 
ATOM     65  F   UNL     1       7.413  -2.195 -13.527  1.00  0.00    -0.206 F 
ATOM     66  C   UNL     1       9.437  -2.345 -14.707  1.00  0.00     0.059 A 
ATOM     67  C   UNL     1      11.543  -1.980 -13.546  1.00  0.00     0.059 A 
ATOM     68  F   UNL     1      11.537  -1.518 -11.248  1.00  0.00    -0.206 F 
ATOM     69  C   UNL     1      10.831  -2.265 -14.711  1.00  0.00     0.060 A 
BRANCH  69  70
ATOM     70  S   UNL     1      11.703  -2.499 -16.272  1.00  0.00     0.124 S 
ATOM     71  O   UNL     1      11.593  -3.942 -16.455  1.00  0.00    -0.237 OA
ATOM     72  O   UNL     1      10.920  -1.680 -17.192  1.00  0.00    -0.237 OA
ATOM     73  O   UNL     1      13.046  -2.002 -15.988  1.00  0.00    -0.744 OA
ENDBRANCH  69  70
ENDBRANCH  37  62
ENDBRANCH  11  12
ENDBRANCH   4   6
ENDBRANCH   3   4
ENDBRANCH   2   3
ENDBRANCH   1   2
BRANCH   1  74
ATOM     74  O   UNL     1       3.951  -1.259   0.531  1.00  0.00    -0.374 OA
BRANCH  74  75
ATOM     75  C   UNL     1       2.678  -1.890   0.625  1.00  0.00     0.202 C 
BRANCH  75  76
ATOM     76  C   UNL     1       2.897  -3.291   1.166  1.00  0.00     0.261 C 
BRANCH  76  77
ATOM     77  O   UNL     1       3.440  -3.159   2.483  1.00  0.00    -0.462 OA
BRANCH  77  78
ATOM     78  C   UNL     1       4.802  -3.157   2.604  1.00  0.00     0.329 C 
ATOM     79  O   UNL     1       5.611  -3.211   1.683  1.00  0.00    -0.250 OA
BRANCH  78  80
ATOM     80  C   UNL     1       5.221  -3.007   4.073  1.00  0.00     0.206 C 
ATOM     81  C   UNL     1       5.891  -1.657   4.306  1.00  0.00     0.108 C 
ATOM     82  N   UNL     1       4.088  -3.175   4.993  1.00  0.00    -0.315 N 
ATOM     83  S   UNL     1       4.680  -0.637   5.187  1.00  0.00    -0.138 SA
ATOM     84  C   UNL     1       3.823  -2.064   5.874  1.00  0.00     0.191 C 
BRANCH  82  85
ATOM     85  C   UNL     1       3.477  -4.422   4.961  1.00  0.00     0.257 C 
ATOM     86  O   UNL     1       3.860  -5.292   4.177  1.00  0.00    -0.269 OA
BRANCH  85  87
ATOM     87  C   UNL     1       2.308  -4.725   5.802  1.00  0.00     0.066 A 
ATOM     88  C   UNL     1       1.165  -3.910   5.761  1.00  0.00     0.016 A 
ATOM     89  C   UNL     1       2.326  -5.950   6.475  1.00  0.00     0.083 A 
ATOM     90  C   UNL     1       0.035  -4.277   6.482  1.00  0.00     0.002 A 
ATOM     91  C   UNL     1       1.151  -6.338   7.145  1.00  0.00     0.001 A 
ATOM     92  N   UNL     1       3.416  -6.751   6.462  1.00  0.00    -0.255 NA
ATOM     93  C   UNL     1       0.030  -5.485   7.175  1.00  0.00     0.010 A 
ATOM     94  C   UNL     1       1.126  -7.608   7.742  1.00  0.00     0.012 A 
ATOM     95  C   UNL     1       3.341  -7.985   6.985  1.00  0.00     0.112 A 
ATOM     96  C   UNL     1       2.224  -8.455   7.635  1.00  0.00     0.021 A 
ENDBRANCH  85  87
ENDBRANCH  82  85
ENDBRANCH  78  80
ENDBRANCH  77  78
ENDBRANCH  76  77
ENDBRANCH  75  76
ENDBRANCH  74  75
ENDBRANCH   1  74
TORSDOF 19
