REMARK SMILES Cn1cc(-c2cc(C(F)(F)F)c3c(C4CC4)nn(CC(=O)OCCOCCOC(=O)c4ccc(-c5c6nc(c(-c7c(F)cc(S(=O)(=O)[O-])cc7F)c7ccc([nH]7)c(-c7c(F)cc(S(=O)(=O)[O-])cc7F)c7nc(c(-c8c(F)cc(S(=O)(=O)[O-])cc8F)c8ccc5[nH]8)C=C7)C=C6)cc4)c3n2)cn1
REMARK SMILES IDX 26 1 25 2 24 3 23 4 22 5 20 6 21 7 19 8 18 9 5 10 6 11 98 12
REMARK SMILES IDX 7 13 97 14 12 15 13 16 17 17 4 18 1 19 2 20 3 21 100 22
REMARK SMILES IDX 99 23 8 24 9 25 10 26 11 27 14 28 15 29 16 30 27 31 28 32
REMARK SMILES IDX 29 33 30 34 31 35 32 36 96 37 33 38 95 39 34 40 35 41 36 42
REMARK SMILES IDX 89 43 37 44 94 45 88 46 90 47 38 48 93 49 87 50 86 51 39 53
REMARK SMILES IDX 73 54 52 55 72 56 53 57 56 58 71 59 91 60 54 61 55 62 70 64
REMARK SMILES IDX 92 65 57 66 40 67 41 68 50 69 42 70 43 71 49 72 51 73 44 74
REMARK SMILES IDX 45 75 46 76 47 77 48 78 74 79 75 80 84 81 76 82 77 83 83 84
REMARK SMILES IDX 85 85 78 86 79 87 80 88 81 89 82 90 58 91 59 92 68 93 60 94
REMARK SMILES IDX 61 95 67 96 69 97 62 98 63 99 64 100 65 101 66 102
REMARK H PARENT 90 52 56 63
REMARK Flexibility Score: inf
ROOT
ATOM      1  C   UNL     1      -5.157  -1.012   0.236  1.00  0.00     0.202 C 
ENDROOT
BRANCH   1   2
ATOM      2  O   UNL     1      -6.194  -0.789  -0.716  1.00  0.00    -0.374 OA
BRANCH   2   3
ATOM      3  C   UNL     1      -6.117  -1.412  -1.996  1.00  0.00     0.202 C 
BRANCH   3   4
ATOM      4  C   UNL     1      -5.093  -0.858  -2.980  1.00  0.00     0.261 C 
BRANCH   4   5
ATOM      5  O   UNL     1      -3.742  -1.247  -2.659  1.00  0.00    -0.462 OA
BRANCH   5   6
ATOM      6  C   UNL     1      -2.958  -0.256  -2.168  1.00  0.00     0.327 C 
ATOM      7  O   UNL     1      -3.347   0.892  -1.958  1.00  0.00    -0.250 OA
BRANCH   6   8
ATOM      8  C   UNL     1      -1.521  -0.616  -2.041  1.00  0.00     0.269 C 
BRANCH   8   9
ATOM      9  N   UNL     1      -1.131  -1.865  -1.402  1.00  0.00    -0.236 N 
ATOM     10  C   UNL     1       2.097  -1.374  -0.474  1.00  0.00     0.077 A 
ATOM     11  C   UNL     1       2.477  -2.625   0.007  1.00  0.00     0.043 A 
ATOM     12  N   UNL     1       1.211  -1.306  -1.499  1.00  0.00    -0.228 NA
ATOM     13  C   UNL     1       1.612  -3.722  -0.218  1.00  0.00     0.071 A 
ATOM     14  C   UNL     1       0.198  -2.160  -1.251  1.00  0.00     0.159 A 
ATOM     15  C   UNL     1       0.296  -3.307  -0.483  1.00  0.00     0.055 A 
ATOM     16  C   UNL     1      -1.000  -3.386   0.097  1.00  0.00     0.076 A 
ATOM     17  N   UNL     1      -1.870  -2.523  -0.478  1.00  0.00    -0.174 NA
BRANCH  10  18
ATOM     18  C   UNL     1       1.752  -0.283   0.475  1.00  0.00     0.038 A 
ATOM     19  C   UNL     1      -1.429   0.809   1.612  1.00  0.00     0.173 C 
ATOM     20  N   UNL     1      -0.001   0.713   1.382  1.00  0.00    -0.275 N 
ATOM     21  C   UNL     1       0.721  -0.452   1.395  1.00  0.00     0.118 A 
ATOM     22  N   UNL     1       0.665   1.725   0.796  1.00  0.00    -0.181 NA
ATOM     23  C   UNL     1       1.681   1.104   0.178  1.00  0.00     0.145 A 
ENDBRANCH  10  18
BRANCH  13  24
ATOM     24  C   UNL     1       2.122  -5.110  -0.496  1.00  0.00     0.417 C 
ATOM     25  F   UNL     1       1.751  -6.054   0.398  1.00  0.00    -0.166 F 
ATOM     26  F   UNL     1       1.690  -5.560  -1.710  1.00  0.00    -0.166 F 
ATOM     27  F   UNL     1       3.482  -5.164  -0.553  1.00  0.00    -0.166 F 
ENDBRANCH  13  24
BRANCH  16  28
ATOM     28  C   UNL     1      -1.431  -4.137   1.371  1.00  0.00     0.041 C 
ATOM     29  C   UNL     1      -0.597  -5.184   2.067  1.00  0.00     0.011 C 
ATOM     30  C   UNL     1      -0.742  -3.844   2.695  1.00  0.00     0.011 C 
ENDBRANCH  16  28
ENDBRANCH   8   9
ENDBRANCH   6   8
ENDBRANCH   5   6
ENDBRANCH   4   5
ENDBRANCH   3   4
ENDBRANCH   2   3
ENDBRANCH   1   2
BRANCH   1  31
ATOM     31  C   UNL     1      -5.103  -2.383   0.895  1.00  0.00     0.261 C 
BRANCH  31  32
ATOM     32  O   UNL     1      -4.672  -3.366  -0.035  1.00  0.00    -0.460 OA
BRANCH  32  33
ATOM     33  C   UNL     1      -5.636  -4.169  -0.535  1.00  0.00     0.338 C 
ATOM     34  O   UNL     1      -6.830  -4.085  -0.344  1.00  0.00    -0.246 OA
BRANCH  33  35
ATOM     35  C   UNL     1      -4.988  -5.258  -1.288  1.00  0.00     0.060 A 
ATOM     36  C   UNL     1      -5.830  -6.302  -1.643  1.00  0.00     0.016 A 
ATOM     37  C   UNL     1      -3.605  -5.428  -1.185  1.00  0.00     0.016 A 
ATOM     38  C   UNL     1      -5.334  -7.573  -1.501  1.00  0.00     0.010 A 
ATOM     39  C   UNL     1      -3.113  -6.691  -0.991  1.00  0.00     0.010 A 
ATOM     40  C   UNL     1      -4.021  -7.736  -1.040  1.00  0.00    -0.014 A 
BRANCH  40  41
ATOM     41  C   UNL     1      -3.583  -9.075  -0.746  1.00  0.00     0.031 A 
ATOM     42  C   UNL     1      -3.289  -9.812  -1.986  1.00  0.00     0.074 A 
ATOM     43  C   UNL     1      -3.455  -9.556   0.502  1.00  0.00     0.049 A 
ATOM     44  N   UNL     1      -4.064 -10.653  -2.584  1.00  0.00    -0.248 NA
ATOM     45  C   UNL     1      -2.143  -9.363  -2.792  1.00  0.00     0.031 C 
ATOM     46  C   UNL     1      -3.477  -8.846   1.782  1.00  0.00     0.029 A 
ATOM     47  N   UNL     1      -3.214 -10.840   0.870  1.00  0.00    -0.354 N 
ATOM     48  C   UNL     1      -3.368 -11.034  -3.720  1.00  0.00     0.074 A 
ATOM     49  C   UNL     1      -2.346 -10.041  -3.921  1.00  0.00     0.031 C 
ATOM     50  C   UNL     1      -3.039  -9.679   2.759  1.00  0.00     0.029 A 
ATOM     51  C   UNL     1      -2.846 -11.007   2.199  1.00  0.00     0.049 A 
ATOM     52  H   UNL     1      -3.294 -11.595   0.243  1.00  0.00     0.167 HD
ATOM     53  C   UNL     1      -3.496 -12.291  -4.219  1.00  0.00     0.037 A 
ATOM     54  C   UNL     1      -2.353 -12.155   2.735  1.00  0.00     0.037 A 
ATOM     55  C   UNL     1      -4.688 -12.931  -3.716  1.00  0.00     0.049 A 
ATOM     56  C   UNL     1      -2.785 -13.264   1.833  1.00  0.00     0.074 A 
ATOM     57  C   UNL     1      -6.039 -12.648  -3.785  1.00  0.00     0.029 A 
ATOM     58  N   UNL     1      -4.542 -13.815  -2.673  1.00  0.00    -0.354 N 
ATOM     59  N   UNL     1      -4.032 -13.619   1.673  1.00  0.00    -0.248 NA
ATOM     60  C   UNL     1      -1.890 -13.634   0.745  1.00  0.00     0.031 C 
ATOM     61  C   UNL     1      -6.561 -13.002  -2.506  1.00  0.00     0.029 A 
ATOM     62  C   UNL     1      -5.520 -13.543  -1.749  1.00  0.00     0.049 A 
ATOM     63  H   UNL     1      -3.858 -14.519  -2.602  1.00  0.00     0.167 HD
ATOM     64  C   UNL     1      -4.163 -13.876   0.315  1.00  0.00     0.074 A 
ATOM     65  C   UNL     1      -2.794 -13.925  -0.195  1.00  0.00     0.031 C 
ATOM     66  C   UNL     1      -5.364 -13.739  -0.323  1.00  0.00     0.037 A 
BRANCH  53  67
ATOM     67  C   UNL     1      -2.344 -13.056  -4.819  1.00  0.00     0.058 A 
ATOM     68  C   UNL     1      -2.598 -14.290  -5.445  1.00  0.00     0.135 A 
ATOM     69  C   UNL     1      -0.981 -12.765  -4.574  1.00  0.00     0.135 A 
ATOM     70  F   UNL     1      -3.856 -14.675  -5.713  1.00  0.00    -0.206 F 
ATOM     71  C   UNL     1      -1.580 -15.195  -5.744  1.00  0.00     0.059 A 
ATOM     72  C   UNL     1       0.051 -13.625  -4.918  1.00  0.00     0.059 A 
ATOM     73  F   UNL     1      -0.579 -11.684  -3.898  1.00  0.00    -0.206 F 
ATOM     74  C   UNL     1      -0.259 -14.855  -5.465  1.00  0.00     0.060 A 
BRANCH  74  75
ATOM     75  S   UNL     1       1.048 -16.055  -5.758  1.00  0.00     0.124 S 
ATOM     76  O   UNL     1       0.723 -17.083  -4.776  1.00  0.00    -0.237 OA
ATOM     77  O   UNL     1       0.821 -16.406  -7.156  1.00  0.00    -0.237 OA
ATOM     78  O   UNL     1       2.267 -15.294  -5.498  1.00  0.00    -0.744 OA
ENDBRANCH  74  75
ENDBRANCH  53  67
BRANCH  54  79
ATOM     79  C   UNL     1      -1.205 -12.300   3.675  1.00  0.00     0.058 A 
ATOM     80  C   UNL     1      -0.887 -13.548   4.247  1.00  0.00     0.135 A 
ATOM     81  C   UNL     1      -0.220 -11.299   3.798  1.00  0.00     0.135 A 
ATOM     82  F   UNL     1      -1.757 -14.567   4.165  1.00  0.00    -0.206 F 
ATOM     83  C   UNL     1       0.352 -13.805   4.847  1.00  0.00     0.059 A 
ATOM     84  C   UNL     1       1.019 -11.530   4.397  1.00  0.00     0.059 A 
ATOM     85  F   UNL     1      -0.394 -10.085   3.254  1.00  0.00    -0.206 F 
ATOM     86  C   UNL     1       1.310 -12.793   4.895  1.00  0.00     0.060 A 
BRANCH  86  87
ATOM     87  S   UNL     1       2.973 -13.164   5.506  1.00  0.00     0.124 S 
ATOM     88  O   UNL     1       2.724 -13.432   6.918  1.00  0.00    -0.237 OA
ATOM     89  O   UNL     1       3.349 -14.317   4.695  1.00  0.00    -0.237 OA
ATOM     90  O   UNL     1       3.718 -11.939   5.226  1.00  0.00    -0.744 OA
ENDBRANCH  86  87
ENDBRANCH  54  79
BRANCH  66  91
ATOM     91  C   UNL     1      -6.606 -13.574   0.519  1.00  0.00     0.058 A 
ATOM     92  C   UNL     1      -6.875 -12.462   1.338  1.00  0.00     0.135 A 
ATOM     93  C   UNL     1      -7.640 -14.507   0.350  1.00  0.00     0.135 A 
ATOM     94  F   UNL     1      -5.977 -11.476   1.478  1.00  0.00    -0.206 F 
ATOM     95  C   UNL     1      -8.106 -12.303   1.983  1.00  0.00     0.059 A 
ATOM     96  C   UNL     1      -8.883 -14.354   0.957  1.00  0.00     0.059 A 
ATOM     97  F   UNL     1      -7.467 -15.560  -0.465  1.00  0.00    -0.206 F 
ATOM     98  C   UNL     1      -9.107 -13.253   1.781  1.00  0.00     0.060 A 
BRANCH  98  99
ATOM     99  S   UNL     1     -10.725 -13.012   2.550  1.00  0.00     0.124 S 
ATOM    100  O   UNL     1     -10.421 -13.183   3.967  1.00  0.00    -0.237 OA
ATOM    101  O   UNL     1     -11.074 -11.657   2.134  1.00  0.00    -0.237 OA
ATOM    102  O   UNL     1     -11.546 -14.067   1.958  1.00  0.00    -0.744 OA
ENDBRANCH  98  99
ENDBRANCH  66  91
ENDBRANCH  40  41
ENDBRANCH  33  35
ENDBRANCH  32  33
ENDBRANCH  31  32
ENDBRANCH   1  31
TORSDOF 21
