REMARK SMILES CC(C)(C[N@@H+]1C[C@@H]2C[NH2+]C[C@H]2C1(C)C)C(=O)OCCOCCOC(=O)c1ccc(-c2c3nc(c(-c4c(F)cc(S(=O)(=O)[O-])cc4F)c4ccc([nH]4)c(-c4c(F)cc(S(=O)(=O)[O-])cc4F)c4nc(c(-c5c(F)cc(S(=O)(=O)[O-])cc5F)c5ccc2[nH]5)C=C4)C=C3)cc1
REMARK SMILES IDX 21 1 20 2 19 3 18 4 17 5 15 6 16 7 2 8 1 9 3 10 4 11 5 12
REMARK SMILES IDX 6 13 12 14 7 16 11 17 13 18 14 19 8 20 10 21 9 22 22 25
REMARK SMILES IDX 23 26 24 27 25 28 26 29 27 30 91 31 28 32 90 33 29 34 30 35
REMARK SMILES IDX 31 36 84 37 32 38 89 39 83 40 85 41 33 42 88 43 82 44 81 45
REMARK SMILES IDX 34 47 68 48 47 49 67 50 48 51 51 52 66 53 86 54 49 55 50 56
REMARK SMILES IDX 65 58 87 59 52 60 35 61 36 62 45 63 37 64 38 65 44 66 46 67
REMARK SMILES IDX 39 68 40 69 41 70 42 71 43 72 69 73 70 74 79 75 71 76 72 77
REMARK SMILES IDX 78 78 80 79 73 80 74 81 75 82 76 83 77 84 53 85 54 86 63 87
REMARK SMILES IDX 55 88 56 89 62 90 64 91 57 92 58 93 59 94 60 95 61 96
REMARK H PARENT 5 15 9 23 9 24 85 46 51 57
REMARK Flexibility Score: inf
ROOT
ATOM      1  C   UNL     1       1.974  -3.860   2.453  1.00  0.00     0.202 C 
ENDROOT
BRANCH   1   2
ATOM      2  O   UNL     1       2.819  -3.576   3.554  1.00  0.00    -0.374 OA
BRANCH   2   3
ATOM      3  C   UNL     1       2.340  -2.746   4.601  1.00  0.00     0.202 C 
BRANCH   3   4
ATOM      4  C   UNL     1       1.978  -1.279   4.319  1.00  0.00     0.261 C 
BRANCH   4   5
ATOM      5  O   UNL     1       1.002  -0.981   3.291  1.00  0.00    -0.463 OA
BRANCH   5   6
ATOM      6  C   UNL     1       1.548  -0.468   2.154  1.00  0.00     0.317 C 
ATOM      7  O   UNL     1       2.742  -0.600   1.880  1.00  0.00    -0.251 OA
BRANCH   6   8
ATOM      8  C   UNL     1       0.644   0.468   1.325  1.00  0.00     0.111 C 
ATOM      9  C   UNL     1       1.268   0.519  -0.086  1.00  0.00     0.029 C 
ATOM     10  C   UNL     1       0.831   1.862   1.970  1.00  0.00     0.029 C 
BRANCH   8  11
ATOM     11  C   UNL     1      -0.899   0.210   1.255  1.00  0.00     0.280 C 
BRANCH  11  12
ATOM     12  N   UNL     1      -1.390  -1.059   0.767  1.00  0.00    -0.329 N 
ATOM     13  C   UNL     1      -1.219  -1.536  -0.611  1.00  0.00     0.272 C 
ATOM     14  C   UNL     1      -2.588  -1.704   1.369  1.00  0.00     0.101 C 
ATOM     15  H   UNL     1      -0.538  -1.353   1.245  1.00  0.00     0.348 HD
ATOM     16  C   UNL     1      -1.363  -2.987  -0.246  1.00  0.00     0.114 C 
ATOM     17  C   UNL     1      -2.683  -2.970   0.494  1.00  0.00     0.119 C 
ATOM     18  C   UNL     1      -2.371  -1.941   2.861  1.00  0.00     0.079 C 
ATOM     19  C   UNL     1      -3.914  -0.927   1.223  1.00  0.00     0.079 C 
ATOM     20  C   UNL     1      -1.514  -4.191  -1.124  1.00  0.00     0.270 C 
ATOM     21  C   UNL     1      -2.753  -4.401   0.945  1.00  0.00     0.271 C 
ATOM     22  N   UNL     1      -2.232  -5.150  -0.238  1.00  0.00    -0.345 N 
ATOM     23  H   UNL     1      -1.591  -5.880   0.072  1.00  0.00     0.346 HD
ATOM     24  H   UNL     1      -3.003  -5.585  -0.745  1.00  0.00     0.346 HD
ENDBRANCH  11  12
ENDBRANCH   8  11
ENDBRANCH   6   8
ENDBRANCH   5   6
ENDBRANCH   4   5
ENDBRANCH   3   4
ENDBRANCH   2   3
ENDBRANCH   1   2
BRANCH   1  25
ATOM     25  C   UNL     1       0.544  -4.345   2.700  1.00  0.00     0.261 C 
BRANCH  25  26
ATOM     26  O   UNL     1       0.151  -4.420   4.065  1.00  0.00    -0.460 OA
BRANCH  26  27
ATOM     27  C   UNL     1      -0.929  -5.172   4.339  1.00  0.00     0.338 C 
ATOM     28  O   UNL     1      -1.490  -5.977   3.606  1.00  0.00    -0.246 OA
BRANCH  27  29
ATOM     29  C   UNL     1      -1.450  -4.724   5.634  1.00  0.00     0.060 A 
ATOM     30  C   UNL     1      -0.690  -4.896   6.788  1.00  0.00     0.016 A 
ATOM     31  C   UNL     1      -2.711  -4.120   5.688  1.00  0.00     0.016 A 
ATOM     32  C   UNL     1      -1.232  -4.522   8.014  1.00  0.00     0.010 A 
ATOM     33  C   UNL     1      -3.208  -3.657   6.903  1.00  0.00     0.010 A 
ATOM     34  C   UNL     1      -2.499  -3.913   8.083  1.00  0.00    -0.014 A 
BRANCH  34  35
ATOM     35  C   UNL     1      -3.111  -3.661   9.410  1.00  0.00     0.031 A 
ATOM     36  C   UNL     1      -4.295  -4.482   9.850  1.00  0.00     0.074 A 
ATOM     37  C   UNL     1      -2.551  -2.757  10.236  1.00  0.00     0.049 A 
ATOM     38  N   UNL     1      -4.878  -4.525  11.019  1.00  0.00    -0.248 NA
ATOM     39  C   UNL     1      -4.912  -5.364   8.844  1.00  0.00     0.031 C 
ATOM     40  C   UNL     1      -1.427  -1.885   9.890  1.00  0.00     0.029 A 
ATOM     41  N   UNL     1      -2.829  -2.443  11.540  1.00  0.00    -0.354 N 
ATOM     42  C   UNL     1      -5.920  -5.437  10.890  1.00  0.00     0.074 A 
ATOM     43  C   UNL     1      -5.929  -5.881   9.516  1.00  0.00     0.031 C 
ATOM     44  C   UNL     1      -1.079  -1.169  10.972  1.00  0.00     0.029 A 
ATOM     45  C   UNL     1      -1.969  -1.514  12.077  1.00  0.00     0.049 A 
ATOM     46  H   UNL     1      -3.573  -2.844  12.045  1.00  0.00     0.167 HD
ATOM     47  C   UNL     1      -6.774  -5.885  11.840  1.00  0.00     0.037 A 
ATOM     48  C   UNL     1      -1.900  -1.010  13.324  1.00  0.00     0.037 A 
ATOM     49  C   UNL     1      -6.740  -5.446  13.210  1.00  0.00     0.049 A 
ATOM     50  C   UNL     1      -2.855  -1.528  14.366  1.00  0.00     0.074 A 
ATOM     51  C   UNL     1      -7.531  -5.858  14.267  1.00  0.00     0.029 A 
ATOM     52  N   UNL     1      -5.866  -4.491  13.710  1.00  0.00    -0.354 N 
ATOM     53  N   UNL     1      -3.791  -2.440  14.242  1.00  0.00    -0.248 NA
ATOM     54  C   UNL     1      -2.739  -0.962  15.715  1.00  0.00     0.031 C 
ATOM     55  C   UNL     1      -7.165  -5.119  15.396  1.00  0.00     0.029 A 
ATOM     56  C   UNL     1      -6.113  -4.282  15.055  1.00  0.00     0.049 A 
ATOM     57  H   UNL     1      -5.173  -4.030  13.184  1.00  0.00     0.167 HD
ATOM     58  C   UNL     1      -4.367  -2.567  15.501  1.00  0.00     0.074 A 
ATOM     59  C   UNL     1      -3.658  -1.654  16.375  1.00  0.00     0.031 C 
ATOM     60  C   UNL     1      -5.390  -3.364  15.899  1.00  0.00     0.037 A 
BRANCH  47  61
ATOM     61  C   UNL     1      -7.813  -6.892  11.428  1.00  0.00     0.058 A 
ATOM     62  C   UNL     1      -7.474  -8.216  11.105  1.00  0.00     0.135 A 
ATOM     63  C   UNL     1      -9.170  -6.535  11.377  1.00  0.00     0.135 A 
ATOM     64  F   UNL     1      -6.189  -8.607  11.118  1.00  0.00    -0.206 F 
ATOM     65  C   UNL     1      -8.438  -9.143  10.721  1.00  0.00     0.059 A 
ATOM     66  C   UNL     1     -10.155  -7.453  11.021  1.00  0.00     0.059 A 
ATOM     67  F   UNL     1      -9.551  -5.282  11.670  1.00  0.00    -0.206 F 
ATOM     68  C   UNL     1      -9.777  -8.751  10.681  1.00  0.00     0.060 A 
BRANCH  68  69
ATOM     69  S   UNL     1     -11.018  -9.966  10.186  1.00  0.00     0.124 S 
ATOM     70  O   UNL     1     -10.770 -10.067   8.751  1.00  0.00    -0.237 OA
ATOM     71  O   UNL     1     -10.646 -11.134  10.977  1.00  0.00    -0.237 OA
ATOM     72  O   UNL     1     -12.280  -9.335  10.561  1.00  0.00    -0.744 OA
ENDBRANCH  68  69
ENDBRANCH  47  61
BRANCH  48  73
ATOM     73  C   UNL     1      -0.880   0.022  13.652  1.00  0.00     0.058 A 
ATOM     74  C   UNL     1       0.206  -0.262  14.493  1.00  0.00     0.135 A 
ATOM     75  C   UNL     1      -0.960   1.313  13.104  1.00  0.00     0.135 A 
ATOM     76  F   UNL     1       0.327  -1.479  15.044  1.00  0.00    -0.206 F 
ATOM     77  C   UNL     1       1.169   0.698  14.790  1.00  0.00     0.059 A 
ATOM     78  C   UNL     1       0.004   2.281  13.365  1.00  0.00     0.059 A 
ATOM     79  F   UNL     1      -1.969   1.631  12.279  1.00  0.00    -0.206 F 
ATOM     80  C   UNL     1       1.061   1.967  14.218  1.00  0.00     0.060 A 
BRANCH  80  81
ATOM     81  S   UNL     1       2.343   3.191  14.563  1.00  0.00     0.124 S 
ATOM     82  O   UNL     1       2.025   3.571  15.935  1.00  0.00    -0.237 OA
ATOM     83  O   UNL     1       3.566   2.415  14.382  1.00  0.00    -0.237 OA
ATOM     84  O   UNL     1       2.107   4.218  13.552  1.00  0.00    -0.744 OA
ENDBRANCH  80  81
ENDBRANCH  48  73
BRANCH  60  85
ATOM     85  C   UNL     1      -5.793  -3.291  17.345  1.00  0.00     0.058 A 
ATOM     86  C   UNL     1      -6.497  -2.190  17.855  1.00  0.00     0.135 A 
ATOM     87  C   UNL     1      -5.521  -4.360  18.213  1.00  0.00     0.135 A 
ATOM     88  F   UNL     1      -6.777  -1.141  17.065  1.00  0.00    -0.206 F 
ATOM     89  C   UNL     1      -6.898  -2.140  19.185  1.00  0.00     0.059 A 
ATOM     90  C   UNL     1      -5.936  -4.343  19.540  1.00  0.00     0.059 A 
ATOM     91  F   UNL     1      -4.861  -5.442  17.769  1.00  0.00    -0.206 F 
ATOM     92  C   UNL     1      -6.613  -3.223  20.020  1.00  0.00     0.060 A 
BRANCH  92  93
ATOM     93  S   UNL     1      -7.166  -3.160  21.736  1.00  0.00     0.124 S 
ATOM     94  O   UNL     1      -6.210  -2.224  22.318  1.00  0.00    -0.237 OA
ATOM     95  O   UNL     1      -8.535  -2.670  21.607  1.00  0.00    -0.237 OA
ATOM     96  O   UNL     1      -7.042  -4.544  22.184  1.00  0.00    -0.744 OA
ENDBRANCH  92  93
ENDBRANCH  60  85
ENDBRANCH  34  35
ENDBRANCH  27  29
ENDBRANCH  26  27
ENDBRANCH  25  26
ENDBRANCH   1  25
TORSDOF 19
