REMARK SMILES O=C(OCCOCCOC(=O)c1ccccc1C[NH2+]C1CCCC1)c1ccc(-c2c3nc(c(-c4c(F)cc(S(=O)(=O)[O-])cc4F)c4ccc([nH]4)c(-c4c(F)cc(S(=O)(=O)[O-])cc4F)c4nc(c(-c5c(F)cc(S(=O)(=O)[O-])cc5F)c5ccc2[nH]5)C=C4)C=C3)cc1
REMARK SMILES IDX 6 1 5 2 4 3 3 4 2 5 1 6 25 7 26 8 90 9 27 10 89 11 28 12
REMARK SMILES IDX 29 13 30 14 83 15 31 16 88 17 82 18 84 19 32 20 87 21 81 22
REMARK SMILES IDX 80 23 33 25 67 26 46 27 66 28 47 29 50 30 65 31 85 32 48 33
REMARK SMILES IDX 49 34 64 36 86 37 51 38 34 39 35 40 44 41 36 42 37 43 43 44
REMARK SMILES IDX 45 45 38 46 39 47 40 48 41 49 42 50 68 51 69 52 78 53 70 54
REMARK SMILES IDX 71 55 77 56 79 57 72 58 73 59 74 60 75 61 76 62 52 63 53 64
REMARK SMILES IDX 62 65 54 66 55 67 61 68 63 69 56 70 57 71 58 72 59 73 60 74
REMARK SMILES IDX 7 75 8 76 9 77 10 78 11 79 12 80 13 81 17 82 14 83 16 84
REMARK SMILES IDX 15 85 18 86 19 87 20 90 21 91 24 92 22 93 23 94
REMARK H PARENT 84 24 50 35 19 88 19 89
REMARK Flexibility Score: inf
ROOT
ATOM      1  O   UNL     1       4.213   0.959  -1.282  1.00  0.00    -0.374 OA
ENDROOT
BRANCH   1   2
ATOM      2  C   UNL     1       4.375  -0.428  -1.584  1.00  0.00     0.202 C 
BRANCH   2   3
ATOM      3  C   UNL     1       4.017  -1.366  -0.427  1.00  0.00     0.261 C 
BRANCH   3   4
ATOM      4  O   UNL     1       2.641  -1.196  -0.045  1.00  0.00    -0.460 OA
BRANCH   4   5
ATOM      5  C   UNL     1       2.127  -0.470   0.975  1.00  0.00     0.338 C 
ATOM      6  O   UNL     1       0.906  -0.473   1.131  1.00  0.00    -0.246 OA
BRANCH   5   7
ATOM      7  C   UNL     1       2.950   0.336   1.931  1.00  0.00     0.060 A 
ATOM      8  C   UNL     1       4.221   0.841   1.664  1.00  0.00     0.016 A 
ATOM      9  C   UNL     1       2.360   0.671   3.164  1.00  0.00     0.016 A 
ATOM     10  C   UNL     1       4.915   1.602   2.586  1.00  0.00     0.010 A 
ATOM     11  C   UNL     1       3.042   1.459   4.098  1.00  0.00     0.010 A 
ATOM     12  C   UNL     1       4.334   1.906   3.811  1.00  0.00    -0.014 A 
BRANCH  12  13
ATOM     13  C   UNL     1       5.207   2.555   4.800  1.00  0.00     0.031 A 
ATOM     14  C   UNL     1       5.850   1.685   5.835  1.00  0.00     0.074 A 
ATOM     15  C   UNL     1       5.568   3.837   4.613  1.00  0.00     0.049 A 
ATOM     16  N   UNL     1       6.705   2.002   6.766  1.00  0.00    -0.248 NA
ATOM     17  C   UNL     1       5.502   0.252   5.798  1.00  0.00     0.031 C 
ATOM     18  C   UNL     1       5.096   4.693   3.519  1.00  0.00     0.029 A 
ATOM     19  N   UNL     1       6.454   4.626   5.293  1.00  0.00    -0.354 N 
ATOM     20  C   UNL     1       6.973   0.820   7.444  1.00  0.00     0.074 A 
ATOM     21  C   UNL     1       6.197  -0.225   6.817  1.00  0.00     0.031 C 
ATOM     22  C   UNL     1       5.725   5.877   3.585  1.00  0.00     0.029 A 
ATOM     23  C   UNL     1       6.591   5.886   4.758  1.00  0.00     0.049 A 
ATOM     24  H   UNL     1       6.946   4.322   6.090  1.00  0.00     0.167 HD
ATOM     25  C   UNL     1       7.789   0.638   8.507  1.00  0.00     0.037 A 
ATOM     26  C   UNL     1       7.323   6.928   5.193  1.00  0.00     0.037 A 
ATOM     27  C   UNL     1       8.545   1.708   9.098  1.00  0.00     0.049 A 
ATOM     28  C   UNL     1       8.149   6.724   6.435  1.00  0.00     0.074 A 
ATOM     29  C   UNL     1       9.347   1.685  10.222  1.00  0.00     0.029 A 
ATOM     30  N   UNL     1       8.585   3.006   8.598  1.00  0.00    -0.354 N 
ATOM     31  N   UNL     1       8.329   5.624   7.132  1.00  0.00    -0.248 NA
ATOM     32  C   UNL     1       8.856   7.895   6.963  1.00  0.00     0.031 C 
ATOM     33  C   UNL     1       9.836   2.981  10.427  1.00  0.00     0.029 A 
ATOM     34  C   UNL     1       9.383   3.798   9.400  1.00  0.00     0.049 A 
ATOM     35  H   UNL     1       8.113   3.314   7.791  1.00  0.00     0.167 HD
ATOM     36  C   UNL     1       9.186   5.965   8.170  1.00  0.00     0.074 A 
ATOM     37  C   UNL     1       9.499   7.372   7.998  1.00  0.00     0.031 C 
ATOM     38  C   UNL     1       9.671   5.195   9.177  1.00  0.00     0.037 A 
BRANCH  25  39
ATOM     39  C   UNL     1       7.807  -0.728   9.130  1.00  0.00     0.058 A 
ATOM     40  C   UNL     1       8.418  -1.831   8.511  1.00  0.00     0.135 A 
ATOM     41  C   UNL     1       7.146  -0.948  10.349  1.00  0.00     0.135 A 
ATOM     42  F   UNL     1       9.033  -1.687   7.326  1.00  0.00    -0.206 F 
ATOM     43  C   UNL     1       8.343  -3.108   9.062  1.00  0.00     0.059 A 
ATOM     44  C   UNL     1       7.079  -2.210  10.930  1.00  0.00     0.059 A 
ATOM     45  F   UNL     1       6.530   0.067  10.975  1.00  0.00    -0.206 F 
ATOM     46  C   UNL     1       7.664  -3.288  10.268  1.00  0.00     0.060 A 
BRANCH  46  47
ATOM     47  S   UNL     1       7.542  -4.954  10.956  1.00  0.00     0.124 S 
ATOM     48  O   UNL     1       6.571  -5.569  10.056  1.00  0.00    -0.237 OA
ATOM     49  O   UNL     1       8.912  -5.442  10.838  1.00  0.00    -0.237 OA
ATOM     50  O   UNL     1       7.076  -4.725  12.320  1.00  0.00    -0.744 OA
ENDBRANCH  46  47
ENDBRANCH  25  39
BRANCH  26  51
ATOM     51  C   UNL     1       7.268   8.241   4.492  1.00  0.00     0.058 A 
ATOM     52  C   UNL     1       8.396   8.789   3.865  1.00  0.00     0.135 A 
ATOM     53  C   UNL     1       6.075   8.983   4.440  1.00  0.00     0.135 A 
ATOM     54  F   UNL     1       9.564   8.128   3.889  1.00  0.00    -0.206 F 
ATOM     55  C   UNL     1       8.351  10.027   3.228  1.00  0.00     0.059 A 
ATOM     56  C   UNL     1       5.997  10.209   3.786  1.00  0.00     0.059 A 
ATOM     57  F   UNL     1       4.960   8.507   5.016  1.00  0.00    -0.206 F 
ATOM     58  C   UNL     1       7.145  10.730   3.194  1.00  0.00     0.060 A 
BRANCH  58  59
ATOM     59  S   UNL     1       7.087  12.326   2.349  1.00  0.00     0.124 S 
ATOM     60  O   UNL     1       7.818  13.178   3.280  1.00  0.00    -0.237 OA
ATOM     61  O   UNL     1       7.761  12.031   1.088  1.00  0.00    -0.237 OA
ATOM     62  O   UNL     1       5.657  12.595   2.237  1.00  0.00    -0.744 OA
ENDBRANCH  58  59
ENDBRANCH  26  51
BRANCH  38  63
ATOM     63  C   UNL     1      10.619   5.855  10.134  1.00  0.00     0.058 A 
ATOM     64  C   UNL     1      10.173   6.768  11.101  1.00  0.00     0.135 A 
ATOM     65  C   UNL     1      11.983   5.524  10.111  1.00  0.00     0.135 A 
ATOM     66  F   UNL     1       8.878   7.118  11.155  1.00  0.00    -0.206 F 
ATOM     67  C   UNL     1      11.056   7.354  11.999  1.00  0.00     0.059 A 
ATOM     68  C   UNL     1      12.877   6.076  11.019  1.00  0.00     0.059 A 
ATOM     69  F   UNL     1      12.451   4.644   9.212  1.00  0.00    -0.206 F 
ATOM     70  C   UNL     1      12.406   7.000  11.950  1.00  0.00     0.060 A 
BRANCH  70  71
ATOM     71  S   UNL     1      13.539   7.742  13.143  1.00  0.00     0.124 S 
ATOM     72  O   UNL     1      13.702   9.084  12.594  1.00  0.00    -0.237 OA
ATOM     73  O   UNL     1      12.784   7.653  14.389  1.00  0.00    -0.237 OA
ATOM     74  O   UNL     1      14.717   6.884  13.069  1.00  0.00    -0.744 OA
ENDBRANCH  70  71
ENDBRANCH  38  63
ENDBRANCH  12  13
ENDBRANCH   5   7
ENDBRANCH   4   5
ENDBRANCH   3   4
ENDBRANCH   2   3
ENDBRANCH   1   2
BRANCH   1  75
ATOM     75  C   UNL     1       2.921   1.510  -1.553  1.00  0.00     0.202 C 
BRANCH  75  76
ATOM     76  C   UNL     1       3.038   2.543  -2.668  1.00  0.00     0.261 C 
BRANCH  76  77
ATOM     77  O   UNL     1       3.525   1.864  -3.833  1.00  0.00    -0.460 OA
BRANCH  77  78
ATOM     78  C   UNL     1       4.867   1.890  -4.019  1.00  0.00     0.338 C 
ATOM     79  O   UNL     1       5.672   2.634  -3.488  1.00  0.00    -0.246 OA
BRANCH  78  80
ATOM     80  C   UNL     1       5.242   0.731  -4.865  1.00  0.00     0.068 A 
ATOM     81  C   UNL     1       6.363  -0.001  -4.441  1.00  0.00     0.016 A 
ATOM     82  C   UNL     1       4.511   0.328  -6.002  1.00  0.00     0.021 A 
ATOM     83  C   UNL     1       6.729  -1.171  -5.099  1.00  0.00     0.001 A 
ATOM     84  C   UNL     1       4.903  -0.854  -6.654  1.00  0.00     0.010 A 
ATOM     85  C   UNL     1       5.994  -1.601  -6.200  1.00  0.00     0.001 A 
BRANCH  82  86
ATOM     86  C   UNL     1       3.335   1.115  -6.542  1.00  0.00     0.298 C 
BRANCH  86  87
ATOM     87  N   UNL     1       3.728   2.472  -6.929  1.00  0.00    -0.340 N 
ATOM     88  H   UNL     1       4.241   2.426  -7.810  1.00  0.00     0.346 HD
ATOM     89  H   UNL     1       4.307   2.856  -6.182  1.00  0.00     0.346 HD
BRANCH  87  90
ATOM     90  C   UNL     1       2.577   3.349  -7.100  1.00  0.00     0.182 C 
ATOM     91  C   UNL     1       3.021   4.799  -7.281  1.00  0.00     0.065 C 
ATOM     92  C   UNL     1       1.790   3.081  -8.378  1.00  0.00     0.065 C 
ATOM     93  C   UNL     1       1.783   5.473  -7.854  1.00  0.00     0.006 C 
ATOM     94  C   UNL     1       1.075   4.397  -8.679  1.00  0.00     0.006 C 
ENDBRANCH  87  90
ENDBRANCH  86  87
ENDBRANCH  82  86
ENDBRANCH  78  80
ENDBRANCH  77  78
ENDBRANCH  76  77
ENDBRANCH  75  76
ENDBRANCH   1  75
TORSDOF 20
