REMARK SMILES CC(C)[NH2+][C@](C)(C[N@@H+]1CCC(C)(C)C1)C(=O)OCCOCCOC(=O)c1ccc(-c2c3nc(c(-c4c(F)cc(S(=O)(=O)[O-])cc4F)c4ccc([nH]4)c(-c4c(F)cc(S(=O)(=O)[O-])cc4F)c4nc(c(-c5c(F)cc(S(=O)(=O)[O-])cc5F)c5ccc2[nH]5)C=C4)C=C3)cc1
REMARK SMILES IDX 21 1 20 2 19 3 18 4 17 5 15 6 16 7 5 8 6 9 4 10 2 13 1 14
REMARK SMILES IDX 3 15 7 16 8 17 9 18 14 19 10 21 11 22 12 23 13 24 22 25
REMARK SMILES IDX 23 26 24 27 25 28 26 29 27 30 91 31 28 32 90 33 29 34 30 35
REMARK SMILES IDX 31 36 84 37 32 38 89 39 83 40 85 41 33 42 88 43 82 44 81 45
REMARK SMILES IDX 34 47 68 48 47 49 67 50 48 51 51 52 66 53 86 54 49 55 50 56
REMARK SMILES IDX 65 58 87 59 52 60 35 61 36 62 45 63 37 64 38 65 44 66 46 67
REMARK SMILES IDX 39 68 40 69 41 70 42 71 43 72 69 73 70 74 79 75 71 76 72 77
REMARK SMILES IDX 78 78 80 79 73 80 74 81 75 82 76 83 77 84 53 85 54 86 63 87
REMARK SMILES IDX 55 88 56 89 62 90 64 91 57 92 58 93 59 94 60 95 61 96
REMARK H PARENT 4 11 4 12 8 20 85 46 51 57
REMARK Flexibility Score: inf
ROOT
ATOM      1  C   UNL     1      -0.088  -1.702   5.000  1.00  0.00     0.202 C 
ENDROOT
BRANCH   1   2
ATOM      2  O   UNL     1       0.689  -1.155   6.056  1.00  0.00    -0.374 OA
BRANCH   2   3
ATOM      3  C   UNL     1       0.248   0.069   6.641  1.00  0.00     0.202 C 
BRANCH   3   4
ATOM      4  C   UNL     1       0.142   1.311   5.745  1.00  0.00     0.261 C 
BRANCH   4   5
ATOM      5  O   UNL     1      -0.809   1.228   4.664  1.00  0.00    -0.458 OA
BRANCH   5   6
ATOM      6  C   UNL     1      -0.259   1.181   3.416  1.00  0.00     0.373 C 
ATOM      7  O   UNL     1       0.944   1.001   3.211  1.00  0.00    -0.244 OA
BRANCH   6   8
ATOM      8  C   UNL     1      -1.228   1.599   2.262  1.00  0.00     0.240 C 
ATOM      9  C   UNL     1      -0.690   0.888   1.002  1.00  0.00     0.099 C 
BRANCH   8  10
ATOM     10  N   UNL     1      -0.930   3.055   2.149  1.00  0.00    -0.326 N 
ATOM     11  H   UNL     1      -0.944   3.413   3.104  1.00  0.00     0.347 HD
ATOM     12  H   UNL     1      -0.067   3.031   1.606  1.00  0.00     0.347 HD
BRANCH  10  13
ATOM     13  C   UNL     1      -1.716   3.994   1.368  1.00  0.00     0.177 C 
ATOM     14  C   UNL     1      -0.929   5.317   1.399  1.00  0.00     0.075 C 
ATOM     15  C   UNL     1      -1.962   3.613  -0.088  1.00  0.00     0.075 C 
ENDBRANCH  10  13
ENDBRANCH   8  10
BRANCH   8  16
ATOM     16  C   UNL     1      -2.734   1.221   2.550  1.00  0.00     0.343 C 
BRANCH  16  17
ATOM     17  N   UNL     1      -3.117  -0.222   2.537  1.00  0.00    -0.329 N 
ATOM     18  C   UNL     1      -3.377  -0.776   1.202  1.00  0.00     0.263 C 
ATOM     19  C   UNL     1      -4.399  -0.469   3.244  1.00  0.00     0.269 C 
ATOM     20  H   UNL     1      -2.306  -0.658   2.976  1.00  0.00     0.348 HD
ATOM     21  C   UNL     1      -3.976  -2.135   1.539  1.00  0.00     0.073 C 
ATOM     22  C   UNL     1      -4.899  -1.849   2.732  1.00  0.00     0.019 C 
ATOM     23  C   UNL     1      -6.364  -1.776   2.276  1.00  0.00     0.017 C 
ATOM     24  C   UNL     1      -4.803  -2.966   3.779  1.00  0.00     0.017 C 
ENDBRANCH  16  17
ENDBRANCH   8  16
ENDBRANCH   6   8
ENDBRANCH   5   6
ENDBRANCH   4   5
ENDBRANCH   3   4
ENDBRANCH   2   3
ENDBRANCH   1   2
BRANCH   1  25
ATOM     25  C   UNL     1      -1.533  -2.092   5.311  1.00  0.00     0.261 C 
BRANCH  25  26
ATOM     26  O   UNL     1      -2.261  -1.092   6.036  1.00  0.00    -0.460 OA
BRANCH  26  27
ATOM     27  C   UNL     1      -3.244  -1.584   6.824  1.00  0.00     0.338 C 
ATOM     28  O   UNL     1      -3.693  -2.716   6.825  1.00  0.00    -0.246 OA
BRANCH  27  29
ATOM     29  C   UNL     1      -3.627  -0.580   7.830  1.00  0.00     0.060 A 
ATOM     30  C   UNL     1      -2.975  -0.621   9.065  1.00  0.00     0.016 A 
ATOM     31  C   UNL     1      -4.710   0.279   7.623  1.00  0.00     0.016 A 
ATOM     32  C   UNL     1      -3.439   0.168  10.116  1.00  0.00     0.010 A 
ATOM     33  C   UNL     1      -5.162   1.085   8.679  1.00  0.00     0.010 A 
ATOM     34  C   UNL     1      -4.554   1.005   9.943  1.00  0.00    -0.014 A 
BRANCH  34  35
ATOM     35  C   UNL     1      -5.089   1.723  11.131  1.00  0.00     0.031 A 
ATOM     36  C   UNL     1      -6.296   1.193  11.858  1.00  0.00     0.074 A 
ATOM     37  C   UNL     1      -4.428   2.788  11.621  1.00  0.00     0.049 A 
ATOM     38  N   UNL     1      -6.783   1.551  13.020  1.00  0.00    -0.248 NA
ATOM     39  C   UNL     1      -7.055   0.122  11.195  1.00  0.00     0.031 C 
ATOM     40  C   UNL     1      -3.257   3.409  11.002  1.00  0.00     0.029 A 
ATOM     41  N   UNL     1      -4.629   3.517  12.766  1.00  0.00    -0.354 N 
ATOM     42  C   UNL     1      -7.889   0.738  13.239  1.00  0.00     0.074 A 
ATOM     43  C   UNL     1      -8.031  -0.099  12.066  1.00  0.00     0.031 C 
ATOM     44  C   UNL     1      -2.824   4.406  11.791  1.00  0.00     0.029 A 
ATOM     45  C   UNL     1      -3.686   4.495  12.968  1.00  0.00     0.049 A 
ATOM     46  H   UNL     1      -5.378   3.354  13.385  1.00  0.00     0.167 HD
ATOM     47  C   UNL     1      -8.699   0.679  14.324  1.00  0.00     0.037 A 
ATOM     48  C   UNL     1      -3.517   5.351  13.995  1.00  0.00     0.037 A 
ATOM     49  C   UNL     1      -8.562   1.515  15.490  1.00  0.00     0.049 A 
ATOM     50  C   UNL     1      -4.430   5.268  15.188  1.00  0.00     0.074 A 
ATOM     51  C   UNL     1      -9.318   1.508  16.650  1.00  0.00     0.029 A 
ATOM     52  N   UNL     1      -7.610   2.512  15.643  1.00  0.00    -0.354 N 
ATOM     53  N   UNL     1      -5.428   4.447  15.408  1.00  0.00    -0.248 NA
ATOM     54  C   UNL     1      -4.178   6.217  16.283  1.00  0.00     0.031 C 
ATOM     55  C   UNL     1      -8.847   2.526  17.489  1.00  0.00     0.029 A 
ATOM     56  C   UNL     1      -7.772   3.140  16.868  1.00  0.00     0.049 A 
ATOM     57  H   UNL     1      -6.921   2.741  14.978  1.00  0.00     0.167 HD
ATOM     58  C   UNL     1      -5.913   4.767  16.672  1.00  0.00     0.074 A 
ATOM     59  C   UNL     1      -5.085   5.845  17.175  1.00  0.00     0.031 C 
ATOM     60  C   UNL     1      -6.948   4.218  17.355  1.00  0.00     0.037 A 
BRANCH  47  61
ATOM     61  C   UNL     1      -9.814  -0.330  14.303  1.00  0.00     0.058 A 
ATOM     62  C   UNL     1      -9.563  -1.703  14.463  1.00  0.00     0.135 A 
ATOM     63  C   UNL     1     -11.149   0.079  14.160  1.00  0.00     0.135 A 
ATOM     64  F   UNL     1      -8.303  -2.149  14.591  1.00  0.00    -0.206 F 
ATOM     65  C   UNL     1     -10.594  -2.637  14.457  1.00  0.00     0.059 A 
ATOM     66  C   UNL     1     -12.198  -0.836  14.172  1.00  0.00     0.059 A 
ATOM     67  F   UNL     1     -11.444   1.379  14.006  1.00  0.00    -0.206 F 
ATOM     68  C   UNL     1     -11.909  -2.193  14.307  1.00  0.00     0.060 A 
BRANCH  68  69
ATOM     69  S   UNL     1     -13.240  -3.415  14.299  1.00  0.00     0.124 S 
ATOM     70  O   UNL     1     -13.098  -3.990  12.964  1.00  0.00    -0.237 OA
ATOM     71  O   UNL     1     -12.871  -4.289  15.407  1.00  0.00    -0.237 OA
ATOM     72  O   UNL     1     -14.440  -2.611  14.511  1.00  0.00    -0.744 OA
ENDBRANCH  68  69
ENDBRANCH  47  61
BRANCH  48  73
ATOM     73  C   UNL     1      -2.409   6.340  13.954  1.00  0.00     0.058 A 
ATOM     74  C   UNL     1      -1.279   6.200  14.772  1.00  0.00     0.135 A 
ATOM     75  C   UNL     1      -2.456   7.438  13.082  1.00  0.00     0.135 A 
ATOM     76  F   UNL     1      -1.194   5.169  15.627  1.00  0.00    -0.206 F 
ATOM     77  C   UNL     1      -0.237   7.120  14.737  1.00  0.00     0.059 A 
ATOM     78  C   UNL     1      -1.417   8.360  13.013  1.00  0.00     0.059 A 
ATOM     79  F   UNL     1      -3.511   7.607  12.270  1.00  0.00    -0.206 F 
ATOM     80  C   UNL     1      -0.315   8.197  13.851  1.00  0.00     0.060 A 
BRANCH  80  81
ATOM     81  S   UNL     1       1.067   9.357  13.766  1.00  0.00     0.124 S 
ATOM     82  O   UNL     1       0.845  10.166  14.958  1.00  0.00    -0.237 OA
ATOM     83  O   UNL     1       2.222   8.466  13.804  1.00  0.00    -0.237 OA
ATOM     84  O   UNL     1       0.853  10.036  12.491  1.00  0.00    -0.744 OA
ENDBRANCH  80  81
ENDBRANCH  48  73
BRANCH  60  85
ATOM     85  C   UNL     1      -7.234   4.768  18.725  1.00  0.00     0.058 A 
ATOM     86  C   UNL     1      -7.825   6.029  18.901  1.00  0.00     0.135 A 
ATOM     87  C   UNL     1      -6.925   4.023  19.874  1.00  0.00     0.135 A 
ATOM     88  F   UNL     1      -8.137   6.784  17.835  1.00  0.00    -0.206 F 
ATOM     89  C   UNL     1      -8.066   6.549  20.169  1.00  0.00     0.059 A 
ATOM     90  C   UNL     1      -7.178   4.513  21.152  1.00  0.00     0.059 A 
ATOM     91  F   UNL     1      -6.370   2.806  19.761  1.00  0.00    -0.206 F 
ATOM     92  C   UNL     1      -7.731   5.786  21.290  1.00  0.00     0.060 A 
BRANCH  92  93
ATOM     93  S   UNL     1      -8.045   6.466  22.933  1.00  0.00     0.124 S 
ATOM     94  O   UNL     1      -6.918   7.379  23.091  1.00  0.00    -0.237 OA
ATOM     95  O   UNL     1      -9.352   7.096  22.771  1.00  0.00    -0.237 OA
ATOM     96  O   UNL     1      -8.027   5.288  23.795  1.00  0.00    -0.744 OA
ENDBRANCH  92  93
ENDBRANCH  60  85
ENDBRANCH  34  35
ENDBRANCH  27  29
ENDBRANCH  26  27
ENDBRANCH  25  26
ENDBRANCH   1  25
TORSDOF 21
