REMARK SMILES [NH3+]Cc1ccc(C(=O)N2[C@@H](C(=O)OCCOCCOC(=O)c3ccc(-c4c5nc(c(-c6c(F)cc(S(=O)(=O)[O-])cc6F)c6ccc([nH]6)c(-c6c(F)cc(S(=O)(=O)[O-])cc6F)c6nc(c(-c7c(F)cc(S(=O)(=O)[O-])cc7F)c7ccc4[nH]7)C=C6)C=C5)cc3)C[C@H]3CCCC[C@@H]32)o1
REMARK SMILES IDX 15 1 14 2 13 3 11 4 12 5 10 6 9 7 94 8 88 9 89 10 93 11
REMARK SMILES IDX 90 12 92 13 91 14 7 15 8 16 6 17 3 18 4 19 95 20 5 21 2 22
REMARK SMILES IDX 1 23 16 27 17 28 18 29 19 30 20 31 21 32 22 33 23 34 87 35
REMARK SMILES IDX 24 36 86 37 25 38 26 39 27 40 80 41 28 42 85 43 79 44 81 45
REMARK SMILES IDX 29 46 84 47 78 48 77 49 30 51 64 52 43 53 63 54 44 55 47 56
REMARK SMILES IDX 62 57 82 58 45 59 46 60 61 62 83 63 48 64 31 65 32 66 41 67
REMARK SMILES IDX 33 68 34 69 40 70 42 71 35 72 36 73 37 74 38 75 39 76 65 77
REMARK SMILES IDX 66 78 75 79 67 80 68 81 74 82 76 83 69 84 70 85 71 86 72 87
REMARK SMILES IDX 73 88 49 89 50 90 59 91 51 92 52 93 58 94 60 95 53 96 54 97
REMARK SMILES IDX 55 98 56 99 57 100
REMARK H PARENT 1 24 1 25 1 26 81 50 47 61
REMARK Flexibility Score: inf
ROOT
ATOM      1  C   UNL     1       3.801  -8.857   1.174  1.00  0.00     0.202 C 
ENDROOT
BRANCH   1   2
ATOM      2  C   UNL     1       3.975  -9.314  -0.275  1.00  0.00     0.261 C 
BRANCH   2   3
ATOM      3  O   UNL     1       4.005  -8.210  -1.192  1.00  0.00    -0.462 OA
BRANCH   3   4
ATOM      4  C   UNL     1       2.870  -8.074  -1.937  1.00  0.00     0.328 C 
ATOM      5  O   UNL     1       1.948  -8.879  -1.946  1.00  0.00    -0.250 OA
BRANCH   4   6
ATOM      6  C   UNL     1       2.944  -6.804  -2.818  1.00  0.00     0.196 C 
ATOM      7  N   UNL     1       1.610  -6.219  -3.038  1.00  0.00    -0.319 N 
ATOM      8  C   UNL     1       0.954  -6.993  -4.055  1.00  0.00     0.089 C 
ATOM      9  C   UNL     1       3.369  -7.261  -4.223  1.00  0.00     0.043 C 
ATOM     10  C   UNL     1       2.095  -7.104  -5.069  1.00  0.00     0.014 C 
ATOM     11  C   UNL     1      -0.289  -6.460  -4.747  1.00  0.00     0.025 C 
ATOM     12  C   UNL     1       1.774  -8.184  -6.083  1.00  0.00     0.006 C 
ATOM     13  C   UNL     1      -0.688  -7.464  -5.841  1.00  0.00     0.002 C 
ATOM     14  C   UNL     1       0.464  -7.817  -6.798  1.00  0.00     0.000 C 
BRANCH   7  15
ATOM     15  C   UNL     1       0.945  -5.411  -2.143  1.00  0.00     0.290 C 
ATOM     16  O   UNL     1      -0.057  -5.798  -1.544  1.00  0.00    -0.265 OA
BRANCH  15  17
ATOM     17  C   UNL     1       1.405  -4.029  -2.137  1.00  0.00     0.192 A 
ATOM     18  C   UNL     1       1.174  -1.863  -1.748  1.00  0.00     0.159 A 
ATOM     19  C   UNL     1       2.273  -1.992  -2.568  1.00  0.00     0.052 A 
ATOM     20  O   UNL     1       0.667  -3.095  -1.450  1.00  0.00    -0.450 OA
ATOM     21  C   UNL     1       2.420  -3.377  -2.820  1.00  0.00     0.057 A 
BRANCH  18  22
ATOM     22  C   UNL     1       0.455  -0.685  -1.195  1.00  0.00     0.335 C 
BRANCH  22  23
ATOM     23  N   UNL     1       0.944  -0.342   0.136  1.00  0.00    -0.351 N 
ATOM     24  H   UNL     1       0.432   0.468   0.487  1.00  0.00     0.344 HD
ATOM     25  H   UNL     1       1.938  -0.120   0.087  1.00  0.00     0.344 HD
ATOM     26  H   UNL     1       0.802  -1.132   0.765  1.00  0.00     0.344 HD
ENDBRANCH  22  23
ENDBRANCH  18  22
ENDBRANCH  15  17
ENDBRANCH   7  15
ENDBRANCH   4   6
ENDBRANCH   3   4
ENDBRANCH   2   3
ENDBRANCH   1   2
BRANCH   1  27
ATOM     27  O   UNL     1       2.679  -8.035   1.480  1.00  0.00    -0.374 OA
BRANCH  27  28
ATOM     28  C   UNL     1       2.700  -6.669   1.069  1.00  0.00     0.202 C 
BRANCH  28  29
ATOM     29  C   UNL     1       3.670  -5.716   1.780  1.00  0.00     0.261 C 
BRANCH  29  30
ATOM     30  O   UNL     1       5.051  -6.064   1.575  1.00  0.00    -0.460 OA
BRANCH  30  31
ATOM     31  C   UNL     1       5.702  -6.479   2.689  1.00  0.00     0.338 C 
ATOM     32  O   UNL     1       5.257  -6.529   3.831  1.00  0.00    -0.246 OA
BRANCH  31  33
ATOM     33  C   UNL     1       7.002  -7.064   2.324  1.00  0.00     0.060 A 
ATOM     34  C   UNL     1       7.242  -8.401   2.671  1.00  0.00     0.016 A 
ATOM     35  C   UNL     1       7.996  -6.298   1.713  1.00  0.00     0.016 A 
ATOM     36  C   UNL     1       8.489  -8.973   2.429  1.00  0.00     0.010 A 
ATOM     37  C   UNL     1       9.252  -6.868   1.488  1.00  0.00     0.010 A 
ATOM     38  C   UNL     1       9.511  -8.199   1.866  1.00  0.00    -0.014 A 
BRANCH  38  39
ATOM     39  C   UNL     1      10.890  -8.736   1.789  1.00  0.00     0.031 A 
ATOM     40  C   UNL     1      11.875  -8.370   2.862  1.00  0.00     0.074 A 
ATOM     41  C   UNL     1      11.253  -9.545   0.778  1.00  0.00     0.049 A 
ATOM     42  N   UNL     1      13.146  -8.662   2.955  1.00  0.00    -0.248 NA
ATOM     43  C   UNL     1      11.356  -7.566   3.980  1.00  0.00     0.031 C 
ATOM     44  C   UNL     1      10.367 -10.017  -0.284  1.00  0.00     0.029 A 
ATOM     45  N   UNL     1      12.469 -10.105   0.479  1.00  0.00    -0.354 N 
ATOM     46  C   UNL     1      13.581  -8.079   4.139  1.00  0.00     0.074 A 
ATOM     47  C   UNL     1      12.445  -7.390   4.714  1.00  0.00     0.031 C 
ATOM     48  C   UNL     1      11.073 -10.791  -1.126  1.00  0.00     0.029 A 
ATOM     49  C   UNL     1      12.466 -10.834  -0.685  1.00  0.00     0.049 A 
ATOM     50  H   UNL     1      13.267  -9.995   1.045  1.00  0.00     0.167 HD
ATOM     51  C   UNL     1      14.814  -8.121   4.698  1.00  0.00     0.037 A 
ATOM     52  C   UNL     1      13.479 -11.442  -1.333  1.00  0.00     0.037 A 
ATOM     53  C   UNL     1      15.942  -8.794   4.110  1.00  0.00     0.049 A 
ATOM     54  C   UNL     1      14.869 -11.371  -0.758  1.00  0.00     0.074 A 
ATOM     55  C   UNL     1      17.232  -8.903   4.598  1.00  0.00     0.029 A 
ATOM     56  N   UNL     1      15.918  -9.460   2.892  1.00  0.00    -0.354 N 
ATOM     57  N   UNL     1      15.268 -10.826   0.367  1.00  0.00    -0.248 NA
ATOM     58  C   UNL     1      15.948 -11.984  -1.546  1.00  0.00     0.031 C 
ATOM     59  C   UNL     1      18.000  -9.591   3.651  1.00  0.00     0.029 A 
ATOM     60  C   UNL     1      17.177  -9.951   2.594  1.00  0.00     0.049 A 
ATOM     61  H   UNL     1      15.121  -9.567   2.324  1.00  0.00     0.167 HD
ATOM     62  C   UNL     1      16.640 -11.046   0.431  1.00  0.00     0.074 A 
ATOM     63  C   UNL     1      17.001 -11.781  -0.764  1.00  0.00     0.031 C 
ATOM     64  C   UNL     1      17.521 -10.675   1.394  1.00  0.00     0.037 A 
BRANCH  51  65
ATOM     65  C   UNL     1      15.005  -7.383   5.994  1.00  0.00     0.058 A 
ATOM     66  C   UNL     1      14.441  -7.842   7.195  1.00  0.00     0.135 A 
ATOM     67  C   UNL     1      15.751  -6.194   6.033  1.00  0.00     0.135 A 
ATOM     68  F   UNL     1      13.705  -8.965   7.211  1.00  0.00    -0.206 F 
ATOM     69  C   UNL     1      14.571  -7.125   8.380  1.00  0.00     0.059 A 
ATOM     70  C   UNL     1      15.916  -5.474   7.213  1.00  0.00     0.059 A 
ATOM     71  F   UNL     1      16.312  -5.710   4.914  1.00  0.00    -0.206 F 
ATOM     72  C   UNL     1      15.303  -5.936   8.377  1.00  0.00     0.060 A 
BRANCH  72  73
ATOM     73  S   UNL     1      15.431  -4.995   9.912  1.00  0.00     0.124 S 
ATOM     74  O   UNL     1      14.097  -4.409  10.003  1.00  0.00    -0.237 OA
ATOM     75  O   UNL     1      15.736  -6.032  10.892  1.00  0.00    -0.237 OA
ATOM     76  O   UNL     1      16.512  -4.052   9.643  1.00  0.00    -0.744 OA
ENDBRANCH  72  73
ENDBRANCH  51  65
BRANCH  52  77
ATOM     77  C   UNL     1      13.216 -12.158  -2.609  1.00  0.00     0.058 A 
ATOM     78  C   UNL     1      13.275 -13.557  -2.673  1.00  0.00     0.135 A 
ATOM     79  C   UNL     1      12.875 -11.462  -3.779  1.00  0.00     0.135 A 
ATOM     80  F   UNL     1      13.610 -14.265  -1.583  1.00  0.00    -0.206 F 
ATOM     81  C   UNL     1      13.002 -14.244  -3.851  1.00  0.00     0.059 A 
ATOM     82  C   UNL     1      12.577 -12.127  -4.964  1.00  0.00     0.059 A 
ATOM     83  F   UNL     1      12.799 -10.122  -3.768  1.00  0.00    -0.206 F 
ATOM     84  C   UNL     1      12.645 -13.520  -4.991  1.00  0.00     0.060 A 
BRANCH  84  85
ATOM     85  S   UNL     1      12.217 -14.425  -6.494  1.00  0.00     0.124 S 
ATOM     86  O   UNL     1      13.524 -14.899  -6.933  1.00  0.00    -0.237 OA
ATOM     87  O   UNL     1      11.303 -15.443  -5.987  1.00  0.00    -0.237 OA
ATOM     88  O   UNL     1      11.600 -13.403  -7.335  1.00  0.00    -0.744 OA
ENDBRANCH  84  85
ENDBRANCH  52  77
BRANCH  64  89
ATOM     89  C   UNL     1      18.962 -11.063   1.206  1.00  0.00     0.058 A 
ATOM     90  C   UNL     1      19.786 -10.392   0.290  1.00  0.00     0.135 A 
ATOM     91  C   UNL     1      19.543 -12.061   2.005  1.00  0.00     0.135 A 
ATOM     92  F   UNL     1      19.277  -9.437  -0.504  1.00  0.00    -0.206 F 
ATOM     93  C   UNL     1      21.137 -10.701   0.169  1.00  0.00     0.059 A 
ATOM     94  C   UNL     1      20.896 -12.370   1.917  1.00  0.00     0.059 A 
ATOM     95  F   UNL     1      18.798 -12.728   2.901  1.00  0.00    -0.206 F 
ATOM     96  C   UNL     1      21.685 -11.687   0.992  1.00  0.00     0.060 A 
BRANCH  96  97
ATOM     97  S   UNL     1      23.453 -12.034   0.867  1.00  0.00     0.124 S 
ATOM     98  O   UNL     1      23.523 -12.755  -0.399  1.00  0.00    -0.237 OA
ATOM     99  O   UNL     1      24.034 -10.695   0.867  1.00  0.00    -0.237 OA
ATOM    100  O   UNL     1      23.729 -12.830   2.060  1.00  0.00    -0.744 OA
ENDBRANCH  96  97
ENDBRANCH  64  89
ENDBRANCH  38  39
ENDBRANCH  31  33
ENDBRANCH  30  31
ENDBRANCH  29  30
ENDBRANCH  28  29
ENDBRANCH  27  28
ENDBRANCH   1  27
TORSDOF 21
