REMARK SMILES NS(=O)(=O)c1ccc(-n2nc(C(=O)NCCCCCCCCCCC(=O)OCCOCCOC(=O)c3ccc(-c4c5nc(c(-c6c(F)cc(S(=O)(=O)[O-])cc6F)c6ccc([nH]6)c(-c6c(F)cc(S(=O)(=O)[O-])cc6F)c6nc(c(-c7c(F)cc(S(=O)(=O)[O-])cc7F)c7ccc4[nH]7)C=C6)C=C5)cc3)cc2-c2ccccc2)cc1
REMARK SMILES IDX 23 1 22 2 21 3 20 4 19 5 18 6 17 7 16 8 15 9 14 10 12 11
REMARK SMILES IDX 13 12 11 14 9 15 10 16 103 17 102 18 8 19 5 20 6 21 111 22
REMARK SMILES IDX 7 23 110 24 2 25 3 26 4 27 1 28 104 31 105 32 109 33 106 34
REMARK SMILES IDX 108 35 107 36 24 37 25 38 26 39 27 40 28 41 29 42 30 43
REMARK SMILES IDX 31 44 32 45 33 46 34 47 35 48 36 49 37 50 101 51 38 52
REMARK SMILES IDX 100 53 39 54 40 55 41 56 94 57 42 58 99 59 93 60 95 61 43 62
REMARK SMILES IDX 98 63 92 64 91 65 44 67 78 68 57 69 77 70 58 71 61 72 76 73
REMARK SMILES IDX 96 74 59 75 60 76 75 78 97 79 62 80 45 81 46 82 55 83 47 84
REMARK SMILES IDX 48 85 54 86 56 87 49 88 50 89 51 90 52 91 53 92 79 93 80 94
REMARK SMILES IDX 89 95 81 96 82 97 88 98 90 99 83 100 84 101 85 102 86 103
REMARK SMILES IDX 87 104 63 105 64 106 73 107 65 108 66 109 72 110 74 111
REMARK SMILES IDX 67 112 68 113 69 114 70 115 71 116
REMARK H PARENT 14 13 1 29 1 30 95 66 61 77
REMARK Flexibility Score: inf
ROOT
ATOM      1  C   UNL     1       1.136   7.964 -16.752  1.00  0.00     0.012 C 
ENDROOT
BRANCH   1   2
ATOM      2  C   UNL     1       1.898   8.634 -15.609  1.00  0.00     0.001 C 
BRANCH   2   3
ATOM      3  C   UNL     1       1.064   8.825 -14.348  1.00  0.00     0.000 C 
BRANCH   3   4
ATOM      4  C   UNL     1       0.741   7.493 -13.672  1.00  0.00     0.000 C 
BRANCH   4   5
ATOM      5  C   UNL     1       1.999   6.751 -13.211  1.00  0.00     0.000 C 
BRANCH   5   6
ATOM      6  C   UNL     1       2.866   7.593 -12.266  1.00  0.00     0.000 C 
BRANCH   6   7
ATOM      7  C   UNL     1       2.148   7.963 -10.960  1.00  0.00     0.002 C 
BRANCH   7   8
ATOM      8  C   UNL     1       1.619   6.742 -10.209  1.00  0.00     0.021 C 
BRANCH   8   9
ATOM      9  C   UNL     1       2.753   5.789  -9.853  1.00  0.00     0.116 C 
BRANCH   9  10
ATOM     10  N   UNL     1       3.315   6.141  -8.574  1.00  0.00    -0.351 N 
ATOM     11  C   UNL     1       3.119   5.651  -7.308  1.00  0.00     0.271 C 
ATOM     12  O   UNL     1       3.589   6.334  -6.394  1.00  0.00    -0.267 OA
ATOM     13  H   UNL     1       3.968   6.876  -8.617  1.00  0.00     0.163 HD
BRANCH  11  14
ATOM     14  C   UNL     1       2.419   4.373  -7.059  1.00  0.00     0.151 A 
ATOM     15  N   UNL     1       1.795   2.682  -5.891  1.00  0.00    -0.232 N 
ATOM     16  N   UNL     1       2.210   3.962  -5.791  1.00  0.00    -0.162 NA
ATOM     17  C   UNL     1       1.484   2.333  -7.187  1.00  0.00     0.075 A 
ATOM     18  C   UNL     1       1.876   3.412  -7.942  1.00  0.00     0.065 A 
BRANCH  15  19
ATOM     19  C   UNL     1       1.628   1.888  -4.739  1.00  0.00     0.065 A 
ATOM     20  C   UNL     1       0.942   0.258  -2.624  1.00  0.00     0.082 A 
ATOM     21  C   UNL     1       1.628  -0.291  -3.709  1.00  0.00     0.024 A 
ATOM     22  C   UNL     1       0.648   1.626  -2.562  1.00  0.00     0.024 A 
ATOM     23  C   UNL     1       1.964   0.528  -4.779  1.00  0.00     0.030 A 
ATOM     24  C   UNL     1       1.024   2.456  -3.613  1.00  0.00     0.030 A 
BRANCH  20  25
ATOM     25  S   UNL     1       0.426  -0.797  -1.310  1.00  0.00     0.238 S 
ATOM     26  O   UNL     1       1.065  -2.082  -1.433  1.00  0.00    -0.207 OA
ATOM     27  O   UNL     1      -1.005  -0.653  -1.140  1.00  0.00    -0.207 OA
BRANCH  25  28
ATOM     28  N   UNL     1       1.135  -0.070   0.024  1.00  0.00    -0.225 NA
ATOM     29  H   UNL     1       0.904  -0.600   0.864  1.00  0.00     0.137 HD
ATOM     30  H   UNL     1       0.786   0.884   0.117  1.00  0.00     0.137 HD
ENDBRANCH  25  28
ENDBRANCH  20  25
ENDBRANCH  15  19
BRANCH  17  31
ATOM     31  C   UNL     1       0.784   1.143  -7.659  1.00  0.00     0.000 A 
ATOM     32  C   UNL     1      -0.458   0.780  -7.125  1.00  0.00     0.010 A 
ATOM     33  C   UNL     1       1.313   0.407  -8.727  1.00  0.00     0.010 A 
ATOM     34  C   UNL     1      -1.153  -0.313  -7.642  1.00  0.00     0.001 A 
ATOM     35  C   UNL     1       0.615  -0.681  -9.247  1.00  0.00     0.001 A 
ATOM     36  C   UNL     1      -0.617  -1.040  -8.704  1.00  0.00     0.000 A 
ENDBRANCH  17  31
ENDBRANCH  11  14
ENDBRANCH   9  10
ENDBRANCH   8   9
ENDBRANCH   7   8
ENDBRANCH   6   7
ENDBRANCH   5   6
ENDBRANCH   4   5
ENDBRANCH   3   4
ENDBRANCH   2   3
ENDBRANCH   1   2
BRANCH   1  37
ATOM     37  C   UNL     1      -0.224   8.582 -17.103  1.00  0.00     0.123 C 
BRANCH  37  38
ATOM     38  C   UNL     1      -0.260  10.023 -17.579  1.00  0.00     0.305 C 
ATOM     39  O   UNL     1      -1.213  10.492 -18.188  1.00  0.00    -0.252 OA
BRANCH  38  40
ATOM     40  O   UNL     1       0.868  10.701 -17.271  1.00  0.00    -0.463 OA
BRANCH  40  41
ATOM     41  C   UNL     1       1.068  11.981 -17.888  1.00  0.00     0.261 C 
BRANCH  41  42
ATOM     42  C   UNL     1       2.235  11.901 -18.869  1.00  0.00     0.202 C 
BRANCH  42  43
ATOM     43  O   UNL     1       2.015  11.145 -20.063  1.00  0.00    -0.374 OA
BRANCH  43  44
ATOM     44  C   UNL     1       2.052   9.720 -19.997  1.00  0.00     0.202 C 
BRANCH  44  45
ATOM     45  C   UNL     1       3.421   9.052 -19.937  1.00  0.00     0.261 C 
BRANCH  45  46
ATOM     46  O   UNL     1       4.099   9.410 -18.744  1.00  0.00    -0.460 OA
BRANCH  46  47
ATOM     47  C   UNL     1       4.960  10.449 -18.863  1.00  0.00     0.338 C 
ATOM     48  O   UNL     1       5.158  11.138 -19.847  1.00  0.00    -0.246 OA
BRANCH  47  49
ATOM     49  C   UNL     1       5.721  10.541 -17.608  1.00  0.00     0.060 A 
ATOM     50  C   UNL     1       6.975  11.127 -17.747  1.00  0.00     0.016 A 
ATOM     51  C   UNL     1       5.423   9.636 -16.581  1.00  0.00     0.016 A 
ATOM     52  C   UNL     1       8.024  10.484 -17.142  1.00  0.00     0.010 A 
ATOM     53  C   UNL     1       6.467   8.983 -15.990  1.00  0.00     0.010 A 
ATOM     54  C   UNL     1       7.749   9.337 -16.392  1.00  0.00    -0.014 A 
BRANCH  54  55
ATOM     55  C   UNL     1       8.855   8.527 -15.954  1.00  0.00     0.031 A 
ATOM     56  C   UNL     1       9.502   9.129 -14.778  1.00  0.00     0.074 A 
ATOM     57  C   UNL     1       9.136   7.337 -16.515  1.00  0.00     0.049 A 
ATOM     58  N   UNL     1      10.586   9.829 -14.756  1.00  0.00    -0.248 NA
ATOM     59  C   UNL     1       8.690   9.236 -13.553  1.00  0.00     0.031 C 
ATOM     60  C   UNL     1       8.360   6.582 -17.504  1.00  0.00     0.029 A 
ATOM     61  N   UNL     1      10.164   6.497 -16.228  1.00  0.00    -0.354 N 
ATOM     62  C   UNL     1      10.721  10.213 -13.429  1.00  0.00     0.074 A 
ATOM     63  C   UNL     1       9.410  10.111 -12.853  1.00  0.00     0.031 C 
ATOM     64  C   UNL     1       8.825   5.311 -17.559  1.00  0.00     0.029 A 
ATOM     65  C   UNL     1       9.999   5.202 -16.712  1.00  0.00     0.049 A 
ATOM     66  H   UNL     1      10.959   6.780 -15.720  1.00  0.00     0.167 HD
ATOM     67  C   UNL     1      11.942  10.216 -12.831  1.00  0.00     0.037 A 
ATOM     68  C   UNL     1      10.741   4.128 -16.333  1.00  0.00     0.037 A 
ATOM     69  C   UNL     1      12.992  10.185 -13.823  1.00  0.00     0.049 A 
ATOM     70  C   UNL     1      11.997   4.666 -15.734  1.00  0.00     0.074 A 
ATOM     71  C   UNL     1      13.374  11.012 -14.861  1.00  0.00     0.029 A 
ATOM     72  N   UNL     1      13.578   8.964 -14.071  1.00  0.00    -0.354 N 
ATOM     73  N   UNL     1      12.893   5.327 -16.421  1.00  0.00    -0.248 NA
ATOM     74  C   UNL     1      12.012   4.920 -14.300  1.00  0.00     0.031 C 
ATOM     75  C   UNL     1      13.812  10.138 -15.898  1.00  0.00     0.029 A 
ATOM     76  C   UNL     1      13.741   8.825 -15.425  1.00  0.00     0.049 A 
ATOM     77  H   UNL     1      13.837   8.302 -13.390  1.00  0.00     0.167 HD
ATOM     78  C   UNL     1      13.290   6.371 -15.592  1.00  0.00     0.074 A 
ATOM     79  C   UNL     1      12.769   6.022 -14.272  1.00  0.00     0.031 C 
ATOM     80  C   UNL     1      13.739   7.551 -16.115  1.00  0.00     0.037 A 
BRANCH  67  81
ATOM     81  C   UNL     1      12.173   9.792 -11.395  1.00  0.00     0.058 A 
ATOM     82  C   UNL     1      13.476   9.900 -10.872  1.00  0.00     0.135 A 
ATOM     83  C   UNL     1      11.270   9.033 -10.611  1.00  0.00     0.135 A 
ATOM     84  F   UNL     1      14.413  10.616 -11.514  1.00  0.00    -0.206 F 
ATOM     85  C   UNL     1      13.881   9.211  -9.729  1.00  0.00     0.059 A 
ATOM     86  C   UNL     1      11.639   8.383  -9.443  1.00  0.00     0.059 A 
ATOM     87  F   UNL     1      10.006   8.790 -10.967  1.00  0.00    -0.206 F 
ATOM     88  C   UNL     1      12.958   8.434  -9.037  1.00  0.00     0.060 A 
BRANCH  88  89
ATOM     89  S   UNL     1      13.499   7.433  -7.647  1.00  0.00     0.124 S 
ATOM     90  O   UNL     1      14.348   6.452  -8.314  1.00  0.00    -0.237 OA
ATOM     91  O   UNL     1      14.183   8.418  -6.818  1.00  0.00    -0.237 OA
ATOM     92  O   UNL     1      12.248   6.917  -7.099  1.00  0.00    -0.744 OA
ENDBRANCH  88  89
ENDBRANCH  67  81
BRANCH  68  93
ATOM     93  C   UNL     1      10.256   2.741 -16.101  1.00  0.00     0.058 A 
ATOM     94  C   UNL     1      11.133   1.645 -16.013  1.00  0.00     0.135 A 
ATOM     95  C   UNL     1       8.924   2.498 -15.704  1.00  0.00     0.135 A 
ATOM     96  F   UNL     1      12.428   1.793 -16.334  1.00  0.00    -0.206 F 
ATOM     97  C   UNL     1      10.718   0.390 -15.545  1.00  0.00     0.059 A 
ATOM     98  C   UNL     1       8.486   1.258 -15.243  1.00  0.00     0.059 A 
ATOM     99  F   UNL     1       8.022   3.490 -15.670  1.00  0.00    -0.206 F 
ATOM    100  C   UNL     1       9.392   0.209 -15.151  1.00  0.00     0.060 A 
BRANCH 100 101
ATOM    101  S   UNL     1       8.870  -1.365 -14.426  1.00  0.00     0.124 S 
ATOM    102  O   UNL     1       8.957  -2.268 -15.568  1.00  0.00    -0.237 OA
ATOM    103  O   UNL     1       9.861  -1.567 -13.375  1.00  0.00    -0.237 OA
ATOM    104  O   UNL     1       7.515  -1.089 -13.954  1.00  0.00    -0.744 OA
ENDBRANCH 100 101
ENDBRANCH  68  93
BRANCH  80 105
ATOM    105  C   UNL     1      14.073   7.584 -17.586  1.00  0.00     0.058 A 
ATOM    106  C   UNL     1      13.128   7.458 -18.621  1.00  0.00     0.135 A 
ATOM    107  C   UNL     1      15.385   7.912 -17.955  1.00  0.00     0.135 A 
ATOM    108  F   UNL     1      11.833   7.249 -18.346  1.00  0.00    -0.206 F 
ATOM    109  C   UNL     1      13.482   7.611 -19.964  1.00  0.00     0.059 A 
ATOM    110  C   UNL     1      15.754   8.098 -19.284  1.00  0.00     0.059 A 
ATOM    111  F   UNL     1      16.318   8.110 -17.010  1.00  0.00    -0.206 F 
ATOM    112  C   UNL     1      14.801   7.931 -20.285  1.00  0.00     0.060 A 
BRANCH 112 113
ATOM    113  S   UNL     1      15.250   8.194 -22.015  1.00  0.00     0.124 S 
ATOM    114  O   UNL     1      15.195   6.840 -22.555  1.00  0.00    -0.237 OA
ATOM    115  O   UNL     1      14.207   9.105 -22.479  1.00  0.00    -0.237 OA
ATOM    116  O   UNL     1      16.586   8.781 -21.935  1.00  0.00    -0.744 OA
ENDBRANCH 112 113
ENDBRANCH  80 105
ENDBRANCH  54  55
ENDBRANCH  47  49
ENDBRANCH  46  47
ENDBRANCH  45  46
ENDBRANCH  44  45
ENDBRANCH  43  44
ENDBRANCH  42  43
ENDBRANCH  41  42
ENDBRANCH  40  41
ENDBRANCH  38  40
ENDBRANCH  37  38
ENDBRANCH   1  37
TORSDOF 32
