REMARK SMILES O=C(OCCOCCOC(=O)c1ccc(-c2c3nc(c(-c4c(F)cc(S(=O)(=O)[O-])cc4F)c4ccc([nH]4)c(-c4c(F)cc(S(=O)(=O)[O-])cc4F)c4nc(c(-c5c(F)cc(S(=O)(=O)[O-])cc5F)c5ccc2[nH]5)C=C4)C=C3)cc1)C1=Cc2cc(Cl)c(Cl)cc2O[C@@H]1C(F)(F)F
REMARK SMILES IDX 7 1 6 2 5 3 4 4 3 5 2 6 1 7 78 8 79 9 89 10 80 11 88 12
REMARK SMILES IDX 81 13 87 14 82 15 86 16 83 17 84 18 85 19 90 20 91 21 92 22
REMARK SMILES IDX 93 23 8 24 9 25 10 26 11 27 12 28 13 29 77 30 14 31 76 32
REMARK SMILES IDX 15 33 16 34 17 35 70 36 18 37 75 38 69 39 71 40 19 41 74 42
REMARK SMILES IDX 68 43 67 44 20 46 54 47 33 48 53 49 34 50 37 51 52 52 72 53
REMARK SMILES IDX 35 54 36 55 51 57 73 58 38 59 21 60 22 61 31 62 23 63 24 64
REMARK SMILES IDX 30 65 32 66 25 67 26 68 27 69 28 70 29 71 55 72 56 73 65 74
REMARK SMILES IDX 57 75 58 76 64 77 66 78 59 79 60 80 61 81 62 82 63 83 39 84
REMARK SMILES IDX 40 85 49 86 41 87 42 88 48 89 50 90 43 91 44 92 45 93 46 94
REMARK SMILES IDX 47 95
REMARK H PARENT 71 45 37 56
REMARK Flexibility Score: inf
ROOT
ATOM      1  C   UNL     1       2.888  -2.814  -1.125  1.00  0.00     0.202 C 
ENDROOT
BRANCH   1   2
ATOM      2  O   UNL     1       4.102  -2.062  -1.328  1.00  0.00    -0.374 OA
BRANCH   2   3
ATOM      3  C   UNL     1       4.472  -0.487  -1.166  1.00  0.00     0.202 C 
BRANCH   3   4
ATOM      4  C   UNL     1       3.623   1.045   0.139  1.00  0.00     0.261 C 
BRANCH   4   5
ATOM      5  O   UNL     1       2.600   2.118  -0.264  1.00  0.00    -0.460 OA
BRANCH   5   6
ATOM      6  C   UNL     1       2.701   2.473  -1.547  1.00  0.00     0.338 C 
ATOM      7  O   UNL     1       2.009   3.214  -2.197  1.00  0.00    -0.246 OA
BRANCH   6   8
ATOM      8  C   UNL     1       3.606   1.409  -1.925  1.00  0.00     0.087 C 
ATOM      9  C   UNL     1       4.998   1.705  -1.536  1.00  0.00     0.027 C 
ATOM     10  C   UNL     1       2.536  -0.031  -1.201  1.00  0.00     0.316 C 
ATOM     11  C   UNL     1       5.835   0.915  -0.144  1.00  0.00     0.019 A 
ATOM     12  O   UNL     1       3.384  -0.846   0.338  1.00  0.00    -0.475 OA
ATOM     13  C   UNL     1       7.050   1.403   0.246  1.00  0.00     0.034 A 
ATOM     14  C   UNL     1       5.044  -0.268   0.852  1.00  0.00     0.129 A 
ATOM     15  C   UNL     1       7.508   0.943   1.491  1.00  0.00     0.060 A 
ATOM     16  C   UNL     1       5.510  -0.578   2.097  1.00  0.00     0.069 A 
ATOM     17  Cl  UNL     1       9.078   1.560   1.945  1.00  0.00    -0.083 Cl
ATOM     18  C   UNL     1       6.759   0.055   2.386  1.00  0.00     0.063 A 
ATOM     19  Cl  UNL     1       7.406  -0.176   3.983  1.00  0.00    -0.083 Cl
BRANCH  10  20
ATOM     20  C   UNL     1       2.072  -0.623  -2.614  1.00  0.00     0.430 C 
ATOM     21  F   UNL     1       1.181  -1.629  -2.569  1.00  0.00    -0.167 F 
ATOM     22  F   UNL     1       1.417   0.382  -3.273  1.00  0.00    -0.167 F 
ATOM     23  F   UNL     1       3.077  -0.971  -3.450  1.00  0.00    -0.167 F 
ENDBRANCH  10  20
ENDBRANCH   6   8
ENDBRANCH   5   6
ENDBRANCH   4   5
ENDBRANCH   3   4
ENDBRANCH   2   3
ENDBRANCH   1   2
BRANCH   1  24
ATOM     24  C   UNL     1       2.989  -4.094  -0.304  1.00  0.00     0.261 C 
BRANCH  24  25
ATOM     25  O   UNL     1       3.484  -3.855   1.002  1.00  0.00    -0.460 OA
BRANCH  25  26
ATOM     26  C   UNL     1       4.821  -4.017   1.099  1.00  0.00     0.338 C 
ATOM     27  O   UNL     1       5.615  -4.203   0.193  1.00  0.00    -0.246 OA
BRANCH  26  28
ATOM     28  C   UNL     1       5.196  -3.928   2.517  1.00  0.00     0.060 A 
ATOM     29  C   UNL     1       6.512  -3.563   2.806  1.00  0.00     0.016 A 
ATOM     30  C   UNL     1       4.275  -4.186   3.543  1.00  0.00     0.016 A 
ATOM     31  C   UNL     1       6.904  -3.431   4.128  1.00  0.00     0.010 A 
ATOM     32  C   UNL     1       4.671  -4.060   4.869  1.00  0.00     0.010 A 
ATOM     33  C   UNL     1       5.989  -3.684   5.157  1.00  0.00    -0.014 A 
BRANCH  33  34
ATOM     34  C   UNL     1       6.495  -3.767   6.534  1.00  0.00     0.031 A 
ATOM     35  C   UNL     1       7.021  -5.092   6.984  1.00  0.00     0.074 A 
ATOM     36  C   UNL     1       6.537  -2.680   7.320  1.00  0.00     0.049 A 
ATOM     37  N   UNL     1       7.563  -5.420   8.122  1.00  0.00    -0.248 NA
ATOM     38  C   UNL     1       6.922  -6.199   6.014  1.00  0.00     0.031 C 
ATOM     39  C   UNL     1       6.066  -1.349   6.945  1.00  0.00     0.029 A 
ATOM     40  N   UNL     1       7.009  -2.522   8.594  1.00  0.00    -0.354 N 
ATOM     41  C   UNL     1       7.888  -6.763   8.001  1.00  0.00     0.074 A 
ATOM     42  C   UNL     1       7.443  -7.203   6.699  1.00  0.00     0.031 C 
ATOM     43  C   UNL     1       6.302  -0.498   7.958  1.00  0.00     0.029 A 
ATOM     44  C   UNL     1       6.881  -1.240   9.074  1.00  0.00     0.049 A 
ATOM     45  H   UNL     1       7.403  -3.256   9.118  1.00  0.00     0.167 HD
ATOM     46  C   UNL     1       8.515  -7.551   8.901  1.00  0.00     0.037 A 
ATOM     47  C   UNL     1       7.179  -0.742  10.290  1.00  0.00     0.037 A 
ATOM     48  C   UNL     1       8.906  -7.097  10.207  1.00  0.00     0.049 A 
ATOM     49  C   UNL     1       7.776  -1.675  11.314  1.00  0.00     0.074 A 
ATOM     50  C   UNL     1       9.517  -7.814  11.218  1.00  0.00     0.029 A 
ATOM     51  N   UNL     1       8.706  -5.810  10.689  1.00  0.00    -0.354 N 
ATOM     52  N   UNL     1       8.101  -2.942  11.190  1.00  0.00    -0.248 NA
ATOM     53  C   UNL     1       8.049  -1.115  12.643  1.00  0.00     0.031 C 
ATOM     54  C   UNL     1       9.624  -6.980  12.334  1.00  0.00     0.029 A 
ATOM     55  C   UNL     1       9.156  -5.719  11.994  1.00  0.00     0.049 A 
ATOM     56  H   UNL     1       8.304  -5.071  10.177  1.00  0.00     0.167 HD
ATOM     57  C   UNL     1       8.649  -3.319  12.412  1.00  0.00     0.074 A 
ATOM     58  C   UNL     1       8.624  -2.140  13.254  1.00  0.00     0.031 C 
ATOM     59  C   UNL     1       9.129  -4.526  12.805  1.00  0.00     0.037 A 
BRANCH  46  60
ATOM     60  C   UNL     1       8.765  -8.977   8.509  1.00  0.00     0.058 A 
ATOM     61  C   UNL     1       9.682  -9.319   7.501  1.00  0.00     0.135 A 
ATOM     62  C   UNL     1       8.077 -10.020   9.149  1.00  0.00     0.135 A 
ATOM     63  F   UNL     1      10.342  -8.359   6.832  1.00  0.00    -0.206 F 
ATOM     64  C   UNL     1       9.894 -10.641   7.130  1.00  0.00     0.059 A 
ATOM     65  C   UNL     1       8.298 -11.352   8.817  1.00  0.00     0.059 A 
ATOM     66  F   UNL     1       7.174  -9.748  10.104  1.00  0.00    -0.206 F 
ATOM     67  C   UNL     1       9.201 -11.651   7.799  1.00  0.00     0.060 A 
BRANCH  67  68
ATOM     68  S   UNL     1       9.504 -13.363   7.317  1.00  0.00     0.124 S 
ATOM     69  O   UNL     1       8.910 -13.402   5.984  1.00  0.00    -0.237 OA
ATOM     70  O   UNL     1      10.960 -13.444   7.365  1.00  0.00    -0.237 OA
ATOM     71  O   UNL     1       8.801 -14.134   8.338  1.00  0.00    -0.744 OA
ENDBRANCH  67  68
ENDBRANCH  46  60
BRANCH  47  72
ATOM     72  C   UNL     1       6.891   0.681  10.620  1.00  0.00     0.058 A 
ATOM     73  C   UNL     1       7.918   1.582  10.941  1.00  0.00     0.135 A 
ATOM     74  C   UNL     1       5.572   1.164  10.656  1.00  0.00     0.135 A 
ATOM     75  F   UNL     1       9.196   1.173  10.931  1.00  0.00    -0.206 F 
ATOM     76  C   UNL     1       7.648   2.895  11.316  1.00  0.00     0.059 A 
ATOM     77  C   UNL     1       5.279   2.482  10.993  1.00  0.00     0.059 A 
ATOM     78  F   UNL     1       4.548   0.351  10.350  1.00  0.00    -0.206 F 
ATOM     79  C   UNL     1       6.324   3.336  11.338  1.00  0.00     0.060 A 
BRANCH  79  80
ATOM     80  S   UNL     1       5.987   5.047  11.807  1.00  0.00     0.124 S 
ATOM     81  O   UNL     1       6.326   5.036  13.225  1.00  0.00    -0.237 OA
ATOM     82  O   UNL     1       6.896   5.785  10.937  1.00  0.00    -0.237 OA
ATOM     83  O   UNL     1       4.569   5.207  11.499  1.00  0.00    -0.744 OA
ENDBRANCH  79  80
ENDBRANCH  47  72
BRANCH  59  84
ATOM     84  C   UNL     1       9.717  -4.620  14.188  1.00  0.00     0.058 A 
ATOM     85  C   UNL     1       8.925  -4.532  15.343  1.00  0.00     0.135 A 
ATOM     86  C   UNL     1      11.092  -4.857  14.353  1.00  0.00     0.135 A 
ATOM     87  F   UNL     1       7.606  -4.303  15.244  1.00  0.00    -0.206 F 
ATOM     88  C   UNL     1       9.480  -4.644  16.614  1.00  0.00     0.059 A 
ATOM     89  C   UNL     1      11.662  -5.013  15.612  1.00  0.00     0.059 A 
ATOM     90  F   UNL     1      11.895  -4.965  13.282  1.00  0.00    -0.206 F 
ATOM     91  C   UNL     1      10.849  -4.889  16.737  1.00  0.00     0.060 A 
BRANCH  91  92
ATOM     92  S   UNL     1      11.549  -5.063  18.391  1.00  0.00     0.124 S 
ATOM     93  O   UNL     1      11.460  -3.696  18.893  1.00  0.00    -0.237 OA
ATOM     94  O   UNL     1      10.645  -6.027  19.009  1.00  0.00    -0.237 OA
ATOM     95  O   UNL     1      12.902  -5.552  18.140  1.00  0.00    -0.744 OA
ENDBRANCH  91  92
ENDBRANCH  59  84
ENDBRANCH  33  34
ENDBRANCH  26  28
ENDBRANCH  25  26
ENDBRANCH  24  25
ENDBRANCH   1  24
TORSDOF 18
