REMARK SMILES CCOC(=O)c1nc(Nc2cccc(C(=O)OCCOCCOC(=O)c3ccc(-c4c5nc(c(-c6c(F)cc(S(=O)(=O)[O-])cc6F)c6ccc([nH]6)c(-c6c(F)cc(S(=O)(=O)[O-])cc6F)c6nc(c(-c7c(F)cc(S(=O)(=O)[O-])cc7F)c7ccc4[nH]7)C=C6)C=C5)cc3)c2)c2ccccc2n1
REMARK SMILES IDX 19 1 18 2 17 3 15 4 16 5 14 6 10 7 11 8 92 9 12 10 13 11
REMARK SMILES IDX 9 12 8 14 6 15 7 16 99 17 98 18 93 19 97 20 94 21 96 22
REMARK SMILES IDX 95 23 4 24 5 25 3 26 2 27 1 28 20 29 21 30 22 31 23 32 24 33
REMARK SMILES IDX 25 34 26 35 27 36 91 37 28 38 90 39 29 40 30 41 31 42 84 43
REMARK SMILES IDX 32 44 89 45 83 46 85 47 33 48 88 49 82 50 81 51 34 53 68 54
REMARK SMILES IDX 47 55 67 56 48 57 51 58 66 59 86 60 49 61 50 62 65 64 87 65
REMARK SMILES IDX 52 66 35 67 36 68 45 69 37 70 38 71 44 72 46 73 39 74 40 75
REMARK SMILES IDX 41 76 42 77 43 78 69 79 70 80 79 81 71 82 72 83 78 84 80 85
REMARK SMILES IDX 73 86 74 87 75 88 76 89 77 90 53 91 54 92 63 93 55 94 56 95
REMARK SMILES IDX 62 96 64 97 57 98 58 99 59 100 60 101 61 102
REMARK H PARENT 9 13 85 52 51 63
REMARK Flexibility Score: inf
ROOT
ATOM      1  C   UNL     1       2.766   6.218  -1.407  1.00  0.00     0.202 C 
ENDROOT
BRANCH   1   2
ATOM      2  C   UNL     1       2.807   4.688  -1.331  1.00  0.00     0.261 C 
BRANCH   2   3
ATOM      3  O   UNL     1       3.499   4.256  -0.148  1.00  0.00    -0.460 OA
BRANCH   3   4
ATOM      4  C   UNL     1       4.703   3.670  -0.352  1.00  0.00     0.338 C 
ATOM      5  O   UNL     1       5.185   3.340  -1.427  1.00  0.00    -0.246 OA
BRANCH   4   6
ATOM      6  C   UNL     1       5.480   3.668   0.911  1.00  0.00     0.062 A 
ATOM      7  C   UNL     1       5.647   3.505   3.335  1.00  0.00     0.040 A 
ATOM      8  C   UNL     1       7.031   3.703   3.229  1.00  0.00     0.026 A 
ATOM      9  C   UNL     1       4.873   3.534   2.163  1.00  0.00     0.041 A 
ATOM     10  C   UNL     1       7.638   3.866   1.981  1.00  0.00     0.003 A 
ATOM     11  C   UNL     1       6.867   3.829   0.823  1.00  0.00     0.016 A 
BRANCH   7  12
ATOM     12  N   UNL     1       5.091   3.168   4.590  1.00  0.00    -0.340 N 
ATOM     13  H   UNL     1       5.431   3.657   5.374  1.00  0.00     0.168 HD
BRANCH  12  14
ATOM     14  C   UNL     1       4.093   2.196   4.827  1.00  0.00     0.142 A 
ATOM     15  C   UNL     1       2.749   0.543   3.980  1.00  0.00     0.241 A 
ATOM     16  N   UNL     1       3.727   1.434   3.786  1.00  0.00    -0.204 NA
ATOM     17  N   UNL     1       2.125   0.307   5.144  1.00  0.00    -0.222 NA
ATOM     18  C   UNL     1       2.518   1.044   6.184  1.00  0.00     0.077 A 
ATOM     19  C   UNL     1       3.505   2.043   6.096  1.00  0.00     0.043 A 
ATOM     20  C   UNL     1       1.923   0.800   7.415  1.00  0.00     0.029 A 
ATOM     21  C   UNL     1       3.837   2.791   7.258  1.00  0.00     0.014 A 
ATOM     22  C   UNL     1       2.272   1.517   8.561  1.00  0.00     0.002 A 
ATOM     23  C   UNL     1       3.228   2.520   8.482  1.00  0.00     0.001 A 
BRANCH  15  24
ATOM     24  C   UNL     1       2.365  -0.255   2.781  1.00  0.00     0.376 C 
ATOM     25  O   UNL     1       3.157  -0.841   2.057  1.00  0.00    -0.242 OA
BRANCH  24  26
ATOM     26  O   UNL     1       1.027  -0.128   2.578  1.00  0.00    -0.460 OA
BRANCH  26  27
ATOM     27  C   UNL     1       0.519  -0.746   1.387  1.00  0.00     0.230 C 
ATOM     28  C   UNL     1       0.811   0.106   0.161  1.00  0.00     0.049 C 
ENDBRANCH  26  27
ENDBRANCH  24  26
ENDBRANCH  15  24
ENDBRANCH  12  14
ENDBRANCH   7  12
ENDBRANCH   4   6
ENDBRANCH   3   4
ENDBRANCH   2   3
ENDBRANCH   1   2
BRANCH   1  29
ATOM     29  O   UNL     1       4.027   6.862  -1.608  1.00  0.00    -0.374 OA
BRANCH  29  30
ATOM     30  C   UNL     1       4.833   7.063  -0.447  1.00  0.00     0.202 C 
BRANCH  30  31
ATOM     31  C   UNL     1       4.505   8.302   0.394  1.00  0.00     0.261 C 
BRANCH  31  32
ATOM     32  O   UNL     1       3.219   8.191   1.028  1.00  0.00    -0.460 OA
BRANCH  32  33
ATOM     33  C   UNL     1       2.252   8.970   0.489  1.00  0.00     0.338 C 
ATOM     34  O   UNL     1       2.386   9.801  -0.400  1.00  0.00    -0.246 OA
BRANCH  33  35
ATOM     35  C   UNL     1       0.931   8.567   1.006  1.00  0.00     0.060 A 
ATOM     36  C   UNL     1      -0.086   8.341   0.069  1.00  0.00     0.016 A 
ATOM     37  C   UNL     1       0.669   8.471   2.374  1.00  0.00     0.016 A 
ATOM     38  C   UNL     1      -1.383   8.071   0.499  1.00  0.00     0.010 A 
ATOM     39  C   UNL     1      -0.636   8.206   2.804  1.00  0.00     0.010 A 
ATOM     40  C   UNL     1      -1.674   8.040   1.869  1.00  0.00    -0.014 A 
BRANCH  40  41
ATOM     41  C   UNL     1      -3.087   7.971   2.316  1.00  0.00     0.031 A 
ATOM     42  C   UNL     1      -3.777   9.236   2.751  1.00  0.00     0.074 A 
ATOM     43  C   UNL     1      -3.753   6.803   2.309  1.00  0.00     0.049 A 
ATOM     44  N   UNL     1      -4.991   9.402   3.207  1.00  0.00    -0.248 NA
ATOM     45  C   UNL     1      -2.992  10.477   2.660  1.00  0.00     0.031 C 
ATOM     46  C   UNL     1      -3.201   5.519   1.879  1.00  0.00     0.029 A 
ATOM     47  N   UNL     1      -5.040   6.508   2.682  1.00  0.00    -0.354 N 
ATOM     48  C   UNL     1      -5.116  10.763   3.464  1.00  0.00     0.074 A 
ATOM     49  C   UNL     1      -3.844  11.372   3.142  1.00  0.00     0.031 C 
ATOM     50  C   UNL     1      -4.141   4.570   2.025  1.00  0.00     0.029 A 
ATOM     51  C   UNL     1      -5.350   5.173   2.585  1.00  0.00     0.049 A 
ATOM     52  H   UNL     1      -5.681   7.189   2.990  1.00  0.00     0.167 HD
ATOM     53  C   UNL     1      -6.196  11.443   3.917  1.00  0.00     0.037 A 
ATOM     54  C   UNL     1      -6.472   4.511   2.929  1.00  0.00     0.037 A 
ATOM     55  C   UNL     1      -7.460  10.832   4.234  1.00  0.00     0.049 A 
ATOM     56  C   UNL     1      -7.642   5.280   3.486  1.00  0.00     0.074 A 
ATOM     57  C   UNL     1      -8.621  11.437   4.683  1.00  0.00     0.029 A 
ATOM     58  N   UNL     1      -7.729   9.474   4.141  1.00  0.00    -0.354 N 
ATOM     59  N   UNL     1      -7.754   6.569   3.703  1.00  0.00    -0.248 NA
ATOM     60  C   UNL     1      -8.840   4.505   3.841  1.00  0.00     0.031 C 
ATOM     61  C   UNL     1      -9.577  10.440   4.906  1.00  0.00     0.029 A 
ATOM     62  C   UNL     1      -9.029   9.219   4.547  1.00  0.00     0.049 A 
ATOM     63  H   UNL     1      -7.090   8.791   3.833  1.00  0.00     0.167 HD
ATOM     64  C   UNL     1      -9.041   6.763   4.194  1.00  0.00     0.074 A 
ATOM     65  C   UNL     1      -9.673   5.460   4.234  1.00  0.00     0.031 C 
ATOM     66  C   UNL     1      -9.646   7.916   4.576  1.00  0.00     0.037 A 
BRANCH  53  67
ATOM     67  C   UNL     1      -6.049  12.926   4.120  1.00  0.00     0.058 A 
ATOM     68  C   UNL     1      -5.961  13.816   3.037  1.00  0.00     0.135 A 
ATOM     69  C   UNL     1      -6.024  13.468   5.415  1.00  0.00     0.135 A 
ATOM     70  F   UNL     1      -5.963  13.350   1.778  1.00  0.00    -0.206 F 
ATOM     71  C   UNL     1      -5.828  15.187   3.232  1.00  0.00     0.059 A 
ATOM     72  C   UNL     1      -5.917  14.838   5.633  1.00  0.00     0.059 A 
ATOM     73  F   UNL     1      -6.102  12.662   6.486  1.00  0.00    -0.206 F 
ATOM     74  C   UNL     1      -5.805  15.688   4.534  1.00  0.00     0.060 A 
BRANCH  74  75
ATOM     75  S   UNL     1      -5.631  17.470   4.771  1.00  0.00     0.124 S 
ATOM     76  O   UNL     1      -4.226  17.672   4.429  1.00  0.00    -0.237 OA
ATOM     77  O   UNL     1      -6.598  18.008   3.821  1.00  0.00    -0.237 OA
ATOM     78  O   UNL     1      -5.967  17.660   6.179  1.00  0.00    -0.744 OA
ENDBRANCH  74  75
ENDBRANCH  53  67
BRANCH  54  79
ATOM     79  C   UNL     1      -6.539   3.034   2.767  1.00  0.00     0.058 A 
ATOM     80  C   UNL     1      -7.362   2.445   1.796  1.00  0.00     0.135 A 
ATOM     81  C   UNL     1      -5.774   2.182   3.580  1.00  0.00     0.135 A 
ATOM     82  F   UNL     1      -8.121   3.217   1.004  1.00  0.00    -0.206 F 
ATOM     83  C   UNL     1      -7.434   1.065   1.642  1.00  0.00     0.059 A 
ATOM     84  C   UNL     1      -5.810   0.799   3.428  1.00  0.00     0.059 A 
ATOM     85  F   UNL     1      -4.964   2.696   4.519  1.00  0.00    -0.206 F 
ATOM     86  C   UNL     1      -6.650   0.250   2.462  1.00  0.00     0.060 A 
BRANCH  86  87
ATOM     87  S   UNL     1      -6.710  -1.539   2.218  1.00  0.00     0.124 S 
ATOM     88  O   UNL     1      -8.011  -1.870   2.787  1.00  0.00    -0.237 OA
ATOM     89  O   UNL     1      -6.598  -1.654   0.767  1.00  0.00    -0.237 OA
ATOM     90  O   UNL     1      -5.552  -2.018   2.967  1.00  0.00    -0.744 OA
ENDBRANCH  86  87
ENDBRANCH  54  79
BRANCH  66  91
ATOM     91  C   UNL     1     -11.075   7.831   5.038  1.00  0.00     0.058 A 
ATOM     92  C   UNL     1     -11.417   7.286   6.286  1.00  0.00     0.135 A 
ATOM     93  C   UNL     1     -12.110   8.353   4.245  1.00  0.00     0.135 A 
ATOM     94  F   UNL     1     -10.467   6.768   7.080  1.00  0.00    -0.206 F 
ATOM     95  C   UNL     1     -12.738   7.242   6.722  1.00  0.00     0.059 A 
ATOM     96  C   UNL     1     -13.434   8.343   4.673  1.00  0.00     0.059 A 
ATOM     97  F   UNL     1     -11.837   8.896   3.048  1.00  0.00    -0.206 F 
ATOM     98  C   UNL     1     -13.740   7.775   5.908  1.00  0.00     0.060 A 
BRANCH  98  99
ATOM     99  S   UNL     1     -15.445   7.742   6.500  1.00  0.00     0.124 S 
ATOM    100  O   UNL     1     -15.789   6.335   6.330  1.00  0.00    -0.237 OA
ATOM    101  O   UNL     1     -15.307   8.198   7.880  1.00  0.00    -0.237 OA
ATOM    102  O   UNL     1     -16.133   8.670   5.607  1.00  0.00    -0.744 OA
ENDBRANCH  98  99
ENDBRANCH  66  91
ENDBRANCH  40  41
ENDBRANCH  33  35
ENDBRANCH  32  33
ENDBRANCH  31  32
ENDBRANCH  30  31
ENDBRANCH  29  30
ENDBRANCH   1  29
TORSDOF 22
