REMARK SMILES Cc1c(C[N@H+]2CC[C@@H](C(=O)OCCOCCOC(=O)c3ccc(-c4c5nc(c(-c6c(F)cc(S(=O)(=O)[O-])cc6F)c6ccc([nH]6)c(-c6c(F)cc(S(=O)(=O)[O-])cc6F)c6nc(c(-c7c(F)cc(S(=O)(=O)[O-])cc7F)c7ccc4[nH]7)C=C6)C=C5)cc3)[C@@H]2C)cccc1[N+](=O)[O-]
REMARK SMILES IDX 14 1 13 2 12 3 11 4 9 5 10 6 8 7 5 8 6 9 86 10 7 12 87 13
REMARK SMILES IDX 4 14 3 15 1 16 2 17 91 18 88 19 90 20 89 21 92 22 93 23
REMARK SMILES IDX 94 24 15 25 16 26 17 27 18 28 19 29 20 30 21 31 85 32 22 33
REMARK SMILES IDX 84 34 23 35 24 36 25 37 78 38 26 39 83 40 77 41 79 42 27 43
REMARK SMILES IDX 82 44 76 45 75 46 28 48 62 49 41 50 61 51 42 52 45 53 60 54
REMARK SMILES IDX 80 55 43 56 44 57 59 59 81 60 46 61 29 62 30 63 39 64 31 65
REMARK SMILES IDX 32 66 38 67 40 68 33 69 34 70 35 71 36 72 37 73 63 74 64 75
REMARK SMILES IDX 73 76 65 77 66 78 72 79 74 80 67 81 68 82 69 83 70 84 71 85
REMARK SMILES IDX 47 86 48 87 57 88 49 89 50 90 56 91 58 92 51 93 52 94 53 95
REMARK SMILES IDX 54 96 55 97
REMARK H PARENT 5 11 79 47 45 58
REMARK Flexibility Score: inf
ROOT
ATOM      1  O   UNL     1      -4.239  -3.732   0.842  1.00  0.00    -0.374 OA
ENDROOT
BRANCH   1   2
ATOM      2  C   UNL     1      -3.515  -2.888  -0.028  1.00  0.00     0.202 C 
BRANCH   2   3
ATOM      3  C   UNL     1      -3.126  -1.790   0.885  1.00  0.00     0.261 C 
BRANCH   3   4
ATOM      4  O   UNL     1      -1.894  -2.098   1.534  1.00  0.00    -0.463 OA
BRANCH   4   5
ATOM      5  C   UNL     1      -1.888  -2.782   2.699  1.00  0.00     0.315 C 
ATOM      6  O   UNL     1      -2.817  -2.888   3.484  1.00  0.00    -0.252 OA
BRANCH   5   7
ATOM      7  C   UNL     1      -0.539  -3.431   2.851  1.00  0.00     0.162 C 
ATOM      8  N   UNL     1       1.406  -3.184   1.425  1.00  0.00    -0.328 N 
ATOM      9  C   UNL     1       1.792  -2.869   2.791  1.00  0.00     0.263 C 
ATOM     10  C   UNL     1       0.064  -3.792   1.469  1.00  0.00     0.195 C 
ATOM     11  H   UNL     1       2.001  -3.901   1.010  1.00  0.00     0.348 HD
ATOM     12  C   UNL     1       0.501  -2.551   3.509  1.00  0.00     0.083 C 
ATOM     13  C   UNL     1       0.033  -5.326   1.365  1.00  0.00     0.076 C 
BRANCH   8  14
ATOM     14  C   UNL     1       1.750  -2.148   0.411  1.00  0.00     0.299 C 
BRANCH  14  15
ATOM     15  C   UNL     1       1.114  -0.700   0.311  1.00  0.00     0.016 A 
ATOM     16  C   UNL     1       3.635   0.499   0.156  1.00  0.00     0.052 C 
ATOM     17  C   UNL     1       2.149   0.752   0.017  1.00  0.00     0.036 A 
ATOM     18  C   UNL     1       1.604   2.192  -0.912  1.00  0.00     0.272 A 
ATOM     19  C   UNL     1      -0.512  -0.769  -0.281  1.00  0.00     0.010 A 
ATOM     20  C   UNL     1      -0.082   2.205  -1.580  1.00  0.00     0.086 A 
ATOM     21  C   UNL     1      -1.221   0.604  -1.162  1.00  0.00     0.008 A 
BRANCH  18  22
ATOM     22  N   UNL     1       2.432   3.351  -1.165  1.00  0.00     0.062 N 
ATOM     23  O   UNL     1       1.861   4.355  -1.610  1.00  0.00    -0.258 OA
ATOM     24  O   UNL     1       3.635   3.286  -0.900  1.00  0.00    -0.258 OA
ENDBRANCH  18  22
ENDBRANCH  14  15
ENDBRANCH   8  14
ENDBRANCH   5   7
ENDBRANCH   4   5
ENDBRANCH   3   4
ENDBRANCH   2   3
ENDBRANCH   1   2
BRANCH   1  25
ATOM     25  C   UNL     1      -4.890  -4.808   0.222  1.00  0.00     0.202 C 
BRANCH  25  26
ATOM     26  C   UNL     1      -5.779  -4.382  -0.953  1.00  0.00     0.261 C 
BRANCH  26  27
ATOM     27  O   UNL     1      -6.770  -3.448  -0.468  1.00  0.00    -0.460 OA
BRANCH  27  28
ATOM     28  C   UNL     1      -6.771  -2.205  -1.038  1.00  0.00     0.338 C 
ATOM     29  O   UNL     1      -6.878  -1.995  -2.231  1.00  0.00    -0.246 OA
BRANCH  28  30
ATOM     30  C   UNL     1      -6.462  -1.176   0.008  1.00  0.00     0.060 A 
ATOM     31  C   UNL     1      -5.887   0.065  -0.342  1.00  0.00     0.016 A 
ATOM     32  C   UNL     1      -6.510  -1.555   1.349  1.00  0.00     0.016 A 
ATOM     33  C   UNL     1      -5.234   0.854   0.628  1.00  0.00     0.010 A 
ATOM     34  C   UNL     1      -5.837  -0.796   2.290  1.00  0.00     0.010 A 
ATOM     35  C   UNL     1      -5.142   0.383   1.935  1.00  0.00    -0.014 A 
BRANCH  35  36
ATOM     36  C   UNL     1      -4.280   0.916   3.004  1.00  0.00     0.031 A 
ATOM     37  C   UNL     1      -4.954   1.406   4.221  1.00  0.00     0.074 A 
ATOM     38  C   UNL     1      -2.934   0.713   3.063  1.00  0.00     0.049 A 
ATOM     39  N   UNL     1      -4.373   2.125   5.118  1.00  0.00    -0.248 NA
ATOM     40  C   UNL     1      -6.376   1.200   4.505  1.00  0.00     0.031 C 
ATOM     41  C   UNL     1      -2.104   0.581   4.257  1.00  0.00     0.029 A 
ATOM     42  N   UNL     1      -2.006   0.544   2.041  1.00  0.00    -0.354 N 
ATOM     43  C   UNL     1      -5.148   1.998   6.244  1.00  0.00     0.074 A 
ATOM     44  C   UNL     1      -6.460   1.718   5.732  1.00  0.00     0.031 C 
ATOM     45  C   UNL     1      -0.806   0.578   3.913  1.00  0.00     0.029 A 
ATOM     46  C   UNL     1      -0.708   0.803   2.479  1.00  0.00     0.049 A 
ATOM     47  H   UNL     1      -2.237   0.276   1.122  1.00  0.00     0.167 HD
ATOM     48  C   UNL     1      -4.522   1.868   7.451  1.00  0.00     0.037 A 
ATOM     49  C   UNL     1       0.184   1.538   1.759  1.00  0.00     0.037 A 
ATOM     50  C   UNL     1      -3.063   2.162   7.339  1.00  0.00     0.049 A 
ATOM     51  C   UNL     1       0.261   2.870   2.632  1.00  0.00     0.074 A 
ATOM     52  C   UNL     1      -1.881   1.512   7.664  1.00  0.00     0.029 A 
ATOM     53  N   UNL     1      -2.650   3.245   6.559  1.00  0.00    -0.354 N 
ATOM     54  N   UNL     1      -0.090   2.909   3.901  1.00  0.00    -0.248 NA
ATOM     55  C   UNL     1       0.655   4.215   2.201  1.00  0.00     0.031 C 
ATOM     56  C   UNL     1      -0.783   2.227   7.073  1.00  0.00     0.029 A 
ATOM     57  C   UNL     1      -1.279   3.324   6.393  1.00  0.00     0.049 A 
ATOM     58  H   UNL     1      -3.277   3.893   6.164  1.00  0.00     0.167 HD
ATOM     59  C   UNL     1      -0.182   4.181   4.388  1.00  0.00     0.074 A 
ATOM     60  C   UNL     1       0.359   4.969   3.288  1.00  0.00     0.031 C 
ATOM     61  C   UNL     1      -0.719   4.454   5.630  1.00  0.00     0.037 A 
BRANCH  48  62
ATOM     62  C   UNL     1      -5.197   1.277   8.698  1.00  0.00     0.058 A 
ATOM     63  C   UNL     1      -4.492   1.202   9.919  1.00  0.00     0.135 A 
ATOM     64  C   UNL     1      -6.502   0.719   8.771  1.00  0.00     0.135 A 
ATOM     65  F   UNL     1      -3.240   1.665  10.028  1.00  0.00    -0.206 F 
ATOM     66  C   UNL     1      -5.027   0.642  11.089  1.00  0.00     0.059 A 
ATOM     67  C   UNL     1      -7.075   0.205   9.939  1.00  0.00     0.059 A 
ATOM     68  F   UNL     1      -7.302   0.581   7.713  1.00  0.00    -0.206 F 
ATOM     69  C   UNL     1      -6.329   0.163  11.097  1.00  0.00     0.060 A 
BRANCH  69  70
ATOM     70  S   UNL     1      -7.035  -0.497  12.616  1.00  0.00     0.124 S 
ATOM     71  O   UNL     1      -6.197  -1.667  12.858  1.00  0.00    -0.237 OA
ATOM     72  O   UNL     1      -6.861   0.617  13.542  1.00  0.00    -0.237 OA
ATOM     73  O   UNL     1      -8.420  -0.789  12.253  1.00  0.00    -0.744 OA
ENDBRANCH  69  70
ENDBRANCH  48  62
BRANCH  49  74
ATOM     74  C   UNL     1      -0.066   1.386   0.132  1.00  0.00     0.058 A 
ATOM     75  C   UNL     1       0.601   0.471  -1.548  1.00  0.00     0.135 A 
ATOM     76  C   UNL     1      -1.563   2.409  -0.090  1.00  0.00     0.135 A 
ATOM     77  F   UNL     1       1.678  -0.341  -1.825  1.00  0.00    -0.206 F 
ATOM     78  C   UNL     1      -0.308   0.657  -3.091  1.00  0.00     0.059 A 
ATOM     79  C   UNL     1      -2.357   2.488  -1.651  1.00  0.00     0.059 A 
ATOM     80  F   UNL     1      -2.092   3.111   0.920  1.00  0.00    -0.206 F 
ATOM     81  C   UNL     1      -1.770   1.619  -3.076  1.00  0.00     0.060 A 
BRANCH  81  82
ATOM     82  S   UNL     1      -3.149   0.804  -4.057  1.00  0.00     0.124 S 
ATOM     83  O   UNL     1      -2.843   1.218  -5.418  1.00  0.00    -0.237 OA
ATOM     84  O   UNL     1      -2.923  -0.607  -3.744  1.00  0.00    -0.237 OA
ATOM     85  O   UNL     1      -4.343   1.381  -3.449  1.00  0.00    -0.744 OA
ENDBRANCH  81  82
ENDBRANCH  49  74
BRANCH  61  86
ATOM     86  C   UNL     1      -0.782   5.832   6.282  1.00  0.00     0.058 A 
ATOM     87  C   UNL     1       0.232   6.790   6.131  1.00  0.00     0.135 A 
ATOM     88  C   UNL     1      -1.796   6.186   7.215  1.00  0.00     0.135 A 
ATOM     89  F   UNL     1       1.322   6.528   5.395  1.00  0.00    -0.206 F 
ATOM     90  C   UNL     1       0.192   8.035   6.771  1.00  0.00     0.059 A 
ATOM     91  C   UNL     1      -1.826   7.393   7.906  1.00  0.00     0.059 A 
ATOM     92  F   UNL     1      -2.829   5.384   7.500  1.00  0.00    -0.206 F 
ATOM     93  C   UNL     1      -0.847   8.331   7.649  1.00  0.00     0.060 A 
BRANCH  93  94
ATOM     94  S   UNL     1      -0.902   9.933   8.468  1.00  0.00     0.124 S 
ATOM     95  O   UNL     1       0.480  10.108   8.904  1.00  0.00    -0.237 OA
ATOM     96  O   UNL     1      -1.338  10.801   7.379  1.00  0.00    -0.237 OA
ATOM     97  O   UNL     1      -1.872   9.739   9.542  1.00  0.00    -0.744 OA
ENDBRANCH  93  94
ENDBRANCH  61  86
ENDBRANCH  35  36
ENDBRANCH  28  30
ENDBRANCH  27  28
ENDBRANCH  26  27
ENDBRANCH  25  26
ENDBRANCH   1  25
TORSDOF 20
