REMARK SMILES CC(C)Cc1noc(C[NH+]2CCC(CC(=O)OCCOCCOC(=O)c3ccc(-c4c5nc(c(-c6c(F)cc(S(=O)(=O)[O-])cc6F)c6ccc([nH]6)c(-c6c(F)cc(S(=O)(=O)[O-])cc6F)c6nc(c(-c7c(F)cc(S(=O)(=O)[O-])cc7F)c7ccc4[nH]7)C=C6)C=C5)cc3)CC2)n1
REMARK SMILES IDX 19 1 18 2 17 3 15 4 16 5 14 6 13 7 10 8 11 9 93 10 12 12
REMARK SMILES IDX 92 13 9 14 8 15 5 16 6 17 94 18 7 19 4 20 2 21 1 22 3 23
REMARK SMILES IDX 20 24 21 25 22 26 23 27 24 28 25 29 26 30 27 31 91 32 28 33
REMARK SMILES IDX 90 34 29 35 30 36 31 37 84 38 32 39 89 40 83 41 85 42 33 43
REMARK SMILES IDX 88 44 82 45 81 46 34 48 68 49 47 50 67 51 48 52 51 53 66 54
REMARK SMILES IDX 86 55 49 56 50 57 65 59 87 60 52 61 35 62 36 63 45 64 37 65
REMARK SMILES IDX 38 66 44 67 46 68 39 69 40 70 41 71 42 72 43 73 69 74 70 75
REMARK SMILES IDX 79 76 71 77 72 78 78 79 80 80 73 81 74 82 75 83 76 84 77 85
REMARK SMILES IDX 53 86 54 87 63 88 55 89 56 90 62 91 64 92 57 93 58 94 59 95
REMARK SMILES IDX 60 96 61 97
REMARK H PARENT 10 11 85 47 51 58
REMARK Flexibility Score: inf
ROOT
ATOM      1  C   UNL     1       1.554   3.874   6.923  1.00  0.00     0.202 C 
ENDROOT
BRANCH   1   2
ATOM      2  C   UNL     1       0.600   5.021   7.264  1.00  0.00     0.261 C 
BRANCH   2   3
ATOM      3  O   UNL     1      -0.246   5.338   6.142  1.00  0.00    -0.463 OA
BRANCH   3   4
ATOM      4  C   UNL     1      -0.093   6.567   5.592  1.00  0.00     0.306 C 
ATOM      5  O   UNL     1       0.661   7.437   6.011  1.00  0.00    -0.252 OA
BRANCH   4   6
ATOM      6  C   UNL     1      -1.007   6.789   4.407  1.00  0.00     0.126 C 
BRANCH   6   7
ATOM      7  C   UNL     1      -1.098   5.676   3.341  1.00  0.00     0.011 C 
ATOM      8  N   UNL     1      -2.928   4.268   1.547  1.00  0.00    -0.327 N 
ATOM      9  C   UNL     1      -2.310   3.528   2.649  1.00  0.00     0.262 C 
ATOM     10  C   UNL     1      -1.996   5.242   0.984  1.00  0.00     0.262 C 
ATOM     11  H   UNL     1      -3.711   4.794   1.935  1.00  0.00     0.348 HD
ATOM     12  C   UNL     1      -1.970   4.490   3.793  1.00  0.00     0.066 C 
ATOM     13  C   UNL     1      -1.658   6.290   2.042  1.00  0.00     0.066 C 
BRANCH   8  14
ATOM     14  C   UNL     1      -3.536   3.388   0.531  1.00  0.00     0.364 C 
BRANCH  14  15
ATOM     15  C   UNL     1      -2.614   2.513  -0.248  1.00  0.00     0.281 A 
ATOM     16  C   UNL     1      -1.484   1.002  -1.143  1.00  0.00     0.172 A 
ATOM     17  N   UNL     1      -1.314   2.039  -1.975  1.00  0.00    -0.062 NA
ATOM     18  N   UNL     1      -2.272   1.259  -0.051  1.00  0.00    -0.191 NA
ATOM     19  O   UNL     1      -2.070   3.050  -1.381  1.00  0.00    -0.333 OA
BRANCH  16  20
ATOM     20  C   UNL     1      -0.904  -0.341  -1.403  1.00  0.00     0.084 C 
BRANCH  20  21
ATOM     21  C   UNL     1       0.633  -0.379  -1.354  1.00  0.00    -0.010 C 
ATOM     22  C   UNL     1       1.170  -0.035   0.038  1.00  0.00     0.008 C 
ATOM     23  C   UNL     1       1.130  -1.763  -1.777  1.00  0.00     0.008 C 
ENDBRANCH  20  21
ENDBRANCH  16  20
ENDBRANCH  14  15
ENDBRANCH   8  14
ENDBRANCH   6   7
ENDBRANCH   4   6
ENDBRANCH   3   4
ENDBRANCH   2   3
ENDBRANCH   1   2
BRANCH   1  24
ATOM     24  O   UNL     1       2.642   4.213   6.060  1.00  0.00    -0.374 OA
BRANCH  24  25
ATOM     25  C   UNL     1       2.349   4.324   4.669  1.00  0.00     0.202 C 
BRANCH  25  26
ATOM     26  C   UNL     1       2.303   3.009   3.883  1.00  0.00     0.261 C 
BRANCH  26  27
ATOM     27  O   UNL     1       1.216   2.164   4.301  1.00  0.00    -0.460 OA
BRANCH  27  28
ATOM     28  C   UNL     1       1.595   1.084   5.026  1.00  0.00     0.338 C 
ATOM     29  O   UNL     1       2.742   0.735   5.275  1.00  0.00    -0.246 OA
BRANCH  28  30
ATOM     30  C   UNL     1       0.425   0.436   5.649  1.00  0.00     0.060 A 
ATOM     31  C   UNL     1       0.527   0.106   7.006  1.00  0.00     0.016 A 
ATOM     32  C   UNL     1      -0.709   0.075   4.917  1.00  0.00     0.016 A 
ATOM     33  C   UNL     1      -0.468  -0.650   7.620  1.00  0.00     0.010 A 
ATOM     34  C   UNL     1      -1.708  -0.690   5.535  1.00  0.00     0.010 A 
ATOM     35  C   UNL     1      -1.568  -1.096   6.875  1.00  0.00    -0.014 A 
BRANCH  35  36
ATOM     36  C   UNL     1      -2.452  -2.142   7.452  1.00  0.00     0.031 A 
ATOM     37  C   UNL     1      -2.225  -3.578   7.053  1.00  0.00     0.074 A 
ATOM     38  C   UNL     1      -3.387  -1.836   8.370  1.00  0.00     0.049 A 
ATOM     39  N   UNL     1      -2.871  -4.654   7.420  1.00  0.00    -0.248 NA
ATOM     40  C   UNL     1      -1.114  -3.834   6.120  1.00  0.00     0.031 C 
ATOM     41  C   UNL     1      -3.664  -0.495   8.883  1.00  0.00     0.029 A 
ATOM     42  N   UNL     1      -4.275  -2.641   9.040  1.00  0.00    -0.354 N 
ATOM     43  C   UNL     1      -2.245  -5.712   6.769  1.00  0.00     0.074 A 
ATOM     44  C   UNL     1      -1.193  -5.146   5.954  1.00  0.00     0.031 C 
ATOM     45  C   UNL     1      -4.659  -0.570   9.786  1.00  0.00     0.029 A 
ATOM     46  C   UNL     1      -5.106  -1.958   9.896  1.00  0.00     0.049 A 
ATOM     47  H   UNL     1      -4.313  -3.618   8.919  1.00  0.00     0.167 HD
ATOM     48  C   UNL     1      -2.510  -7.038   6.856  1.00  0.00     0.037 A 
ATOM     49  C   UNL     1      -6.119  -2.401  10.666  1.00  0.00     0.037 A 
ATOM     50  C   UNL     1      -3.556  -7.602   7.666  1.00  0.00     0.049 A 
ATOM     51  C   UNL     1      -6.447  -3.874  10.681  1.00  0.00     0.074 A 
ATOM     52  C   UNL     1      -3.926  -8.930   7.794  1.00  0.00     0.029 A 
ATOM     53  N   UNL     1      -4.396  -6.872   8.493  1.00  0.00    -0.354 N 
ATOM     54  N   UNL     1      -5.856  -4.860  10.047  1.00  0.00    -0.248 NA
ATOM     55  C   UNL     1      -7.577  -4.296  11.523  1.00  0.00     0.031 C 
ATOM     56  C   UNL     1      -5.009  -9.000   8.677  1.00  0.00     0.029 A 
ATOM     57  C   UNL     1      -5.284  -7.721   9.132  1.00  0.00     0.049 A 
ATOM     58  H   UNL     1      -4.365  -5.895   8.609  1.00  0.00     0.167 HD
ATOM     59  C   UNL     1      -6.514  -6.019  10.448  1.00  0.00     0.074 A 
ATOM     60  C   UNL     1      -7.546  -5.614  11.379  1.00  0.00     0.031 C 
ATOM     61  C   UNL     1      -6.284  -7.304  10.082  1.00  0.00     0.037 A 
BRANCH  48  62
ATOM     62  C   UNL     1      -1.655  -7.972   6.045  1.00  0.00     0.058 A 
ATOM     63  C   UNL     1      -0.327  -8.248   6.405  1.00  0.00     0.135 A 
ATOM     64  C   UNL     1      -2.180  -8.630   4.923  1.00  0.00     0.135 A 
ATOM     65  F   UNL     1       0.231  -7.628   7.458  1.00  0.00    -0.206 F 
ATOM     66  C   UNL     1       0.457  -9.132   5.671  1.00  0.00     0.059 A 
ATOM     67  C   UNL     1      -1.423  -9.537   4.187  1.00  0.00     0.059 A 
ATOM     68  F   UNL     1      -3.444  -8.399   4.532  1.00  0.00    -0.206 F 
ATOM     69  C   UNL     1      -0.101  -9.773   4.564  1.00  0.00     0.060 A 
BRANCH  69  70
ATOM     70  S   UNL     1       0.923 -10.930   3.630  1.00  0.00     0.124 S 
ATOM     71  O   UNL     1       1.827 -10.021   2.933  1.00  0.00    -0.237 OA
ATOM     72  O   UNL     1       1.526 -11.737   4.687  1.00  0.00    -0.237 OA
ATOM     73  O   UNL     1      -0.039 -11.629   2.784  1.00  0.00    -0.744 OA
ENDBRANCH  69  70
ENDBRANCH  48  62
BRANCH  49  74
ATOM     74  C   UNL     1      -6.917  -1.450  11.487  1.00  0.00     0.058 A 
ATOM     75  C   UNL     1      -6.868  -1.483  12.889  1.00  0.00     0.135 A 
ATOM     76  C   UNL     1      -7.782  -0.523  10.886  1.00  0.00     0.135 A 
ATOM     77  F   UNL     1      -6.064  -2.357  13.512  1.00  0.00    -0.206 F 
ATOM     78  C   UNL     1      -7.675  -0.657  13.667  1.00  0.00     0.059 A 
ATOM     79  C   UNL     1      -8.579   0.331  11.641  1.00  0.00     0.059 A 
ATOM     80  F   UNL     1      -7.858  -0.443   9.548  1.00  0.00    -0.206 F 
ATOM     81  C   UNL     1      -8.533   0.243  13.032  1.00  0.00     0.060 A 
BRANCH  81  82
ATOM     82  S   UNL     1      -9.575   1.314  14.045  1.00  0.00     0.124 S 
ATOM     83  O   UNL     1     -10.608   0.384  14.486  1.00  0.00    -0.237 OA
ATOM     84  O   UNL     1      -8.644   1.770  15.072  1.00  0.00    -0.237 OA
ATOM     85  O   UNL     1     -10.011   2.342  13.104  1.00  0.00    -0.744 OA
ENDBRANCH  81  82
ENDBRANCH  49  74
BRANCH  61  86
ATOM     86  C   UNL     1      -7.112  -8.374  10.738  1.00  0.00     0.058 A 
ATOM     87  C   UNL     1      -8.462  -8.575  10.413  1.00  0.00     0.135 A 
ATOM     88  C   UNL     1      -6.527  -9.243  11.675  1.00  0.00     0.135 A 
ATOM     89  F   UNL     1      -9.069  -7.771   9.526  1.00  0.00    -0.206 F 
ATOM     90  C   UNL     1      -9.212  -9.581  11.013  1.00  0.00     0.059 A 
ATOM     91  C   UNL     1      -7.250 -10.273  12.268  1.00  0.00     0.059 A 
ATOM     92  F   UNL     1      -5.235  -9.103  12.012  1.00  0.00    -0.206 F 
ATOM     93  C   UNL     1      -8.597 -10.425  11.941  1.00  0.00     0.060 A 
BRANCH  93  94
ATOM     94  S   UNL     1      -9.572 -11.745  12.695  1.00  0.00     0.124 S 
ATOM     95  O   UNL     1     -10.378 -11.001  13.657  1.00  0.00    -0.237 OA
ATOM     96  O   UNL     1     -10.296 -12.293  11.552  1.00  0.00    -0.237 OA
ATOM     97  O   UNL     1      -8.562 -12.627  13.270  1.00  0.00    -0.744 OA
ENDBRANCH  93  94
ENDBRANCH  61  86
ENDBRANCH  35  36
ENDBRANCH  28  30
ENDBRANCH  27  28
ENDBRANCH  26  27
ENDBRANCH  25  26
ENDBRANCH  24  25
ENDBRANCH   1  24
TORSDOF 22
