REMARK SMILES C/C(C(=O)OCCOCCOC(=O)c1ccc(-c2c3nc(c(-c4c(F)cc(S(=O)(=O)[O-])cc4F)c4ccc([nH]4)c(-c4c(F)cc(S(=O)(=O)[O-])cc4F)c4nc(c(-c5c(F)cc(S(=O)(=O)[O-])cc5F)c5ccc2[nH]5)C=C4)C=C3)cc1)=C(\C)c1ccc(C)c(F)c1
REMARK SMILES IDX 9 1 8 2 7 3 6 4 5 5 3 6 4 7 2 8 1 9 80 10 81 11 82 12 83 13
REMARK SMILES IDX 89 14 84 15 87 16 85 17 88 18 86 19 10 20 11 21 12 22 13 23
REMARK SMILES IDX 14 24 15 25 79 26 16 27 78 28 17 29 18 30 19 31 72 32 20 33
REMARK SMILES IDX 77 34 71 35 73 36 21 37 76 38 70 39 69 40 22 42 56 43 35 44
REMARK SMILES IDX 55 45 36 46 39 47 54 48 74 49 37 50 38 51 53 53 75 54 40 55
REMARK SMILES IDX 23 56 24 57 33 58 25 59 26 60 32 61 34 62 27 63 28 64 29 65
REMARK SMILES IDX 30 66 31 67 57 68 58 69 67 70 59 71 60 72 66 73 68 74 61 75
REMARK SMILES IDX 62 76 63 77 64 78 65 79 41 80 42 81 51 82 43 83 44 84 50 85
REMARK SMILES IDX 52 86 45 87 46 88 47 89 48 90 49 91
REMARK H PARENT 73 41 39 52
REMARK Flexibility Score: inf
ROOT
ATOM      1  C   UNL     1      -2.745  -1.500  -2.482  1.00  0.00     0.202 C 
ENDROOT
BRANCH   1   2
ATOM      2  O   UNL     1      -2.970  -2.903  -2.413  1.00  0.00    -0.374 OA
BRANCH   2   3
ATOM      3  C   UNL     1      -2.215  -3.649  -1.454  1.00  0.00     0.202 C 
BRANCH   3   4
ATOM      4  C   UNL     1      -0.693  -3.648  -1.611  1.00  0.00     0.261 C 
BRANCH   4   5
ATOM      5  O   UNL     1      -0.158  -2.365  -1.235  1.00  0.00    -0.460 OA
BRANCH   5   6
ATOM      6  C   UNL     1       0.775  -1.843  -2.069  1.00  0.00     0.334 C 
ATOM      7  O   UNL     1       1.270  -2.401  -3.035  1.00  0.00    -0.247 OA
BRANCH   6   8
ATOM      8  C   UNL     1       1.118  -0.453  -1.638  1.00  0.00     0.038 C 
ATOM      9  C   UNL     1       1.399  -0.280  -0.171  1.00  0.00     0.052 C 
ATOM     10  C   UNL     1       1.184   0.559  -2.540  1.00  0.00    -0.034 C 
ATOM     11  C   UNL     1       1.706   1.938  -2.233  1.00  0.00     0.045 C 
BRANCH  10  12
ATOM     12  C   UNL     1       0.691   0.424  -3.928  1.00  0.00    -0.019 A 
ATOM     13  C   UNL     1       1.536   0.093  -4.991  1.00  0.00     0.009 A 
ATOM     14  C   UNL     1      -0.671   0.614  -4.184  1.00  0.00     0.048 A 
ATOM     15  C   UNL     1       1.012  -0.121  -6.273  1.00  0.00     0.007 A 
ATOM     16  C   UNL     1      -1.188   0.373  -5.452  1.00  0.00     0.126 A 
ATOM     17  C   UNL     1      -0.366  -0.029  -6.504  1.00  0.00    -0.015 A 
ATOM     18  F   UNL     1      -2.508   0.507  -5.644  1.00  0.00    -0.207 F 
ATOM     19  C   UNL     1      -0.947  -0.324  -7.853  1.00  0.00     0.047 C 
ENDBRANCH  10  12
ENDBRANCH   6   8
ENDBRANCH   5   6
ENDBRANCH   4   5
ENDBRANCH   3   4
ENDBRANCH   2   3
ENDBRANCH   1   2
BRANCH   1  20
ATOM     20  C   UNL     1      -3.379  -0.599  -1.411  1.00  0.00     0.261 C 
BRANCH  20  21
ATOM     21  O   UNL     1      -3.469  -1.201  -0.120  1.00  0.00    -0.460 OA
BRANCH  21  22
ATOM     22  C   UNL     1      -4.627  -1.877   0.066  1.00  0.00     0.338 C 
ATOM     23  O   UNL     1      -5.595  -1.913  -0.682  1.00  0.00    -0.246 OA
BRANCH  22  24
ATOM     24  C   UNL     1      -4.506  -2.727   1.258  1.00  0.00     0.060 A 
ATOM     25  C   UNL     1      -4.756  -4.093   1.095  1.00  0.00     0.016 A 
ATOM     26  C   UNL     1      -4.205  -2.193   2.513  1.00  0.00     0.016 A 
ATOM     27  C   UNL     1      -4.776  -4.925   2.206  1.00  0.00     0.010 A 
ATOM     28  C   UNL     1      -4.229  -3.031   3.630  1.00  0.00     0.010 A 
ATOM     29  C   UNL     1      -4.564  -4.389   3.483  1.00  0.00    -0.014 A 
BRANCH  29  30
ATOM     30  C   UNL     1      -4.887  -5.227   4.660  1.00  0.00     0.031 A 
ATOM     31  C   UNL     1      -6.210  -5.025   5.346  1.00  0.00     0.074 A 
ATOM     32  C   UNL     1      -4.053  -6.209   5.046  1.00  0.00     0.049 A 
ATOM     33  N   UNL     1      -6.737  -5.687   6.343  1.00  0.00    -0.248 NA
ATOM     34  C   UNL     1      -7.054  -3.929   4.841  1.00  0.00     0.031 C 
ATOM     35  C   UNL     1      -2.761  -6.509   4.429  1.00  0.00     0.029 A 
ATOM     36  N   UNL     1      -4.178  -7.143   6.040  1.00  0.00    -0.354 N 
ATOM     37  C   UNL     1      -7.970  -5.091   6.582  1.00  0.00     0.074 A 
ATOM     38  C   UNL     1      -8.095  -3.986   5.657  1.00  0.00     0.031 C 
ATOM     39  C   UNL     1      -2.214  -7.564   5.056  1.00  0.00     0.029 A 
ATOM     40  C   UNL     1      -3.106  -7.997   6.130  1.00  0.00     0.049 A 
ATOM     41  H   UNL     1      -4.961  -7.197   6.634  1.00  0.00     0.167 HD
ATOM     42  C   UNL     1      -8.919  -5.445   7.480  1.00  0.00     0.037 A 
ATOM     43  C   UNL     1      -2.873  -9.010   6.987  1.00  0.00     0.037 A 
ATOM     44  C   UNL     1      -8.783  -6.549   8.395  1.00  0.00     0.049 A 
ATOM     45  C   UNL     1      -3.927  -9.359   8.006  1.00  0.00     0.074 A 
ATOM     46  C   UNL     1      -9.684  -7.000   9.342  1.00  0.00     0.029 A 
ATOM     47  N   UNL     1      -7.669  -7.374   8.477  1.00  0.00    -0.354 N 
ATOM     48  N   UNL     1      -5.098  -8.800   8.210  1.00  0.00    -0.248 NA
ATOM     49  C   UNL     1      -3.637 -10.487   8.899  1.00  0.00     0.031 C 
ATOM     50  C   UNL     1      -9.094  -8.064  10.034  1.00  0.00     0.029 A 
ATOM     51  C   UNL     1      -7.853  -8.319   9.473  1.00  0.00     0.049 A 
ATOM     52  H   UNL     1      -6.867  -7.299   7.911  1.00  0.00     0.167 HD
ATOM     53  C   UNL     1      -5.698  -9.531   9.230  1.00  0.00     0.074 A 
ATOM     54  C   UNL     1      -4.764 -10.580   9.590  1.00  0.00     0.031 C 
ATOM     55  C   UNL     1      -6.911  -9.357   9.815  1.00  0.00     0.037 A 
BRANCH  42  56
ATOM     56  C   UNL     1     -10.173  -4.613   7.534  1.00  0.00     0.058 A 
ATOM     57  C   UNL     1     -11.123  -4.630   6.499  1.00  0.00     0.135 A 
ATOM     58  C   UNL     1     -10.438  -3.802   8.649  1.00  0.00     0.135 A 
ATOM     59  F   UNL     1     -10.911  -5.370   5.399  1.00  0.00    -0.206 F 
ATOM     60  C   UNL     1     -12.276  -3.854   6.556  1.00  0.00     0.059 A 
ATOM     61  C   UNL     1     -11.600  -3.040   8.741  1.00  0.00     0.059 A 
ATOM     62  F   UNL     1      -9.563  -3.741   9.665  1.00  0.00    -0.206 F 
ATOM     63  C   UNL     1     -12.507  -3.063   7.683  1.00  0.00     0.060 A 
BRANCH  63  64
ATOM     64  S   UNL     1     -14.012  -2.068   7.746  1.00  0.00     0.124 S 
ATOM     65  O   UNL     1     -13.719  -1.032   6.760  1.00  0.00    -0.237 OA
ATOM     66  O   UNL     1     -15.039  -3.032   7.367  1.00  0.00    -0.237 OA
ATOM     67  O   UNL     1     -14.063  -1.615   9.133  1.00  0.00    -0.744 OA
ENDBRANCH  63  64
ENDBRANCH  42  56
BRANCH  43  68
ATOM     68  C   UNL     1      -1.596  -9.770   6.912  1.00  0.00     0.058 A 
ATOM     69  C   UNL     1      -1.567 -11.112   6.506  1.00  0.00     0.135 A 
ATOM     70  C   UNL     1      -0.376  -9.163   7.248  1.00  0.00     0.135 A 
ATOM     71  F   UNL     1      -2.707 -11.740   6.181  1.00  0.00    -0.206 F 
ATOM     72  C   UNL     1      -0.377 -11.832   6.454  1.00  0.00     0.059 A 
ATOM     73  C   UNL     1       0.830  -9.853   7.176  1.00  0.00     0.059 A 
ATOM     74  F   UNL     1      -0.346  -7.877   7.630  1.00  0.00    -0.206 F 
ATOM     75  C   UNL     1       0.818 -11.192   6.788  1.00  0.00     0.060 A 
BRANCH  75  76
ATOM     76  S   UNL     1       2.362 -12.121   6.675  1.00  0.00     0.124 S 
ATOM     77  O   UNL     1       2.246 -13.024   7.814  1.00  0.00    -0.237 OA
ATOM     78  O   UNL     1       2.251 -12.738   5.356  1.00  0.00    -0.237 OA
ATOM     79  O   UNL     1       3.385 -11.087   6.791  1.00  0.00    -0.744 OA
ENDBRANCH  75  76
ENDBRANCH  43  68
BRANCH  55  80
ATOM     80  C   UNL     1      -7.316 -10.356  10.866  1.00  0.00     0.058 A 
ATOM     81  C   UNL     1      -6.691 -10.413  12.122  1.00  0.00     0.135 A 
ATOM     82  C   UNL     1      -8.357 -11.265  10.613  1.00  0.00     0.135 A 
ATOM     83  F   UNL     1      -5.690  -9.568  12.418  1.00  0.00    -0.206 F 
ATOM     84  C   UNL     1      -7.046 -11.369  13.068  1.00  0.00     0.059 A 
ATOM     85  C   UNL     1      -8.753 -12.206  11.557  1.00  0.00     0.059 A 
ATOM     86  F   UNL     1      -9.004 -11.243   9.437  1.00  0.00    -0.206 F 
ATOM     87  C   UNL     1      -8.074 -12.266  12.773  1.00  0.00     0.060 A 
BRANCH  87  88
ATOM     88  S   UNL     1      -8.514 -13.514  14.000  1.00  0.00     0.124 S 
ATOM     89  O   UNL     1      -7.395 -14.443  13.887  1.00  0.00    -0.237 OA
ATOM     90  O   UNL     1      -8.570 -12.735  15.233  1.00  0.00    -0.237 OA
ATOM     91  O   UNL     1      -9.799 -14.019  13.526  1.00  0.00    -0.744 OA
ENDBRANCH  87  88
ENDBRANCH  55  80
ENDBRANCH  29  30
ENDBRANCH  22  24
ENDBRANCH  21  22
ENDBRANCH  20  21
ENDBRANCH   1  20
TORSDOF 18
