REMARK SMILES O=C(OCCOCCOC(=O)[C@@H]1CS[C@@H](c2ncc(-c3cccc(Br)c3)s2)[NH2+]1)c1ccc(-c2c3nc(c(-c4c(F)cc(S(=O)(=O)[O-])cc4F)c4ccc([nH]4)c(-c4c(F)cc(S(=O)(=O)[O-])cc4F)c4nc(c(-c5c(F)cc(S(=O)(=O)[O-])cc5F)c5ccc2[nH]5)C=C4)C=C3)cc1
REMARK SMILES IDX 5 1 4 2 3 3 2 4 1 5 29 6 30 7 94 8 31 9 93 10 32 11 33 12
REMARK SMILES IDX 34 13 87 14 35 15 92 16 86 17 88 18 36 19 91 20 85 21 84 22
REMARK SMILES IDX 37 24 71 25 50 26 70 27 51 28 54 29 69 30 89 31 52 32 53 33
REMARK SMILES IDX 68 35 90 36 55 37 38 38 39 39 48 40 40 41 41 42 47 43 49 44
REMARK SMILES IDX 42 45 43 46 44 47 45 48 46 49 72 50 73 51 82 52 74 53 75 54
REMARK SMILES IDX 81 55 83 56 76 57 77 58 78 59 79 60 80 61 56 62 57 63 66 64
REMARK SMILES IDX 58 65 59 66 65 67 67 68 60 69 61 70 62 71 63 72 64 73 6 74
REMARK SMILES IDX 7 75 8 76 9 77 10 78 11 79 12 80 13 81 28 82 14 83 15 84
REMARK SMILES IDX 16 87 17 88 27 89 18 90 19 91 20 92 21 93 26 94 22 95 24 96
REMARK SMILES IDX 23 97 25 98
REMARK H PARENT 88 23 54 34 28 85 28 86
REMARK Flexibility Score: inf
ROOT
ATOM      1  C   UNL     1       7.630  -0.295   4.048  1.00  0.00     0.202 C 
ENDROOT
BRANCH   1   2
ATOM      2  C   UNL     1       9.154  -0.240   3.951  1.00  0.00     0.261 C 
BRANCH   2   3
ATOM      3  O   UNL     1       9.678  -1.571   3.833  1.00  0.00    -0.460 OA
BRANCH   3   4
ATOM      4  C   UNL     1      10.153  -2.346   4.836  1.00  0.00     0.338 C 
ATOM      5  O   UNL     1      10.466  -3.509   4.588  1.00  0.00    -0.246 OA
BRANCH   4   6
ATOM      6  C   UNL     1      10.371  -1.836   6.221  1.00  0.00     0.060 A 
ATOM      7  C   UNL     1       9.527  -0.938   6.878  1.00  0.00     0.016 A 
ATOM      8  C   UNL     1      11.441  -2.387   6.942  1.00  0.00     0.016 A 
ATOM      9  C   UNL     1       9.732  -0.573   8.193  1.00  0.00     0.010 A 
ATOM     10  C   UNL     1      11.634  -2.058   8.286  1.00  0.00     0.010 A 
ATOM     11  C   UNL     1      10.763  -1.160   8.911  1.00  0.00    -0.014 A 
BRANCH  11  12
ATOM     12  C   UNL     1      10.884  -0.798  10.327  1.00  0.00     0.031 A 
ATOM     13  C   UNL     1      11.939   0.176  10.726  1.00  0.00     0.074 A 
ATOM     14  C   UNL     1       9.965  -1.271  11.189  1.00  0.00     0.049 A 
ATOM     15  N   UNL     1      12.291   0.556  11.919  1.00  0.00    -0.248 NA
ATOM     16  C   UNL     1      12.692   0.821   9.634  1.00  0.00     0.031 C 
ATOM     17  C   UNL     1       8.825  -2.122  10.823  1.00  0.00     0.029 A 
ATOM     18  N   UNL     1       9.825  -1.097  12.537  1.00  0.00    -0.354 N 
ATOM     19  C   UNL     1      13.339   1.445  11.731  1.00  0.00     0.074 A 
ATOM     20  C   UNL     1      13.548   1.577  10.308  1.00  0.00     0.031 C 
ATOM     21  C   UNL     1       8.106  -2.394  11.923  1.00  0.00     0.029 A 
ATOM     22  C   UNL     1       8.780  -1.811  13.075  1.00  0.00     0.049 A 
ATOM     23  H   UNL     1      10.415  -0.518  13.072  1.00  0.00     0.167 HD
ATOM     24  C   UNL     1      14.068   2.065  12.684  1.00  0.00     0.037 A 
ATOM     25  C   UNL     1       8.456  -2.020  14.364  1.00  0.00     0.037 A 
ATOM     26  C   UNL     1      13.806   1.905  14.089  1.00  0.00     0.049 A 
ATOM     27  C   UNL     1       9.341  -1.387  15.404  1.00  0.00     0.074 A 
ATOM     28  C   UNL     1      14.482   2.451  15.161  1.00  0.00     0.029 A 
ATOM     29  N   UNL     1      12.778   1.127  14.609  1.00  0.00    -0.354 N 
ATOM     30  N   UNL     1      10.366  -0.582  15.230  1.00  0.00    -0.248 NA
ATOM     31  C   UNL     1       9.060  -1.712  16.806  1.00  0.00     0.031 C 
ATOM     32  C   UNL     1      13.892   1.964  16.332  1.00  0.00     0.029 A 
ATOM     33  C   UNL     1      12.821   1.149  15.990  1.00  0.00     0.049 A 
ATOM     34  H   UNL     1      12.116   0.634  14.073  1.00  0.00     0.167 HD
ATOM     35  C   UNL     1      10.855  -0.309  16.499  1.00  0.00     0.074 A 
ATOM     36  C   UNL     1       9.993  -1.008  17.433  1.00  0.00     0.031 C 
ATOM     37  C   UNL     1      11.928   0.434  16.868  1.00  0.00     0.037 A 
BRANCH  24  38
ATOM     38  C   UNL     1      15.246   2.879  12.244  1.00  0.00     0.058 A 
ATOM     39  C   UNL     1      15.108   4.153  11.675  1.00  0.00     0.135 A 
ATOM     40  C   UNL     1      16.544   2.370  12.411  1.00  0.00     0.135 A 
ATOM     41  F   UNL     1      13.889   4.670  11.458  1.00  0.00    -0.206 F 
ATOM     42  C   UNL     1      16.220   4.896  11.286  1.00  0.00     0.059 A 
ATOM     43  C   UNL     1      17.669   3.102  12.046  1.00  0.00     0.059 A 
ATOM     44  F   UNL     1      16.728   1.145  12.928  1.00  0.00    -0.206 F 
ATOM     45  C   UNL     1      17.496   4.364  11.480  1.00  0.00     0.060 A 
BRANCH  45  46
ATOM     46  S   UNL     1      18.930   5.350  10.997  1.00  0.00     0.124 S 
ATOM     47  O   UNL     1      18.859   5.276   9.541  1.00  0.00    -0.237 OA
ATOM     48  O   UNL     1      18.622   6.652  11.580  1.00  0.00    -0.237 OA
ATOM     49  O   UNL     1      20.051   4.643  11.607  1.00  0.00    -0.744 OA
ENDBRANCH  45  46
ENDBRANCH  24  38
BRANCH  25  50
ATOM     50  C   UNL     1       7.345  -2.940  14.734  1.00  0.00     0.058 A 
ATOM     51  C   UNL     1       6.215  -2.487  15.430  1.00  0.00     0.135 A 
ATOM     52  C   UNL     1       7.408  -4.310  14.423  1.00  0.00     0.135 A 
ATOM     53  F   UNL     1       6.105  -1.191  15.758  1.00  0.00    -0.206 F 
ATOM     54  C   UNL     1       5.205  -3.359  15.830  1.00  0.00     0.059 A 
ATOM     55  C   UNL     1       6.397  -5.195  14.784  1.00  0.00     0.059 A 
ATOM     56  F   UNL     1       8.460  -4.801  13.750  1.00  0.00    -0.206 F 
ATOM     57  C   UNL     1       5.309  -4.714  15.508  1.00  0.00     0.060 A 
BRANCH  57  58
ATOM     58  S   UNL     1       4.005  -5.844  16.038  1.00  0.00     0.124 S 
ATOM     59  O   UNL     1       4.301  -5.985  17.459  1.00  0.00    -0.237 OA
ATOM     60  O   UNL     1       2.794  -5.098  15.710  1.00  0.00    -0.237 OA
ATOM     61  O   UNL     1       4.239  -7.033  15.223  1.00  0.00    -0.744 OA
ENDBRANCH  57  58
ENDBRANCH  25  50
BRANCH  37  62
ATOM     62  C   UNL     1      12.214   0.521  18.335  1.00  0.00     0.058 A 
ATOM     63  C   UNL     1      12.813  -0.546  19.020  1.00  0.00     0.135 A 
ATOM     64  C   UNL     1      11.964   1.709  19.038  1.00  0.00     0.135 A 
ATOM     65  F   UNL     1      13.058  -1.705  18.386  1.00  0.00    -0.206 F 
ATOM     66  C   UNL     1      13.155  -0.439  20.361  1.00  0.00     0.059 A 
ATOM     67  C   UNL     1      12.322   1.847  20.373  1.00  0.00     0.059 A 
ATOM     68  F   UNL     1      11.400   2.757  18.417  1.00  0.00    -0.206 F 
ATOM     69  C   UNL     1      12.912   0.765  21.026  1.00  0.00     0.060 A 
BRANCH  69  70
ATOM     70  S   UNL     1      13.427   0.916  22.748  1.00  0.00     0.124 S 
ATOM     71  O   UNL     1      12.403   0.132  23.430  1.00  0.00    -0.237 OA
ATOM     72  O   UNL     1      14.765   0.333  22.727  1.00  0.00    -0.237 OA
ATOM     73  O   UNL     1      13.382   2.355  22.989  1.00  0.00    -0.744 OA
ENDBRANCH  69  70
ENDBRANCH  37  62
ENDBRANCH  11  12
ENDBRANCH   4   6
ENDBRANCH   3   4
ENDBRANCH   2   3
ENDBRANCH   1   2
BRANCH   1  74
ATOM     74  O   UNL     1       7.139  -1.072   5.136  1.00  0.00    -0.374 OA
BRANCH  74  75
ATOM     75  C   UNL     1       6.753  -2.412   4.835  1.00  0.00     0.202 C 
BRANCH  75  76
ATOM     76  C   UNL     1       5.239  -2.546   4.981  1.00  0.00     0.261 C 
BRANCH  76  77
ATOM     77  O   UNL     1       4.588  -1.689   4.022  1.00  0.00    -0.459 OA
BRANCH  77  78
ATOM     78  C   UNL     1       4.252  -0.448   4.497  1.00  0.00     0.365 C 
ATOM     79  O   UNL     1       4.430  -0.059   5.635  1.00  0.00    -0.245 OA
BRANCH  78  80
ATOM     80  C   UNL     1       3.647   0.390   3.356  1.00  0.00     0.304 C 
ATOM     81  C   UNL     1       4.710   1.145   2.561  1.00  0.00     0.153 C 
ATOM     82  N   UNL     1       2.659   1.360   3.881  1.00  0.00    -0.317 N 
ATOM     83  S   UNL     1       4.612   2.881   3.076  1.00  0.00    -0.085 SA
ATOM     84  C   UNL     1       3.427   2.512   4.395  1.00  0.00     0.303 C 
ATOM     85  H   UNL     1       2.115   0.936   4.633  1.00  0.00     0.348 HD
ATOM     86  H   UNL     1       2.006   1.649   3.152  1.00  0.00     0.348 HD
BRANCH  84  87
ATOM     87  C   UNL     1       2.492   3.617   4.821  1.00  0.00     0.162 A 
ATOM     88  N   UNL     1       1.967   3.678   6.031  1.00  0.00    -0.242 NA
ATOM     89  S   UNL     1       1.893   4.795   3.720  1.00  0.00    -0.112 S 
ATOM     90  C   UNL     1       0.986   4.640   6.076  1.00  0.00     0.132 A 
ATOM     91  C   UNL     1       0.780   5.341   4.905  1.00  0.00     0.055 A 
BRANCH  91  92
ATOM     92  C   UNL     1      -0.188   6.388   4.601  1.00  0.00    -0.006 A 
ATOM     93  C   UNL     1      -0.399   7.438   5.506  1.00  0.00     0.010 A 
ATOM     94  C   UNL     1      -0.938   6.349   3.417  1.00  0.00     0.025 A 
ATOM     95  C   UNL     1      -1.332   8.437   5.226  1.00  0.00     0.002 A 
ATOM     96  C   UNL     1      -1.868   7.349   3.143  1.00  0.00     0.018 A 
ATOM     97  C   UNL     1      -2.067   8.394   4.042  1.00  0.00     0.016 A 
ATOM     98  Br  UNL     1      -2.866   7.280   1.539  1.00  0.00    -0.051 Br
ENDBRANCH  91  92
ENDBRANCH  84  87
ENDBRANCH  78  80
ENDBRANCH  77  78
ENDBRANCH  76  77
ENDBRANCH  75  76
ENDBRANCH  74  75
ENDBRANCH   1  74
TORSDOF 19
