REMARK SMILES Cc1c(C(=O)Nc2ccc(C(=O)Nc3ccccc3C(=O)OCCOCCOC(=O)c3ccc(-c4c5nc(c(-c6c(F)cc(S(=O)(=O)[O-])cc6F)c6ccc([nH]6)c(-c6c(F)cc(S(=O)(=O)[O-])cc6F)c6nc(c(-c7c(F)cc(S(=O)(=O)[O-])cc7F)c7ccc4[nH]7)C=C6)C=C5)cc3)cc2)cccc1[N+](=O)[O-]
REMARK SMILES IDX 24 1 23 2 22 3 20 4 21 5 19 6 14 7 15 8 16 9 18 10 17 11
REMARK SMILES IDX 13 12 11 13 12 14 10 16 7 17 8 18 98 19 9 20 97 21 6 22 4 23
REMARK SMILES IDX 5 24 3 26 1 27 2 28 102 29 99 30 101 31 100 32 103 33 104 34
REMARK SMILES IDX 105 35 25 36 26 37 27 38 28 39 29 40 30 41 31 42 32 43 96 44
REMARK SMILES IDX 33 45 95 46 34 47 35 48 36 49 89 50 37 51 94 52 88 53 90 54
REMARK SMILES IDX 38 55 93 56 87 57 86 58 39 60 73 61 52 62 72 63 53 64 56 65
REMARK SMILES IDX 71 66 91 67 54 68 55 69 70 71 92 72 57 73 40 74 41 75 50 76
REMARK SMILES IDX 42 77 43 78 49 79 51 80 44 81 45 82 46 83 47 84 48 85 74 86
REMARK SMILES IDX 75 87 84 88 76 89 77 90 83 91 85 92 78 93 79 94 80 95 81 96
REMARK SMILES IDX 82 97 58 98 59 99 68 100 60 101 61 102 67 103 69 104 62 105
REMARK SMILES IDX 63 106 64 107 65 108 66 109
REMARK H PARENT 13 15 6 25 90 59 56 70
REMARK Flexibility Score: inf
ROOT
ATOM      1  C   UNL     1       4.312  -1.518   1.779  1.00  0.00     0.202 C 
ENDROOT
BRANCH   1   2
ATOM      2  C   UNL     1       3.547  -0.794   2.881  1.00  0.00     0.261 C 
BRANCH   2   3
ATOM      3  O   UNL     1       3.303   0.629   2.815  1.00  0.00    -0.460 OA
BRANCH   3   4
ATOM      4  C   UNL     1       4.202   1.620   2.566  1.00  0.00     0.340 C 
ATOM      5  O   UNL     1       5.332   1.557   2.190  1.00  0.00    -0.246 OA
BRANCH   4   6
ATOM      6  C   UNL     1       3.405   2.879   2.685  1.00  0.00     0.083 A 
ATOM      7  C   UNL     1       3.439   3.879   1.697  1.00  0.00     0.056 A 
ATOM      8  C   UNL     1       2.553   4.964   1.790  1.00  0.00     0.027 A 
ATOM      9  C   UNL     1       1.593   5.019   2.800  1.00  0.00     0.002 A 
ATOM     10  C   UNL     1       2.491   2.995   3.752  1.00  0.00     0.018 A 
ATOM     11  C   UNL     1       1.570   4.042   3.790  1.00  0.00     0.001 A 
BRANCH   7  12
ATOM     12  N   UNL     1       4.230   3.875   0.539  1.00  0.00    -0.321 N 
ATOM     13  C   UNL     1       4.250   3.039  -0.557  1.00  0.00     0.255 C 
ATOM     14  O   UNL     1       4.998   3.348  -1.490  1.00  0.00    -0.269 OA
ATOM     15  H   UNL     1       4.894   4.601   0.503  1.00  0.00     0.170 HD
BRANCH  13  16
ATOM     16  C   UNL     1       3.397   1.822  -0.724  1.00  0.00     0.040 A 
ATOM     17  C   UNL     1       2.120  -0.683  -0.981  1.00  0.00     0.041 A 
ATOM     18  C   UNL     1       1.775   0.192   0.043  1.00  0.00     0.027 A 
ATOM     19  C   UNL     1       3.103  -0.305  -1.892  1.00  0.00     0.027 A 
ATOM     20  C   UNL     1       2.340   1.465   0.106  1.00  0.00     0.016 A 
ATOM     21  C   UNL     1       3.730   0.942  -1.769  1.00  0.00     0.016 A 
BRANCH  17  22
ATOM     22  N   UNL     1       1.431  -1.886  -1.194  1.00  0.00    -0.322 N 
ATOM     23  C   UNL     1       0.068  -2.116  -1.088  1.00  0.00     0.256 C 
ATOM     24  O   UNL     1      -0.402  -3.239  -1.251  1.00  0.00    -0.269 OA
ATOM     25  H   UNL     1       1.981  -2.661  -1.451  1.00  0.00     0.170 HD
BRANCH  23  26
ATOM     26  C   UNL     1      -0.867  -0.977  -0.826  1.00  0.00     0.049 A 
ATOM     27  C   UNL     1      -0.043   0.418  -2.786  1.00  0.00     0.053 C 
ATOM     28  C   UNL     1      -0.758   0.284  -1.465  1.00  0.00     0.039 A 
ATOM     29  C   UNL     1      -1.342   1.384  -0.799  1.00  0.00     0.273 A 
ATOM     30  C   UNL     1      -1.789  -1.177   0.213  1.00  0.00     0.014 A 
ATOM     31  C   UNL     1      -2.249   1.180   0.258  1.00  0.00     0.086 A 
ATOM     32  C   UNL     1      -2.522  -0.107   0.714  1.00  0.00     0.008 A 
BRANCH  29  33
ATOM     33  N   UNL     1      -0.911   2.779  -1.048  1.00  0.00     0.063 N 
ATOM     34  O   UNL     1      -1.165   3.616  -0.167  1.00  0.00    -0.258 OA
ATOM     35  O   UNL     1      -0.309   3.048  -2.094  1.00  0.00    -0.258 OA
ENDBRANCH  29  33
ENDBRANCH  23  26
ENDBRANCH  17  22
ENDBRANCH  13  16
ENDBRANCH   7  12
ENDBRANCH   4   6
ENDBRANCH   3   4
ENDBRANCH   2   3
ENDBRANCH   1   2
BRANCH   1  36
ATOM     36  O   UNL     1       5.638  -1.055   1.637  1.00  0.00    -0.374 OA
BRANCH  36  37
ATOM     37  C   UNL     1       5.968  -0.690   0.311  1.00  0.00     0.202 C 
BRANCH  37  38
ATOM     38  C   UNL     1       6.029  -1.812  -0.743  1.00  0.00     0.261 C 
BRANCH  38  39
ATOM     39  O   UNL     1       6.006  -3.227  -0.394  1.00  0.00    -0.460 OA
BRANCH  39  40
ATOM     40  C   UNL     1       6.878  -3.987   0.322  1.00  0.00     0.338 C 
ATOM     41  O   UNL     1       6.962  -5.200   0.186  1.00  0.00    -0.246 OA
BRANCH  40  42
ATOM     42  C   UNL     1       7.710  -3.284   1.297  1.00  0.00     0.060 A 
ATOM     43  C   UNL     1       7.461  -3.417   2.669  1.00  0.00     0.016 A 
ATOM     44  C   UNL     1       8.536  -2.298   0.806  1.00  0.00     0.016 A 
ATOM     45  C   UNL     1       7.866  -2.396   3.535  1.00  0.00     0.010 A 
ATOM     46  C   UNL     1       8.766  -1.230   1.641  1.00  0.00     0.010 A 
ATOM     47  C   UNL     1       8.408  -1.226   2.996  1.00  0.00    -0.014 A 
BRANCH  47  48
ATOM     48  C   UNL     1       8.442   0.082   3.681  1.00  0.00     0.031 A 
ATOM     49  C   UNL     1       9.664   0.923   3.629  1.00  0.00     0.074 A 
ATOM     50  C   UNL     1       7.384   0.570   4.369  1.00  0.00     0.049 A 
ATOM     51  N   UNL     1      10.160   1.507   4.678  1.00  0.00    -0.248 NA
ATOM     52  C   UNL     1      10.532   1.072   2.451  1.00  0.00     0.031 C 
ATOM     53  C   UNL     1       7.165   1.940   4.822  1.00  0.00     0.029 A 
ATOM     54  N   UNL     1       6.244  -0.106   4.793  1.00  0.00    -0.354 N 
ATOM     55  C   UNL     1      11.140   2.337   4.184  1.00  0.00     0.074 A 
ATOM     56  C   UNL     1      11.571   1.718   2.976  1.00  0.00     0.031 C 
ATOM     57  C   UNL     1       6.047   1.990   5.566  1.00  0.00     0.029 A 
ATOM     58  C   UNL     1       5.567   0.631   5.774  1.00  0.00     0.049 A 
ATOM     59  H   UNL     1       5.953  -0.982   4.451  1.00  0.00     0.167 HD
ATOM     60  C   UNL     1      11.242   3.629   4.605  1.00  0.00     0.037 A 
ATOM     61  C   UNL     1       5.290   0.094   7.003  1.00  0.00     0.037 A 
ATOM     62  C   UNL     1      10.371   3.877   5.758  1.00  0.00     0.049 A 
ATOM     63  C   UNL     1       6.198   0.643   8.086  1.00  0.00     0.074 A 
ATOM     64  C   UNL     1       9.297   4.721   5.972  1.00  0.00     0.029 A 
ATOM     65  N   UNL     1      10.390   2.997   6.840  1.00  0.00    -0.354 N 
ATOM     66  N   UNL     1       7.103   1.556   7.859  1.00  0.00    -0.248 NA
ATOM     67  C   UNL     1       6.210   0.214   9.485  1.00  0.00     0.031 C 
ATOM     68  C   UNL     1       8.615   4.275   7.141  1.00  0.00     0.029 A 
ATOM     69  C   UNL     1       9.299   3.192   7.667  1.00  0.00     0.049 A 
ATOM     70  H   UNL     1      11.090   2.323   6.996  1.00  0.00     0.167 HD
ATOM     71  C   UNL     1       7.929   1.677   8.936  1.00  0.00     0.074 A 
ATOM     72  C   UNL     1       7.275   0.888   9.963  1.00  0.00     0.031 C 
ATOM     73  C   UNL     1       9.115   2.349   8.849  1.00  0.00     0.037 A 
BRANCH  60  74
ATOM     74  C   UNL     1      11.971   4.726   3.823  1.00  0.00     0.058 A 
ATOM     75  C   UNL     1      12.220   5.972   4.435  1.00  0.00     0.135 A 
ATOM     76  C   UNL     1      12.415   4.658   2.475  1.00  0.00     0.135 A 
ATOM     77  F   UNL     1      11.794   6.223   5.681  1.00  0.00    -0.206 F 
ATOM     78  C   UNL     1      12.900   7.019   3.796  1.00  0.00     0.059 A 
ATOM     79  C   UNL     1      13.166   5.654   1.848  1.00  0.00     0.059 A 
ATOM     80  F   UNL     1      12.080   3.667   1.643  1.00  0.00    -0.206 F 
ATOM     81  C   UNL     1      13.400   6.839   2.512  1.00  0.00     0.060 A 
BRANCH  81  82
ATOM     82  S   UNL     1      14.333   8.153   1.709  1.00  0.00     0.124 S 
ATOM     83  O   UNL     1      13.301   9.158   1.477  1.00  0.00    -0.237 OA
ATOM     84  O   UNL     1      15.333   8.485   2.717  1.00  0.00    -0.237 OA
ATOM     85  O   UNL     1      14.858   7.513   0.505  1.00  0.00    -0.744 OA
ENDBRANCH  81  82
ENDBRANCH  60  74
BRANCH  61  86
ATOM     86  C   UNL     1       4.685  -1.270   6.936  1.00  0.00     0.058 A 
ATOM     87  C   UNL     1       3.311  -1.350   6.634  1.00  0.00     0.135 A 
ATOM     88  C   UNL     1       5.464  -2.405   6.667  1.00  0.00     0.135 A 
ATOM     89  F   UNL     1       2.507  -0.303   6.887  1.00  0.00    -0.206 F 
ATOM     90  C   UNL     1       2.772  -2.424   5.925  1.00  0.00     0.059 A 
ATOM     91  C   UNL     1       4.953  -3.477   5.926  1.00  0.00     0.059 A 
ATOM     92  F   UNL     1       6.769  -2.412   6.972  1.00  0.00    -0.206 F 
ATOM     93  C   UNL     1       3.623  -3.444   5.503  1.00  0.00     0.060 A 
BRANCH  93  94
ATOM     94  S   UNL     1       3.068  -4.530   4.154  1.00  0.00     0.124 S 
ATOM     95  O   UNL     1       2.333  -5.560   4.874  1.00  0.00    -0.237 OA
ATOM     96  O   UNL     1       2.259  -3.624   3.341  1.00  0.00    -0.237 OA
ATOM     97  O   UNL     1       4.323  -4.941   3.536  1.00  0.00    -0.744 OA
ENDBRANCH  93  94
ENDBRANCH  61  86
BRANCH  73  98
ATOM     98  C   UNL     1      10.213   2.284   9.881  1.00  0.00     0.058 A 
ATOM     99  C   UNL     1      10.468   1.164  10.691  1.00  0.00     0.135 A 
ATOM    100  C   UNL     1      11.152   3.339   9.979  1.00  0.00     0.135 A 
ATOM    101  F   UNL     1       9.723   0.053  10.603  1.00  0.00    -0.206 F 
ATOM    102  C   UNL     1      11.523   1.129  11.603  1.00  0.00     0.059 A 
ATOM    103  C   UNL     1      12.247   3.298  10.835  1.00  0.00     0.059 A 
ATOM    104  F   UNL     1      11.035   4.449   9.234  1.00  0.00    -0.206 F 
ATOM    105  C   UNL     1      12.400   2.206  11.676  1.00  0.00     0.060 A 
BRANCH 105 106
ATOM    106  S   UNL     1      13.751   2.176  12.866  1.00  0.00     0.124 S 
ATOM    107  O   UNL     1      13.098   2.720  14.053  1.00  0.00    -0.237 OA
ATOM    108  O   UNL     1      14.096   0.759  12.930  1.00  0.00    -0.237 OA
ATOM    109  O   UNL     1      14.760   3.033  12.251  1.00  0.00    -0.744 OA
ENDBRANCH 105 106
ENDBRANCH  73  98
ENDBRANCH  47  48
ENDBRANCH  40  42
ENDBRANCH  39  40
ENDBRANCH  38  39
ENDBRANCH  37  38
ENDBRANCH  36  37
ENDBRANCH   1  36
TORSDOF 22
