REMARK SMILES COc1ccc2c(c1)c(CC(=O)OCCOCCOC(=O)c1ccc(-c3c4nc(c(-c5c(F)cc(S(=O)(=O)[O-])cc5F)c5ccc([nH]5)c(-c5c(F)cc(S(=O)(=O)[O-])cc5F)c5nc(c(-c6c(F)cc(S(=O)(=O)[O-])cc6F)c6ccc3[nH]6)C=C5)C=C4)cc1)c(C)n2Cc1ccn(C(F)F)c(=O)c1
REMARK SMILES IDX 15 1 14 2 13 3 11 4 12 5 10 6 9 7 3 8 4 9 8 10 5 11 7 12
REMARK SMILES IDX 6 13 90 14 88 15 89 16 2 17 1 18 91 19 92 20 93 21 101 22
REMARK SMILES IDX 94 23 99 24 95 25 100 26 96 27 97 28 98 29 16 30 17 31 18 32
REMARK SMILES IDX 19 33 20 34 21 35 22 36 23 37 87 38 24 39 86 40 25 41 26 42
REMARK SMILES IDX 27 43 80 44 28 45 85 46 79 47 81 48 29 49 84 50 78 51 77 52
REMARK SMILES IDX 30 54 64 55 43 56 63 57 44 58 47 59 62 60 82 61 45 62 46 63
REMARK SMILES IDX 61 65 83 66 48 67 31 68 32 69 41 70 33 71 34 72 40 73 42 74
REMARK SMILES IDX 35 75 36 76 37 77 38 78 39 79 65 80 66 81 75 82 67 83 68 84
REMARK SMILES IDX 74 85 76 86 69 87 70 88 71 89 72 90 73 91 49 92 50 93 59 94
REMARK SMILES IDX 51 95 52 96 58 97 60 98 53 99 54 100 55 101 56 102 57 103
REMARK H PARENT 81 53 47 64
REMARK Flexibility Score: inf
ROOT
ATOM      1  C   UNL     1      -2.777   0.853  -6.295  1.00  0.00     0.202 C 
ENDROOT
BRANCH   1   2
ATOM      2  C   UNL     1      -2.798   2.368  -6.578  1.00  0.00     0.261 C 
BRANCH   2   3
ATOM      3  O   UNL     1      -2.077   3.195  -5.649  1.00  0.00    -0.463 OA
BRANCH   3   4
ATOM      4  C   UNL     1      -2.862   3.816  -4.729  1.00  0.00     0.310 C 
ATOM      5  O   UNL     1      -4.087   3.715  -4.691  1.00  0.00    -0.252 OA
BRANCH   4   6
ATOM      6  C   UNL     1      -2.141   4.668  -3.706  1.00  0.00     0.160 C 
BRANCH   6   7
ATOM      7  C   UNL     1      -0.637   4.617  -3.613  1.00  0.00    -0.008 A 
ATOM      8  C   UNL     1       0.784   1.798  -1.449  1.00  0.00     0.119 A 
ATOM      9  C   UNL     1       2.122   2.051  -1.725  1.00  0.00     0.048 A 
ATOM     10  C   UNL     1      -0.201   2.630  -1.983  1.00  0.00     0.057 A 
ATOM     11  C   UNL     1       2.498   3.150  -2.519  1.00  0.00     0.031 A 
ATOM     12  C   UNL     1       0.139   3.693  -2.848  1.00  0.00     0.007 A 
ATOM     13  C   UNL     1       1.491   3.969  -3.071  1.00  0.00     0.049 A 
ATOM     14  N   UNL     1       1.545   5.119  -3.854  1.00  0.00    -0.340 N 
ATOM     15  C   UNL     1       0.253   5.574  -4.082  1.00  0.00     0.020 A 
ATOM     16  C   UNL     1      -0.091   6.887  -4.697  1.00  0.00     0.065 C 
BRANCH   8  17
ATOM     17  O   UNL     1       0.303   0.684  -0.817  1.00  0.00    -0.497 OA
ATOM     18  C   UNL     1       1.047   0.219   0.299  1.00  0.00     0.278 C 
ENDBRANCH   8  17
BRANCH  14  19
ATOM     19  C   UNL     1       2.790   5.835  -4.186  1.00  0.00     0.158 C 
BRANCH  19  20
ATOM     20  C   UNL     1       3.199   5.771  -5.642  1.00  0.00    -0.021 A 
ATOM     21  C   UNL     1       2.554   6.654  -6.594  1.00  0.00     0.024 A 
ATOM     22  C   UNL     1       4.192   4.982  -6.090  1.00  0.00     0.077 A 
ATOM     23  C   UNL     1       2.774   6.535  -7.906  1.00  0.00     0.095 A 
ATOM     24  C   UNL     1       4.537   4.921  -7.545  1.00  0.00     0.255 A 
ATOM     25  N   UNL     1       3.709   5.643  -8.388  1.00  0.00    -0.258 N 
ATOM     26  O   UNL     1       5.503   4.246  -7.888  1.00  0.00    -0.269 OA
BRANCH  25  27
ATOM     27  C   UNL     1       3.916   5.516  -9.809  1.00  0.00     0.451 C 
ATOM     28  F   UNL     1       5.093   6.081 -10.172  1.00  0.00    -0.185 F 
ATOM     29  F   UNL     1       3.941   4.215 -10.184  1.00  0.00    -0.185 F 
ENDBRANCH  25  27
ENDBRANCH  19  20
ENDBRANCH  14  19
ENDBRANCH   6   7
ENDBRANCH   4   6
ENDBRANCH   3   4
ENDBRANCH   2   3
ENDBRANCH   1   2
BRANCH   1  30
ATOM     30  O   UNL     1      -2.747   0.350  -4.964  1.00  0.00    -0.374 OA
BRANCH  30  31
ATOM     31  C   UNL     1      -1.628   0.689  -4.150  1.00  0.00     0.202 C 
BRANCH  31  32
ATOM     32  C   UNL     1      -0.211   0.251  -4.560  1.00  0.00     0.261 C 
BRANCH  32  33
ATOM     33  O   UNL     1       0.138   0.673  -5.876  1.00  0.00    -0.460 OA
BRANCH  33  34
ATOM     34  C   UNL     1       0.817  -0.254  -6.598  1.00  0.00     0.338 C 
ATOM     35  O   UNL     1       1.505  -1.174  -6.183  1.00  0.00    -0.246 OA
BRANCH  34  36
ATOM     36  C   UNL     1       0.208  -0.180  -7.931  1.00  0.00     0.060 A 
ATOM     37  C   UNL     1       0.112   1.051  -8.584  1.00  0.00     0.016 A 
ATOM     38  C   UNL     1      -0.571  -1.284  -8.316  1.00  0.00     0.016 A 
ATOM     39  C   UNL     1      -0.842   1.194  -9.579  1.00  0.00     0.010 A 
ATOM     40  C   UNL     1      -1.537  -1.127  -9.301  1.00  0.00     0.010 A 
ATOM     41  C   UNL     1      -1.692   0.120  -9.909  1.00  0.00    -0.014 A 
BRANCH  41  42
ATOM     42  C   UNL     1      -2.520   0.272 -11.105  1.00  0.00     0.031 A 
ATOM     43  C   UNL     1      -1.669   0.436 -12.317  1.00  0.00     0.074 A 
ATOM     44  C   UNL     1      -3.859   0.141 -11.206  1.00  0.00     0.049 A 
ATOM     45  N   UNL     1      -1.530   1.489 -13.052  1.00  0.00    -0.248 NA
ATOM     46  C   UNL     1      -0.704  -0.637 -12.612  1.00  0.00     0.031 C 
ATOM     47  C   UNL     1      -4.816  -0.304 -10.194  1.00  0.00     0.029 A 
ATOM     48  N   UNL     1      -4.645   0.307 -12.312  1.00  0.00    -0.354 N 
ATOM     49  C   UNL     1      -0.614   1.135 -14.037  1.00  0.00     0.074 A 
ATOM     50  C   UNL     1      -0.001  -0.091 -13.603  1.00  0.00     0.031 C 
ATOM     51  C   UNL     1      -6.000  -0.586 -10.791  1.00  0.00     0.029 A 
ATOM     52  C   UNL     1      -5.929  -0.219 -12.198  1.00  0.00     0.049 A 
ATOM     53  H   UNL     1      -4.328   0.762 -13.125  1.00  0.00     0.167 HD
ATOM     54  C   UNL     1      -0.607   1.745 -15.253  1.00  0.00     0.037 A 
ATOM     55  C   UNL     1      -6.834  -0.386 -13.202  1.00  0.00     0.037 A 
ATOM     56  C   UNL     1      -1.307   3.002 -15.211  1.00  0.00     0.049 A 
ATOM     57  C   UNL     1      -6.432   0.520 -14.309  1.00  0.00     0.074 A 
ATOM     58  C   UNL     1      -1.156   4.178 -14.502  1.00  0.00     0.029 A 
ATOM     59  N   UNL     1      -2.575   3.040 -15.738  1.00  0.00    -0.354 N 
ATOM     60  N   UNL     1      -6.482   1.822 -14.245  1.00  0.00    -0.248 NA
ATOM     61  C   UNL     1      -5.565  -0.022 -15.344  1.00  0.00     0.031 C 
ATOM     62  C   UNL     1      -2.483   4.628 -14.246  1.00  0.00     0.029 A 
ATOM     63  C   UNL     1      -3.362   3.733 -14.857  1.00  0.00     0.049 A 
ATOM     64  H   UNL     1      -2.864   2.643 -16.591  1.00  0.00     0.167 HD
ATOM     65  C   UNL     1      -5.354   2.252 -14.926  1.00  0.00     0.074 A 
ATOM     66  C   UNL     1      -4.876   1.079 -15.653  1.00  0.00     0.031 C 
ATOM     67  C   UNL     1      -4.758   3.441 -14.623  1.00  0.00     0.037 A 
BRANCH  54  68
ATOM     68  C   UNL     1      -0.329   1.019 -16.549  1.00  0.00     0.058 A 
ATOM     69  C   UNL     1      -0.252   1.765 -17.744  1.00  0.00     0.135 A 
ATOM     70  C   UNL     1      -0.445  -0.380 -16.712  1.00  0.00     0.135 A 
ATOM     71  F   UNL     1      -0.137   3.102 -17.709  1.00  0.00    -0.206 F 
ATOM     72  C   UNL     1      -0.387   1.175 -19.000  1.00  0.00     0.059 A 
ATOM     73  C   UNL     1      -0.522  -0.993 -17.955  1.00  0.00     0.059 A 
ATOM     74  F   UNL     1      -0.595  -1.218 -15.680  1.00  0.00    -0.206 F 
ATOM     75  C   UNL     1      -0.543  -0.204 -19.091  1.00  0.00     0.060 A 
BRANCH  75  76
ATOM     76  S   UNL     1      -0.855  -0.955 -20.696  1.00  0.00     0.124 S 
ATOM     77  O   UNL     1      -2.179  -0.429 -21.007  1.00  0.00    -0.237 OA
ATOM     78  O   UNL     1       0.248  -0.428 -21.492  1.00  0.00    -0.237 OA
ATOM     79  O   UNL     1      -0.793  -2.386 -20.415  1.00  0.00    -0.744 OA
ENDBRANCH  75  76
ENDBRANCH  54  68
BRANCH  55  80
ATOM     80  C   UNL     1      -7.830  -1.476 -13.417  1.00  0.00     0.058 A 
ATOM     81  C   UNL     1      -8.843  -1.365 -14.392  1.00  0.00     0.135 A 
ATOM     82  C   UNL     1      -7.625  -2.765 -12.890  1.00  0.00     0.135 A 
ATOM     83  F   UNL     1      -9.097  -0.180 -14.970  1.00  0.00    -0.206 F 
ATOM     84  C   UNL     1      -9.570  -2.471 -14.851  1.00  0.00     0.059 A 
ATOM     85  C   UNL     1      -8.342  -3.882 -13.327  1.00  0.00     0.059 A 
ATOM     86  F   UNL     1      -6.651  -2.996 -11.998  1.00  0.00    -0.206 F 
ATOM     87  C   UNL     1      -9.296  -3.733 -14.327  1.00  0.00     0.060 A 
BRANCH  87  88
ATOM     88  S   UNL     1     -10.113  -5.187 -15.032  1.00  0.00     0.124 S 
ATOM     89  O   UNL     1     -11.504  -4.970 -14.651  1.00  0.00    -0.237 OA
ATOM     90  O   UNL     1      -9.813  -5.051 -16.454  1.00  0.00    -0.237 OA
ATOM     91  O   UNL     1      -9.451  -6.306 -14.364  1.00  0.00    -0.744 OA
ENDBRANCH  87  88
ENDBRANCH  55  80
BRANCH  67  92
ATOM     92  C   UNL     1      -5.514   4.438 -13.789  1.00  0.00     0.058 A 
ATOM     93  C   UNL     1      -5.862   4.252 -12.440  1.00  0.00     0.135 A 
ATOM     94  C   UNL     1      -5.715   5.715 -14.337  1.00  0.00     0.135 A 
ATOM     95  F   UNL     1      -5.621   3.089 -11.818  1.00  0.00    -0.206 F 
ATOM     96  C   UNL     1      -6.394   5.292 -11.674  1.00  0.00     0.059 A 
ATOM     97  C   UNL     1      -6.214   6.772 -13.585  1.00  0.00     0.059 A 
ATOM     98  F   UNL     1      -5.352   5.966 -15.607  1.00  0.00    -0.206 F 
ATOM     99  C   UNL     1      -6.551   6.554 -12.252  1.00  0.00     0.060 A 
BRANCH  99 100
ATOM    100  S   UNL     1      -7.106   7.932 -11.225  1.00  0.00     0.124 S 
ATOM    101  O   UNL     1      -8.497   7.582 -10.960  1.00  0.00    -0.237 OA
ATOM    102  O   UNL     1      -6.201   7.856 -10.081  1.00  0.00    -0.237 OA
ATOM    103  O   UNL     1      -6.909   9.099 -12.082  1.00  0.00    -0.744 OA
ENDBRANCH  99 100
ENDBRANCH  67  92
ENDBRANCH  41  42
ENDBRANCH  34  36
ENDBRANCH  33  34
ENDBRANCH  32  33
ENDBRANCH  31  32
ENDBRANCH  30  31
ENDBRANCH   1  30
TORSDOF 22
