REMARK SMILES O=C(OCCOCCOC(=O)[C@H]1C[C@](F)(c2cccc(F)c2)C1)c1ccc(-c2c3nc(c(-c4c(F)cc(S(=O)(=O)[O-])cc4F)c4ccc([nH]4)c(-c4c(F)cc(S(=O)(=O)[O-])cc4F)c4nc(c(-c5c(F)cc(S(=O)(=O)[O-])cc5F)c5ccc2[nH]5)C=C4)C=C3)cc1
REMARK SMILES IDX 5 1 4 2 3 3 2 4 1 5 24 6 25 7 89 8 26 9 88 10 27 11 28 12
REMARK SMILES IDX 29 13 82 14 30 15 87 16 81 17 83 18 31 19 86 20 80 21 79 22
REMARK SMILES IDX 32 24 66 25 45 26 65 27 46 28 49 29 64 30 84 31 47 32 48 33
REMARK SMILES IDX 63 35 85 36 50 37 33 38 34 39 43 40 35 41 36 42 42 43 44 44
REMARK SMILES IDX 37 45 38 46 39 47 40 48 41 49 67 50 68 51 77 52 69 53 70 54
REMARK SMILES IDX 76 55 78 56 71 57 72 58 73 59 74 60 75 61 51 62 52 63 61 64
REMARK SMILES IDX 53 65 54 66 60 67 62 68 55 69 56 70 57 71 58 72 59 73 6 74
REMARK SMILES IDX 7 75 8 76 9 77 10 78 11 79 12 80 13 81 23 82 14 83 15 84
REMARK SMILES IDX 16 85 17 86 22 87 18 88 20 89 19 90 21 91
REMARK H PARENT 83 23 49 34
REMARK Flexibility Score: inf
ROOT
ATOM      1  C   UNL     1       4.272   1.568  -0.537  1.00  0.00     0.202 C 
ENDROOT
BRANCH   1   2
ATOM      2  C   UNL     1       4.004   0.257  -1.288  1.00  0.00     0.261 C 
BRANCH   2   3
ATOM      3  O   UNL     1       2.636  -0.158  -1.124  1.00  0.00    -0.460 OA
BRANCH   3   4
ATOM      4  C   UNL     1       2.147  -1.153  -0.344  1.00  0.00     0.338 C 
ATOM      5  O   UNL     1       0.946  -1.409  -0.403  1.00  0.00    -0.246 OA
BRANCH   4   6
ATOM      6  C   UNL     1       2.994  -1.944   0.599  1.00  0.00     0.060 A 
ATOM      7  C   UNL     1       4.195  -1.493   1.143  1.00  0.00     0.016 A 
ATOM      8  C   UNL     1       2.507  -3.191   1.028  1.00  0.00     0.016 A 
ATOM      9  C   UNL     1       4.952  -2.283   1.985  1.00  0.00     0.010 A 
ATOM     10  C   UNL     1       3.228  -3.969   1.942  1.00  0.00     0.010 A 
ATOM     11  C   UNL     1       4.469  -3.519   2.403  1.00  0.00    -0.014 A 
BRANCH  11  12
ATOM     12  C   UNL     1       5.360  -4.310   3.268  1.00  0.00     0.031 A 
ATOM     13  C   UNL     1       6.110  -5.455   2.661  1.00  0.00     0.074 A 
ATOM     14  C   UNL     1       5.641  -3.840   4.499  1.00  0.00     0.049 A 
ATOM     15  N   UNL     1       7.008  -6.227   3.206  1.00  0.00    -0.248 NA
ATOM     16  C   UNL     1       5.837  -5.755   1.244  1.00  0.00     0.031 C 
ATOM     17  C   UNL     1       5.043  -2.638   5.095  1.00  0.00     0.029 A 
ATOM     18  N   UNL     1       6.543  -4.258   5.439  1.00  0.00    -0.354 N 
ATOM     19  C   UNL     1       7.399  -7.108   2.207  1.00  0.00     0.074 A 
ATOM     20  C   UNL     1       6.638  -6.787   1.023  1.00  0.00     0.031 C 
ATOM     21  C   UNL     1       5.641  -2.384   6.269  1.00  0.00     0.029 A 
ATOM     22  C   UNL     1       6.601  -3.443   6.547  1.00  0.00     0.049 A 
ATOM     23  H   UNL     1       7.097  -5.064   5.333  1.00  0.00     0.167 HD
ATOM     24  C   UNL     1       8.318  -8.096   2.286  1.00  0.00     0.037 A 
ATOM     25  C   UNL     1       7.337  -3.562   7.668  1.00  0.00     0.037 A 
ATOM     26  C   UNL     1       9.060  -8.381   3.484  1.00  0.00     0.049 A 
ATOM     27  C   UNL     1       8.263  -4.744   7.767  1.00  0.00     0.074 A 
ATOM     28  C   UNL     1       9.951  -9.409   3.722  1.00  0.00     0.029 A 
ATOM     29  N   UNL     1       8.999  -7.620   4.645  1.00  0.00    -0.354 N 
ATOM     30  N   UNL     1       8.553  -5.638   6.849  1.00  0.00    -0.248 NA
ATOM     31  C   UNL     1       8.937  -4.956   9.052  1.00  0.00     0.031 C 
ATOM     32  C   UNL     1      10.399  -9.294   5.043  1.00  0.00     0.029 A 
ATOM     33  C   UNL     1       9.823  -8.166   5.611  1.00  0.00     0.049 A 
ATOM     34  H   UNL     1       8.450  -6.811   4.762  1.00  0.00     0.167 HD
ATOM     35  C   UNL     1       9.445  -6.519   7.446  1.00  0.00     0.074 A 
ATOM     36  C   UNL     1       9.671  -6.029   8.793  1.00  0.00     0.031 C 
ATOM     37  C   UNL     1      10.015  -7.640   6.939  1.00  0.00     0.037 A 
BRANCH  24  38
ATOM     38  C   UNL     1       8.524  -8.961   1.078  1.00  0.00     0.058 A 
ATOM     39  C   UNL     1       8.020 -10.270   1.053  1.00  0.00     0.135 A 
ATOM     40  C   UNL     1       9.246  -8.514  -0.040  1.00  0.00     0.135 A 
ATOM     41  F   UNL     1       7.301 -10.737   2.086  1.00  0.00    -0.206 F 
ATOM     42  C   UNL     1       8.248 -11.118  -0.025  1.00  0.00     0.059 A 
ATOM     43  C   UNL     1       9.470  -9.339  -1.139  1.00  0.00     0.059 A 
ATOM     44  F   UNL     1       9.713  -7.256  -0.084  1.00  0.00    -0.206 F 
ATOM     45  C   UNL     1       8.981 -10.646  -1.114  1.00  0.00     0.060 A 
BRANCH  45  46
ATOM     46  S   UNL     1       9.265 -11.762  -2.505  1.00  0.00     0.124 S 
ATOM     47  O   UNL     1      10.159 -12.753  -1.917  1.00  0.00    -0.237 OA
ATOM     48  O   UNL     1       7.913 -12.222  -2.807  1.00  0.00    -0.237 OA
ATOM     49  O   UNL     1       9.863 -10.896  -3.517  1.00  0.00    -0.744 OA
ENDBRANCH  45  46
ENDBRANCH  24  38
BRANCH  25  50
ATOM     50  C   UNL     1       7.182  -2.594   8.791  1.00  0.00     0.058 A 
ATOM     51  C   UNL     1       5.962  -2.472   9.477  1.00  0.00     0.135 A 
ATOM     52  C   UNL     1       8.247  -1.787   9.220  1.00  0.00     0.135 A 
ATOM     53  F   UNL     1       4.905  -3.216   9.113  1.00  0.00    -0.206 F 
ATOM     54  C   UNL     1       5.798  -1.581  10.531  1.00  0.00     0.059 A 
ATOM     55  C   UNL     1       8.117  -0.910  10.296  1.00  0.00     0.059 A 
ATOM     56  F   UNL     1       9.439  -1.872   8.609  1.00  0.00    -0.206 F 
ATOM     57  C   UNL     1       6.884  -0.808  10.939  1.00  0.00     0.060 A 
BRANCH  57  58
ATOM     58  S   UNL     1       6.663   0.296  12.352  1.00  0.00     0.124 S 
ATOM     59  O   UNL     1       5.810   1.333  11.783  1.00  0.00    -0.237 OA
ATOM     60  O   UNL     1       6.027  -0.583  13.329  1.00  0.00    -0.237 OA
ATOM     61  O   UNL     1       8.026   0.706  12.676  1.00  0.00    -0.744 OA
ENDBRANCH  57  58
ENDBRANCH  25  50
BRANCH  37  62
ATOM     62  C   UNL     1      10.936  -8.400   7.846  1.00  0.00     0.058 A 
ATOM     63  C   UNL     1      12.319  -8.404   7.613  1.00  0.00     0.135 A 
ATOM     64  C   UNL     1      10.438  -9.177   8.903  1.00  0.00     0.135 A 
ATOM     65  F   UNL     1      12.840  -7.681   6.609  1.00  0.00    -0.206 F 
ATOM     66  C   UNL     1      13.180  -9.166   8.392  1.00  0.00     0.059 A 
ATOM     67  C   UNL     1      11.284  -9.925   9.713  1.00  0.00     0.059 A 
ATOM     68  F   UNL     1       9.122  -9.194   9.168  1.00  0.00    -0.206 F 
ATOM     69  C   UNL     1      12.652  -9.925   9.438  1.00  0.00     0.060 A 
BRANCH  69  70
ATOM     70  S   UNL     1      13.786 -10.892  10.454  1.00  0.00     0.124 S 
ATOM     71  O   UNL     1      14.140 -11.981   9.550  1.00  0.00    -0.237 OA
ATOM     72  O   UNL     1      14.847  -9.928  10.735  1.00  0.00    -0.237 OA
ATOM     73  O   UNL     1      12.971 -11.268  11.605  1.00  0.00    -0.744 OA
ENDBRANCH  69  70
ENDBRANCH  37  62
ENDBRANCH  11  12
ENDBRANCH   4   6
ENDBRANCH   3   4
ENDBRANCH   2   3
ENDBRANCH   1   2
BRANCH   1  74
ATOM     74  O   UNL     1       3.978   1.580   0.864  1.00  0.00    -0.374 OA
BRANCH  74  75
ATOM     75  C   UNL     1       2.591   1.681   1.216  1.00  0.00     0.202 C 
BRANCH  75  76
ATOM     76  C   UNL     1       2.414   2.657   2.384  1.00  0.00     0.261 C 
BRANCH  76  77
ATOM     77  O   UNL     1       2.766   3.962   1.907  1.00  0.00    -0.463 OA
BRANCH  77  78
ATOM     78  C   UNL     1       4.103   4.228   1.988  1.00  0.00     0.309 C 
ATOM     79  O   UNL     1       4.804   3.904   2.942  1.00  0.00    -0.252 OA
BRANCH  78  80
ATOM     80  C   UNL     1       4.585   4.876   0.675  1.00  0.00     0.106 C 
ATOM     81  C   UNL     1       6.093   4.988   0.421  1.00  0.00     0.061 C 
ATOM     82  C   UNL     1       4.436   6.387   0.527  1.00  0.00     0.061 C 
ATOM     83  C   UNL     1       5.964   6.531   0.310  1.00  0.00     0.137 C 
ATOM     84  F   UNL     1       6.571   7.195   1.328  1.00  0.00    -0.239 F 
BRANCH  83  85
ATOM     85  C   UNL     1       6.515   7.177  -1.044  1.00  0.00    -0.008 A 
ATOM     86  C   UNL     1       7.909   7.290  -1.253  1.00  0.00     0.007 A 
ATOM     87  C   UNL     1       5.697   7.678  -2.075  1.00  0.00     0.046 A 
ATOM     88  C   UNL     1       8.453   7.882  -2.398  1.00  0.00     0.003 A 
ATOM     89  C   UNL     1       6.239   8.267  -3.216  1.00  0.00     0.123 A 
ATOM     90  C   UNL     1       7.610   8.379  -3.384  1.00  0.00     0.039 A 
ATOM     91  F   UNL     1       5.417   8.742  -4.162  1.00  0.00    -0.207 F 
ENDBRANCH  83  85
ENDBRANCH  78  80
ENDBRANCH  77  78
ENDBRANCH  76  77
ENDBRANCH  75  76
ENDBRANCH  74  75
ENDBRANCH   1  74
TORSDOF 18
