REMARK SMILES Cc1cc(Br)c(C)c([C@@H]2[NH2+][C@H](C(=O)OCCOCCOC(=O)c3ccc(-c4c5nc(c(-c6c(F)cc(S(=O)(=O)[O-])cc6F)c6ccc([nH]6)c(-c6c(F)cc(S(=O)(=O)[O-])cc6F)c6nc(c(-c7c(F)cc(S(=O)(=O)[O-])cc7F)c7ccc4[nH]7)C=C6)C=C5)cc3)CS2)c1O
REMARK SMILES IDX 18 1 17 2 16 3 15 4 14 5 12 6 13 7 11 8 9 9 10 10 90 11
REMARK SMILES IDX 89 14 8 15 1 16 2 17 3 18 91 19 4 20 5 21 6 22 7 23 92 24
REMARK SMILES IDX 19 26 20 27 21 28 22 29 23 30 24 31 88 32 25 33 87 34 26 35
REMARK SMILES IDX 27 36 28 37 81 38 29 39 86 40 80 41 82 42 30 43 85 44 79 45
REMARK SMILES IDX 78 46 31 48 65 49 44 50 64 51 45 52 48 53 63 54 83 55 46 56
REMARK SMILES IDX 47 57 62 59 84 60 49 61 32 62 33 63 42 64 34 65 35 66 41 67
REMARK SMILES IDX 43 68 36 69 37 70 38 71 39 72 40 73 66 74 67 75 76 76 68 77
REMARK SMILES IDX 69 78 75 79 77 80 70 81 71 82 72 83 73 84 74 85 50 86 51 87
REMARK SMILES IDX 60 88 52 89 53 90 59 91 61 92 54 93 55 94 56 95 57 96 58 97
REMARK H PARENT 10 12 10 13 92 25 82 47 48 58
REMARK Flexibility Score: inf
ROOT
ATOM      1  C   UNL     1       5.439   3.720  -2.646  1.00  0.00     0.202 C 
ENDROOT
BRANCH   1   2
ATOM      2  O   UNL     1       6.517   2.928  -2.156  1.00  0.00    -0.374 OA
BRANCH   2   3
ATOM      3  C   UNL     1       6.248   2.130  -1.000  1.00  0.00     0.202 C 
BRANCH   3   4
ATOM      4  C   UNL     1       6.318   2.864   0.341  1.00  0.00     0.261 C 
BRANCH   4   5
ATOM      5  O   UNL     1       5.154   3.687   0.502  1.00  0.00    -0.459 OA
BRANCH   5   6
ATOM      6  C   UNL     1       5.321   5.036   0.479  1.00  0.00     0.365 C 
ATOM      7  O   UNL     1       6.403   5.611   0.472  1.00  0.00    -0.245 OA
BRANCH   6   8
ATOM      8  C   UNL     1       3.982   5.780   0.456  1.00  0.00     0.304 C 
ATOM      9  C   UNL     1       1.615   5.392   0.172  1.00  0.00     0.278 C 
ATOM     10  N   UNL     1       2.952   5.055  -0.321  1.00  0.00    -0.319 N 
ATOM     11  S   UNL     1       1.760   6.249   1.763  1.00  0.00    -0.087 SA
ATOM     12  H   UNL     1       3.024   5.317  -1.304  1.00  0.00     0.348 HD
ATOM     13  H   UNL     1       3.101   4.051  -0.217  1.00  0.00     0.348 HD
ATOM     14  C   UNL     1       3.530   5.968   1.892  1.00  0.00     0.153 C 
BRANCH   9  15
ATOM     15  C   UNL     1       0.624   4.229   0.222  1.00  0.00     0.066 A 
ATOM     16  C   UNL     1       0.528   0.469   1.073  1.00  0.00     0.048 C 
ATOM     17  C   UNL     1       0.139   1.830   0.576  1.00  0.00    -0.008 A 
ATOM     18  C   UNL     1      -1.207   2.061   0.303  1.00  0.00     0.023 A 
ATOM     19  C   UNL     1       1.037   2.906   0.511  1.00  0.00     0.128 A 
ATOM     20  C   UNL     1      -1.660   3.350   0.042  1.00  0.00     0.021 A 
ATOM     21  Br  UNL     1      -3.534   3.540  -0.249  1.00  0.00    -0.051 Br
ATOM     22  C   UNL     1      -0.774   4.453   0.036  1.00  0.00    -0.023 A 
ATOM     23  C   UNL     1      -1.364   5.837  -0.100  1.00  0.00     0.046 C 
BRANCH  19  24
ATOM     24  O   UNL     1       2.353   2.649   0.784  1.00  0.00    -0.507 OA
ATOM     25  H   UNL     1       2.630   1.775   0.976  1.00  0.00     0.293 HD
ENDBRANCH  19  24
ENDBRANCH   9  15
ENDBRANCH   6   8
ENDBRANCH   5   6
ENDBRANCH   4   5
ENDBRANCH   3   4
ENDBRANCH   2   3
ENDBRANCH   1   2
BRANCH   1  26
ATOM     26  C   UNL     1       4.421   3.014  -3.551  1.00  0.00     0.261 C 
BRANCH  26  27
ATOM     27  O   UNL     1       3.742   1.927  -2.904  1.00  0.00    -0.460 OA
BRANCH  27  28
ATOM     28  C   UNL     1       4.239   0.693  -3.170  1.00  0.00     0.338 C 
ATOM     29  O   UNL     1       5.178   0.412  -3.898  1.00  0.00    -0.246 OA
BRANCH  28  30
ATOM     30  C   UNL     1       3.552  -0.284  -2.304  1.00  0.00     0.060 A 
ATOM     31  C   UNL     1       2.165  -0.373  -2.310  1.00  0.00     0.016 A 
ATOM     32  C   UNL     1       4.309  -1.122  -1.474  1.00  0.00     0.016 A 
ATOM     33  C   UNL     1       1.540  -1.291  -1.464  1.00  0.00     0.010 A 
ATOM     34  C   UNL     1       3.672  -2.047  -0.632  1.00  0.00     0.010 A 
ATOM     35  C   UNL     1       2.274  -2.138  -0.601  1.00  0.00    -0.014 A 
BRANCH  35  36
ATOM     36  C   UNL     1       1.545  -3.097   0.294  1.00  0.00     0.031 A 
ATOM     37  C   UNL     1       1.658  -3.045   1.806  1.00  0.00     0.074 A 
ATOM     38  C   UNL     1       0.689  -3.982  -0.261  1.00  0.00     0.049 A 
ATOM     39  N   UNL     1       1.006  -3.748   2.703  1.00  0.00    -0.248 NA
ATOM     40  C   UNL     1       2.609  -2.087   2.391  1.00  0.00     0.031 C 
ATOM     41  C   UNL     1       0.481  -4.157  -1.700  1.00  0.00     0.029 A 
ATOM     42  N   UNL     1      -0.198  -4.867   0.306  1.00  0.00    -0.354 N 
ATOM     43  C   UNL     1       1.459  -3.317   3.947  1.00  0.00     0.074 A 
ATOM     44  C   UNL     1       2.466  -2.309   3.693  1.00  0.00     0.031 C 
ATOM     45  C   UNL     1      -0.530  -5.014  -1.900  1.00  0.00     0.029 A 
ATOM     46  C   UNL     1      -0.986  -5.525  -0.612  1.00  0.00     0.049 A 
ATOM     47  H   UNL     1      -0.263  -5.017   1.277  1.00  0.00     0.167 HD
ATOM     48  C   UNL     1       1.067  -3.708   5.186  1.00  0.00     0.037 A 
ATOM     49  C   UNL     1      -1.956  -6.448  -0.453  1.00  0.00     0.037 A 
ATOM     50  C   UNL     1       0.059  -4.705   5.452  1.00  0.00     0.049 A 
ATOM     51  C   UNL     1      -2.313  -6.918   0.930  1.00  0.00     0.074 A 
ATOM     52  C   UNL     1      -0.403  -5.150   6.681  1.00  0.00     0.029 A 
ATOM     53  N   UNL     1      -0.643  -5.412   4.488  1.00  0.00    -0.354 N 
ATOM     54  N   UNL     1      -1.882  -6.476   2.086  1.00  0.00    -0.248 NA
ATOM     55  C   UNL     1      -3.271  -8.030   1.030  1.00  0.00     0.031 C 
ATOM     56  C   UNL     1      -1.343  -6.160   6.462  1.00  0.00     0.029 A 
ATOM     57  C   UNL     1      -1.507  -6.311   5.096  1.00  0.00     0.049 A 
ATOM     58  H   UNL     1      -0.543  -5.294   3.516  1.00  0.00     0.167 HD
ATOM     59  C   UNL     1      -2.518  -7.254   3.048  1.00  0.00     0.074 A 
ATOM     60  C   UNL     1      -3.389  -8.169   2.343  1.00  0.00     0.031 C 
ATOM     61  C   UNL     1      -2.376  -7.221   4.395  1.00  0.00     0.037 A 
BRANCH  48  62
ATOM     62  C   UNL     1       1.712  -3.062   6.387  1.00  0.00     0.058 A 
ATOM     63  C   UNL     1       1.383  -1.755   6.778  1.00  0.00     0.135 A 
ATOM     64  C   UNL     1       2.555  -3.804   7.233  1.00  0.00     0.135 A 
ATOM     65  F   UNL     1       0.588  -1.000   6.004  1.00  0.00    -0.206 F 
ATOM     66  C   UNL     1       1.864  -1.207   7.964  1.00  0.00     0.059 A 
ATOM     67  C   UNL     1       3.028  -3.284   8.436  1.00  0.00     0.059 A 
ATOM     68  F   UNL     1       2.897  -5.061   6.912  1.00  0.00    -0.206 F 
ATOM     69  C   UNL     1       2.677  -1.983   8.792  1.00  0.00     0.060 A 
BRANCH  69  70
ATOM     70  S   UNL     1       3.251  -1.268  10.349  1.00  0.00     0.124 S 
ATOM     71  O   UNL     1       4.142  -0.213   9.875  1.00  0.00    -0.237 OA
ATOM     72  O   UNL     1       2.005  -0.818  10.960  1.00  0.00    -0.237 OA
ATOM     73  O   UNL     1       3.908  -2.386  11.018  1.00  0.00    -0.744 OA
ENDBRANCH  69  70
ENDBRANCH  48  62
BRANCH  49  74
ATOM     74  C   UNL     1      -2.644  -7.021  -1.643  1.00  0.00     0.058 A 
ATOM     75  C   UNL     1      -4.013  -6.809  -1.861  1.00  0.00     0.135 A 
ATOM     76  C   UNL     1      -1.946  -7.798  -2.582  1.00  0.00     0.135 A 
ATOM     77  F   UNL     1      -4.729  -6.085  -0.987  1.00  0.00    -0.206 F 
ATOM     78  C   UNL     1      -4.670  -7.360  -2.958  1.00  0.00     0.059 A 
ATOM     79  C   UNL     1      -2.572  -8.327  -3.705  1.00  0.00     0.059 A 
ATOM     80  F   UNL     1      -0.633  -8.025  -2.426  1.00  0.00    -0.206 F 
ATOM     81  C   UNL     1      -3.938  -8.114  -3.877  1.00  0.00     0.060 A 
BRANCH  81  82
ATOM     82  S   UNL     1      -4.792  -8.798  -5.312  1.00  0.00     0.124 S 
ATOM     83  O   UNL     1      -5.613  -9.835  -4.698  1.00  0.00    -0.237 OA
ATOM     84  O   UNL     1      -5.507  -7.634  -5.824  1.00  0.00    -0.237 OA
ATOM     85  O   UNL     1      -3.700  -9.275  -6.156  1.00  0.00    -0.744 OA
ENDBRANCH  81  82
ENDBRANCH  49  74
BRANCH  61  86
ATOM     86  C   UNL     1      -3.168  -8.206   5.211  1.00  0.00     0.058 A 
ATOM     87  C   UNL     1      -2.829  -9.568   5.238  1.00  0.00     0.135 A 
ATOM     88  C   UNL     1      -4.217  -7.777   6.040  1.00  0.00     0.135 A 
ATOM     89  F   UNL     1      -1.841 -10.033   4.457  1.00  0.00    -0.206 F 
ATOM     90  C   UNL     1      -3.504 -10.470   6.053  1.00  0.00     0.059 A 
ATOM     91  C   UNL     1      -4.889  -8.657   6.885  1.00  0.00     0.059 A 
ATOM     92  F   UNL     1      -4.579  -6.484   6.058  1.00  0.00    -0.206 F 
ATOM     93  C   UNL     1      -4.526 -10.003   6.882  1.00  0.00     0.060 A 
BRANCH  93  94
ATOM     94  S   UNL     1      -5.344 -11.179   7.980  1.00  0.00     0.124 S 
ATOM     95  O   UNL     1      -6.059 -12.024   7.029  1.00  0.00    -0.237 OA
ATOM     96  O   UNL     1      -4.214 -11.805   8.659  1.00  0.00    -0.237 OA
ATOM     97  O   UNL     1      -6.186 -10.334   8.822  1.00  0.00    -0.744 OA
ENDBRANCH  93  94
ENDBRANCH  61  86
ENDBRANCH  35  36
ENDBRANCH  28  30
ENDBRANCH  27  28
ENDBRANCH  26  27
ENDBRANCH   1  26
TORSDOF 19
