REMARK SMILES CCn1cc(CN(C)C(=O)CCn2cc(C(=O)OCCOCCOC(=O)c3ccc(-c4c5nc(c(-c6c(F)cc(S(=O)(=O)[O-])cc6F)c6ccc([nH]6)c(-c6c(F)cc(S(=O)(=O)[O-])cc6F)c6nc(c(-c7c(F)cc(S(=O)(=O)[O-])cc7F)c7ccc4[nH]7)C=C6)C=C5)cc3)cn2)c(C)n1
REMARK SMILES IDX 19 1 18 2 16 3 17 4 15 5 13 6 14 7 94 8 93 9 12 10 11 11
REMARK SMILES IDX 9 12 10 13 7 14 8 15 6 16 5 17 3 18 4 19 97 20 95 21 96 22
REMARK SMILES IDX 2 23 1 24 20 25 21 26 22 27 23 28 24 29 25 30 26 31 27 32
REMARK SMILES IDX 28 33 92 34 29 35 91 36 30 37 31 38 32 39 85 40 33 41 90 42
REMARK SMILES IDX 84 43 86 44 34 45 89 46 83 47 82 48 35 50 69 51 48 52 68 53
REMARK SMILES IDX 49 54 52 55 67 56 87 57 50 58 51 59 66 61 88 62 53 63 36 64
REMARK SMILES IDX 37 65 46 66 38 67 39 68 45 69 47 70 40 71 41 72 42 73 43 74
REMARK SMILES IDX 44 75 70 76 71 77 80 78 72 79 73 80 79 81 81 82 74 83 75 84
REMARK SMILES IDX 76 85 77 86 78 87 54 88 55 89 64 90 56 91 57 92 63 93 65 94
REMARK SMILES IDX 58 95 59 96 60 97 61 98 62 99
REMARK H PARENT 86 49 52 60
REMARK Flexibility Score: inf
ROOT
ATOM      1  C   UNL     1       3.378  12.134  -0.461  1.00  0.00     0.261 C 
ENDROOT
BRANCH   1   2
ATOM      2  O   UNL     1       3.950  11.199   0.473  1.00  0.00    -0.460 OA
BRANCH   2   3
ATOM      3  C   UNL     1       3.629   9.901   0.247  1.00  0.00     0.341 C 
ATOM      4  O   UNL     1       2.876   9.510  -0.645  1.00  0.00    -0.246 OA
BRANCH   3   5
ATOM      5  C   UNL     1       4.261   8.963   1.136  1.00  0.00     0.098 A 
ATOM      6  N   UNL     1       4.437   7.580   2.809  1.00  0.00    -0.271 N 
ATOM      7  C   UNL     1       4.170   8.895   2.515  1.00  0.00     0.124 A 
ATOM      8  N   UNL     1       5.070   6.945   1.808  1.00  0.00    -0.181 NA
ATOM      9  C   UNL     1       4.909   7.766   0.770  1.00  0.00     0.150 A 
BRANCH   6  10
ATOM     10  C   UNL     1       3.957   6.819   3.950  1.00  0.00     0.154 C 
BRANCH  10  11
ATOM     11  C   UNL     1       2.456   6.956   4.213  1.00  0.00     0.124 C 
BRANCH  11  12
ATOM     12  C   UNL     1       1.581   5.991   3.416  1.00  0.00     0.224 C 
ATOM     13  O   UNL     1       1.274   4.920   3.949  1.00  0.00    -0.275 OA
BRANCH  12  14
ATOM     14  N   UNL     1       1.113   6.337   2.156  1.00  0.00    -0.341 N 
ATOM     15  C   UNL     1       1.204   7.654   1.556  1.00  0.00     0.147 C 
BRANCH  14  16
ATOM     16  C   UNL     1       0.214   5.429   1.446  1.00  0.00     0.158 C 
BRANCH  16  17
ATOM     17  C   UNL     1       0.763   4.080   1.147  1.00  0.00     0.012 A 
ATOM     18  N   UNL     1       0.931   1.897   0.939  1.00  0.00    -0.272 N 
ATOM     19  C   UNL     1       0.091   2.888   1.340  1.00  0.00     0.114 A 
ATOM     20  N   UNL     1       2.089   2.352   0.440  1.00  0.00    -0.178 NA
ATOM     21  C   UNL     1       2.004   3.683   0.576  1.00  0.00     0.064 A 
ATOM     22  C   UNL     1       3.146   4.531   0.161  1.00  0.00     0.069 C 
BRANCH  18  23
ATOM     23  C   UNL     1       0.685   0.473   1.049  1.00  0.00     0.141 C 
ATOM     24  C   UNL     1       1.018  -0.307  -0.211  1.00  0.00     0.029 C 
ENDBRANCH  18  23
ENDBRANCH  16  17
ENDBRANCH  14  16
ENDBRANCH  12  14
ENDBRANCH  11  12
ENDBRANCH  10  11
ENDBRANCH   6  10
ENDBRANCH   3   5
ENDBRANCH   2   3
ENDBRANCH   1   2
BRANCH   1  25
ATOM     25  C   UNL     1       4.434  12.753  -1.380  1.00  0.00     0.202 C 
BRANCH  25  26
ATOM     26  O   UNL     1       4.891  11.962  -2.475  1.00  0.00    -0.374 OA
BRANCH  26  27
ATOM     27  C   UNL     1       5.609  10.759  -2.234  1.00  0.00     0.202 C 
BRANCH  27  28
ATOM     28  C   UNL     1       7.008  10.851  -1.629  1.00  0.00     0.261 C 
BRANCH  28  29
ATOM     29  O   UNL     1       7.031  11.384  -0.302  1.00  0.00    -0.460 OA
BRANCH  29  30
ATOM     30  C   UNL     1       7.528  12.646  -0.233  1.00  0.00     0.338 C 
ATOM     31  O   UNL     1       7.700  13.398  -1.177  1.00  0.00    -0.246 OA
BRANCH  30  32
ATOM     32  C   UNL     1       7.912  12.992   1.151  1.00  0.00     0.060 A 
ATOM     33  C   UNL     1       8.614  14.191   1.311  1.00  0.00     0.016 A 
ATOM     34  C   UNL     1       7.723  12.129   2.240  1.00  0.00     0.016 A 
ATOM     35  C   UNL     1       9.236  14.464   2.517  1.00  0.00     0.010 A 
ATOM     36  C   UNL     1       8.342  12.411   3.457  1.00  0.00     0.010 A 
ATOM     37  C   UNL     1       9.151  13.546   3.569  1.00  0.00    -0.014 A 
BRANCH  37  38
ATOM     38  C   UNL     1      10.034  13.793   4.708  1.00  0.00     0.031 A 
ATOM     39  C   UNL     1       9.718  14.935   5.598  1.00  0.00     0.074 A 
ATOM     40  C   UNL     1      11.127  13.042   4.954  1.00  0.00     0.049 A 
ATOM     41  N   UNL     1      10.421  16.002   5.806  1.00  0.00    -0.248 NA
ATOM     42  C   UNL     1       8.456  14.880   6.348  1.00  0.00     0.031 C 
ATOM     43  C   UNL     1      11.427  11.724   4.390  1.00  0.00     0.029 A 
ATOM     44  N   UNL     1      12.163  13.264   5.824  1.00  0.00    -0.354 N 
ATOM     45  C   UNL     1       9.798  16.658   6.862  1.00  0.00     0.074 A 
ATOM     46  C   UNL     1       8.543  15.984   7.092  1.00  0.00     0.031 C 
ATOM     47  C   UNL     1      12.459  11.181   5.069  1.00  0.00     0.029 A 
ATOM     48  C   UNL     1      12.979  12.162   6.011  1.00  0.00     0.049 A 
ATOM     49  H   UNL     1      12.313  14.127   6.274  1.00  0.00     0.167 HD
ATOM     50  C   UNL     1      10.444  17.569   7.636  1.00  0.00     0.037 A 
ATOM     51  C   UNL     1      13.997  12.012   6.888  1.00  0.00     0.037 A 
ATOM     52  C   UNL     1      11.690  18.023   7.090  1.00  0.00     0.049 A 
ATOM     53  C   UNL     1      14.545  13.337   7.264  1.00  0.00     0.074 A 
ATOM     54  C   UNL     1      12.124  19.034   6.264  1.00  0.00     0.029 A 
ATOM     55  N   UNL     1      12.746  17.179   7.288  1.00  0.00    -0.354 N 
ATOM     56  N   UNL     1      15.154  14.143   6.437  1.00  0.00    -0.248 NA
ATOM     57  C   UNL     1      14.233  13.909   8.572  1.00  0.00     0.031 C 
ATOM     58  C   UNL     1      13.457  18.706   5.874  1.00  0.00     0.029 A 
ATOM     59  C   UNL     1      13.797  17.494   6.462  1.00  0.00     0.049 A 
ATOM     60  H   UNL     1      12.753  16.441   7.939  1.00  0.00     0.167 HD
ATOM     61  C   UNL     1      14.962  15.400   6.971  1.00  0.00     0.074 A 
ATOM     62  C   UNL     1      14.538  15.189   8.345  1.00  0.00     0.031 C 
ATOM     63  C   UNL     1      14.800  16.492   6.175  1.00  0.00     0.037 A 
BRANCH  50  64
ATOM     64  C   UNL     1      10.146  17.753   9.097  1.00  0.00     0.058 A 
ATOM     65  C   UNL     1      10.454  18.964   9.742  1.00  0.00     0.135 A 
ATOM     66  C   UNL     1       9.841  16.657   9.932  1.00  0.00     0.135 A 
ATOM     67  F   UNL     1      10.783  20.051   9.026  1.00  0.00    -0.206 F 
ATOM     68  C   UNL     1      10.485  19.072  11.133  1.00  0.00     0.059 A 
ATOM     69  C   UNL     1       9.824  16.753  11.318  1.00  0.00     0.059 A 
ATOM     70  F   UNL     1       9.638  15.431   9.425  1.00  0.00    -0.206 F 
ATOM     71  C   UNL     1      10.185  17.955  11.911  1.00  0.00     0.060 A 
BRANCH  71  72
ATOM     72  S   UNL     1      10.304  18.054  13.707  1.00  0.00     0.124 S 
ATOM     73  O   UNL     1      11.726  17.809  13.917  1.00  0.00    -0.237 OA
ATOM     74  O   UNL     1       9.842  19.412  13.981  1.00  0.00    -0.237 OA
ATOM     75  O   UNL     1       9.403  16.995  14.153  1.00  0.00    -0.744 OA
ENDBRANCH  71  72
ENDBRANCH  50  64
BRANCH  51  76
ATOM     76  C   UNL     1      14.417  10.754   7.550  1.00  0.00     0.058 A 
ATOM     77  C   UNL     1      15.692  10.607   8.117  1.00  0.00     0.135 A 
ATOM     78  C   UNL     1      13.479   9.741   7.842  1.00  0.00     0.135 A 
ATOM     79  F   UNL     1      16.630  11.546   7.925  1.00  0.00    -0.206 F 
ATOM     80  C   UNL     1      16.015   9.527   8.941  1.00  0.00     0.059 A 
ATOM     81  C   UNL     1      13.784   8.645   8.642  1.00  0.00     0.059 A 
ATOM     82  F   UNL     1      12.208   9.832   7.422  1.00  0.00    -0.206 F 
ATOM     83  C   UNL     1      15.050   8.555   9.206  1.00  0.00     0.060 A 
BRANCH  83  84
ATOM     84  S   UNL     1      15.422   7.234  10.379  1.00  0.00     0.124 S 
ATOM     85  O   UNL     1      16.425   6.462   9.654  1.00  0.00    -0.237 OA
ATOM     86  O   UNL     1      15.903   7.980  11.537  1.00  0.00    -0.237 OA
ATOM     87  O   UNL     1      14.133   6.570  10.561  1.00  0.00    -0.744 OA
ENDBRANCH  83  84
ENDBRANCH  51  76
BRANCH  63  88
ATOM     88  C   UNL     1      15.501  16.515   4.856  1.00  0.00     0.058 A 
ATOM     89  C   UNL     1      15.153  15.703   3.767  1.00  0.00     0.135 A 
ATOM     90  C   UNL     1      16.536  17.445   4.669  1.00  0.00     0.135 A 
ATOM     91  F   UNL     1      14.124  14.846   3.852  1.00  0.00    -0.206 F 
ATOM     92  C   UNL     1      15.833  15.787   2.550  1.00  0.00     0.059 A 
ATOM     93  C   UNL     1      17.212  17.563   3.458  1.00  0.00     0.059 A 
ATOM     94  F   UNL     1      16.880  18.280   5.664  1.00  0.00    -0.206 F 
ATOM     95  C   UNL     1      16.864  16.718   2.406  1.00  0.00     0.060 A 
BRANCH  95  96
ATOM     96  S   UNL     1      17.695  16.883   0.810  1.00  0.00     0.124 S 
ATOM     97  O   UNL     1      18.661  15.791   0.854  1.00  0.00    -0.237 OA
ATOM     98  O   UNL     1      16.601  16.724  -0.144  1.00  0.00    -0.237 OA
ATOM     99  O   UNL     1      18.267  18.227   0.866  1.00  0.00    -0.744 OA
ENDBRANCH  95  96
ENDBRANCH  63  88
ENDBRANCH  37  38
ENDBRANCH  30  32
ENDBRANCH  29  30
ENDBRANCH  28  29
ENDBRANCH  27  28
ENDBRANCH  26  27
ENDBRANCH  25  26
ENDBRANCH   1  25
TORSDOF 24
