REMARK SMILES COc1cccc(O[C@@H](C)c2nnc(SCC(=O)OCCOCCOC(=O)c3ccc(-c4c5nc(c(-c6c(F)cc(S(=O)(=O)[O-])cc6F)c6ccc([nH]6)c(-c6c(F)cc(S(=O)(=O)[O-])cc6F)c6nc(c(-c7c(F)cc(S(=O)(=O)[O-])cc7F)c7ccc4[nH]7)C=C6)C=C5)cc3)n2C)c1
REMARK SMILES IDX 20 1 19 2 17 3 18 4 16 5 15 6 14 7 11 8 12 9 94 10 13 11
REMARK SMILES IDX 95 12 9 13 10 14 8 15 7 16 3 17 4 18 96 19 5 20 6 21 2 22
REMARK SMILES IDX 1 23 21 24 22 25 23 26 24 27 25 28 26 29 27 30 28 31 29 32
REMARK SMILES IDX 93 33 30 34 92 35 31 36 32 37 33 38 86 39 34 40 91 41 85 42
REMARK SMILES IDX 87 43 35 44 90 45 84 46 83 47 36 49 70 50 49 51 69 52 50 53
REMARK SMILES IDX 53 54 68 55 88 56 51 57 52 58 67 60 89 61 54 62 37 63 38 64
REMARK SMILES IDX 47 65 39 66 40 67 46 68 48 69 41 70 42 71 43 72 44 73 45 74
REMARK SMILES IDX 71 75 72 76 81 77 73 78 74 79 80 80 82 81 75 82 76 83 77 84
REMARK SMILES IDX 78 85 79 86 55 87 56 88 65 89 57 90 58 91 64 92 66 93 59 94
REMARK SMILES IDX 60 95 61 96 62 97 63 98
REMARK H PARENT 87 48 53 59
REMARK Flexibility Score: inf
ROOT
ATOM      1  C   UNL     1       6.347   3.422  -0.000  1.00  0.00     0.261 C 
ENDROOT
BRANCH   1   2
ATOM      2  O   UNL     1       5.813   2.687   1.129  1.00  0.00    -0.463 OA
BRANCH   2   3
ATOM      3  C   UNL     1       4.462   2.669   1.278  1.00  0.00     0.316 C 
ATOM      4  O   UNL     1       3.674   3.175   0.483  1.00  0.00    -0.251 OA
BRANCH   3   5
ATOM      5  C   UNL     1       3.972   1.955   2.529  1.00  0.00     0.200 C 
BRANCH   5   6
ATOM      6  S   UNL     1       5.058   0.656   3.134  1.00  0.00    -0.074 SA
BRANCH   6   7
ATOM      7  C   UNL     1       4.459  -0.902   2.654  1.00  0.00     0.191 A 
ATOM      8  C   UNL     1       4.178  -2.672   1.363  1.00  0.00     0.174 A 
ATOM      9  N   UNL     1       4.508  -3.074   2.579  1.00  0.00    -0.130 NA
ATOM     10  N   UNL     1       3.975  -1.302   1.428  1.00  0.00    -0.306 N 
ATOM     11  N   UNL     1       4.693  -1.974   3.374  1.00  0.00    -0.123 NA
ATOM     12  C   UNL     1       3.369  -0.466   0.439  1.00  0.00     0.154 C 
BRANCH   8  13
ATOM     13  C   UNL     1       4.210  -3.596   0.165  1.00  0.00     0.238 C 
ATOM     14  C   UNL     1       4.493  -3.068  -1.230  1.00  0.00     0.062 C 
BRANCH  13  15
ATOM     15  O   UNL     1       3.140  -4.552   0.138  1.00  0.00    -0.483 OA
BRANCH  15  16
ATOM     16  C   UNL     1       1.843  -4.220   0.366  1.00  0.00     0.124 A 
ATOM     17  C   UNL     1      -0.126  -2.809   0.378  1.00  0.00     0.122 A 
ATOM     18  C   UNL     1      -0.835  -3.833   1.010  1.00  0.00     0.046 A 
ATOM     19  C   UNL     1       1.212  -3.019   0.032  1.00  0.00     0.092 A 
ATOM     20  C   UNL     1      -0.234  -5.061   1.271  1.00  0.00     0.008 A 
ATOM     21  C   UNL     1       1.103  -5.251   0.944  1.00  0.00     0.047 A 
BRANCH  17  22
ATOM     22  O   UNL     1      -0.875  -1.691   0.141  1.00  0.00    -0.497 OA
ATOM     23  C   UNL     1      -0.260  -0.551  -0.436  1.00  0.00     0.278 C 
ENDBRANCH  17  22
ENDBRANCH  15  16
ENDBRANCH  13  15
ENDBRANCH   8  13
ENDBRANCH   6   7
ENDBRANCH   5   6
ENDBRANCH   3   5
ENDBRANCH   2   3
ENDBRANCH   1   2
BRANCH   1  24
ATOM     24  C   UNL     1       7.544   2.689  -0.625  1.00  0.00     0.202 C 
BRANCH  24  25
ATOM     25  O   UNL     1       7.234   1.669  -1.586  1.00  0.00    -0.374 OA
BRANCH  25  26
ATOM     26  C   UNL     1       6.340   0.651  -1.169  1.00  0.00     0.202 C 
BRANCH  26  27
ATOM     27  C   UNL     1       6.911  -0.448  -0.273  1.00  0.00     0.261 C 
BRANCH  27  28
ATOM     28  O   UNL     1       7.890   0.007   0.639  1.00  0.00    -0.460 OA
BRANCH  28  29
ATOM     29  C   UNL     1       9.118  -0.486   0.384  1.00  0.00     0.338 C 
ATOM     30  O   UNL     1       9.438  -1.344  -0.428  1.00  0.00    -0.246 OA
BRANCH  29  31
ATOM     31  C   UNL     1      10.067   0.347   1.104  1.00  0.00     0.060 A 
ATOM     32  C   UNL     1      10.933   1.121   0.329  1.00  0.00     0.016 A 
ATOM     33  C   UNL     1      10.096   0.365   2.500  1.00  0.00     0.016 A 
ATOM     34  C   UNL     1      11.892   1.888   0.962  1.00  0.00     0.010 A 
ATOM     35  C   UNL     1      11.063   1.136   3.134  1.00  0.00     0.010 A 
ATOM     36  C   UNL     1      11.984   1.861   2.360  1.00  0.00    -0.014 A 
BRANCH  36  37
ATOM     37  C   UNL     1      13.178   2.456   2.982  1.00  0.00     0.031 A 
ATOM     38  C   UNL     1      14.328   1.549   3.305  1.00  0.00     0.074 A 
ATOM     39  C   UNL     1      13.242   3.785   3.158  1.00  0.00     0.049 A 
ATOM     40  N   UNL     1      15.508   1.850   3.771  1.00  0.00    -0.248 NA
ATOM     41  C   UNL     1      14.122   0.109   3.066  1.00  0.00     0.031 C 
ATOM     42  C   UNL     1      12.170   4.729   2.839  1.00  0.00     0.029 A 
ATOM     43  N   UNL     1      14.255   4.569   3.634  1.00  0.00    -0.354 N 
ATOM     44  C   UNL     1      16.186   0.642   3.878  1.00  0.00     0.074 A 
ATOM     45  C   UNL     1      15.277  -0.401   3.465  1.00  0.00     0.031 C 
ATOM     46  C   UNL     1      12.587   5.973   3.128  1.00  0.00     0.029 A 
ATOM     47  C   UNL     1      13.943   5.906   3.666  1.00  0.00     0.049 A 
ATOM     48  H   UNL     1      15.124   4.211   3.925  1.00  0.00     0.167 HD
ATOM     49  C   UNL     1      17.462   0.433   4.274  1.00  0.00     0.037 A 
ATOM     50  C   UNL     1      14.679   6.949   4.092  1.00  0.00     0.037 A 
ATOM     51  C   UNL     1      18.342   1.493   4.684  1.00  0.00     0.049 A 
ATOM     52  C   UNL     1      16.083   6.685   4.565  1.00  0.00     0.074 A 
ATOM     53  C   UNL     1      19.657   1.410   5.102  1.00  0.00     0.029 A 
ATOM     54  N   UNL     1      17.986   2.835   4.733  1.00  0.00    -0.354 N 
ATOM     55  N   UNL     1      16.727   5.543   4.634  1.00  0.00    -0.248 NA
ATOM     56  C   UNL     1      16.864   7.846   5.007  1.00  0.00     0.031 C 
ATOM     57  C   UNL     1      20.081   2.698   5.446  1.00  0.00     0.029 A 
ATOM     58  C   UNL     1      19.048   3.590   5.194  1.00  0.00     0.049 A 
ATOM     59  H   UNL     1      17.106   3.195   4.477  1.00  0.00     0.167 HD
ATOM     60  C   UNL     1      17.997   5.849   5.107  1.00  0.00     0.074 A 
ATOM     61  C   UNL     1      18.032   7.287   5.293  1.00  0.00     0.031 C 
ATOM     62  C   UNL     1      19.043   5.022   5.364  1.00  0.00     0.037 A 
BRANCH  49  63
ATOM     63  C   UNL     1      17.955  -0.986   4.306  1.00  0.00     0.058 A 
ATOM     64  C   UNL     1      18.211  -1.708   3.129  1.00  0.00     0.135 A 
ATOM     65  C   UNL     1      18.183  -1.631   5.532  1.00  0.00     0.135 A 
ATOM     66  F   UNL     1      17.985  -1.149   1.930  1.00  0.00    -0.206 F 
ATOM     67  C   UNL     1      18.654  -3.027   3.167  1.00  0.00     0.059 A 
ATOM     68  C   UNL     1      18.650  -2.941   5.593  1.00  0.00     0.059 A 
ATOM     69  F   UNL     1      17.943  -0.991   6.687  1.00  0.00    -0.206 F 
ATOM     70  C   UNL     1      18.872  -3.634   4.405  1.00  0.00     0.060 A 
BRANCH  70  71
ATOM     71  S   UNL     1      19.460  -5.341   4.438  1.00  0.00     0.124 S 
ATOM     72  O   UNL     1      18.261  -6.071   4.038  1.00  0.00    -0.237 OA
ATOM     73  O   UNL     1      20.542  -5.317   3.460  1.00  0.00    -0.237 OA
ATOM     74  O   UNL     1      19.876  -5.530   5.824  1.00  0.00    -0.744 OA
ENDBRANCH  70  71
ENDBRANCH  49  63
BRANCH  50  75
ATOM     75  C   UNL     1      14.100   8.318   4.081  1.00  0.00     0.058 A 
ATOM     76  C   UNL     1      14.555   9.297   3.187  1.00  0.00     0.135 A 
ATOM     77  C   UNL     1      13.053   8.663   4.950  1.00  0.00     0.135 A 
ATOM     78  F   UNL     1      15.554   9.017   2.337  1.00  0.00    -0.206 F 
ATOM     79  C   UNL     1      14.002  10.575   3.163  1.00  0.00     0.059 A 
ATOM     80  C   UNL     1      12.468   9.925   4.929  1.00  0.00     0.059 A 
ATOM     81  F   UNL     1      12.568   7.756   5.813  1.00  0.00    -0.206 F 
ATOM     82  C   UNL     1      12.956  10.878   4.037  1.00  0.00     0.060 A 
BRANCH  82  83
ATOM     83  S   UNL     1      12.208  12.520   3.960  1.00  0.00     0.124 S 
ATOM     84  O   UNL     1      13.238  13.341   4.584  1.00  0.00    -0.237 OA
ATOM     85  O   UNL     1      12.023  12.706   2.524  1.00  0.00    -0.237 OA
ATOM     86  O   UNL     1      10.975  12.362   4.726  1.00  0.00    -0.744 OA
ENDBRANCH  82  83
ENDBRANCH  50  75
BRANCH  62  87
ATOM     87  C   UNL     1      20.313   5.659   5.846  1.00  0.00     0.058 A 
ATOM     88  C   UNL     1      20.437   6.154   7.153  1.00  0.00     0.135 A 
ATOM     89  C   UNL     1      21.437   5.720   5.007  1.00  0.00     0.135 A 
ATOM     90  F   UNL     1      19.388   6.122   7.990  1.00  0.00    -0.206 F 
ATOM     91  C   UNL     1      21.627   6.712   7.605  1.00  0.00     0.059 A 
ATOM     92  C   UNL     1      22.645   6.248   5.447  1.00  0.00     0.059 A 
ATOM     93  F   UNL     1      21.372   5.247   3.752  1.00  0.00    -0.206 F 
ATOM     94  C   UNL     1      22.726   6.753   6.744  1.00  0.00     0.060 A 
BRANCH  94  95
ATOM     95  S   UNL     1      24.275   7.452   7.352  1.00  0.00     0.124 S 
ATOM     96  O   UNL     1      23.979   8.880   7.331  1.00  0.00    -0.237 OA
ATOM     97  O   UNL     1      24.393   6.847   8.675  1.00  0.00    -0.237 OA
ATOM     98  O   UNL     1      25.259   6.999   6.372  1.00  0.00    -0.744 OA
ENDBRANCH  94  95
ENDBRANCH  62  87
ENDBRANCH  36  37
ENDBRANCH  29  31
ENDBRANCH  28  29
ENDBRANCH  27  28
ENDBRANCH  26  27
ENDBRANCH  25  26
ENDBRANCH  24  25
ENDBRANCH   1  24
TORSDOF 23
