REMARK SMILES Cc1csc(Sc2cncc(C(=O)OCCOCCOC(=O)c3ccc(-c4c5nc(c(-c6c(F)cc(S(=O)(=O)[O-])cc6F)c6ccc([nH]6)c(-c6c(F)cc(S(=O)(=O)[O-])cc6F)c6nc(c(-c7c(F)cc(S(=O)(=O)[O-])cc7F)c7ccc4[nH]7)C=C6)C=C5)cc3)n2)n1
REMARK SMILES IDX 18 1 17 2 16 3 15 4 14 5 12 6 13 7 11 8 7 9 8 10 89 11 9 12
REMARK SMILES IDX 10 13 6 14 5 15 1 16 2 17 3 18 90 19 4 20 19 21 20 22 21 23
REMARK SMILES IDX 22 24 23 25 24 26 88 27 25 28 87 29 26 30 27 31 28 32 81 33
REMARK SMILES IDX 29 34 86 35 80 36 82 37 30 38 85 39 79 40 78 41 31 43 65 44
REMARK SMILES IDX 44 45 64 46 45 47 48 48 63 49 83 50 46 51 47 52 62 54 84 55
REMARK SMILES IDX 49 56 32 57 33 58 42 59 34 60 35 61 41 62 43 63 36 64 37 65
REMARK SMILES IDX 38 66 39 67 40 68 66 69 67 70 76 71 68 72 69 73 75 74 77 75
REMARK SMILES IDX 70 76 71 77 72 78 73 79 74 80 50 81 51 82 60 83 52 84 53 85
REMARK SMILES IDX 59 86 61 87 54 88 55 89 56 90 57 91 58 92
REMARK H PARENT 82 42 48 53
REMARK Flexibility Score: inf
ROOT
ATOM      1  C   UNL     1       7.038   1.347   3.185  1.00  0.00     0.202 C 
ENDROOT
BRANCH   1   2
ATOM      2  O   UNL     1       7.947   2.309   3.722  1.00  0.00    -0.374 OA
BRANCH   2   3
ATOM      3  C   UNL     1       7.369   3.488   4.287  1.00  0.00     0.202 C 
BRANCH   3   4
ATOM      4  C   UNL     1       7.035   4.599   3.285  1.00  0.00     0.261 C 
BRANCH   4   5
ATOM      5  O   UNL     1       6.015   4.175   2.364  1.00  0.00    -0.458 OA
BRANCH   5   6
ATOM      6  C   UNL     1       6.427   3.950   1.093  1.00  0.00     0.358 C 
ATOM      7  O   UNL     1       7.534   4.192   0.631  1.00  0.00    -0.244 OA
BRANCH   6   8
ATOM      8  C   UNL     1       5.399   3.203   0.328  1.00  0.00     0.167 A 
ATOM      9  C   UNL     1       3.211   2.589  -0.091  1.00  0.00     0.122 A 
ATOM     10  C   UNL     1       3.667   1.813  -1.157  1.00  0.00     0.147 A 
ATOM     11  N   UNL     1       4.086   3.294   0.674  1.00  0.00    -0.231 NA
ATOM     12  N   UNL     1       4.981   1.673  -1.476  1.00  0.00    -0.259 NA
ATOM     13  C   UNL     1       5.835   2.398  -0.714  1.00  0.00     0.147 A 
BRANCH   9  14
ATOM     14  S   UNL     1       1.496   2.875   0.246  1.00  0.00    -0.038 SA
BRANCH  14  15
ATOM     15  C   UNL     1       0.758   1.286   0.200  1.00  0.00     0.156 A 
ATOM     16  C   UNL     1      -2.423  -0.381  -0.111  1.00  0.00     0.067 C 
ATOM     17  C   UNL     1      -0.971  -0.108   0.049  1.00  0.00     0.050 A 
ATOM     18  C   UNL     1       0.024  -1.024   0.327  1.00  0.00     0.091 A 
ATOM     19  N   UNL     1      -0.530   1.200  -0.062  1.00  0.00    -0.235 NA
ATOM     20  S   UNL     1       1.517  -0.212   0.558  1.00  0.00    -0.116 S 
ENDBRANCH  14  15
ENDBRANCH   9  14
ENDBRANCH   6   8
ENDBRANCH   5   6
ENDBRANCH   4   5
ENDBRANCH   3   4
ENDBRANCH   2   3
ENDBRANCH   1   2
BRANCH   1  21
ATOM     21  C   UNL     1       6.389   0.395   4.195  1.00  0.00     0.261 C 
BRANCH  21  22
ATOM     22  O   UNL     1       5.503   1.092   5.088  1.00  0.00    -0.460 OA
BRANCH  22  23
ATOM     23  C   UNL     1       5.945   1.180   6.364  1.00  0.00     0.338 C 
ATOM     24  O   UNL     1       6.939   0.642   6.835  1.00  0.00    -0.246 OA
BRANCH  23  25
ATOM     25  C   UNL     1       5.154   2.172   7.116  1.00  0.00     0.060 A 
ATOM     26  C   UNL     1       5.865   3.111   7.873  1.00  0.00     0.016 A 
ATOM     27  C   UNL     1       3.756   2.159   7.139  1.00  0.00     0.016 A 
ATOM     28  C   UNL     1       5.186   3.998   8.702  1.00  0.00     0.010 A 
ATOM     29  C   UNL     1       3.074   3.051   7.976  1.00  0.00     0.010 A 
ATOM     30  C   UNL     1       3.788   3.948   8.790  1.00  0.00    -0.014 A 
BRANCH  30  31
ATOM     31  C   UNL     1       3.109   4.760   9.831  1.00  0.00     0.031 A 
ATOM     32  C   UNL     1       2.691   4.109  11.121  1.00  0.00     0.074 A 
ATOM     33  C   UNL     1       2.935   6.082   9.655  1.00  0.00     0.049 A 
ATOM     34  N   UNL     1       2.157   4.648  12.187  1.00  0.00    -0.248 NA
ATOM     35  C   UNL     1       2.904   2.656  11.223  1.00  0.00     0.031 C 
ATOM     36  C   UNL     1       3.307   6.829   8.454  1.00  0.00     0.029 A 
ATOM     37  N   UNL     1       2.405   7.031  10.492  1.00  0.00    -0.354 N 
ATOM     38  C   UNL     1       1.981   3.607  13.091  1.00  0.00     0.074 A 
ATOM     39  C   UNL     1       2.422   2.396  12.430  1.00  0.00     0.031 C 
ATOM     40  C   UNL     1       2.991   8.123   8.631  1.00  0.00     0.029 A 
ATOM     41  C   UNL     1       2.383   8.293   9.950  1.00  0.00     0.049 A 
ATOM     42  H   UNL     1       2.073   6.827  11.396  1.00  0.00     0.167 HD
ATOM     43  C   UNL     1       1.512   3.655  14.361  1.00  0.00     0.037 A 
ATOM     44  C   UNL     1       1.921   9.453  10.457  1.00  0.00     0.037 A 
ATOM     45  C   UNL     1       1.059   4.858  15.012  1.00  0.00     0.049 A 
ATOM     46  C   UNL     1       1.374   9.480  11.859  1.00  0.00     0.074 A 
ATOM     47  C   UNL     1       0.568   5.013  16.297  1.00  0.00     0.029 A 
ATOM     48  N   UNL     1       1.036   6.115  14.425  1.00  0.00    -0.354 N 
ATOM     49  N   UNL     1       1.241   8.492  12.713  1.00  0.00    -0.248 NA
ATOM     50  C   UNL     1       0.930  10.783  12.373  1.00  0.00     0.031 C 
ATOM     51  C   UNL     1       0.211   6.356  16.473  1.00  0.00     0.029 A 
ATOM     52  C   UNL     1       0.524   7.048  15.314  1.00  0.00     0.049 A 
ATOM     53  H   UNL     1       1.338   6.316  13.509  1.00  0.00     0.167 HD
ATOM     54  C   UNL     1       0.713   9.056  13.869  1.00  0.00     0.074 A 
ATOM     55  C   UNL     1       0.572  10.475  13.612  1.00  0.00     0.031 C 
ATOM     56  C   UNL     1       0.374   8.455  15.039  1.00  0.00     0.037 A 
BRANCH  43  57
ATOM     57  C   UNL     1       1.451   2.358  15.122  1.00  0.00     0.058 A 
ATOM     58  C   UNL     1       2.615   1.714  15.572  1.00  0.00     0.135 A 
ATOM     59  C   UNL     1       0.217   1.755  15.412  1.00  0.00     0.135 A 
ATOM     60  F   UNL     1       3.823   2.238  15.307  1.00  0.00    -0.206 F 
ATOM     61  C   UNL     1       2.561   0.501  16.251  1.00  0.00     0.059 A 
ATOM     62  C   UNL     1       0.137   0.555  16.113  1.00  0.00     0.059 A 
ATOM     63  F   UNL     1      -0.927   2.327  15.006  1.00  0.00    -0.206 F 
ATOM     64  C   UNL     1       1.316  -0.074  16.512  1.00  0.00     0.060 A 
BRANCH  64  65
ATOM     65  S   UNL     1       1.259  -1.657  17.380  1.00  0.00     0.124 S 
ATOM     66  O   UNL     1       1.692  -2.577  16.333  1.00  0.00    -0.237 OA
ATOM     67  O   UNL     1       2.204  -1.450  18.472  1.00  0.00    -0.237 OA
ATOM     68  O   UNL     1      -0.140  -1.775  17.780  1.00  0.00    -0.744 OA
ENDBRANCH  64  65
ENDBRANCH  43  57
BRANCH  44  69
ATOM     69  C   UNL     1       1.965  10.685   9.628  1.00  0.00     0.058 A 
ATOM     70  C   UNL     1       2.861  11.725   9.910  1.00  0.00     0.135 A 
ATOM     71  C   UNL     1       1.120  10.832   8.516  1.00  0.00     0.135 A 
ATOM     72  F   UNL     1       3.681  11.635  10.968  1.00  0.00    -0.206 F 
ATOM     73  C   UNL     1       2.916  12.872   9.125  1.00  0.00     0.059 A 
ATOM     74  C   UNL     1       1.173  11.958   7.702  1.00  0.00     0.059 A 
ATOM     75  F   UNL     1       0.252   9.859   8.198  1.00  0.00    -0.206 F 
ATOM     76  C   UNL     1       2.071  12.977   8.018  1.00  0.00     0.060 A 
BRANCH  76  77
ATOM     77  S   UNL     1       2.199  14.436   6.962  1.00  0.00     0.124 S 
ATOM     78  O   UNL     1       1.545  15.450   7.780  1.00  0.00    -0.237 OA
ATOM     79  O   UNL     1       3.643  14.576   6.805  1.00  0.00    -0.237 OA
ATOM     80  O   UNL     1       1.481  14.039   5.754  1.00  0.00    -0.744 OA
ENDBRANCH  76  77
ENDBRANCH  44  69
BRANCH  56  81
ATOM     81  C   UNL     1      -0.167   9.339  16.130  1.00  0.00     0.058 A 
ATOM     82  C   UNL     1      -1.448   9.910  16.050  1.00  0.00     0.135 A 
ATOM     83  C   UNL     1       0.603   9.617  17.271  1.00  0.00     0.135 A 
ATOM     84  F   UNL     1      -2.225   9.678  14.980  1.00  0.00    -0.206 F 
ATOM     85  C   UNL     1      -1.928  10.761  17.041  1.00  0.00     0.059 A 
ATOM     86  C   UNL     1       0.132  10.443  18.287  1.00  0.00     0.059 A 
ATOM     87  F   UNL     1       1.828   9.086  17.407  1.00  0.00    -0.206 F 
ATOM     88  C   UNL     1      -1.127  11.028  18.152  1.00  0.00     0.060 A 
BRANCH  88  89
ATOM     89  S   UNL     1      -1.751  12.146  19.426  1.00  0.00     0.124 S 
ATOM     90  O   UNL     1      -1.562  13.446  18.792  1.00  0.00    -0.237 OA
ATOM     91  O   UNL     1      -3.136  11.710  19.577  1.00  0.00    -0.237 OA
ATOM     92  O   UNL     1      -0.887  11.871  20.570  1.00  0.00    -0.744 OA
ENDBRANCH  88  89
ENDBRANCH  56  81
ENDBRANCH  30  31
ENDBRANCH  23  25
ENDBRANCH  22  23
ENDBRANCH  21  22
ENDBRANCH   1  21
TORSDOF 19
