REMARK SMILES Cc1ccc(NC(=O)N2CCCC[C@@H]2C(=O)OCCOCCOC(=O)c2ccc(-c3c4nc(c(-c5c(F)cc(S(=O)(=O)[O-])cc5F)c5ccc([nH]5)c(-c5c(F)cc(S(=O)(=O)[O-])cc5F)c5nc(c(-c6c(F)cc(S(=O)(=O)[O-])cc6F)c6ccc3[nH]6)C=C5)C=C4)cc2)cc1
REMARK SMILES IDX 21 1 20 2 19 3 18 4 17 5 15 6 16 7 14 8 9 9 10 10 11 11
REMARK SMILES IDX 13 12 12 13 7 14 6 15 8 17 5 18 1 19 2 20 3 21 93 22 4 23
REMARK SMILES IDX 92 24 22 25 23 26 24 27 25 28 26 29 27 30 91 31 28 32 90 33
REMARK SMILES IDX 29 34 30 35 31 36 84 37 32 38 89 39 83 40 85 41 33 42 88 43
REMARK SMILES IDX 82 44 81 45 34 47 68 48 47 49 67 50 48 51 51 52 66 53 86 54
REMARK SMILES IDX 49 55 50 56 65 58 87 59 52 60 35 61 36 62 45 63 37 64 38 65
REMARK SMILES IDX 44 66 46 67 39 68 40 69 41 70 42 71 43 72 69 73 70 74 79 75
REMARK SMILES IDX 71 76 72 77 78 78 80 79 73 80 74 81 75 82 76 83 77 84 53 85
REMARK SMILES IDX 54 86 63 87 55 88 56 89 62 90 64 91 57 92 58 93 59 94 60 95
REMARK SMILES IDX 61 96
REMARK H PARENT 6 16 85 46 51 57
REMARK Flexibility Score: inf
ROOT
ATOM      1  C   UNL     1      -1.952  -3.497   4.782  1.00  0.00     0.202 C 
ENDROOT
BRANCH   1   2
ATOM      2  O   UNL     1      -0.619  -3.266   4.183  1.00  0.00    -0.374 OA
BRANCH   2   3
ATOM      3  C   UNL     1      -0.177  -2.075   3.444  1.00  0.00     0.202 C 
BRANCH   3   4
ATOM      4  C   UNL     1      -1.066  -1.240   2.477  1.00  0.00     0.261 C 
BRANCH   4   5
ATOM      5  O   UNL     1      -1.754  -1.908   1.435  1.00  0.00    -0.462 OA
BRANCH   5   6
ATOM      6  C   UNL     1      -0.925  -2.575   0.613  1.00  0.00     0.329 C 
ATOM      7  O   UNL     1       0.294  -2.645   0.733  1.00  0.00    -0.250 OA
BRANCH   6   8
ATOM      8  C   UNL     1      -1.679  -3.517  -0.294  1.00  0.00     0.196 C 
ATOM      9  N   UNL     1      -2.790  -3.158  -1.210  1.00  0.00    -0.311 N 
ATOM     10  C   UNL     1      -3.501  -4.323  -1.760  1.00  0.00     0.122 C 
ATOM     11  C   UNL     1      -3.862  -5.423  -0.764  1.00  0.00     0.022 C 
ATOM     12  C   UNL     1      -2.184  -4.535   0.773  1.00  0.00     0.037 C 
ATOM     13  C   UNL     1      -2.694  -5.794   0.125  1.00  0.00     0.005 C 
BRANCH   9  14
ATOM     14  C   UNL     1      -2.997  -1.998  -1.938  1.00  0.00     0.322 C 
ATOM     15  N   UNL     1      -2.289  -0.862  -1.772  1.00  0.00    -0.308 N 
ATOM     16  H   UNL     1      -2.862  -0.062  -1.786  1.00  0.00     0.171 HD
ATOM     17  O   UNL     1      -3.965  -1.903  -2.705  1.00  0.00    -0.248 OA
BRANCH  15  18
ATOM     18  C   UNL     1      -0.945  -0.542  -1.587  1.00  0.00     0.042 A 
ATOM     19  C   UNL     1       3.006   0.322  -0.193  1.00  0.00     0.044 C 
ATOM     20  C   UNL     1       1.671   0.103  -0.836  1.00  0.00    -0.051 A 
ATOM     21  C   UNL     1       1.397  -1.085  -1.527  1.00  0.00     0.005 A 
ATOM     22  C   UNL     1       0.644   1.025  -0.642  1.00  0.00     0.005 A 
ATOM     23  C   UNL     1       0.093  -1.399  -1.921  1.00  0.00     0.026 A 
ATOM     24  C   UNL     1      -0.651   0.714  -1.047  1.00  0.00     0.026 A 
ENDBRANCH  15  18
ENDBRANCH   9  14
ENDBRANCH   6   8
ENDBRANCH   5   6
ENDBRANCH   4   5
ENDBRANCH   3   4
ENDBRANCH   2   3
ENDBRANCH   1   2
BRANCH   1  25
ATOM     25  C   UNL     1      -2.809  -3.031   6.382  1.00  0.00     0.261 C 
BRANCH  25  26
ATOM     26  O   UNL     1      -3.904  -1.738   6.973  1.00  0.00    -0.460 OA
BRANCH  26  27
ATOM     27  C   UNL     1      -4.543  -0.394   7.294  1.00  0.00     0.338 C 
ATOM     28  O   UNL     1      -5.553  -0.505   8.017  1.00  0.00    -0.246 OA
BRANCH  27  29
ATOM     29  C   UNL     1      -4.371   1.298   6.734  1.00  0.00     0.060 A 
ATOM     30  C   UNL     1      -5.464   1.922   6.091  1.00  0.00     0.016 A 
ATOM     31  C   UNL     1      -3.209   2.055   6.427  1.00  0.00     0.016 A 
ATOM     32  C   UNL     1      -5.281   2.663   4.812  1.00  0.00     0.010 A 
ATOM     33  C   UNL     1      -3.002   2.703   5.131  1.00  0.00     0.010 A 
ATOM     34  C   UNL     1      -4.015   2.780   4.180  1.00  0.00    -0.014 A 
BRANCH  34  35
ATOM     35  C   UNL     1      -3.767   2.594   2.640  1.00  0.00     0.031 A 
ATOM     36  C   UNL     1      -3.123   3.614   1.765  1.00  0.00     0.074 A 
ATOM     37  C   UNL     1      -3.918   1.473   1.844  1.00  0.00     0.049 A 
ATOM     38  N   UNL     1      -3.682   4.133   0.709  1.00  0.00    -0.248 NA
ATOM     39  C   UNL     1      -1.673   3.784   1.814  1.00  0.00     0.031 C 
ATOM     40  C   UNL     1      -3.890   1.323   0.375  1.00  0.00     0.029 A 
ATOM     41  N   UNL     1      -4.286   0.181   2.139  1.00  0.00    -0.354 N 
ATOM     42  C   UNL     1      -2.653   4.431  -0.184  1.00  0.00     0.074 A 
ATOM     43  C   UNL     1      -1.430   4.296   0.600  1.00  0.00     0.031 C 
ATOM     44  C   UNL     1      -4.646   0.276  -0.010  1.00  0.00     0.029 A 
ATOM     45  C   UNL     1      -5.160  -0.339   1.175  1.00  0.00     0.049 A 
ATOM     46  H   UNL     1      -3.974  -0.317   2.929  1.00  0.00     0.167 HD
ATOM     47  C   UNL     1      -2.813   4.448  -1.555  1.00  0.00     0.037 A 
ATOM     48  C   UNL     1      -6.437  -0.671   1.530  1.00  0.00     0.037 A 
ATOM     49  C   UNL     1      -4.021   3.719  -2.020  1.00  0.00     0.049 A 
ATOM     50  C   UNL     1      -7.375   0.380   0.881  1.00  0.00     0.074 A 
ATOM     51  C   UNL     1      -4.261   2.693  -2.932  1.00  0.00     0.029 A 
ATOM     52  N   UNL     1      -5.222   3.858  -1.343  1.00  0.00    -0.354 N 
ATOM     53  N   UNL     1      -7.064   1.025  -0.218  1.00  0.00    -0.248 NA
ATOM     54  C   UNL     1      -8.654   0.875   1.409  1.00  0.00     0.031 C 
ATOM     55  C   UNL     1      -5.626   2.287  -2.836  1.00  0.00     0.029 A 
ATOM     56  C   UNL     1      -6.219   3.044  -1.847  1.00  0.00     0.049 A 
ATOM     57  H   UNL     1      -5.351   4.471  -0.584  1.00  0.00     0.167 HD
ATOM     58  C   UNL     1      -7.875   2.123  -0.390  1.00  0.00     0.074 A 
ATOM     59  C   UNL     1      -8.926   1.918   0.591  1.00  0.00     0.031 C 
ATOM     60  C   UNL     1      -7.552   3.140  -1.258  1.00  0.00     0.037 A 
BRANCH  47  61
ATOM     61  C   UNL     1      -1.746   4.965  -2.541  1.00  0.00     0.058 A 
ATOM     62  C   UNL     1      -1.874   4.829  -3.947  1.00  0.00     0.135 A 
ATOM     63  C   UNL     1      -0.627   5.739  -2.156  1.00  0.00     0.135 A 
ATOM     64  F   UNL     1      -2.956   4.276  -4.509  1.00  0.00    -0.206 F 
ATOM     65  C   UNL     1      -0.932   5.315  -4.865  1.00  0.00     0.059 A 
ATOM     66  C   UNL     1       0.352   6.195  -3.048  1.00  0.00     0.059 A 
ATOM     67  F   UNL     1      -0.473   6.167  -0.896  1.00  0.00    -0.206 F 
ATOM     68  C   UNL     1       0.193   5.981  -4.407  1.00  0.00     0.060 A 
BRANCH  68  69
ATOM     69  S   UNL     1       1.386   6.625  -5.596  1.00  0.00     0.124 S 
ATOM     70  O   UNL     1       1.739   5.432  -6.360  1.00  0.00    -0.237 OA
ATOM     71  O   UNL     1       0.599   7.625  -6.309  1.00  0.00    -0.237 OA
ATOM     72  O   UNL     1       2.454   7.157  -4.752  1.00  0.00    -0.744 OA
ENDBRANCH  68  69
ENDBRANCH  47  61
BRANCH  48  73
ATOM     73  C   UNL     1      -6.397  -1.254   2.965  1.00  0.00     0.058 A 
ATOM     74  C   UNL     1      -5.631  -2.409   3.210  1.00  0.00     0.135 A 
ATOM     75  C   UNL     1      -6.159  -0.328   3.941  1.00  0.00     0.135 A 
ATOM     76  F   UNL     1      -5.935  -3.542   2.553  1.00  0.00    -0.206 F 
ATOM     77  C   UNL     1      -4.459  -2.438   4.076  1.00  0.00     0.059 A 
ATOM     78  C   UNL     1      -4.842  -0.300   4.513  1.00  0.00     0.059 A 
ATOM     79  F   UNL     1      -6.926   0.769   3.956  1.00  0.00    -0.206 F 
ATOM     80  C   UNL     1      -3.874  -1.263   4.579  1.00  0.00     0.060 A 
BRANCH  80  81
ATOM     81  S   UNL     1      -2.010  -0.550   5.505  1.00  0.00     0.124 S 
ATOM     82  O   UNL     1      -1.048  -1.596   5.696  1.00  0.00    -0.237 OA
ATOM     83  O   UNL     1      -1.585   0.482   4.566  1.00  0.00    -0.237 OA
ATOM     84  O   UNL     1      -2.258  -0.106   6.861  1.00  0.00    -0.744 OA
ENDBRANCH  80  81
ENDBRANCH  48  73
BRANCH  60  85
ATOM     85  C   UNL     1      -8.383   4.369  -1.623  1.00  0.00     0.058 A 
ATOM     86  C   UNL     1      -9.782   4.351  -1.736  1.00  0.00     0.135 A 
ATOM     87  C   UNL     1      -7.774   5.584  -2.052  1.00  0.00     0.135 A 
ATOM     88  F   UNL     1     -10.477   3.237  -1.460  1.00  0.00    -0.206 F 
ATOM     89  C   UNL     1     -10.518   5.465  -2.177  1.00  0.00     0.059 A 
ATOM     90  C   UNL     1      -8.479   6.686  -2.526  1.00  0.00     0.059 A 
ATOM     91  F   UNL     1      -6.450   5.773  -2.024  1.00  0.00    -0.206 F 
ATOM     92  C   UNL     1      -9.857   6.633  -2.559  1.00  0.00     0.060 A 
BRANCH  92  93
ATOM     93  S   UNL     1     -10.793   8.075  -3.103  1.00  0.00     0.124 S 
ATOM     94  O   UNL     1     -11.783   7.489  -4.002  1.00  0.00    -0.237 OA
ATOM     95  O   UNL     1     -11.310   8.581  -1.835  1.00  0.00    -0.237 OA
ATOM     96  O   UNL     1      -9.790   8.917  -3.749  1.00  0.00    -0.744 OA
ENDBRANCH  92  93
ENDBRANCH  60  85
ENDBRANCH  34  35
ENDBRANCH  27  29
ENDBRANCH  26  27
ENDBRANCH  25  26
ENDBRANCH   1  25
TORSDOF 19
