REMARK SMILES CN1C(=O)CC[C@H]([NH2+]Cc2ccc(C(=O)OCCOCCOC(=O)c3ccc(-c4c5nc(c(-c6c(F)cc(S(=O)(=O)[O-])cc6F)c6ccc([nH]6)c(-c6c(F)cc(S(=O)(=O)[O-])cc6F)c6nc(c(-c7c(F)cc(S(=O)(=O)[O-])cc7F)c7ccc4[nH]7)C=C6)C=C5)cc3)cn2)C1=O
REMARK SMILES IDX 19 1 18 2 17 3 16 4 14 5 15 6 13 7 10 8 11 9 92 10 12 11
REMARK SMILES IDX 91 12 9 13 8 14 7 17 1 18 2 19 3 20 93 21 4 22 5 23 94 24
REMARK SMILES IDX 6 25 20 26 21 27 22 28 23 29 24 30 25 31 26 32 90 33 27 34
REMARK SMILES IDX 89 35 28 36 29 37 30 38 83 39 31 40 88 41 82 42 84 43 32 44
REMARK SMILES IDX 87 45 81 46 80 47 33 49 67 50 46 51 66 52 47 53 50 54 65 55
REMARK SMILES IDX 85 56 48 57 49 58 64 60 86 61 51 62 34 63 35 64 44 65 36 66
REMARK SMILES IDX 37 67 43 68 45 69 38 70 39 71 40 72 41 73 42 74 68 75 69 76
REMARK SMILES IDX 78 77 70 78 71 79 77 80 79 81 72 82 73 83 74 84 75 85 76 86
REMARK SMILES IDX 52 87 53 88 62 89 54 90 55 91 61 92 63 93 56 94 57 95 58 96
REMARK SMILES IDX 59 97 60 98
REMARK H PARENT 8 15 8 16 84 48 50 59
REMARK Flexibility Score: inf
ROOT
ATOM      1  O   UNL     1       5.025 -10.231   6.782  1.00  0.00    -0.374 OA
ENDROOT
BRANCH   1   2
ATOM      2  C   UNL     1       6.421 -10.212   6.485  1.00  0.00     0.202 C 
BRANCH   2   3
ATOM      3  C   UNL     1       6.819 -10.037   5.016  1.00  0.00     0.261 C 
BRANCH   3   4
ATOM      4  O   UNL     1       6.331  -8.798   4.483  1.00  0.00    -0.460 OA
BRANCH   4   5
ATOM      5  C   UNL     1       5.286  -8.912   3.631  1.00  0.00     0.339 C 
ATOM      6  O   UNL     1       4.819  -9.946   3.171  1.00  0.00    -0.246 OA
BRANCH   5   7
ATOM      7  C   UNL     1       4.649  -7.600   3.436  1.00  0.00     0.078 A 
ATOM      8  C   UNL     1       3.266  -5.271   2.983  1.00  0.00     0.094 A 
ATOM      9  C   UNL     1       4.625  -5.205   3.306  1.00  0.00     0.031 A 
ATOM     10  N   UNL     1       2.581  -6.445   2.921  1.00  0.00    -0.254 NA
ATOM     11  C   UNL     1       5.325  -6.386   3.543  1.00  0.00     0.019 A 
ATOM     12  C   UNL     1       3.289  -7.577   3.152  1.00  0.00     0.127 A 
BRANCH   8  13
ATOM     13  C   UNL     1       2.575  -4.026   2.452  1.00  0.00     0.318 C 
BRANCH  13  14
ATOM     14  N   UNL     1       1.142  -3.966   2.757  1.00  0.00    -0.331 N 
ATOM     15  H   UNL     1       0.767  -4.912   2.683  1.00  0.00     0.347 HD
ATOM     16  H   UNL     1       1.077  -3.563   3.692  1.00  0.00     0.347 HD
BRANCH  14  17
ATOM     17  C   UNL     1       0.328  -3.085   1.884  1.00  0.00     0.274 C 
ATOM     18  C   UNL     1       0.941   0.348   0.281  1.00  0.00     0.156 C 
ATOM     19  N   UNL     1       0.299  -0.707   1.050  1.00  0.00    -0.281 N 
ATOM     20  C   UNL     1      -0.987  -0.473   1.519  1.00  0.00     0.229 C 
ATOM     21  C   UNL     1       1.054  -1.863   1.262  1.00  0.00     0.287 C 
ATOM     22  O   UNL     1      -1.540   0.626   1.472  1.00  0.00    -0.274 OA
ATOM     23  C   UNL     1      -1.743  -1.676   2.016  1.00  0.00     0.107 C 
ATOM     24  O   UNL     1       2.219  -1.921   0.856  1.00  0.00    -0.267 OA
ATOM     25  C   UNL     1      -0.852  -2.651   2.748  1.00  0.00     0.085 C 
ENDBRANCH  14  17
ENDBRANCH  13  14
ENDBRANCH   8  13
ENDBRANCH   5   7
ENDBRANCH   4   5
ENDBRANCH   3   4
ENDBRANCH   2   3
ENDBRANCH   1   2
BRANCH   1  26
ATOM     26  C   UNL     1       4.345  -8.978   6.861  1.00  0.00     0.202 C 
BRANCH  26  27
ATOM     27  C   UNL     1       4.565  -8.121   8.114  1.00  0.00     0.261 C 
BRANCH  27  28
ATOM     28  O   UNL     1       5.916  -7.640   8.222  1.00  0.00    -0.460 OA
BRANCH  28  29
ATOM     29  C   UNL     1       6.650  -8.248   9.185  1.00  0.00     0.338 C 
ATOM     30  O   UNL     1       6.269  -9.098   9.975  1.00  0.00    -0.246 OA
BRANCH  29  31
ATOM     31  C   UNL     1       8.071  -7.883   9.041  1.00  0.00     0.060 A 
ATOM     32  C   UNL     1       9.002  -8.929   8.973  1.00  0.00     0.016 A 
ATOM     33  C   UNL     1       8.495  -6.553   9.062  1.00  0.00     0.016 A 
ATOM     34  C   UNL     1      10.365  -8.650   8.996  1.00  0.00     0.010 A 
ATOM     35  C   UNL     1       9.865  -6.276   9.089  1.00  0.00     0.010 A 
ATOM     36  C   UNL     1      10.804  -7.325   9.105  1.00  0.00    -0.014 A 
BRANCH  36  37
ATOM     37  C   UNL     1      12.229  -7.053   9.417  1.00  0.00     0.031 A 
ATOM     38  C   UNL     1      12.604  -6.701  10.833  1.00  0.00     0.074 A 
ATOM     39  C   UNL     1      13.176  -7.151   8.468  1.00  0.00     0.049 A 
ATOM     40  N   UNL     1      13.772  -6.388  11.329  1.00  0.00    -0.248 NA
ATOM     41  C   UNL     1      11.511  -6.699  11.820  1.00  0.00     0.031 C 
ATOM     42  C   UNL     1      12.940  -7.524   7.074  1.00  0.00     0.029 A 
ATOM     43  N   UNL     1      14.530  -6.939   8.536  1.00  0.00    -0.354 N 
ATOM     44  C   UNL     1      13.555  -6.139  12.680  1.00  0.00     0.074 A 
ATOM     45  C   UNL     1      12.138  -6.304  12.918  1.00  0.00     0.031 C 
ATOM     46  C   UNL     1      14.111  -7.505   6.414  1.00  0.00     0.029 A 
ATOM     47  C   UNL     1      15.172  -7.087   7.330  1.00  0.00     0.049 A 
ATOM     48  H   UNL     1      14.998  -6.704   9.370  1.00  0.00     0.167 HD
ATOM     49  C   UNL     1      14.457  -5.813  13.636  1.00  0.00     0.037 A 
ATOM     50  C   UNL     1      16.463  -6.888   7.000  1.00  0.00     0.037 A 
ATOM     51  C   UNL     1      15.867  -5.656  13.391  1.00  0.00     0.049 A 
ATOM     52  C   UNL     1      17.441  -6.472   8.069  1.00  0.00     0.074 A 
ATOM     53  C   UNL     1      16.868  -5.340  14.293  1.00  0.00     0.029 A 
ATOM     54  N   UNL     1      16.477  -5.799  12.152  1.00  0.00    -0.354 N 
ATOM     55  N   UNL     1      17.226  -6.252   9.345  1.00  0.00    -0.248 NA
ATOM     56  C   UNL     1      18.839  -6.288   7.657  1.00  0.00     0.031 C 
ATOM     57  C   UNL     1      18.074  -5.240  13.591  1.00  0.00     0.029 A 
ATOM     58  C   UNL     1      17.837  -5.559  12.263  1.00  0.00     0.049 A 
ATOM     59  H   UNL     1      16.012  -6.037  11.318  1.00  0.00     0.167 HD
ATOM     60  C   UNL     1      18.467  -5.944   9.894  1.00  0.00     0.074 A 
ATOM     61  C   UNL     1      19.427  -6.009   8.812  1.00  0.00     0.031 C 
ATOM     62  C   UNL     1      18.784  -5.642  11.178  1.00  0.00     0.037 A 
BRANCH  49  63
ATOM     63  C   UNL     1      13.941  -5.575  15.030  1.00  0.00     0.058 A 
ATOM     64  C   UNL     1      13.449  -6.619  15.830  1.00  0.00     0.135 A 
ATOM     65  C   UNL     1      13.963  -4.284  15.584  1.00  0.00     0.135 A 
ATOM     66  F   UNL     1      13.386  -7.870  15.345  1.00  0.00    -0.206 F 
ATOM     67  C   UNL     1      12.970  -6.388  17.116  1.00  0.00     0.059 A 
ATOM     68  C   UNL     1      13.519  -4.035  16.879  1.00  0.00     0.059 A 
ATOM     69  F   UNL     1      14.421  -3.247  14.865  1.00  0.00    -0.206 F 
ATOM     70  C   UNL     1      13.009  -5.092  17.632  1.00  0.00     0.060 A 
BRANCH  70  71
ATOM     71  S   UNL     1      12.386  -4.809  19.302  1.00  0.00     0.124 S 
ATOM     72  O   UNL     1      10.947  -4.962  19.106  1.00  0.00    -0.237 OA
ATOM     73  O   UNL     1      13.038  -5.870  20.062  1.00  0.00    -0.237 OA
ATOM     74  O   UNL     1      12.835  -3.455  19.609  1.00  0.00    -0.744 OA
ENDBRANCH  70  71
ENDBRANCH  49  63
BRANCH  50  75
ATOM     75  C   UNL     1      16.908  -7.079   5.593  1.00  0.00     0.058 A 
ATOM     76  C   UNL     1      17.756  -8.137   5.235  1.00  0.00     0.135 A 
ATOM     77  C   UNL     1      16.489  -6.206   4.575  1.00  0.00     0.135 A 
ATOM     78  F   UNL     1      18.192  -8.992   6.173  1.00  0.00    -0.206 F 
ATOM     79  C   UNL     1      18.187  -8.316   3.925  1.00  0.00     0.059 A 
ATOM     80  C   UNL     1      16.883  -6.381   3.253  1.00  0.00     0.059 A 
ATOM     81  F   UNL     1      15.667  -5.184   4.862  1.00  0.00    -0.206 F 
ATOM     82  C   UNL     1      17.741  -7.434   2.939  1.00  0.00     0.060 A 
BRANCH  82  83
ATOM     83  S   UNL     1      18.265  -7.705   1.232  1.00  0.00     0.124 S 
ATOM     84  O   UNL     1      19.669  -7.318   1.290  1.00  0.00    -0.237 OA
ATOM     85  O   UNL     1      18.000  -9.130   1.056  1.00  0.00    -0.237 OA
ATOM     86  O   UNL     1      17.395  -6.815   0.469  1.00  0.00    -0.744 OA
ENDBRANCH  82  83
ENDBRANCH  50  75
BRANCH  62  87
ATOM     87  C   UNL     1      20.238  -5.422  11.504  1.00  0.00     0.058 A 
ATOM     88  C   UNL     1      20.936  -4.281  11.077  1.00  0.00     0.135 A 
ATOM     89  C   UNL     1      20.930  -6.351  12.300  1.00  0.00     0.135 A 
ATOM     90  F   UNL     1      20.325  -3.362  10.312  1.00  0.00    -0.206 F 
ATOM     91  C   UNL     1      22.276  -4.086  11.399  1.00  0.00     0.059 A 
ATOM     92  C   UNL     1      22.260  -6.160  12.661  1.00  0.00     0.059 A 
ATOM     93  F   UNL     1      20.308  -7.454  12.748  1.00  0.00    -0.206 F 
ATOM     94  C   UNL     1      22.929  -5.032  12.192  1.00  0.00     0.060 A 
BRANCH  94  95
ATOM     95  S   UNL     1      24.662  -4.757  12.619  1.00  0.00     0.124 S 
ATOM     96  O   UNL     1      25.325  -5.036  11.349  1.00  0.00    -0.237 OA
ATOM     97  O   UNL     1      24.662  -3.360  13.041  1.00  0.00    -0.237 OA
ATOM     98  O   UNL     1      24.908  -5.727  13.682  1.00  0.00    -0.744 OA
ENDBRANCH  94  95
ENDBRANCH  62  87
ENDBRANCH  36  37
ENDBRANCH  29  31
ENDBRANCH  28  29
ENDBRANCH  27  28
ENDBRANCH  26  27
ENDBRANCH   1  26
TORSDOF 20
