REMARK SMILES COc1cc(Nc2cn[nH]c(=O)n2)c(C(=O)OCCOCCOC(=O)c2ccc(-c3c4nc(c(-c5c(F)cc(S(=O)(=O)[O-])cc5F)c5ccc([nH]5)c(-c5c(F)cc(S(=O)(=O)[O-])cc5F)c5nc(c(-c6c(F)cc(S(=O)(=O)[O-])cc6F)c6ccc3[nH]6)C=C5)C=C4)cc2)cc1OC
REMARK SMILES IDX 21 1 20 2 19 3 18 4 17 5 15 6 16 7 14 8 3 9 4 10 93 11 5 12
REMARK SMILES IDX 92 13 2 14 1 15 94 16 95 17 6 18 7 20 8 21 13 22 9 23 11 24
REMARK SMILES IDX 10 25 12 26 22 28 23 29 24 30 25 31 26 32 27 33 91 34 28 35
REMARK SMILES IDX 90 36 29 37 30 38 31 39 84 40 32 41 89 42 83 43 85 44 33 45
REMARK SMILES IDX 88 46 82 47 81 48 34 50 68 51 47 52 67 53 48 54 51 55 66 56
REMARK SMILES IDX 86 57 49 58 50 59 65 61 87 62 52 63 35 64 36 65 45 66 37 67
REMARK SMILES IDX 38 68 44 69 46 70 39 71 40 72 41 73 42 74 43 75 69 76 70 77
REMARK SMILES IDX 79 78 71 79 72 80 78 81 80 82 73 83 74 84 75 85 76 86 77 87
REMARK SMILES IDX 53 88 54 89 63 90 55 91 56 92 62 93 64 94 57 95 58 96 59 97
REMARK SMILES IDX 60 98 61 99
REMARK H PARENT 6 19 10 27 85 49 51 60
REMARK Flexibility Score: inf
ROOT
ATOM      1  C   UNL     1       2.422   7.802   0.450  1.00  0.00     0.202 C 
ENDROOT
BRANCH   1   2
ATOM      2  O   UNL     1       2.432   8.611   1.629  1.00  0.00    -0.374 OA
BRANCH   2   3
ATOM      3  C   UNL     1       3.449   8.296   2.587  1.00  0.00     0.202 C 
BRANCH   3   4
ATOM      4  C   UNL     1       3.000   7.293   3.652  1.00  0.00     0.261 C 
BRANCH   4   5
ATOM      5  O   UNL     1       2.808   5.996   3.060  1.00  0.00    -0.460 OA
BRANCH   5   6
ATOM      6  C   UNL     1       1.521   5.649   2.837  1.00  0.00     0.340 C 
ATOM      7  O   UNL     1       0.528   6.268   3.195  1.00  0.00    -0.246 OA
BRANCH   6   8
ATOM      8  C   UNL     1       1.430   4.484   1.916  1.00  0.00     0.087 A 
ATOM      9  C   UNL     1       1.226   2.279   0.216  1.00  0.00     0.162 A 
ATOM     10  C   UNL     1       0.193   3.231   0.267  1.00  0.00     0.077 A 
ATOM     11  C   UNL     1       2.396   2.458   0.960  1.00  0.00     0.161 A 
ATOM     12  C   UNL     1       0.271   4.343   1.117  1.00  0.00     0.058 A 
ATOM     13  C   UNL     1       2.482   3.562   1.817  1.00  0.00     0.068 A 
BRANCH   9  14
ATOM     14  O   UNL     1       1.078   1.223  -0.645  1.00  0.00    -0.493 OA
ATOM     15  C   UNL     1       0.107   0.295  -0.152  1.00  0.00     0.278 C 
ENDBRANCH   9  14
BRANCH  11  16
ATOM     16  O   UNL     1       3.528   1.693   0.970  1.00  0.00    -0.493 OA
ATOM     17  C   UNL     1       3.506   0.422   0.338  1.00  0.00     0.278 C 
ENDBRANCH  11  16
BRANCH  12  18
ATOM     18  N   UNL     1      -0.695   5.375   1.075  1.00  0.00    -0.338 N 
ATOM     19  H   UNL     1      -0.471   6.201   1.562  1.00  0.00     0.168 HD
BRANCH  18  20
ATOM     20  C   UNL     1      -1.904   5.359   0.435  1.00  0.00     0.156 A 
ATOM     21  C   UNL     1      -2.090   6.382  -0.659  1.00  0.00     0.180 A 
ATOM     22  N   UNL     1      -2.868   4.550   0.743  1.00  0.00    -0.173 NA
ATOM     23  N   UNL     1      -3.207   6.507  -1.295  1.00  0.00    -0.176 NA
ATOM     24  C   UNL     1      -4.064   4.687   0.094  1.00  0.00     0.363 A 
ATOM     25  N   UNL     1      -4.183   5.648  -0.889  1.00  0.00    -0.227 N 
ATOM     26  O   UNL     1      -5.042   3.987   0.363  1.00  0.00    -0.244 OA
ATOM     27  H   UNL     1      -5.056   5.719  -1.339  1.00  0.00     0.195 HD
ENDBRANCH  18  20
ENDBRANCH  12  18
ENDBRANCH   6   8
ENDBRANCH   5   6
ENDBRANCH   4   5
ENDBRANCH   3   4
ENDBRANCH   2   3
ENDBRANCH   1   2
BRANCH   1  28
ATOM     28  C   UNL     1       3.359   8.284  -0.662  1.00  0.00     0.261 C 
BRANCH  28  29
ATOM     29  O   UNL     1       4.730   8.020  -0.318  1.00  0.00    -0.460 OA
BRANCH  29  30
ATOM     30  C   UNL     1       5.452   9.111   0.033  1.00  0.00     0.338 C 
ATOM     31  O   UNL     1       5.094  10.276  -0.029  1.00  0.00    -0.246 OA
BRANCH  30  32
ATOM     32  C   UNL     1       6.711   8.692   0.687  1.00  0.00     0.060 A 
ATOM     33  C   UNL     1       7.120   9.419   1.812  1.00  0.00     0.016 A 
ATOM     34  C   UNL     1       7.494   7.640   0.204  1.00  0.00     0.016 A 
ATOM     35  C   UNL     1       8.338   9.133   2.425  1.00  0.00     0.010 A 
ATOM     36  C   UNL     1       8.721   7.358   0.817  1.00  0.00     0.010 A 
ATOM     37  C   UNL     1       9.164   8.127   1.907  1.00  0.00    -0.014 A 
BRANCH  37  38
ATOM     38  C   UNL     1      10.547   7.984   2.421  1.00  0.00     0.031 A 
ATOM     39  C   UNL     1      11.674   8.629   1.659  1.00  0.00     0.074 A 
ATOM     40  C   UNL     1      10.794   7.314   3.561  1.00  0.00     0.049 A 
ATOM     41  N   UNL     1      12.956   8.621   1.914  1.00  0.00    -0.248 NA
ATOM     42  C   UNL     1      11.307   9.382   0.447  1.00  0.00     0.031 C 
ATOM     43  C   UNL     1       9.785   6.662   4.395  1.00  0.00     0.029 A 
ATOM     44  N   UNL     1      11.978   7.063   4.209  1.00  0.00    -0.354 N 
ATOM     45  C   UNL     1      13.550   9.354   0.893  1.00  0.00     0.074 A 
ATOM     46  C   UNL     1      12.492   9.780   0.004  1.00  0.00     0.031 C 
ATOM     47  C   UNL     1      10.396   6.067   5.436  1.00  0.00     0.029 A 
ATOM     48  C   UNL     1      11.838   6.280   5.331  1.00  0.00     0.049 A 
ATOM     49  H   UNL     1      12.845   7.410   3.900  1.00  0.00     0.167 HD
ATOM     50  C   UNL     1      14.858   9.652   0.719  1.00  0.00     0.037 A 
ATOM     51  C   UNL     1      12.771   5.777   6.164  1.00  0.00     0.037 A 
ATOM     52  C   UNL     1      15.907   9.248   1.616  1.00  0.00     0.049 A 
ATOM     53  C   UNL     1      14.224   6.101   5.929  1.00  0.00     0.074 A 
ATOM     54  C   UNL     1      17.258   9.544   1.548  1.00  0.00     0.029 A 
ATOM     55  N   UNL     1      15.726   8.458   2.740  1.00  0.00    -0.354 N 
ATOM     56  N   UNL     1      14.763   6.840   4.987  1.00  0.00    -0.248 NA
ATOM     57  C   UNL     1      15.197   5.529   6.872  1.00  0.00     0.031 C 
ATOM     58  C   UNL     1      17.900   8.900   2.611  1.00  0.00     0.029 A 
ATOM     59  C   UNL     1      16.943   8.236   3.362  1.00  0.00     0.049 A 
ATOM     60  H   UNL     1      14.861   8.106   3.051  1.00  0.00     0.167 HD
ATOM     61  C   UNL     1      16.131   6.840   5.241  1.00  0.00     0.074 A 
ATOM     62  C   UNL     1      16.338   6.038   6.429  1.00  0.00     0.031 C 
ATOM     63  C   UNL     1      17.128   7.450   4.554  1.00  0.00     0.037 A 
BRANCH  50  64
ATOM     64  C   UNL     1      15.244  10.447  -0.495  1.00  0.00     0.058 A 
ATOM     65  C   UNL     1      15.023  11.830  -0.568  1.00  0.00     0.135 A 
ATOM     66  C   UNL     1      15.913   9.829  -1.563  1.00  0.00     0.135 A 
ATOM     67  F   UNL     1      14.370  12.464   0.419  1.00  0.00    -0.206 F 
ATOM     68  C   UNL     1      15.454  12.575  -1.661  1.00  0.00     0.059 A 
ATOM     69  C   UNL     1      16.369  10.557  -2.657  1.00  0.00     0.059 A 
ATOM     70  F   UNL     1      16.141   8.506  -1.542  1.00  0.00    -0.206 F 
ATOM     71  C   UNL     1      16.131  11.930  -2.698  1.00  0.00     0.060 A 
BRANCH  71  72
ATOM     72  S   UNL     1      16.725  12.918  -4.088  1.00  0.00     0.124 S 
ATOM     73  O   UNL     1      15.482  13.187  -4.805  1.00  0.00    -0.237 OA
ATOM     74  O   UNL     1      17.333  14.064  -3.421  1.00  0.00    -0.237 OA
ATOM     75  O   UNL     1      17.659  12.023  -4.766  1.00  0.00    -0.744 OA
ENDBRANCH  71  72
ENDBRANCH  50  64
BRANCH  51  76
ATOM     76  C   UNL     1      12.374   4.888   7.287  1.00  0.00     0.058 A 
ATOM     77  C   UNL     1      12.485   5.304   8.621  1.00  0.00     0.135 A 
ATOM     78  C   UNL     1      11.914   3.584   7.044  1.00  0.00     0.135 A 
ATOM     79  F   UNL     1      12.929   6.538   8.903  1.00  0.00    -0.206 F 
ATOM     80  C   UNL     1      12.185   4.450   9.678  1.00  0.00     0.059 A 
ATOM     81  C   UNL     1      11.585   2.720   8.083  1.00  0.00     0.059 A 
ATOM     82  F   UNL     1      11.777   3.142   5.784  1.00  0.00    -0.206 F 
ATOM     83  C   UNL     1      11.742   3.157   9.398  1.00  0.00     0.060 A 
BRANCH  83  84
ATOM     84  S   UNL     1      11.341   2.054  10.771  1.00  0.00     0.124 S 
ATOM     85  O   UNL     1      12.667   1.624  11.196  1.00  0.00    -0.237 OA
ATOM     86  O   UNL     1      10.632   2.943  11.687  1.00  0.00    -0.237 OA
ATOM     87  O   UNL     1      10.513   1.028  10.142  1.00  0.00    -0.744 OA
ENDBRANCH  83  84
ENDBRANCH  51  76
BRANCH  63  88
ATOM     88  C   UNL     1      18.526   7.309   5.085  1.00  0.00     0.058 A 
ATOM     89  C   UNL     1      19.252   6.118   4.936  1.00  0.00     0.135 A 
ATOM     90  C   UNL     1      19.166   8.398   5.699  1.00  0.00     0.135 A 
ATOM     91  F   UNL     1      18.683   5.047   4.360  1.00  0.00    -0.206 F 
ATOM     92  C   UNL     1      20.560   6.004   5.395  1.00  0.00     0.059 A 
ATOM     93  C   UNL     1      20.480   8.313   6.145  1.00  0.00     0.059 A 
ATOM     94  F   UNL     1      18.517   9.563   5.854  1.00  0.00    -0.206 F 
ATOM     95  C   UNL     1      21.166   7.108   5.998  1.00  0.00     0.060 A 
BRANCH  95  96
ATOM     96  S   UNL     1      22.876   6.963   6.559  1.00  0.00     0.124 S 
ATOM     97  O   UNL     1      22.715   6.215   7.801  1.00  0.00    -0.237 OA
ATOM     98  O   UNL     1      23.509   6.240   5.460  1.00  0.00    -0.237 OA
ATOM     99  O   UNL     1      23.301   8.352   6.713  1.00  0.00    -0.744 OA
ENDBRANCH  95  96
ENDBRANCH  63  88
ENDBRANCH  37  38
ENDBRANCH  30  32
ENDBRANCH  29  30
ENDBRANCH  28  29
ENDBRANCH   1  28
TORSDOF 21
