REMARK SMILES CC(C)Nc1cc2ccccc2cc1C(=O)OCCOCCOC(=O)c1ccc(-c2c3nc(c(-c4c(F)cc(S(=O)(=O)[O-])cc4F)c4ccc([nH]4)c(-c4c(F)cc(S(=O)(=O)[O-])cc4F)c4nc(c(-c5c(F)cc(S(=O)(=O)[O-])cc5F)c5ccc2[nH]5)C=C4)C=C3)cc1
REMARK SMILES IDX 21 1 20 2 19 3 18 4 17 5 15 6 16 7 14 8 5 9 6 10 7 11 13 12
REMARK SMILES IDX 8 13 12 14 9 15 11 16 10 17 4 18 2 20 1 21 3 22 22 23 23 24
REMARK SMILES IDX 24 25 25 26 26 27 27 28 91 29 28 30 90 31 29 32 30 33 31 34
REMARK SMILES IDX 84 35 32 36 89 37 83 38 85 39 33 40 88 41 82 42 81 43 34 45
REMARK SMILES IDX 68 46 47 47 67 48 48 49 51 50 66 51 86 52 49 53 50 54 65 56
REMARK SMILES IDX 87 57 52 58 35 59 36 60 45 61 37 62 38 63 44 64 46 65 39 66
REMARK SMILES IDX 40 67 41 68 42 69 43 70 69 71 70 72 79 73 71 74 72 75 78 76
REMARK SMILES IDX 80 77 73 78 74 79 75 80 76 81 77 82 53 83 54 84 63 85 55 86
REMARK SMILES IDX 56 87 62 88 64 89 57 90 58 91 59 92 60 93 61 94
REMARK H PARENT 4 19 85 44 51 55
REMARK Flexibility Score: inf
ROOT
ATOM      1  C   UNL     1      -0.969  -0.694   6.185  1.00  0.00     0.202 C 
ENDROOT
BRANCH   1   2
ATOM      2  O   UNL     1       0.366  -0.660   6.694  1.00  0.00    -0.374 OA
BRANCH   2   3
ATOM      3  C   UNL     1       1.378  -0.130   5.834  1.00  0.00     0.202 C 
BRANCH   3   4
ATOM      4  C   UNL     1       1.794  -1.053   4.690  1.00  0.00     0.261 C 
BRANCH   4   5
ATOM      5  O   UNL     1       0.721  -1.128   3.739  1.00  0.00    -0.460 OA
BRANCH   5   6
ATOM      6  C   UNL     1       0.486  -2.347   3.211  1.00  0.00     0.340 C 
ATOM      7  O   UNL     1       1.162  -3.351   3.384  1.00  0.00    -0.246 OA
BRANCH   6   8
ATOM      8  C   UNL     1      -0.842  -2.382   2.555  1.00  0.00     0.083 A 
ATOM      9  C   UNL     1      -1.325  -1.484   1.588  1.00  0.00     0.050 A 
ATOM     10  C   UNL     1      -2.599  -1.782   1.046  1.00  0.00     0.035 A 
ATOM     11  C   UNL     1      -3.387  -2.877   1.454  1.00  0.00    -0.016 A 
ATOM     12  C   UNL     1      -1.651  -3.445   3.023  1.00  0.00     0.026 A 
ATOM     13  C   UNL     1      -4.619  -3.176   0.848  1.00  0.00     0.009 A 
ATOM     14  C   UNL     1      -2.919  -3.699   2.490  1.00  0.00    -0.017 A 
ATOM     15  C   UNL     1      -5.386  -4.260   1.282  1.00  0.00     0.001 A 
ATOM     16  C   UNL     1      -3.715  -4.765   2.945  1.00  0.00     0.009 A 
ATOM     17  C   UNL     1      -4.942  -5.043   2.342  1.00  0.00     0.001 A 
BRANCH   9  18
ATOM     18  N   UNL     1      -0.699  -0.384   1.033  1.00  0.00    -0.382 N 
ATOM     19  H   UNL     1      -1.302   0.289   0.642  1.00  0.00     0.160 HD
BRANCH  18  20
ATOM     20  C   UNL     1       0.719  -0.074   0.942  1.00  0.00     0.073 C 
ATOM     21  C   UNL     1       1.085   0.057  -0.537  1.00  0.00     0.030 C 
ATOM     22  C   UNL     1       0.991   1.245   1.667  1.00  0.00     0.030 C 
ENDBRANCH  18  20
ENDBRANCH   9  18
ENDBRANCH   6   8
ENDBRANCH   5   6
ENDBRANCH   4   5
ENDBRANCH   3   4
ENDBRANCH   2   3
ENDBRANCH   1   2
BRANCH   1  23
ATOM     23  C   UNL     1      -1.756   0.619   6.270  1.00  0.00     0.261 C 
BRANCH  23  24
ATOM     24  O   UNL     1      -1.238   1.644   5.409  1.00  0.00    -0.460 OA
BRANCH  24  25
ATOM     25  C   UNL     1      -0.509   2.599   6.033  1.00  0.00     0.338 C 
ATOM     26  O   UNL     1      -0.251   2.670   7.227  1.00  0.00    -0.246 OA
BRANCH  25  27
ATOM     27  C   UNL     1       0.083   3.509   5.037  1.00  0.00     0.060 A 
ATOM     28  C   UNL     1       1.457   3.776   5.116  1.00  0.00     0.016 A 
ATOM     29  C   UNL     1      -0.715   4.161   4.095  1.00  0.00     0.016 A 
ATOM     30  C   UNL     1       2.030   4.739   4.287  1.00  0.00     0.010 A 
ATOM     31  C   UNL     1      -0.141   5.131   3.272  1.00  0.00     0.010 A 
ATOM     32  C   UNL     1       1.224   5.451   3.391  1.00  0.00    -0.014 A 
BRANCH  32  33
ATOM     33  C   UNL     1       1.746   6.652   2.696  1.00  0.00     0.031 A 
ATOM     34  C   UNL     1       1.394   8.008   3.245  1.00  0.00     0.074 A 
ATOM     35  C   UNL     1       2.492   6.543   1.585  1.00  0.00     0.049 A 
ATOM     36  N   UNL     1       1.605   9.192   2.735  1.00  0.00    -0.248 NA
ATOM     37  C   UNL     1       0.700   8.023   4.543  1.00  0.00     0.031 C 
ATOM     38  C   UNL     1       2.951   5.287   0.995  1.00  0.00     0.029 A 
ATOM     39  N   UNL     1       2.981   7.511   0.745  1.00  0.00    -0.354 N 
ATOM     40  C   UNL     1       1.053  10.094   3.637  1.00  0.00     0.074 A 
ATOM     41  C   UNL     1       0.477   9.318   4.714  1.00  0.00     0.031 C 
ATOM     42  C   UNL     1       3.646   5.562  -0.123  1.00  0.00     0.029 A 
ATOM     43  C   UNL     1       3.639   7.007  -0.350  1.00  0.00     0.049 A 
ATOM     44  H   UNL     1       2.870   8.476   0.911  1.00  0.00     0.167 HD
ATOM     45  C   UNL     1       1.030  11.447   3.574  1.00  0.00     0.037 A 
ATOM     46  C   UNL     1       4.150   7.639  -1.425  1.00  0.00     0.037 A 
ATOM     47  C   UNL     1       1.599  12.209   2.494  1.00  0.00     0.049 A 
ATOM     48  C   UNL     1       4.036   9.139  -1.525  1.00  0.00     0.074 A 
ATOM     49  C   UNL     1       1.628  13.582   2.328  1.00  0.00     0.029 A 
ATOM     50  N   UNL     1       2.233  11.659   1.388  1.00  0.00    -0.354 N 
ATOM     51  N   UNL     1       3.503   9.983  -0.674  1.00  0.00    -0.248 NA
ATOM     52  C   UNL     1       4.585   9.771  -2.733  1.00  0.00     0.031 C 
ATOM     53  C   UNL     1       2.239  13.861   1.101  1.00  0.00     0.029 A 
ATOM     54  C   UNL     1       2.640  12.664   0.527  1.00  0.00     0.049 A 
ATOM     55  H   UNL     1       2.373  10.697   1.239  1.00  0.00     0.167 HD
ATOM     56  C   UNL     1       3.692  11.249  -1.222  1.00  0.00     0.074 A 
ATOM     57  C   UNL     1       4.375  11.057  -2.485  1.00  0.00     0.031 C 
ATOM     58  C   UNL     1       3.342  12.458  -0.717  1.00  0.00     0.037 A 
BRANCH  45  59
ATOM     59  C   UNL     1       0.324  12.175   4.685  1.00  0.00     0.058 A 
ATOM     60  C   UNL     1       0.843  12.220   5.989  1.00  0.00     0.135 A 
ATOM     61  C   UNL     1      -0.903  12.816   4.447  1.00  0.00     0.135 A 
ATOM     62  F   UNL     1       2.005  11.611   6.276  1.00  0.00    -0.206 F 
ATOM     63  C   UNL     1       0.146  12.827   7.029  1.00  0.00     0.059 A 
ATOM     64  C   UNL     1      -1.602  13.456   5.466  1.00  0.00     0.059 A 
ATOM     65  F   UNL     1      -1.444  12.807   3.219  1.00  0.00    -0.206 F 
ATOM     66  C   UNL     1      -1.082  13.433   6.759  1.00  0.00     0.060 A 
BRANCH  66  67
ATOM     67  S   UNL     1      -2.002  14.172   8.125  1.00  0.00     0.124 S 
ATOM     68  O   UNL     1      -2.519  12.986   8.801  1.00  0.00    -0.237 OA
ATOM     69  O   UNL     1      -0.965  14.908   8.841  1.00  0.00    -0.237 OA
ATOM     70  O   UNL     1      -3.002  14.997   7.454  1.00  0.00    -0.744 OA
ENDBRANCH  66  67
ENDBRANCH  45  59
BRANCH  46  71
ATOM     71  C   UNL     1       4.824   6.851  -2.489  1.00  0.00     0.058 A 
ATOM     72  C   UNL     1       6.216   6.907  -2.648  1.00  0.00     0.135 A 
ATOM     73  C   UNL     1       4.102   5.997  -3.338  1.00  0.00     0.135 A 
ATOM     74  F   UNL     1       6.947   7.719  -1.869  1.00  0.00    -0.206 F 
ATOM     75  C   UNL     1       6.871   6.143  -3.608  1.00  0.00     0.059 A 
ATOM     76  C   UNL     1       4.736   5.206  -4.290  1.00  0.00     0.059 A 
ATOM     77  F   UNL     1       2.768   5.901  -3.219  1.00  0.00    -0.206 F 
ATOM     78  C   UNL     1       6.122   5.287  -4.418  1.00  0.00     0.060 A 
BRANCH  78  79
ATOM     79  S   UNL     1       6.994   4.237  -5.601  1.00  0.00     0.124 S 
ATOM     80  O   UNL     1       7.418   5.210  -6.602  1.00  0.00    -0.237 OA
ATOM     81  O   UNL     1       8.053   3.664  -4.777  1.00  0.00    -0.237 OA
ATOM     82  O   UNL     1       5.967   3.294  -6.032  1.00  0.00    -0.744 OA
ENDBRANCH  78  79
ENDBRANCH  46  71
BRANCH  58  83
ATOM     83  C   UNL     1       3.741  13.686  -1.489  1.00  0.00     0.058 A 
ATOM     84  C   UNL     1       3.067  14.085  -2.652  1.00  0.00     0.135 A 
ATOM     85  C   UNL     1       4.751  14.528  -0.993  1.00  0.00     0.135 A 
ATOM     86  F   UNL     1       2.100  13.312  -3.172  1.00  0.00    -0.206 F 
ATOM     87  C   UNL     1       3.379  15.278  -3.298  1.00  0.00     0.059 A 
ATOM     88  C   UNL     1       5.063  15.735  -1.608  1.00  0.00     0.059 A 
ATOM     89  F   UNL     1       5.421  14.194   0.121  1.00  0.00    -0.206 F 
ATOM     90  C   UNL     1       4.373  16.101  -2.763  1.00  0.00     0.060 A 
BRANCH  90  91
ATOM     91  S   UNL     1       4.715  17.683  -3.565  1.00  0.00     0.124 S 
ATOM     92  O   UNL     1       5.429  17.257  -4.764  1.00  0.00    -0.237 OA
ATOM     93  O   UNL     1       3.374  18.218  -3.783  1.00  0.00    -0.237 OA
ATOM     94  O   UNL     1       5.516  18.399  -2.577  1.00  0.00    -0.744 OA
ENDBRANCH  90  91
ENDBRANCH  58  83
ENDBRANCH  32  33
ENDBRANCH  25  27
ENDBRANCH  24  25
ENDBRANCH  23  24
ENDBRANCH   1  23
TORSDOF 19
