REMARK SMILES CCOc1ccc(-n2nnc(-c3nc(C)c(C(=O)OCCOCCOC(=O)c4ccc(-c5c6nc(c(-c7c(F)cc(S(=O)(=O)[O-])cc7F)c7ccc([nH]7)c(-c7c(F)cc(S(=O)(=O)[O-])cc7F)c7nc(c(-c8c(F)cc(S(=O)(=O)[O-])cc8F)c8ccc5[nH]8)C=C7)C=C6)cc4)s3)c2C)cc1
REMARK SMILES IDX 21 1 20 2 19 3 17 4 18 5 16 6 12 7 13 8 94 9 14 10 15 11
REMARK SMILES IDX 11 12 8 13 9 14 95 15 10 16 96 17 7 18 4 19 5 20 98 21 6 22
REMARK SMILES IDX 97 23 3 24 2 25 1 26 22 27 23 28 24 29 25 30 26 31 27 32
REMARK SMILES IDX 28 33 29 34 93 35 30 36 92 37 31 38 32 39 33 40 86 41 34 42
REMARK SMILES IDX 91 43 85 44 87 45 35 46 90 47 84 48 83 49 36 51 70 52 49 53
REMARK SMILES IDX 69 54 50 55 53 56 68 57 88 58 51 59 52 60 67 62 89 63 54 64
REMARK SMILES IDX 37 65 38 66 47 67 39 68 40 69 46 70 48 71 41 72 42 73 43 74
REMARK SMILES IDX 44 75 45 76 71 77 72 78 81 79 73 80 74 81 80 82 82 83 75 84
REMARK SMILES IDX 76 85 77 86 78 87 79 88 55 89 56 90 65 91 57 92 58 93 64 94
REMARK SMILES IDX 66 95 59 96 60 97 61 98 62 99 63 100
REMARK H PARENT 87 50 53 61
REMARK Flexibility Score: inf
ROOT
ATOM      1  C   UNL     1      11.265   9.923   2.366  1.00  0.00     0.202 C 
ENDROOT
BRANCH   1   2
ATOM      2  C   UNL     1      10.141   9.435   1.454  1.00  0.00     0.261 C 
BRANCH   2   3
ATOM      3  O   UNL     1       9.870   8.050   1.686  1.00  0.00    -0.459 OA
BRANCH   3   4
ATOM      4  C   UNL     1      10.347   7.173   0.752  1.00  0.00     0.350 C 
ATOM      5  O   UNL     1      10.819   7.486  -0.320  1.00  0.00    -0.245 OA
BRANCH   4   6
ATOM      6  C   UNL     1      10.320   5.834   1.295  1.00  0.00     0.135 A 
ATOM      7  C   UNL     1       9.584   3.740   2.212  1.00  0.00     0.146 A 
ATOM      8  N   UNL     1      10.730   3.547   1.592  1.00  0.00    -0.239 NA
ATOM      9  S   UNL     1       9.176   5.387   2.472  1.00  0.00    -0.105 S 
ATOM     10  C   UNL     1      11.165   4.761   1.051  1.00  0.00     0.064 A 
ATOM     11  C   UNL     1      12.437   4.785   0.277  1.00  0.00     0.068 C 
BRANCH   7  12
ATOM     12  C   UNL     1       8.587   2.684   2.545  1.00  0.00     0.145 A 
ATOM     13  N   UNL     1       6.683   1.667   2.759  1.00  0.00    -0.217 N 
ATOM     14  N   UNL     1       7.576   1.053   3.566  1.00  0.00    -0.061 NA
ATOM     15  C   UNL     1       7.272   2.737   2.116  1.00  0.00     0.072 A 
ATOM     16  N   UNL     1       8.772   1.603   3.353  1.00  0.00    -0.127 NA
ATOM     17  C   UNL     1       6.581   3.723   1.240  1.00  0.00     0.069 C 
BRANCH  13  18
ATOM     18  C   UNL     1       5.347   1.241   2.632  1.00  0.00     0.067 A 
ATOM     19  C   UNL     1       2.614   0.850   2.312  1.00  0.00     0.119 A 
ATOM     20  C   UNL     1       3.169   0.884   3.596  1.00  0.00     0.048 A 
ATOM     21  C   UNL     1       3.428   0.998   1.194  1.00  0.00     0.048 A 
ATOM     22  C   UNL     1       4.549   1.058   3.764  1.00  0.00     0.032 A 
ATOM     23  C   UNL     1       4.796   1.163   1.349  1.00  0.00     0.032 A 
BRANCH  19  24
ATOM     24  O   UNL     1       1.253   0.819   2.182  1.00  0.00    -0.494 OA
BRANCH  24  25
ATOM     25  C   UNL     1       0.760  -0.365   1.543  1.00  0.00     0.226 C 
ATOM     26  C   UNL     1       0.748  -0.265   0.023  1.00  0.00     0.049 C 
ENDBRANCH  24  25
ENDBRANCH  19  24
ENDBRANCH  13  18
ENDBRANCH   7  12
ENDBRANCH   4   6
ENDBRANCH   3   4
ENDBRANCH   2   3
ENDBRANCH   1   2
BRANCH   1  27
ATOM     27  O   UNL     1      12.589   9.461   2.092  1.00  0.00    -0.374 OA
BRANCH  27  28
ATOM     28  C   UNL     1      12.971   8.124   2.399  1.00  0.00     0.202 C 
BRANCH  28  29
ATOM     29  C   UNL     1      13.108   7.696   3.850  1.00  0.00     0.261 C 
BRANCH  29  30
ATOM     30  O   UNL     1      11.914   7.910   4.578  1.00  0.00    -0.460 OA
BRANCH  30  31
ATOM     31  C   UNL     1      11.939   9.047   5.311  1.00  0.00     0.338 C 
ATOM     32  O   UNL     1      12.683  10.002   5.167  1.00  0.00    -0.246 OA
BRANCH  31  33
ATOM     33  C   UNL     1      11.025   8.888   6.439  1.00  0.00     0.060 A 
ATOM     34  C   UNL     1      11.008   9.941   7.357  1.00  0.00     0.016 A 
ATOM     35  C   UNL     1      10.563   7.602   6.750  1.00  0.00     0.016 A 
ATOM     36  C   UNL     1      10.782   9.637   8.675  1.00  0.00     0.010 A 
ATOM     37  C   UNL     1      10.383   7.293   8.069  1.00  0.00     0.010 A 
ATOM     38  C   UNL     1      10.581   8.298   9.015  1.00  0.00    -0.014 A 
BRANCH  38  39
ATOM     39  C   UNL     1      10.406   7.958  10.408  1.00  0.00     0.031 A 
ATOM     40  C   UNL     1       9.047   8.332  10.864  1.00  0.00     0.074 A 
ATOM     41  C   UNL     1      11.344   7.246  11.064  1.00  0.00     0.049 A 
ATOM     42  N   UNL     1       8.719   9.244  11.717  1.00  0.00    -0.248 NA
ATOM     43  C   UNL     1       7.901   7.821  10.081  1.00  0.00     0.031 C 
ATOM     44  C   UNL     1      12.578   6.670  10.515  1.00  0.00     0.029 A 
ATOM     45  N   UNL     1      11.331   6.765  12.336  1.00  0.00    -0.354 N 
ATOM     46  C   UNL     1       7.331   9.179  11.785  1.00  0.00     0.074 A 
ATOM     47  C   UNL     1       6.896   8.541  10.578  1.00  0.00     0.031 C 
ATOM     48  C   UNL     1      13.053   5.733  11.366  1.00  0.00     0.029 A 
ATOM     49  C   UNL     1      12.231   5.719  12.560  1.00  0.00     0.049 A 
ATOM     50  H   UNL     1      10.739   7.122  13.037  1.00  0.00     0.167 HD
ATOM     51  C   UNL     1       6.699   9.288  12.984  1.00  0.00     0.037 A 
ATOM     52  C   UNL     1      12.188   4.854  13.611  1.00  0.00     0.037 A 
ATOM     53  C   UNL     1       7.546   9.962  13.940  1.00  0.00     0.049 A 
ATOM     54  C   UNL     1      11.346   5.504  14.658  1.00  0.00     0.074 A 
ATOM     55  C   UNL     1       8.188  11.186  13.962  1.00  0.00     0.029 A 
ATOM     56  N   UNL     1       8.174   9.187  14.886  1.00  0.00    -0.354 N 
ATOM     57  N   UNL     1      11.687   6.604  15.278  1.00  0.00    -0.248 NA
ATOM     58  C   UNL     1       9.916   5.226  14.625  1.00  0.00     0.031 C 
ATOM     59  C   UNL     1       9.451  10.931  14.570  1.00  0.00     0.029 A 
ATOM     60  C   UNL     1       9.479   9.596  14.975  1.00  0.00     0.049 A 
ATOM     61  H   UNL     1       7.758   8.464  15.409  1.00  0.00     0.167 HD
ATOM     62  C   UNL     1      10.522   7.361  15.323  1.00  0.00     0.074 A 
ATOM     63  C   UNL     1       9.453   6.436  14.950  1.00  0.00     0.031 C 
ATOM     64  C   UNL     1      10.568   8.726  15.364  1.00  0.00     0.037 A 
BRANCH  51  65
ATOM     65  C   UNL     1       5.546   8.395  13.396  1.00  0.00     0.058 A 
ATOM     66  C   UNL     1       4.918   8.636  14.633  1.00  0.00     0.135 A 
ATOM     67  C   UNL     1       5.213   7.160  12.785  1.00  0.00     0.135 A 
ATOM     68  F   UNL     1       5.153   9.774  15.306  1.00  0.00    -0.206 F 
ATOM     69  C   UNL     1       4.100   7.692  15.254  1.00  0.00     0.059 A 
ATOM     70  C   UNL     1       4.361   6.230  13.361  1.00  0.00     0.059 A 
ATOM     71  F   UNL     1       5.756   6.737  11.639  1.00  0.00    -0.206 F 
ATOM     72  C   UNL     1       3.841   6.484  14.614  1.00  0.00     0.060 A 
BRANCH  72  73
ATOM     73  S   UNL     1       2.857   5.228  15.443  1.00  0.00     0.124 S 
ATOM     74  O   UNL     1       3.741   4.844  16.537  1.00  0.00    -0.237 OA
ATOM     75  O   UNL     1       1.665   5.982  15.814  1.00  0.00    -0.237 OA
ATOM     76  O   UNL     1       2.658   4.220  14.406  1.00  0.00    -0.744 OA
ENDBRANCH  72  73
ENDBRANCH  51  65
BRANCH  52  77
ATOM     77  C   UNL     1      12.452   3.384  13.598  1.00  0.00     0.058 A 
ATOM     78  C   UNL     1      12.541   2.644  14.793  1.00  0.00     0.135 A 
ATOM     79  C   UNL     1      12.343   2.624  12.416  1.00  0.00     0.135 A 
ATOM     80  F   UNL     1      12.626   3.277  15.973  1.00  0.00    -0.206 F 
ATOM     81  C   UNL     1      12.479   1.242  14.817  1.00  0.00     0.059 A 
ATOM     82  C   UNL     1      12.289   1.231  12.413  1.00  0.00     0.059 A 
ATOM     83  F   UNL     1      12.190   3.216  11.222  1.00  0.00    -0.206 F 
ATOM     84  C   UNL     1      12.331   0.544  13.619  1.00  0.00     0.060 A 
BRANCH  84  85
ATOM     85  S   UNL     1      12.074  -1.248  13.645  1.00  0.00     0.124 S 
ATOM     86  O   UNL     1      13.380  -1.735  14.074  1.00  0.00    -0.237 OA
ATOM     87  O   UNL     1      10.991  -1.391  14.613  1.00  0.00    -0.237 OA
ATOM     88  O   UNL     1      11.716  -1.560  12.264  1.00  0.00    -0.744 OA
ENDBRANCH  84  85
ENDBRANCH  52  77
BRANCH  64  89
ATOM     89  C   UNL     1      11.887   9.394  15.658  1.00  0.00     0.058 A 
ATOM     90  C   UNL     1      13.026   9.336  14.833  1.00  0.00     0.135 A 
ATOM     91  C   UNL     1      11.936  10.267  16.754  1.00  0.00     0.135 A 
ATOM     92  F   UNL     1      13.025   8.606  13.708  1.00  0.00    -0.206 F 
ATOM     93  C   UNL     1      14.174  10.083  15.113  1.00  0.00     0.059 A 
ATOM     94  C   UNL     1      13.054  11.045  17.032  1.00  0.00     0.059 A 
ATOM     95  F   UNL     1      10.859  10.415  17.543  1.00  0.00    -0.206 F 
ATOM     96  C   UNL     1      14.177  10.937  16.217  1.00  0.00     0.060 A 
BRANCH  96  97
ATOM     97  S   UNL     1      15.634  11.948  16.557  1.00  0.00     0.124 S 
ATOM     98  O   UNL     1      16.609  10.949  16.980  1.00  0.00    -0.237 OA
ATOM     99  O   UNL     1      15.891  12.580  15.266  1.00  0.00    -0.237 OA
ATOM    100  O   UNL     1      15.181  12.859  17.606  1.00  0.00    -0.744 OA
ENDBRANCH  96  97
ENDBRANCH  64  89
ENDBRANCH  38  39
ENDBRANCH  31  33
ENDBRANCH  30  31
ENDBRANCH  29  30
ENDBRANCH  28  29
ENDBRANCH  27  28
ENDBRANCH   1  27
TORSDOF 21
