REMARK SMILES Cc1ccc(Nc2c(C)cccc2Cl)c(CC(=O)OCCOCCOC(=O)c2ccc(-c3c4nc(c(-c5c(F)cc(S(=O)(=O)[O-])cc5F)c5ccc([nH]5)c(-c5c(F)cc(S(=O)(=O)[O-])cc5F)c5nc(c(-c6c(F)cc(S(=O)(=O)[O-])cc6F)c6ccc3[nH]6)C=C5)C=C4)cc2)c1
REMARK SMILES IDX 22 1 21 2 20 3 19 4 17 5 18 6 16 7 15 8 1 9 2 10 3 11 94 12
REMARK SMILES IDX 4 13 5 14 6 15 7 17 8 18 13 19 9 20 10 21 12 22 14 23 11 24
REMARK SMILES IDX 23 25 24 26 25 27 26 28 27 29 28 30 29 31 93 32 30 33 92 34
REMARK SMILES IDX 31 35 32 36 33 37 86 38 34 39 91 40 85 41 87 42 35 43 90 44
REMARK SMILES IDX 84 45 83 46 36 48 70 49 49 50 69 51 50 52 53 53 68 54 88 55
REMARK SMILES IDX 51 56 52 57 67 59 89 60 54 61 37 62 38 63 47 64 39 65 40 66
REMARK SMILES IDX 46 67 48 68 41 69 42 70 43 71 44 72 45 73 71 74 72 75 81 76
REMARK SMILES IDX 73 77 74 78 80 79 82 80 75 81 76 82 77 83 78 84 79 85 55 86
REMARK SMILES IDX 56 87 65 88 57 89 58 90 64 91 66 92 59 93 60 94 61 95 62 96
REMARK SMILES IDX 63 97
REMARK H PARENT 6 16 87 47 53 58
REMARK Flexibility Score: inf
ROOT
ATOM      1  O   UNL     1      -3.071   0.784  -3.069  1.00  0.00    -0.374 OA
ENDROOT
BRANCH   1   2
ATOM      2  C   UNL     1      -1.686   0.922  -3.288  1.00  0.00     0.202 C 
BRANCH   2   3
ATOM      3  C   UNL     1      -1.241   2.102  -2.456  1.00  0.00     0.261 C 
BRANCH   3   4
ATOM      4  O   UNL     1      -1.201   1.846  -1.066  1.00  0.00    -0.463 OA
BRANCH   4   5
ATOM      5  C   UNL     1      -2.053   2.554  -0.255  1.00  0.00     0.310 C 
ATOM      6  O   UNL     1      -2.875   3.379  -0.591  1.00  0.00    -0.252 OA
BRANCH   5   7
ATOM      7  C   UNL     1      -1.808   2.176   1.198  1.00  0.00     0.160 C 
BRANCH   7   8
ATOM      8  C   UNL     1      -1.131   0.819   1.247  1.00  0.00    -0.013 A 
ATOM      9  C   UNL     1       2.381  -0.176   0.103  1.00  0.00     0.044 C 
ATOM     10  C   UNL     1       0.948  -0.273   0.535  1.00  0.00    -0.051 A 
ATOM     11  C   UNL     1       0.229  -1.450   0.358  1.00  0.00     0.005 A 
ATOM     12  C   UNL     1       0.277   0.839   1.040  1.00  0.00     0.009 A 
ATOM     13  C   UNL     1      -1.146  -1.494   0.632  1.00  0.00     0.026 A 
ATOM     14  C   UNL     1      -1.871  -0.365   1.058  1.00  0.00     0.042 A 
BRANCH  14  15
ATOM     15  N   UNL     1      -3.285  -0.412   1.248  1.00  0.00    -0.354 N 
ATOM     16  H   UNL     1      -3.731   0.456   1.378  1.00  0.00     0.167 HD
BRANCH  15  17
ATOM     17  C   UNL     1      -4.131  -1.558   1.272  1.00  0.00     0.060 A 
ATOM     18  C   UNL     1      -3.739  -2.731   1.941  1.00  0.00    -0.026 A 
ATOM     19  C   UNL     1      -5.289  -1.629   0.473  1.00  0.00     0.064 A 
ATOM     20  C   UNL     1      -2.806  -2.679   3.122  1.00  0.00     0.046 C 
ATOM     21  C   UNL     1      -4.290  -3.967   1.567  1.00  0.00     0.005 A 
ATOM     22  C   UNL     1      -5.820  -2.862   0.081  1.00  0.00     0.023 A 
ATOM     23  Cl  UNL     1      -6.173  -0.205   0.051  1.00  0.00    -0.082 Cl
ATOM     24  C   UNL     1      -5.277  -4.038   0.587  1.00  0.00     0.002 A 
ENDBRANCH  15  17
ENDBRANCH  14  15
ENDBRANCH   7   8
ENDBRANCH   5   7
ENDBRANCH   4   5
ENDBRANCH   3   4
ENDBRANCH   2   3
ENDBRANCH   1   2
BRANCH   1  25
ATOM     25  C   UNL     1      -3.436  -0.229  -2.167  1.00  0.00     0.202 C 
BRANCH  25  26
ATOM     26  C   UNL     1      -3.954  -1.407  -2.975  1.00  0.00     0.261 C 
BRANCH  26  27
ATOM     27  O   UNL     1      -5.300  -1.195  -3.476  1.00  0.00    -0.460 OA
BRANCH  27  28
ATOM     28  C   UNL     1      -5.431  -0.609  -4.707  1.00  0.00     0.338 C 
ATOM     29  O   UNL     1      -5.768  -1.224  -5.707  1.00  0.00    -0.246 OA
BRANCH  28  30
ATOM     30  C   UNL     1      -5.356   0.874  -4.647  1.00  0.00     0.060 A 
ATOM     31  C   UNL     1      -4.737   1.612  -5.670  1.00  0.00     0.016 A 
ATOM     32  C   UNL     1      -5.753   1.507  -3.473  1.00  0.00     0.016 A 
ATOM     33  C   UNL     1      -4.361   2.946  -5.448  1.00  0.00     0.010 A 
ATOM     34  C   UNL     1      -5.288   2.782  -3.220  1.00  0.00     0.010 A 
ATOM     35  C   UNL     1      -4.573   3.507  -4.192  1.00  0.00    -0.014 A 
BRANCH  35  36
ATOM     36  C   UNL     1      -4.115   4.817  -3.724  1.00  0.00     0.031 A 
ATOM     37  C   UNL     1      -5.141   5.773  -3.252  1.00  0.00     0.074 A 
ATOM     38  C   UNL     1      -2.812   5.060  -3.450  1.00  0.00     0.049 A 
ATOM     39  N   UNL     1      -4.867   6.917  -2.741  1.00  0.00    -0.248 NA
ATOM     40  C   UNL     1      -6.584   5.541  -3.350  1.00  0.00     0.031 C 
ATOM     41  C   UNL     1      -2.240   5.952  -2.438  1.00  0.00     0.029 A 
ATOM     42  N   UNL     1      -1.690   4.563  -4.069  1.00  0.00    -0.354 N 
ATOM     43  C   UNL     1      -5.999   7.394  -2.136  1.00  0.00     0.074 A 
ATOM     44  C   UNL     1      -7.066   6.569  -2.642  1.00  0.00     0.031 C 
ATOM     45  C   UNL     1      -0.917   6.089  -2.644  1.00  0.00     0.029 A 
ATOM     46  C   UNL     1      -0.594   5.399  -3.882  1.00  0.00     0.049 A 
ATOM     47  H   UNL     1      -1.665   3.722  -4.580  1.00  0.00     0.167 HD
ATOM     48  C   UNL     1      -5.841   8.363  -1.194  1.00  0.00     0.037 A 
ATOM     49  C   UNL     1      -0.018   5.926  -5.004  1.00  0.00     0.037 A 
ATOM     50  C   UNL     1      -4.479   8.921  -1.266  1.00  0.00     0.049 A 
ATOM     51  C   UNL     1      -0.420   7.385  -5.144  1.00  0.00     0.074 A 
ATOM     52  C   UNL     1      -3.334   8.858  -0.493  1.00  0.00     0.029 A 
ATOM     53  N   UNL     1      -4.076   9.453  -2.483  1.00  0.00    -0.354 N 
ATOM     54  N   UNL     1      -1.183   7.985  -4.269  1.00  0.00    -0.248 NA
ATOM     55  C   UNL     1      -0.032   8.289  -6.222  1.00  0.00     0.031 C 
ATOM     56  C   UNL     1      -2.229   9.274  -1.315  1.00  0.00     0.029 A 
ATOM     57  C   UNL     1      -2.710   9.629  -2.567  1.00  0.00     0.049 A 
ATOM     58  H   UNL     1      -4.699   9.680  -3.210  1.00  0.00     0.167 HD
ATOM     59  C   UNL     1      -1.404   9.274  -4.611  1.00  0.00     0.074 A 
ATOM     60  C   UNL     1      -0.687   9.416  -5.874  1.00  0.00     0.031 C 
ATOM     61  C   UNL     1      -2.146  10.114  -3.829  1.00  0.00     0.037 A 
BRANCH  48  62
ATOM     62  C   UNL     1      -6.864   8.751  -0.150  1.00  0.00     0.058 A 
ATOM     63  C   UNL     1      -6.626   9.870   0.675  1.00  0.00     0.135 A 
ATOM     64  C   UNL     1      -8.033   8.021   0.169  1.00  0.00     0.135 A 
ATOM     65  F   UNL     1      -5.545  10.644   0.497  1.00  0.00    -0.206 F 
ATOM     66  C   UNL     1      -7.468  10.231   1.730  1.00  0.00     0.059 A 
ATOM     67  C   UNL     1      -8.914   8.390   1.191  1.00  0.00     0.059 A 
ATOM     68  F   UNL     1      -8.353   6.878  -0.449  1.00  0.00    -0.206 F 
ATOM     69  C   UNL     1      -8.614   9.487   1.981  1.00  0.00     0.060 A 
BRANCH  69  70
ATOM     70  S   UNL     1      -9.676   9.952   3.361  1.00  0.00     0.124 S 
ATOM     71  O   UNL     1      -8.817   9.679   4.508  1.00  0.00    -0.237 OA
ATOM     72  O   UNL     1      -9.943  11.360   3.086  1.00  0.00    -0.237 OA
ATOM     73  O   UNL     1     -10.828   9.064   3.221  1.00  0.00    -0.744 OA
ENDBRANCH  69  70
ENDBRANCH  48  62
BRANCH  49  74
ATOM     74  C   UNL     1       0.110   4.843  -6.048  1.00  0.00     0.058 A 
ATOM     75  C   UNL     1       0.997   3.782  -5.729  1.00  0.00     0.135 A 
ATOM     76  C   UNL     1      -0.946   4.527  -6.923  1.00  0.00     0.135 A 
ATOM     77  F   UNL     1       2.006   3.996  -4.868  1.00  0.00    -0.206 F 
ATOM     78  C   UNL     1       0.764   2.461  -6.121  1.00  0.00     0.059 A 
ATOM     79  C   UNL     1      -1.193   3.203  -7.330  1.00  0.00     0.059 A 
ATOM     80  F   UNL     1      -1.857   5.460  -7.238  1.00  0.00    -0.206 F 
ATOM     81  C   UNL     1      -0.356   2.171  -6.894  1.00  0.00     0.060 A 
BRANCH  81  82
ATOM     82  S   UNL     1      -0.794   0.424  -7.170  1.00  0.00     0.124 S 
ATOM     83  O   UNL     1       0.072   0.074  -8.288  1.00  0.00    -0.237 OA
ATOM     84  O   UNL     1      -0.450  -0.199  -5.893  1.00  0.00    -0.237 OA
ATOM     85  O   UNL     1      -2.220   0.486  -7.463  1.00  0.00    -0.744 OA
ENDBRANCH  81  82
ENDBRANCH  49  74
BRANCH  61  86
ATOM     86  C   UNL     1      -2.410  11.517  -4.263  1.00  0.00     0.058 A 
ATOM     87  C   UNL     1      -1.381  12.347  -4.725  1.00  0.00     0.135 A 
ATOM     88  C   UNL     1      -3.701  12.079  -4.197  1.00  0.00     0.135 A 
ATOM     89  F   UNL     1      -0.105  11.926  -4.728  1.00  0.00    -0.206 F 
ATOM     90  C   UNL     1      -1.637  13.619  -5.216  1.00  0.00     0.059 A 
ATOM     91  C   UNL     1      -3.966  13.375  -4.604  1.00  0.00     0.059 A 
ATOM     92  F   UNL     1      -4.763  11.370  -3.787  1.00  0.00    -0.206 F 
ATOM     93  C   UNL     1      -2.937  14.117  -5.163  1.00  0.00     0.060 A 
BRANCH  93  94
ATOM     94  S   UNL     1      -3.284  15.739  -5.851  1.00  0.00     0.124 S 
ATOM     95  O   UNL     1      -2.100  16.503  -5.471  1.00  0.00    -0.237 OA
ATOM     96  O   UNL     1      -3.406  15.425  -7.271  1.00  0.00    -0.237 OA
ATOM     97  O   UNL     1      -4.520  16.132  -5.183  1.00  0.00    -0.744 OA
ENDBRANCH  93  94
ENDBRANCH  61  86
ENDBRANCH  35  36
ENDBRANCH  28  30
ENDBRANCH  27  28
ENDBRANCH  26  27
ENDBRANCH  25  26
ENDBRANCH   1  25
TORSDOF 20
