REMARK SMILES CC(C)CN(C)c1cc2c(cc1Cl)C=C(C(=O)OCCOCCOC(=O)c1ccc(-c3c4nc(c(-c5c(F)cc(S(=O)(=O)[O-])cc5F)c5ccc([nH]5)c(-c5c(F)cc(S(=O)(=O)[O-])cc5F)c5nc(c(-c6c(F)cc(S(=O)(=O)[O-])cc6F)c6ccc3[nH]6)C=C5)C=C4)cc1)[C@@H](C(F)(F)F)O2
REMARK SMILES IDX 21 1 20 2 19 3 18 4 16 5 17 6 15 7 7 8 8 9 12 10 9 11 11 12
REMARK SMILES IDX 13 13 10 14 98 15 14 16 93 17 5 18 6 19 4 20 2 21 1 22 3 23
REMARK SMILES IDX 94 24 95 25 96 26 97 27 22 28 23 29 24 30 25 31 26 32 27 33
REMARK SMILES IDX 28 34 92 35 29 36 91 37 30 38 31 39 32 40 85 41 33 42 90 43
REMARK SMILES IDX 84 44 86 45 34 46 89 47 83 48 82 49 35 51 69 52 48 53 68 54
REMARK SMILES IDX 49 55 52 56 67 57 87 58 50 59 51 60 66 62 88 63 53 64 36 65
REMARK SMILES IDX 37 66 46 67 38 68 39 69 45 70 47 71 40 72 41 73 42 74 43 75
REMARK SMILES IDX 44 76 70 77 71 78 80 79 72 80 73 81 79 82 81 83 74 84 75 85
REMARK SMILES IDX 76 86 77 87 78 88 54 89 55 90 64 91 56 92 57 93 63 94 65 95
REMARK SMILES IDX 58 96 59 97 60 98 61 99 62 100
REMARK H PARENT 86 50 52 61
REMARK Flexibility Score: inf
ROOT
ATOM      1  O   UNL     1       0.731  -9.220  -1.075  1.00  0.00    -0.374 OA
ENDROOT
BRANCH   1   2
ATOM      2  C   UNL     1      -0.128 -10.091  -0.344  1.00  0.00     0.202 C 
BRANCH   2   3
ATOM      3  C   UNL     1      -0.574  -9.669   1.059  1.00  0.00     0.261 C 
BRANCH   3   4
ATOM      4  O   UNL     1      -1.153  -8.356   1.084  1.00  0.00    -0.460 OA
BRANCH   4   5
ATOM      5  C   UNL     1      -0.361  -7.436   1.678  1.00  0.00     0.338 C 
ATOM      6  O   UNL     1       0.697  -7.650   2.252  1.00  0.00    -0.246 OA
BRANCH   5   7
ATOM      7  C   UNL     1      -0.859  -6.072   1.434  1.00  0.00     0.087 C 
ATOM      8  C   UNL     1      -0.979  -1.062   1.615  1.00  0.00     0.059 A 
ATOM      9  C   UNL     1      -1.951  -2.047   1.319  1.00  0.00     0.074 A 
ATOM     10  C   UNL     1       0.333  -1.511   1.885  1.00  0.00     0.065 A 
ATOM     11  C   UNL     1      -1.611  -3.405   1.261  1.00  0.00     0.130 A 
ATOM     12  C   UNL     1       0.696  -2.838   1.681  1.00  0.00     0.034 A 
ATOM     13  Cl  UNL     1       1.550  -0.499   2.587  1.00  0.00    -0.082 Cl
ATOM     14  C   UNL     1      -0.275  -3.780   1.369  1.00  0.00     0.019 A 
ATOM     15  O   UNL     1      -2.611  -4.330   1.092  1.00  0.00    -0.475 OA
ATOM     16  C   UNL     1       0.112  -5.167   1.280  1.00  0.00     0.027 C 
ATOM     17  C   UNL     1      -2.317  -5.713   1.504  1.00  0.00     0.316 C 
BRANCH   8  18
ATOM     18  N   UNL     1      -1.303   0.300   1.647  1.00  0.00    -0.373 N 
ATOM     19  C   UNL     1      -2.379   0.676   2.559  1.00  0.00     0.143 C 
BRANCH  18  20
ATOM     20  C   UNL     1      -1.150   1.093   0.406  1.00  0.00     0.119 C 
BRANCH  20  21
ATOM     21  C   UNL     1       0.324   1.369   0.031  1.00  0.00     0.002 C 
ATOM     22  C   UNL     1       0.895   0.307  -0.916  1.00  0.00     0.009 C 
ATOM     23  C   UNL     1       0.516   2.748  -0.605  1.00  0.00     0.009 C 
ENDBRANCH  20  21
ENDBRANCH  18  20
ENDBRANCH   8  18
BRANCH  17  24
ATOM     24  C   UNL     1      -2.898  -6.001   2.897  1.00  0.00     0.430 C 
ATOM     25  F   UNL     1      -4.200  -5.642   2.975  1.00  0.00    -0.167 F 
ATOM     26  F   UNL     1      -2.834  -7.322   3.188  1.00  0.00    -0.167 F 
ATOM     27  F   UNL     1      -2.231  -5.340   3.870  1.00  0.00    -0.167 F 
ENDBRANCH  17  24
ENDBRANCH   5   7
ENDBRANCH   4   5
ENDBRANCH   3   4
ENDBRANCH   2   3
ENDBRANCH   1   2
BRANCH   1  28
ATOM     28  C   UNL     1       0.194  -8.013  -1.612  1.00  0.00     0.202 C 
BRANCH  28  29
ATOM     29  C   UNL     1      -0.843  -8.092  -2.741  1.00  0.00     0.261 C 
BRANCH  29  30
ATOM     30  O   UNL     1      -2.060  -8.748  -2.353  1.00  0.00    -0.460 OA
BRANCH  30  31
ATOM     31  C   UNL     1      -2.258  -9.966  -2.921  1.00  0.00     0.338 C 
ATOM     32  O   UNL     1      -1.529 -10.534  -3.719  1.00  0.00    -0.246 OA
BRANCH  31  33
ATOM     33  C   UNL     1      -3.406 -10.622  -2.270  1.00  0.00     0.060 A 
ATOM     34  C   UNL     1      -4.666 -10.025  -2.267  1.00  0.00     0.016 A 
ATOM     35  C   UNL     1      -3.211 -11.880  -1.684  1.00  0.00     0.016 A 
ATOM     36  C   UNL     1      -5.740 -10.705  -1.688  1.00  0.00     0.010 A 
ATOM     37  C   UNL     1      -4.285 -12.556  -1.106  1.00  0.00     0.010 A 
ATOM     38  C   UNL     1      -5.562 -11.980  -1.118  1.00  0.00    -0.014 A 
BRANCH  38  39
ATOM     39  C   UNL     1      -6.738 -12.750  -0.641  1.00  0.00     0.031 A 
ATOM     40  C   UNL     1      -6.998 -12.953   0.823  1.00  0.00     0.074 A 
ATOM     41  C   UNL     1      -7.578 -13.271  -1.557  1.00  0.00     0.049 A 
ATOM     42  N   UNL     1      -8.018 -13.533   1.401  1.00  0.00    -0.248 NA
ATOM     43  C   UNL     1      -5.984 -12.445   1.759  1.00  0.00     0.031 C 
ATOM     44  C   UNL     1      -7.402 -13.170  -3.008  1.00  0.00     0.029 A 
ATOM     45  N   UNL     1      -8.747 -13.972  -1.412  1.00  0.00    -0.354 N 
ATOM     46  C   UNL     1      -7.787 -13.439   2.767  1.00  0.00     0.074 A 
ATOM     47  C   UNL     1      -6.499 -12.796   2.931  1.00  0.00     0.031 C 
ATOM     48  C   UNL     1      -8.446 -13.752  -3.618  1.00  0.00     0.029 A 
ATOM     49  C   UNL     1      -9.348 -14.295  -2.606  1.00  0.00     0.049 A 
ATOM     50  H   UNL     1      -9.121 -14.221  -0.536  1.00  0.00     0.167 HD
ATOM     51  C   UNL     1      -8.588 -13.831   3.787  1.00  0.00     0.037 A 
ATOM     52  C   UNL     1     -10.497 -14.950  -2.860  1.00  0.00     0.037 A 
ATOM     53  C   UNL     1      -9.863 -14.483   3.611  1.00  0.00     0.049 A 
ATOM     54  C   UNL     1     -11.341 -15.423  -1.707  1.00  0.00     0.074 A 
ATOM     55  C   UNL     1     -10.760 -14.889   4.585  1.00  0.00     0.029 A 
ATOM     56  N   UNL     1     -10.418 -14.833   2.389  1.00  0.00    -0.354 N 
ATOM     57  N   UNL     1     -11.143 -15.260  -0.420  1.00  0.00    -0.248 NA
ATOM     58  C   UNL     1     -12.564 -16.166  -2.038  1.00  0.00     0.031 C 
ATOM     59  C   UNL     1     -11.829 -15.533   3.955  1.00  0.00     0.029 A 
ATOM     60  C   UNL     1     -11.630 -15.478   2.586  1.00  0.00     0.049 A 
ATOM     61  H   UNL     1     -10.012 -14.650   1.511  1.00  0.00     0.167 HD
ATOM     62  C   UNL     1     -12.226 -15.863   0.210  1.00  0.00     0.074 A 
ATOM     63  C   UNL     1     -13.086 -16.375  -0.836  1.00  0.00     0.031 C 
ATOM     64  C   UNL     1     -12.480 -15.985   1.536  1.00  0.00     0.037 A 
BRANCH  51  65
ATOM     65  C   UNL     1      -8.130 -13.555   5.193  1.00  0.00     0.058 A 
ATOM     66  C   UNL     1      -8.117 -12.250   5.711  1.00  0.00     0.135 A 
ATOM     67  C   UNL     1      -7.793 -14.606   6.062  1.00  0.00     0.135 A 
ATOM     68  F   UNL     1      -8.420 -11.206   4.923  1.00  0.00    -0.206 F 
ATOM     69  C   UNL     1      -7.775 -11.996   7.035  1.00  0.00     0.059 A 
ATOM     70  C   UNL     1      -7.473 -14.378   7.398  1.00  0.00     0.059 A 
ATOM     71  F   UNL     1      -7.790 -15.873   5.619  1.00  0.00    -0.206 F 
ATOM     72  C   UNL     1      -7.462 -13.067   7.873  1.00  0.00     0.060 A 
BRANCH  72  73
ATOM     73  S   UNL     1      -7.053 -12.716   9.596  1.00  0.00     0.124 S 
ATOM     74  O   UNL     1      -5.782 -12.012   9.456  1.00  0.00    -0.237 OA
ATOM     75  O   UNL     1      -8.186 -11.901  10.023  1.00  0.00    -0.237 OA
ATOM     76  O   UNL     1      -6.970 -14.040  10.205  1.00  0.00    -0.744 OA
ENDBRANCH  72  73
ENDBRANCH  51  65
BRANCH  52  77
ATOM     77  C   UNL     1     -10.930 -15.173  -4.265  1.00  0.00     0.058 A 
ATOM     78  C   UNL     1     -12.058 -14.521  -4.785  1.00  0.00     0.135 A 
ATOM     79  C   UNL     1     -10.219 -16.030  -5.121  1.00  0.00     0.135 A 
ATOM     80  F   UNL     1     -12.774 -13.697  -4.006  1.00  0.00    -0.206 F 
ATOM     81  C   UNL     1     -12.476 -14.722  -6.096  1.00  0.00     0.059 A 
ATOM     82  C   UNL     1     -10.600 -16.224  -6.444  1.00  0.00     0.059 A 
ATOM     83  F   UNL     1      -9.123 -16.666  -4.678  1.00  0.00    -0.206 F 
ATOM     84  C   UNL     1     -11.737 -15.573  -6.920  1.00  0.00     0.060 A 
BRANCH  84  85
ATOM     85  S   UNL     1     -12.269 -15.792  -8.631  1.00  0.00     0.124 S 
ATOM     86  O   UNL     1     -13.515 -16.530  -8.459  1.00  0.00    -0.237 OA
ATOM     87  O   UNL     1     -12.401 -14.412  -9.087  1.00  0.00    -0.237 OA
ATOM     88  O   UNL     1     -11.170 -16.542  -9.232  1.00  0.00    -0.744 OA
ENDBRANCH  84  85
ENDBRANCH  52  77
BRANCH  64  89
ATOM     89  C   UNL     1     -13.745 -16.693   1.944  1.00  0.00     0.058 A 
ATOM     90  C   UNL     1     -13.886 -18.082   1.802  1.00  0.00     0.135 A 
ATOM     91  C   UNL     1     -14.796 -15.987   2.553  1.00  0.00     0.135 A 
ATOM     92  F   UNL     1     -12.916 -18.804   1.218  1.00  0.00    -0.206 F 
ATOM     93  C   UNL     1     -15.030 -18.745   2.236  1.00  0.00     0.059 A 
ATOM     94  C   UNL     1     -15.935 -16.634   3.023  1.00  0.00     0.059 A 
ATOM     95  F   UNL     1     -14.710 -14.658   2.722  1.00  0.00    -0.206 F 
ATOM     96  C   UNL     1     -16.046 -18.013   2.854  1.00  0.00     0.060 A 
BRANCH  96  97
ATOM     97  S   UNL     1     -17.499 -18.899   3.457  1.00  0.00     0.124 S 
ATOM     98  O   UNL     1     -18.133 -19.309   2.208  1.00  0.00    -0.237 OA
ATOM     99  O   UNL     1     -16.902 -19.971   4.247  1.00  0.00    -0.237 OA
ATOM    100  O   UNL     1     -18.221 -17.888   4.224  1.00  0.00    -0.744 OA
ENDBRANCH  96  97
ENDBRANCH  64  89
ENDBRANCH  38  39
ENDBRANCH  31  33
ENDBRANCH  30  31
ENDBRANCH  29  30
ENDBRANCH  28  29
ENDBRANCH   1  28
TORSDOF 21
