REMARK SMILES CC(C)CN(C)c1cc2c(cc1Cl)C=C(C(=O)OCCOCCOC(=O)c1ccc(-c3c4nc(c(-c5c(F)cc(S(=O)(=O)[O-])cc5F)c5ccc([nH]5)c(-c5c(F)cc(S(=O)(=O)[O-])cc5F)c5nc(c(-c6c(F)cc(S(=O)(=O)[O-])cc6F)c6ccc3[nH]6)C=C5)C=C4)cc1)[C@H](C(F)(F)F)O2
REMARK SMILES IDX 21 1 20 2 19 3 18 4 16 5 17 6 15 7 7 8 8 9 12 10 9 11 11 12
REMARK SMILES IDX 13 13 10 14 98 15 14 16 93 17 5 18 6 19 4 20 2 21 1 22 3 23
REMARK SMILES IDX 94 24 95 25 96 26 97 27 22 28 23 29 24 30 25 31 26 32 27 33
REMARK SMILES IDX 28 34 92 35 29 36 91 37 30 38 31 39 32 40 85 41 33 42 90 43
REMARK SMILES IDX 84 44 86 45 34 46 89 47 83 48 82 49 35 51 69 52 48 53 68 54
REMARK SMILES IDX 49 55 52 56 67 57 87 58 50 59 51 60 66 62 88 63 53 64 36 65
REMARK SMILES IDX 37 66 46 67 38 68 39 69 45 70 47 71 40 72 41 73 42 74 43 75
REMARK SMILES IDX 44 76 70 77 71 78 80 79 72 80 73 81 79 82 81 83 74 84 75 85
REMARK SMILES IDX 76 86 77 87 78 88 54 89 55 90 64 91 56 92 57 93 63 94 65 95
REMARK SMILES IDX 58 96 59 97 60 98 61 99 62 100
REMARK H PARENT 86 50 52 61
REMARK Flexibility Score: inf
ROOT
ATOM      1  O   UNL     1       0.460  -3.635   8.361  1.00  0.00    -0.374 OA
ENDROOT
BRANCH   1   2
ATOM      2  C   UNL     1      -0.498  -3.272   9.354  1.00  0.00     0.202 C 
BRANCH   2   3
ATOM      3  C   UNL     1      -0.956  -1.813   9.385  1.00  0.00     0.261 C 
BRANCH   3   4
ATOM      4  O   UNL     1      -1.517  -1.408   8.125  1.00  0.00    -0.460 OA
BRANCH   4   5
ATOM      5  C   UNL     1      -0.742  -0.548   7.438  1.00  0.00     0.338 C 
ATOM      6  O   UNL     1       0.272  -0.008   7.860  1.00  0.00    -0.246 OA
BRANCH   5   7
ATOM      7  C   UNL     1      -1.185  -0.402   6.037  1.00  0.00     0.087 C 
ATOM      8  C   UNL     1      -0.989   1.255   1.283  1.00  0.00     0.059 A 
ATOM      9  C   UNL     1      -2.014   0.732   2.100  1.00  0.00     0.074 A 
ATOM     10  C   UNL     1       0.293   1.380   1.855  1.00  0.00     0.065 A 
ATOM     11  C   UNL     1      -1.755   0.304   3.406  1.00  0.00     0.130 A 
ATOM     12  C   UNL     1       0.574   0.846   3.110  1.00  0.00     0.034 A 
ATOM     13  Cl  UNL     1       1.578   2.258   1.096  1.00  0.00    -0.082 Cl
ATOM     14  C   UNL     1      -0.451   0.305   3.879  1.00  0.00     0.019 A 
ATOM     15  O   UNL     1      -2.819  -0.095   4.162  1.00  0.00    -0.475 OA
ATOM     16  C   UNL     1      -0.159  -0.155   5.214  1.00  0.00     0.027 C 
ATOM     17  C   UNL     1      -2.629  -0.378   5.592  1.00  0.00     0.316 C 
BRANCH   8  18
ATOM     18  N   UNL     1      -1.240   1.617  -0.049  1.00  0.00    -0.373 N 
ATOM     19  C   UNL     1      -2.311   2.590  -0.249  1.00  0.00     0.143 C 
BRANCH  18  20
ATOM     20  C   UNL     1      -1.083   0.561  -1.075  1.00  0.00     0.119 C 
BRANCH  20  21
ATOM     21  C   UNL     1       0.395   0.275  -1.427  1.00  0.00     0.002 C 
ATOM     22  C   UNL     1       0.979  -0.883  -0.609  1.00  0.00     0.009 C 
ATOM     23  C   UNL     1       0.575  -0.046  -2.913  1.00  0.00     0.009 C 
ENDBRANCH  20  21
ENDBRANCH  18  20
ENDBRANCH   8  18
BRANCH  17  24
ATOM     24  C   UNL     1      -3.428  -1.664   5.894  1.00  0.00     0.430 C 
ATOM     25  F   UNL     1      -2.680  -2.779   5.725  1.00  0.00    -0.167 F 
ATOM     26  F   UNL     1      -3.919  -1.673   7.153  1.00  0.00    -0.167 F 
ATOM     27  F   UNL     1      -4.498  -1.791   5.068  1.00  0.00    -0.167 F 
ENDBRANCH  17  24
ENDBRANCH   5   7
ENDBRANCH   4   5
ENDBRANCH   3   4
ENDBRANCH   2   3
ENDBRANCH   1   2
BRANCH   1  28
ATOM     28  C   UNL     1      -0.018  -3.884   7.037  1.00  0.00     0.202 C 
BRANCH  28  29
ATOM     29  C   UNL     1      -0.824  -5.170   6.798  1.00  0.00     0.261 C 
BRANCH  29  30
ATOM     30  O   UNL     1      -2.119  -5.129   7.423  1.00  0.00    -0.460 OA
BRANCH  30  31
ATOM     31  C   UNL     1      -2.282  -5.953   8.487  1.00  0.00     0.338 C 
ATOM     32  O   UNL     1      -1.482  -6.773   8.910  1.00  0.00    -0.246 OA
BRANCH  31  33
ATOM     33  C   UNL     1      -3.495  -5.546   9.230  1.00  0.00     0.060 A 
ATOM     34  C   UNL     1      -4.720  -5.358   8.591  1.00  0.00     0.016 A 
ATOM     35  C   UNL     1      -3.381  -5.351  10.614  1.00  0.00     0.016 A 
ATOM     36  C   UNL     1      -5.843  -5.011   9.350  1.00  0.00     0.010 A 
ATOM     37  C   UNL     1      -4.502  -5.003  11.369  1.00  0.00     0.010 A 
ATOM     38  C   UNL     1      -5.748  -4.854  10.747  1.00  0.00    -0.014 A 
BRANCH  38  39
ATOM     39  C   UNL     1      -6.974  -4.674  11.567  1.00  0.00     0.031 A 
ATOM     40  C   UNL     1      -7.303  -3.362  12.219  1.00  0.00     0.074 A 
ATOM     41  C   UNL     1      -7.790  -5.733  11.736  1.00  0.00     0.049 A 
ATOM     42  N   UNL     1      -8.356  -3.039  12.926  1.00  0.00    -0.248 NA
ATOM     43  C   UNL     1      -6.326  -2.275  12.065  1.00  0.00     0.031 C 
ATOM     44  C   UNL     1      -7.555  -7.068  11.181  1.00  0.00     0.029 A 
ATOM     45  N   UNL     1      -8.979  -5.858  12.409  1.00  0.00    -0.354 N 
ATOM     46  C   UNL     1      -8.188  -1.706  13.278  1.00  0.00     0.074 A 
ATOM     47  C   UNL     1      -6.899  -1.297  12.757  1.00  0.00     0.031 C 
ATOM     48  C   UNL     1      -8.587  -7.864  11.500  1.00  0.00     0.029 A 
ATOM     49  C   UNL     1      -9.538  -7.111  12.311  1.00  0.00     0.049 A 
ATOM     50  H   UNL     1      -9.393  -5.121  12.913  1.00  0.00     0.167 HD
ATOM     51  C   UNL     1      -9.042  -0.895  13.950  1.00  0.00     0.037 A 
ATOM     52  C   UNL     1     -10.689  -7.599  12.814  1.00  0.00     0.037 A 
ATOM     53  C   UNL     1     -10.315  -1.316  14.482  1.00  0.00     0.049 A 
ATOM     54  C   UNL     1     -11.584  -6.693  13.614  1.00  0.00     0.074 A 
ATOM     55  C   UNL     1     -11.254  -0.559  15.163  1.00  0.00     0.029 A 
ATOM     56  N   UNL     1     -10.826  -2.604  14.405  1.00  0.00    -0.354 N 
ATOM     57  N   UNL     1     -11.437  -5.418  13.886  1.00  0.00    -0.248 NA
ATOM     58  C   UNL     1     -12.803  -7.291  14.177  1.00  0.00     0.031 C 
ATOM     59  C   UNL     1     -12.307  -1.398  15.540  1.00  0.00     0.029 A 
ATOM     60  C   UNL     1     -12.054  -2.667  15.046  1.00  0.00     0.049 A 
ATOM     61  H   UNL     1     -10.383  -3.362  13.960  1.00  0.00     0.167 HD
ATOM     62  C   UNL     1     -12.558  -5.056  14.626  1.00  0.00     0.074 A 
ATOM     63  C   UNL     1     -13.380  -6.242  14.746  1.00  0.00     0.031 C 
ATOM     64  C   UNL     1     -12.873  -3.850  15.158  1.00  0.00     0.037 A 
BRANCH  51  65
ATOM     65  C   UNL     1      -8.648   0.546  14.133  1.00  0.00     0.058 A 
ATOM     66  C   UNL     1      -8.641   1.440  13.050  1.00  0.00     0.135 A 
ATOM     67  C   UNL     1      -8.365   1.064  15.408  1.00  0.00     0.135 A 
ATOM     68  F   UNL     1      -8.896   0.999  11.807  1.00  0.00    -0.206 F 
ATOM     69  C   UNL     1      -8.353   2.790  13.221  1.00  0.00     0.059 A 
ATOM     70  C   UNL     1      -8.100   2.417  15.606  1.00  0.00     0.059 A 
ATOM     71  F   UNL     1      -8.362   0.256  16.480  1.00  0.00    -0.206 F 
ATOM     72  C   UNL     1      -8.089   3.270  14.504  1.00  0.00     0.060 A 
BRANCH  72  73
ATOM     73  S   UNL     1      -7.737   5.030  14.702  1.00  0.00     0.124 S 
ATOM     74  O   UNL     1      -6.452   5.148  14.019  1.00  0.00    -0.237 OA
ATOM     75  O   UNL     1      -8.872   5.650  14.027  1.00  0.00    -0.237 OA
ATOM     76  O   UNL     1      -7.694   5.210  16.150  1.00  0.00    -0.744 OA
ENDBRANCH  72  73
ENDBRANCH  51  65
BRANCH  52  77
ATOM     77  C   UNL     1     -11.079  -9.008  12.542  1.00  0.00     0.058 A 
ATOM     78  C   UNL     1     -12.177  -9.302  11.720  1.00  0.00     0.135 A 
ATOM     79  C   UNL     1     -10.363 -10.086  13.086  1.00  0.00     0.135 A 
ATOM     80  F   UNL     1     -12.897  -8.306  11.181  1.00  0.00    -0.206 F 
ATOM     81  C   UNL     1     -12.565 -10.613  11.463  1.00  0.00     0.059 A 
ATOM     82  C   UNL     1     -10.713 -11.406  12.819  1.00  0.00     0.059 A 
ATOM     83  F   UNL     1      -9.294  -9.859  13.866  1.00  0.00    -0.206 F 
ATOM     84  C   UNL     1     -11.822 -11.658  12.014  1.00  0.00     0.060 A 
BRANCH  84  85
ATOM     85  S   UNL     1     -12.317 -13.354  11.642  1.00  0.00     0.124 S 
ATOM     86  O   UNL     1     -13.582 -13.456  12.361  1.00  0.00    -0.237 OA
ATOM     87  O   UNL     1     -12.409 -13.331  10.186  1.00  0.00    -0.237 OA
ATOM     88  O   UNL     1     -11.220 -14.151  12.182  1.00  0.00    -0.744 OA
ENDBRANCH  84  85
ENDBRANCH  52  77
BRANCH  64  89
ATOM     89  C   UNL     1     -14.174  -3.733  15.907  1.00  0.00     0.058 A 
ATOM     90  C   UNL     1     -14.353  -4.322  17.169  1.00  0.00     0.135 A 
ATOM     91  C   UNL     1     -15.229  -2.963  15.390  1.00  0.00     0.135 A 
ATOM     92  F   UNL     1     -13.381  -5.075  17.707  1.00  0.00    -0.206 F 
ATOM     93  C   UNL     1     -15.536  -4.165  17.884  1.00  0.00     0.059 A 
ATOM     94  C   UNL     1     -16.410  -2.767  16.101  1.00  0.00     0.059 A 
ATOM     95  F   UNL     1     -15.110  -2.370  14.191  1.00  0.00    -0.206 F 
ATOM     96  C   UNL     1     -16.556  -3.378  17.345  1.00  0.00     0.060 A 
BRANCH  96  97
ATOM     97  S   UNL     1     -18.064  -3.145  18.310  1.00  0.00     0.124 S 
ATOM     98  O   UNL     1     -18.654  -4.479  18.266  1.00  0.00    -0.237 OA
ATOM     99  O   UNL     1     -17.540  -2.726  19.607  1.00  0.00    -0.237 OA
ATOM    100  O   UNL     1     -18.788  -2.115  17.571  1.00  0.00    -0.744 OA
ENDBRANCH  96  97
ENDBRANCH  64  89
ENDBRANCH  38  39
ENDBRANCH  31  33
ENDBRANCH  30  31
ENDBRANCH  29  30
ENDBRANCH  28  29
ENDBRANCH   1  28
TORSDOF 21
