REMARK SMILES Cc1ccc(O)c(C(=O)[C@@H]2[C@@H](C(=O)OCCOCCOC(=O)c3ccc(-c4c5nc(c(-c6c(F)cc(S(=O)(=O)[O-])cc6F)c6ccc([nH]6)c(-c6c(F)cc(S(=O)(=O)[O-])cc6F)c6nc(c(-c7c(F)cc(S(=O)(=O)[O-])cc7F)c7ccc4[nH]7)C=C6)C=C5)cc3)[C@H]3C=C[C@@H]2C3)c1
REMARK SMILES IDX 17 1 16 2 15 3 14 4 12 5 13 6 11 7 10 8 92 9 89 10 91 11
REMARK SMILES IDX 93 12 90 13 8 14 9 15 7 16 1 17 2 18 3 19 94 20 4 21 5 22
REMARK SMILES IDX 6 23 18 25 19 26 20 27 21 28 22 29 23 30 24 31 88 32 25 33
REMARK SMILES IDX 87 34 26 35 27 36 28 37 81 38 29 39 86 40 80 41 82 42 30 43
REMARK SMILES IDX 85 44 79 45 78 46 31 48 65 49 44 50 64 51 45 52 48 53 63 54
REMARK SMILES IDX 83 55 46 56 47 57 62 59 84 60 49 61 32 62 33 63 42 64 34 65
REMARK SMILES IDX 35 66 41 67 43 68 36 69 37 70 38 71 39 72 40 73 66 74 67 75
REMARK SMILES IDX 76 76 68 77 69 78 75 79 77 80 70 81 71 82 72 83 73 84 74 85
REMARK SMILES IDX 50 86 51 87 60 88 52 89 53 90 59 91 61 92 54 93 55 94 56 95
REMARK SMILES IDX 57 96 58 97
REMARK H PARENT 6 24 82 47 48 58
REMARK Flexibility Score: inf
ROOT
ATOM      1  O   UNL     1       0.547  -7.595   3.571  1.00  0.00    -0.374 OA
ENDROOT
BRANCH   1   2
ATOM      2  C   UNL     1      -0.518  -8.054   2.738  1.00  0.00     0.202 C 
BRANCH   2   3
ATOM      3  C   UNL     1      -1.481  -6.992   2.206  1.00  0.00     0.261 C 
BRANCH   3   4
ATOM      4  O   UNL     1      -0.823  -6.120   1.275  1.00  0.00    -0.463 OA
BRANCH   4   5
ATOM      5  C   UNL     1      -0.548  -4.876   1.728  1.00  0.00     0.310 C 
ATOM      6  O   UNL     1      -0.877  -4.434   2.824  1.00  0.00    -0.252 OA
BRANCH   5   7
ATOM      7  C   UNL     1       0.241  -4.037   0.750  1.00  0.00     0.117 C 
ATOM      8  C   UNL     1      -0.645  -3.530  -0.403  1.00  0.00     0.083 C 
ATOM      9  C   UNL     1       0.266  -3.717  -1.649  1.00  0.00     0.024 C 
ATOM     10  C   UNL     1       1.457  -4.659   0.005  1.00  0.00     0.027 C 
ATOM     11  C   UNL     1       0.322  -5.215  -1.914  1.00  0.00    -0.027 C 
ATOM     12  C   UNL     1       1.694  -3.619  -1.102  1.00  0.00     0.017 C 
ATOM     13  C   UNL     1       1.033  -5.772  -0.920  1.00  0.00    -0.027 C 
BRANCH   8  14
ATOM     14  C   UNL     1      -1.327  -2.185  -0.140  1.00  0.00     0.171 C 
ATOM     15  O   UNL     1      -2.558  -2.162  -0.001  1.00  0.00    -0.294 OA
BRANCH  14  16
ATOM     16  C   UNL     1      -0.635  -0.862  -0.052  1.00  0.00     0.060 A 
ATOM     17  C   UNL     1       2.860   0.583   0.395  1.00  0.00     0.044 C 
ATOM     18  C   UNL     1       1.375   0.513   0.193  1.00  0.00    -0.050 A 
ATOM     19  C   UNL     1       0.632   1.658  -0.085  1.00  0.00     0.007 A 
ATOM     20  C   UNL     1       0.714  -0.720   0.276  1.00  0.00     0.019 A 
ATOM     21  C   UNL     1      -0.743   1.560  -0.293  1.00  0.00     0.047 A 
ATOM     22  C   UNL     1      -1.367   0.312  -0.284  1.00  0.00     0.126 A 
BRANCH  22  23
ATOM     23  O   UNL     1      -2.721   0.324  -0.499  1.00  0.00    -0.507 OA
ATOM     24  H   UNL     1      -3.164   1.136  -0.649  1.00  0.00     0.293 HD
ENDBRANCH  22  23
ENDBRANCH  14  16
ENDBRANCH   8  14
ENDBRANCH   5   7
ENDBRANCH   4   5
ENDBRANCH   3   4
ENDBRANCH   2   3
ENDBRANCH   1   2
BRANCH   1  25
ATOM     25  C   UNL     1       1.681  -7.007   2.937  1.00  0.00     0.202 C 
BRANCH  25  26
ATOM     26  C   UNL     1       2.670  -7.956   2.249  1.00  0.00     0.261 C 
BRANCH  26  27
ATOM     27  O   UNL     1       2.126  -8.529   1.047  1.00  0.00    -0.460 OA
BRANCH  27  28
ATOM     28  C   UNL     1       1.807  -9.842   1.132  1.00  0.00     0.338 C 
ATOM     29  O   UNL     1       1.991 -10.581   2.092  1.00  0.00    -0.246 OA
BRANCH  28  30
ATOM     30  C   UNL     1       1.008 -10.246  -0.041  1.00  0.00     0.060 A 
ATOM     31  C   UNL     1      -0.190 -10.937   0.193  1.00  0.00     0.016 A 
ATOM     32  C   UNL     1       1.453 -10.020  -1.345  1.00  0.00     0.016 A 
ATOM     33  C   UNL     1      -0.916 -11.463  -0.874  1.00  0.00     0.010 A 
ATOM     34  C   UNL     1       0.727 -10.555  -2.413  1.00  0.00     0.010 A 
ATOM     35  C   UNL     1      -0.434 -11.316  -2.180  1.00  0.00    -0.014 A 
BRANCH  35  36
ATOM     36  C   UNL     1      -1.018 -12.116  -3.285  1.00  0.00     0.031 A 
ATOM     37  C   UNL     1      -0.283 -13.350  -3.738  1.00  0.00     0.074 A 
ATOM     38  C   UNL     1      -2.170 -11.757  -3.880  1.00  0.00     0.049 A 
ATOM     39  N   UNL     1      -0.512 -14.123  -4.766  1.00  0.00    -0.248 NA
ATOM     40  C   UNL     1       0.873 -13.758  -2.922  1.00  0.00     0.031 C 
ATOM     41  C   UNL     1      -3.005 -10.623  -3.491  1.00  0.00     0.029 A 
ATOM     42  N   UNL     1      -2.823 -12.305  -4.956  1.00  0.00    -0.354 N 
ATOM     43  C   UNL     1       0.482 -15.095  -4.735  1.00  0.00     0.074 A 
ATOM     44  C   UNL     1       1.328 -14.802  -3.599  1.00  0.00     0.031 C 
ATOM     45  C   UNL     1      -4.050 -10.544  -4.334  1.00  0.00     0.029 A 
ATOM     46  C   UNL     1      -3.932 -11.592  -5.347  1.00  0.00     0.049 A 
ATOM     47  H   UNL     1      -2.527 -13.130  -5.404  1.00  0.00     0.167 HD
ATOM     48  C   UNL     1       0.670 -16.137  -5.578  1.00  0.00     0.037 A 
ATOM     49  C   UNL     1      -4.733 -11.746  -6.420  1.00  0.00     0.037 A 
ATOM     50  C   UNL     1      -0.183 -16.426  -6.700  1.00  0.00     0.049 A 
ATOM     51  C   UNL     1      -4.463 -12.869  -7.390  1.00  0.00     0.074 A 
ATOM     52  C   UNL     1      -0.084 -17.463  -7.610  1.00  0.00     0.029 A 
ATOM     53  N   UNL     1      -1.289 -15.674  -7.068  1.00  0.00    -0.354 N 
ATOM     54  N   UNL     1      -3.519 -13.780  -7.356  1.00  0.00    -0.248 NA
ATOM     55  C   UNL     1      -5.364 -12.987  -8.547  1.00  0.00     0.031 C 
ATOM     56  C   UNL     1      -1.099 -17.309  -8.559  1.00  0.00     0.029 A 
ATOM     57  C   UNL     1      -1.869 -16.212  -8.203  1.00  0.00     0.049 A 
ATOM     58  H   UNL     1      -1.613 -14.875  -6.592  1.00  0.00     0.167 HD
ATOM     59  C   UNL     1      -3.739 -14.602  -8.457  1.00  0.00     0.074 A 
ATOM     60  C   UNL     1      -4.901 -14.077  -9.144  1.00  0.00     0.031 C 
ATOM     61  C   UNL     1      -3.047 -15.697  -8.857  1.00  0.00     0.037 A 
BRANCH  48  62
ATOM     62  C   UNL     1       1.862 -17.023  -5.341  1.00  0.00     0.058 A 
ATOM     63  C   UNL     1       1.929 -17.904  -4.250  1.00  0.00     0.135 A 
ATOM     64  C   UNL     1       2.940 -17.015  -6.242  1.00  0.00     0.135 A 
ATOM     65  F   UNL     1       0.935 -17.939  -3.348  1.00  0.00    -0.206 F 
ATOM     66  C   UNL     1       3.033 -18.725  -4.046  1.00  0.00     0.059 A 
ATOM     67  C   UNL     1       4.041 -17.849  -6.074  1.00  0.00     0.059 A 
ATOM     68  F   UNL     1       2.930 -16.190  -7.301  1.00  0.00    -0.206 F 
ATOM     69  C   UNL     1       4.084 -18.691  -4.964  1.00  0.00     0.060 A 
BRANCH  69  70
ATOM     70  S   UNL     1       5.508 -19.765  -4.687  1.00  0.00     0.124 S 
ATOM     71  O   UNL     1       6.148 -19.111  -3.549  1.00  0.00    -0.237 OA
ATOM     72  O   UNL     1       4.878 -21.051  -4.405  1.00  0.00    -0.237 OA
ATOM     73  O   UNL     1       6.241 -19.691  -5.946  1.00  0.00    -0.744 OA
ENDBRANCH  69  70
ENDBRANCH  48  62
BRANCH  49  74
ATOM     74  C   UNL     1      -5.858 -10.799  -6.649  1.00  0.00     0.058 A 
ATOM     75  C   UNL     1      -7.192 -11.215  -6.534  1.00  0.00     0.135 A 
ATOM     76  C   UNL     1      -5.620  -9.457  -6.989  1.00  0.00     0.135 A 
ATOM     77  F   UNL     1      -7.471 -12.490  -6.224  1.00  0.00    -0.206 F 
ATOM     78  C   UNL     1      -8.251 -10.341  -6.759  1.00  0.00     0.059 A 
ATOM     79  C   UNL     1      -6.662  -8.557  -7.193  1.00  0.00     0.059 A 
ATOM     80  F   UNL     1      -4.362  -9.004  -7.105  1.00  0.00    -0.206 F 
ATOM     81  C   UNL     1      -7.975  -9.012  -7.085  1.00  0.00     0.060 A 
BRANCH  81  82
ATOM     82  S   UNL     1      -9.358  -7.877  -7.332  1.00  0.00     0.124 S 
ATOM     83  O   UNL     1      -9.890  -8.336  -8.609  1.00  0.00    -0.237 OA
ATOM     84  O   UNL     1     -10.186  -8.146  -6.160  1.00  0.00    -0.237 OA
ATOM     85  O   UNL     1      -8.716  -6.566  -7.349  1.00  0.00    -0.744 OA
ENDBRANCH  81  82
ENDBRANCH  49  74
BRANCH  61  86
ATOM     86  C   UNL     1      -3.553 -16.460 -10.052  1.00  0.00     0.058 A 
ATOM     87  C   UNL     1      -3.390 -15.986 -11.361  1.00  0.00     0.135 A 
ATOM     88  C   UNL     1      -4.110 -17.739  -9.880  1.00  0.00     0.135 A 
ATOM     89  F   UNL     1      -2.870 -14.768 -11.580  1.00  0.00    -0.206 F 
ATOM     90  C   UNL     1      -3.763 -16.753 -12.461  1.00  0.00     0.059 A 
ATOM     91  C   UNL     1      -4.464 -18.534 -10.966  1.00  0.00     0.059 A 
ATOM     92  F   UNL     1      -4.278 -18.243  -8.648  1.00  0.00    -0.206 F 
ATOM     93  C   UNL     1      -4.288 -18.031 -12.254  1.00  0.00     0.060 A 
BRANCH  93  94
ATOM     94  S   UNL     1      -4.691 -19.047 -13.691  1.00  0.00     0.124 S 
ATOM     95  O   UNL     1      -5.892 -18.386 -14.192  1.00  0.00    -0.237 OA
ATOM     96  O   UNL     1      -3.497 -18.904 -14.518  1.00  0.00    -0.237 OA
ATOM     97  O   UNL     1      -4.898 -20.376 -13.123  1.00  0.00    -0.744 OA
ENDBRANCH  93  94
ENDBRANCH  61  86
ENDBRANCH  35  36
ENDBRANCH  28  30
ENDBRANCH  27  28
ENDBRANCH  26  27
ENDBRANCH  25  26
ENDBRANCH   1  25
TORSDOF 20
