REMARK SMILES CC[C@@](C)(NC(=O)c1cc(C)c(Br)s1)C(=O)OCCOCCOC(=O)c1ccc(-c2c3nc(c(-c4c(F)cc(S(=O)(=O)[O-])cc4F)c4ccc([nH]4)c(-c4c(F)cc(S(=O)(=O)[O-])cc4F)c4nc(c(-c5c(F)cc(S(=O)(=O)[O-])cc5F)c5ccc2[nH]5)C=C4)C=C3)cc1
REMARK SMILES IDX 21 1 20 2 19 3 18 4 17 5 15 6 16 7 3 8 4 9 2 10 1 11 5 12
REMARK SMILES IDX 6 13 7 15 8 16 9 17 14 18 10 19 12 20 11 21 13 22 22 23
REMARK SMILES IDX 23 24 24 25 25 26 26 27 27 28 91 29 28 30 90 31 29 32 30 33
REMARK SMILES IDX 31 34 84 35 32 36 89 37 83 38 85 39 33 40 88 41 82 42 81 43
REMARK SMILES IDX 34 45 68 46 47 47 67 48 48 49 51 50 66 51 86 52 49 53 50 54
REMARK SMILES IDX 65 56 87 57 52 58 35 59 36 60 45 61 37 62 38 63 44 64 46 65
REMARK SMILES IDX 39 66 40 67 41 68 42 69 43 70 69 71 70 72 79 73 71 74 72 75
REMARK SMILES IDX 78 76 80 77 73 78 74 79 75 80 76 81 77 82 53 83 54 84 63 85
REMARK SMILES IDX 55 86 56 87 62 88 64 89 57 90 58 91 59 92 60 93 61 94
REMARK H PARENT 5 14 85 44 51 55
REMARK Flexibility Score: inf
ROOT
ATOM      1  C   UNL     1       3.119  -2.774   1.348  1.00  0.00     0.202 C 
ENDROOT
BRANCH   1   2
ATOM      2  O   UNL     1       4.508  -2.417   1.333  1.00  0.00    -0.374 OA
BRANCH   2   3
ATOM      3  C   UNL     1       4.794  -1.319   0.449  1.00  0.00     0.202 C 
BRANCH   3   4
ATOM      4  C   UNL     1       4.642   0.086   1.057  1.00  0.00     0.261 C 
BRANCH   4   5
ATOM      5  O   UNL     1       3.471   0.143   1.873  1.00  0.00    -0.462 OA
BRANCH   5   6
ATOM      6  C   UNL     1       2.383   0.855   1.529  1.00  0.00     0.331 C 
ATOM      7  O   UNL     1       2.327   1.606   0.564  1.00  0.00    -0.249 OA
BRANCH   6   8
ATOM      8  C   UNL     1       1.179   0.462   2.446  1.00  0.00     0.135 C 
ATOM      9  C   UNL     1       0.390   1.728   2.813  1.00  0.00     0.047 C 
BRANCH   8  10
ATOM     10  C   UNL     1       0.226  -0.496   1.642  1.00  0.00     0.037 C 
ATOM     11  C   UNL     1       0.049  -0.209   0.152  1.00  0.00     0.007 C 
ENDBRANCH   8  10
BRANCH   8  12
ATOM     12  N   UNL     1       1.581  -0.262   3.709  1.00  0.00    -0.336 N 
ATOM     13  C   UNL     1       2.333   0.330   4.723  1.00  0.00     0.262 C 
ATOM     14  H   UNL     1       1.298  -1.198   3.822  1.00  0.00     0.165 HD
ATOM     15  O   UNL     1       1.720   0.874   5.641  1.00  0.00    -0.268 OA
BRANCH  13  16
ATOM     16  C   UNL     1       3.789   0.239   4.689  1.00  0.00     0.093 A 
ATOM     17  C   UNL     1       4.745   1.182   5.038  1.00  0.00     0.030 A 
ATOM     18  S   UNL     1       4.559  -1.228   4.318  1.00  0.00    -0.123 S 
ATOM     19  C   UNL     1       6.107   0.712   4.875  1.00  0.00    -0.025 A 
ATOM     20  C   UNL     1       6.102  -0.609   4.495  1.00  0.00     0.074 A 
ATOM     21  C   UNL     1       7.334   1.525   5.095  1.00  0.00     0.046 C 
ATOM     22  Br  UNL     1       7.625  -1.662   4.178  1.00  0.00    -0.039 Br
ENDBRANCH  13  16
ENDBRANCH   8  12
ENDBRANCH   6   8
ENDBRANCH   5   6
ENDBRANCH   4   5
ENDBRANCH   3   4
ENDBRANCH   2   3
ENDBRANCH   1   2
BRANCH   1  23
ATOM     23  C   UNL     1       2.807  -4.002   2.205  1.00  0.00     0.261 C 
BRANCH  23  24
ATOM     24  O   UNL     1       2.748  -3.648   3.598  1.00  0.00    -0.460 OA
BRANCH  24  25
ATOM     25  C   UNL     1       3.538  -4.387   4.403  1.00  0.00     0.338 C 
ATOM     26  O   UNL     1       4.194  -5.375   4.065  1.00  0.00    -0.246 OA
BRANCH  25  27
ATOM     27  C   UNL     1       3.581  -3.850   5.777  1.00  0.00     0.060 A 
ATOM     28  C   UNL     1       4.724  -4.153   6.530  1.00  0.00     0.016 A 
ATOM     29  C   UNL     1       2.516  -3.133   6.348  1.00  0.00     0.016 A 
ATOM     30  C   UNL     1       4.719  -3.944   7.895  1.00  0.00     0.010 A 
ATOM     31  C   UNL     1       2.513  -2.907   7.720  1.00  0.00     0.010 A 
ATOM     32  C   UNL     1       3.548  -3.463   8.484  1.00  0.00    -0.014 A 
BRANCH  32  33
ATOM     33  C   UNL     1       3.233  -4.057   9.786  1.00  0.00     0.031 A 
ATOM     34  C   UNL     1       3.711  -3.407  11.026  1.00  0.00     0.074 A 
ATOM     35  C   UNL     1       2.472  -5.176   9.789  1.00  0.00     0.049 A 
ATOM     36  N   UNL     1       4.489  -3.896  11.939  1.00  0.00    -0.248 NA
ATOM     37  C   UNL     1       3.291  -2.021  11.273  1.00  0.00     0.031 C 
ATOM     38  C   UNL     1       1.752  -5.757   8.644  1.00  0.00     0.029 A 
ATOM     39  N   UNL     1       2.073  -5.970  10.821  1.00  0.00    -0.354 N 
ATOM     40  C   UNL     1       4.480  -2.969  12.978  1.00  0.00     0.074 A 
ATOM     41  C   UNL     1       3.855  -1.778  12.457  1.00  0.00     0.031 C 
ATOM     42  C   UNL     1       0.825  -6.626   9.086  1.00  0.00     0.029 A 
ATOM     43  C   UNL     1       0.974  -6.764  10.519  1.00  0.00     0.049 A 
ATOM     44  H   UNL     1       2.521  -5.979  11.698  1.00  0.00     0.167 HD
ATOM     45  C   UNL     1       4.755  -3.313  14.268  1.00  0.00     0.037 A 
ATOM     46  C   UNL     1       0.171  -7.417  11.390  1.00  0.00     0.037 A 
ATOM     47  C   UNL     1       5.449  -4.567  14.374  1.00  0.00     0.049 A 
ATOM     48  C   UNL     1       0.930  -7.576  12.654  1.00  0.00     0.074 A 
ATOM     49  C   UNL     1       6.646  -5.063  13.893  1.00  0.00     0.029 A 
ATOM     50  N   UNL     1       4.751  -5.661  14.825  1.00  0.00    -0.354 N 
ATOM     51  N   UNL     1       1.990  -8.328  12.785  1.00  0.00    -0.248 NA
ATOM     52  C   UNL     1       0.752  -6.570  13.690  1.00  0.00     0.031 C 
ATOM     53  C   UNL     1       6.412  -6.449  13.655  1.00  0.00     0.029 A 
ATOM     54  C   UNL     1       5.095  -6.723  14.027  1.00  0.00     0.049 A 
ATOM     55  H   UNL     1       4.120  -5.679  15.581  1.00  0.00     0.167 HD
ATOM     56  C   UNL     1       2.813  -7.636  13.662  1.00  0.00     0.074 A 
ATOM     57  C   UNL     1       1.951  -6.631  14.274  1.00  0.00     0.031 C 
ATOM     58  C   UNL     1       4.173  -7.756  13.603  1.00  0.00     0.037 A 
BRANCH  45  59
ATOM     59  C   UNL     1       4.079  -2.659  15.446  1.00  0.00     0.058 A 
ATOM     60  C   UNL     1       4.627  -2.763  16.738  1.00  0.00     0.135 A 
ATOM     61  C   UNL     1       2.763  -2.147  15.375  1.00  0.00     0.135 A 
ATOM     62  F   UNL     1       5.854  -3.278  16.919  1.00  0.00    -0.206 F 
ATOM     63  C   UNL     1       3.906  -2.408  17.882  1.00  0.00     0.059 A 
ATOM     64  C   UNL     1       2.050  -1.733  16.492  1.00  0.00     0.059 A 
ATOM     65  F   UNL     1       2.079  -2.122  14.223  1.00  0.00    -0.206 F 
ATOM     66  C   UNL     1       2.614  -1.904  17.746  1.00  0.00     0.060 A 
BRANCH  66  67
ATOM     67  S   UNL     1       1.634  -1.542  19.215  1.00  0.00     0.124 S 
ATOM     68  O   UNL     1       1.270  -2.884  19.654  1.00  0.00    -0.237 OA
ATOM     69  O   UNL     1       2.591  -0.831  20.057  1.00  0.00    -0.237 OA
ATOM     70  O   UNL     1       0.541  -0.727  18.695  1.00  0.00    -0.744 OA
ENDBRANCH  66  67
ENDBRANCH  45  59
BRANCH  46  71
ATOM     71  C   UNL     1      -1.305  -7.559  11.279  1.00  0.00     0.058 A 
ATOM     72  C   UNL     1      -2.014  -8.460  12.088  1.00  0.00     0.135 A 
ATOM     73  C   UNL     1      -2.087  -6.641  10.542  1.00  0.00     0.135 A 
ATOM     74  F   UNL     1      -1.353  -9.347  12.847  1.00  0.00    -0.206 F 
ATOM     75  C   UNL     1      -3.410  -8.432  12.187  1.00  0.00     0.059 A 
ATOM     76  C   UNL     1      -3.477  -6.609  10.606  1.00  0.00     0.059 A 
ATOM     77  F   UNL     1      -1.522  -5.678   9.798  1.00  0.00    -0.206 F 
ATOM     78  C   UNL     1      -4.132  -7.492  11.451  1.00  0.00     0.060 A 
BRANCH  78  79
ATOM     79  S   UNL     1      -5.916  -7.342  11.695  1.00  0.00     0.124 S 
ATOM     80  O   UNL     1      -6.407  -8.581  11.102  1.00  0.00    -0.237 OA
ATOM     81  O   UNL     1      -6.021  -7.242  13.146  1.00  0.00    -0.237 OA
ATOM     82  O   UNL     1      -6.258  -6.124  10.964  1.00  0.00    -0.744 OA
ENDBRANCH  78  79
ENDBRANCH  46  71
BRANCH  58  83
ATOM     83  C   UNL     1       4.751  -8.890  12.794  1.00  0.00     0.058 A 
ATOM     84  C   UNL     1       4.631  -8.993  11.397  1.00  0.00     0.135 A 
ATOM     85  C   UNL     1       5.586  -9.819  13.433  1.00  0.00     0.135 A 
ATOM     86  F   UNL     1       3.942  -8.081  10.699  1.00  0.00    -0.206 F 
ATOM     87  C   UNL     1       5.276  -9.997  10.673  1.00  0.00     0.059 A 
ATOM     88  C   UNL     1       6.263 -10.813  12.727  1.00  0.00     0.059 A 
ATOM     89  F   UNL     1       5.797  -9.735  14.758  1.00  0.00    -0.206 F 
ATOM     90  C   UNL     1       6.093 -10.904  11.347  1.00  0.00     0.060 A 
BRANCH  90  91
ATOM     91  S   UNL     1       7.000 -12.144  10.397  1.00  0.00     0.124 S 
ATOM     92  O   UNL     1       5.948 -13.093  10.047  1.00  0.00    -0.237 OA
ATOM     93  O   UNL     1       7.545 -11.364   9.289  1.00  0.00    -0.237 OA
ATOM     94  O   UNL     1       7.996 -12.639  11.345  1.00  0.00    -0.744 OA
ENDBRANCH  90  91
ENDBRANCH  58  83
ENDBRANCH  32  33
ENDBRANCH  25  27
ENDBRANCH  24  25
ENDBRANCH  23  24
ENDBRANCH   1  23
TORSDOF 20
