REMARK SMILES Cc1ccc(-c2cc(Cl)cc3c2O[C@H](C(F)(F)F)C(C(=O)OCCOCCOC(=O)c2ccc(-c4c5nc(c(-c6c(F)cc(S(=O)(=O)[O-])cc6F)c6ccc([nH]6)c(-c6c(F)cc(S(=O)(=O)[O-])cc6F)c6nc(c(-c7c(F)cc(S(=O)(=O)[O-])cc7F)c7ccc4[nH]7)C=C6)C=C5)cc2)=C3)cc1F
REMARK SMILES IDX 26 1 25 2 24 3 23 4 22 5 20 6 21 7 19 8 6 9 7 10 12 11 8 12
REMARK SMILES IDX 11 13 13 14 9 15 10 16 97 17 14 18 5 19 1 20 2 21 3 22 99 23
REMARK SMILES IDX 4 24 98 25 100 26 15 27 16 28 17 29 18 30 27 31 28 32 29 33
REMARK SMILES IDX 30 34 31 35 32 36 96 37 33 38 95 39 34 40 35 41 36 42 89 43
REMARK SMILES IDX 37 44 94 45 88 46 90 47 38 48 93 49 87 50 86 51 39 53 73 54
REMARK SMILES IDX 52 55 72 56 53 57 56 58 71 59 91 60 54 61 55 62 70 64 92 65
REMARK SMILES IDX 57 66 40 67 41 68 50 69 42 70 43 71 49 72 51 73 44 74 45 75
REMARK SMILES IDX 46 76 47 77 48 78 74 79 75 80 84 81 76 82 77 83 83 84 85 85
REMARK SMILES IDX 78 86 79 87 80 88 81 89 82 90 58 91 59 92 68 93 60 94 61 95
REMARK SMILES IDX 67 96 69 97 62 98 63 99 64 100 65 101 66 102
REMARK H PARENT 90 52 56 63
REMARK Flexibility Score: inf
ROOT
ATOM      1  C   UNL     1      -6.466  -6.002   7.234  1.00  0.00     0.202 C 
ENDROOT
BRANCH   1   2
ATOM      2  O   UNL     1      -5.511  -6.360   6.236  1.00  0.00    -0.374 OA
BRANCH   2   3
ATOM      3  C   UNL     1      -4.159  -6.582   6.649  1.00  0.00     0.202 C 
BRANCH   3   4
ATOM      4  C   UNL     1      -2.953  -5.512   6.148  1.00  0.00     0.261 C 
BRANCH   4   5
ATOM      5  O   UNL     1      -2.399  -5.004   4.282  1.00  0.00    -0.460 OA
BRANCH   5   6
ATOM      6  C   UNL     1      -1.959  -4.997   2.941  1.00  0.00     0.338 C 
ATOM      7  O   UNL     1      -1.417  -5.912   2.332  1.00  0.00    -0.246 OA
BRANCH   6   8
ATOM      8  C   UNL     1      -2.434  -3.809   2.205  1.00  0.00     0.087 C 
ATOM      9  C   UNL     1      -2.947  -0.963  -0.730  1.00  0.00     0.026 A 
ATOM     10  C   UNL     1      -3.981  -1.093  -1.659  1.00  0.00     0.033 A 
ATOM     11  C   UNL     1      -2.931  -1.815   0.393  1.00  0.00     0.135 A 
ATOM     12  C   UNL     1      -4.972  -2.060  -1.456  1.00  0.00     0.042 A 
ATOM     13  C   UNL     1      -3.857  -2.844   0.540  1.00  0.00     0.019 A 
ATOM     14  O   UNL     1      -1.948  -1.568   1.315  1.00  0.00    -0.475 OA
ATOM     15  Cl  UNL     1      -6.237  -2.228  -2.617  1.00  0.00    -0.084 Cl
ATOM     16  C   UNL     1      -4.914  -2.939  -0.370  1.00  0.00     0.032 A 
ATOM     17  C   UNL     1      -3.588  -3.888   1.521  1.00  0.00     0.027 C 
ATOM     18  C   UNL     1      -1.490  -2.655   2.139  1.00  0.00     0.316 C 
BRANCH   9  19
ATOM     19  C   UNL     1      -1.798  -0.067  -0.915  1.00  0.00    -0.012 A 
ATOM     20  C   UNL     1       1.821   2.110  -0.104  1.00  0.00     0.047 C 
ATOM     21  C   UNL     1       0.561   1.416  -0.517  1.00  0.00    -0.015 A 
ATOM     22  C   UNL     1      -0.693   2.017  -0.347  1.00  0.00     0.007 A 
ATOM     23  C   UNL     1       0.618   0.095  -0.959  1.00  0.00     0.126 A 
ATOM     24  C   UNL     1      -1.866   1.282  -0.548  1.00  0.00     0.009 A 
ATOM     25  C   UNL     1      -0.540  -0.636  -1.179  1.00  0.00     0.048 A 
ATOM     26  F   UNL     1       1.804  -0.515  -1.099  1.00  0.00    -0.207 F 
ENDBRANCH   9  19
BRANCH  18  27
ATOM     27  C   UNL     1      -0.093  -3.062   1.661  1.00  0.00     0.430 C 
ATOM     28  F   UNL     1       0.733  -1.991   1.583  1.00  0.00    -0.167 F 
ATOM     29  F   UNL     1       0.500  -3.935   2.507  1.00  0.00    -0.167 F 
ATOM     30  F   UNL     1      -0.124  -3.633   0.433  1.00  0.00    -0.167 F 
ENDBRANCH  18  27
ENDBRANCH   6   8
ENDBRANCH   5   6
ENDBRANCH   4   5
ENDBRANCH   3   4
ENDBRANCH   2   3
ENDBRANCH   1   2
BRANCH   1  31
ATOM     31  C   UNL     1      -6.455  -4.510   7.574  1.00  0.00     0.261 C 
BRANCH  31  32
ATOM     32  O   UNL     1      -5.263  -4.201   8.302  1.00  0.00    -0.460 OA
BRANCH  32  33
ATOM     33  C   UNL     1      -5.312  -4.347   9.644  1.00  0.00     0.338 C 
ATOM     34  O   UNL     1      -6.296  -4.416  10.359  1.00  0.00    -0.246 OA
BRANCH  33  35
ATOM     35  C   UNL     1      -3.987  -4.907   9.979  1.00  0.00     0.060 A 
ATOM     36  C   UNL     1      -2.804  -4.343   9.484  1.00  0.00     0.016 A 
ATOM     37  C   UNL     1      -4.014  -6.216  10.472  1.00  0.00     0.016 A 
ATOM     38  C   UNL     1      -1.668  -5.146   9.358  1.00  0.00     0.010 A 
ATOM     39  C   UNL     1      -2.895  -7.016  10.316  1.00  0.00     0.010 A 
ATOM     40  C   UNL     1      -1.746  -6.502   9.701  1.00  0.00    -0.014 A 
BRANCH  40  41
ATOM     41  C   UNL     1      -0.679  -7.454   9.394  1.00  0.00     0.031 A 
ATOM     42  C   UNL     1       0.524  -7.513  10.243  1.00  0.00     0.074 A 
ATOM     43  C   UNL     1      -0.776  -8.303   8.344  1.00  0.00     0.049 A 
ATOM     44  N   UNL     1       1.690  -7.880   9.829  1.00  0.00    -0.248 NA
ATOM     45  C   UNL     1       0.486  -7.152  11.656  1.00  0.00     0.031 C 
ATOM     46  C   UNL     1       0.112  -9.413   8.004  1.00  0.00     0.029 A 
ATOM     47  N   UNL     1      -1.603  -8.186   7.215  1.00  0.00    -0.354 N 
ATOM     48  C   UNL     1       2.444  -8.131  10.949  1.00  0.00     0.074 A 
ATOM     49  C   UNL     1       1.694  -7.565  12.051  1.00  0.00     0.031 C 
ATOM     50  C   UNL     1       0.035  -9.629   6.679  1.00  0.00     0.029 A 
ATOM     51  C   UNL     1      -0.797  -8.571   6.119  1.00  0.00     0.049 A 
ATOM     52  H   UNL     1      -2.544  -7.897   7.192  1.00  0.00     0.167 HD
ATOM     53  C   UNL     1       3.531  -8.951  10.877  1.00  0.00     0.037 A 
ATOM     54  C   UNL     1      -0.407  -7.690   5.155  1.00  0.00     0.037 A 
ATOM     55  C   UNL     1       3.818  -9.399   9.518  1.00  0.00     0.049 A 
ATOM     56  C   UNL     1       1.123  -7.576   4.996  1.00  0.00     0.074 A 
ATOM     57  C   UNL     1       3.628 -10.582   8.820  1.00  0.00     0.029 A 
ATOM     58  N   UNL     1       4.152  -8.454   8.562  1.00  0.00    -0.354 N 
ATOM     59  N   UNL     1       1.995  -8.109   5.814  1.00  0.00    -0.248 NA
ATOM     60  C   UNL     1       1.790  -6.797   3.946  1.00  0.00     0.031 C 
ATOM     61  C   UNL     1       3.845 -10.335   7.438  1.00  0.00     0.029 A 
ATOM     62  C   UNL     1       4.138  -8.995   7.293  1.00  0.00     0.049 A 
ATOM     63  H   UNL     1       4.371  -7.515   8.763  1.00  0.00     0.167 HD
ATOM     64  C   UNL     1       3.273  -7.751   5.445  1.00  0.00     0.074 A 
ATOM     65  C   UNL     1       3.092  -6.928   4.268  1.00  0.00     0.031 C 
ATOM     66  C   UNL     1       4.381  -8.136   6.147  1.00  0.00     0.037 A 
BRANCH  53  67
ATOM     67  C   UNL     1       4.106  -9.555  12.131  1.00  0.00     0.058 A 
ATOM     68  C   UNL     1       4.366 -10.935  12.226  1.00  0.00     0.135 A 
ATOM     69  C   UNL     1       4.329  -8.815  13.309  1.00  0.00     0.135 A 
ATOM     70  F   UNL     1       4.248 -11.749  11.171  1.00  0.00    -0.206 F 
ATOM     71  C   UNL     1       4.713 -11.556  13.422  1.00  0.00     0.059 A 
ATOM     72  C   UNL     1       4.629  -9.420  14.534  1.00  0.00     0.059 A 
ATOM     73  F   UNL     1       4.231  -7.475  13.302  1.00  0.00    -0.206 F 
ATOM     74  C   UNL     1       4.804 -10.798  14.581  1.00  0.00     0.060 A 
BRANCH  74  75
ATOM     75  S   UNL     1       5.095 -11.655  16.140  1.00  0.00     0.124 S 
ATOM     76  O   UNL     1       4.125 -12.745  16.080  1.00  0.00    -0.237 OA
ATOM     77  O   UNL     1       6.495 -12.044  16.013  1.00  0.00    -0.237 OA
ATOM     78  O   UNL     1       4.811 -10.633  17.144  1.00  0.00    -0.744 OA
ENDBRANCH  74  75
ENDBRANCH  53  67
BRANCH  54  79
ATOM     79  C   UNL     1      -1.359  -6.555   4.919  1.00  0.00     0.058 A 
ATOM     80  C   UNL     1      -3.078  -6.773   4.348  1.00  0.00     0.135 A 
ATOM     81  C   UNL     1      -0.842  -4.915   5.450  1.00  0.00     0.135 A 
ATOM     82  F   UNL     1      -3.507  -7.983   3.958  1.00  0.00    -0.206 F 
ATOM     83  C   UNL     1      -4.248  -5.361   4.334  1.00  0.00     0.059 A 
ATOM     84  C   UNL     1      -1.970  -3.535   5.477  1.00  0.00     0.059 A 
ATOM     85  F   UNL     1       0.398  -4.733   5.925  1.00  0.00    -0.206 F 
ATOM     86  C   UNL     1      -3.675  -3.749   4.927  1.00  0.00     0.060 A 
BRANCH  86  87
ATOM     87  S   UNL     1      -4.670  -2.277   4.928  1.00  0.00     0.124 S 
ATOM     88  O   UNL     1      -5.904  -2.720   4.292  1.00  0.00    -0.237 OA
ATOM     89  O   UNL     1      -4.753  -1.970   6.351  1.00  0.00    -0.237 OA
ATOM     90  O   UNL     1      -3.839  -1.368   4.147  1.00  0.00    -0.744 OA
ENDBRANCH  86  87
ENDBRANCH  54  79
BRANCH  66  91
ATOM     91  C   UNL     1       5.813  -7.804   5.812  1.00  0.00     0.058 A 
ATOM     92  C   UNL     1       6.372  -8.030   4.546  1.00  0.00     0.135 A 
ATOM     93  C   UNL     1       6.721  -7.441   6.835  1.00  0.00     0.135 A 
ATOM     94  F   UNL     1       5.598  -8.410   3.518  1.00  0.00    -0.206 F 
ATOM     95  C   UNL     1       7.748  -7.912   4.309  1.00  0.00     0.059 A 
ATOM     96  C   UNL     1       8.098  -7.356   6.633  1.00  0.00     0.059 A 
ATOM     97  F   UNL     1       6.286  -7.151   8.072  1.00  0.00    -0.206 F 
ATOM     98  C   UNL     1       8.605  -7.586   5.362  1.00  0.00     0.060 A 
BRANCH  98  99
ATOM     99  S   UNL     1      10.390  -7.511   5.088  1.00  0.00     0.124 S 
ATOM    100  O   UNL     1      10.606  -8.536   4.070  1.00  0.00    -0.237 OA
ATOM    101  O   UNL     1      10.561  -6.133   4.641  1.00  0.00    -0.237 OA
ATOM    102  O   UNL     1      10.946  -7.821   6.402  1.00  0.00    -0.744 OA
ENDBRANCH  98  99
ENDBRANCH  66  91
ENDBRANCH  40  41
ENDBRANCH  33  35
ENDBRANCH  32  33
ENDBRANCH  31  32
ENDBRANCH   1  31
TORSDOF 19
