REMARK SMILES C[C@]12CCC(=O)N1[C@H](C(=O)N1CCC[C@@H]1C(=O)OCCOCCOC(=O)c1ccc(-c3c4nc(c(-c5c(F)cc(S(=O)(=O)[O-])cc5F)c5ccc([nH]5)c(-c5c(F)cc(S(=O)(=O)[O-])cc5F)c5nc(c(-c6c(F)cc(S(=O)(=O)[O-])cc6F)c6ccc3[nH]6)C=C5)C=C4)cc1)CS2
REMARK SMILES IDX 22 1 21 2 20 3 19 4 18 5 16 6 17 7 15 8 11 9 12 10 13 11
REMARK SMILES IDX 14 12 9 13 10 14 8 15 1 16 2 17 3 18 7 19 94 20 4 21 5 22
REMARK SMILES IDX 93 23 6 24 23 25 24 26 25 27 26 28 27 29 28 30 92 31 29 32
REMARK SMILES IDX 91 33 30 34 31 35 32 36 85 37 33 38 90 39 84 40 86 41 34 42
REMARK SMILES IDX 89 43 83 44 82 45 35 47 69 48 48 49 68 50 49 51 52 52 67 53
REMARK SMILES IDX 87 54 50 55 51 56 66 58 88 59 53 60 36 61 37 62 46 63 38 64
REMARK SMILES IDX 39 65 45 66 47 67 40 68 41 69 42 70 43 71 44 72 70 73 71 74
REMARK SMILES IDX 80 75 72 76 73 77 79 78 81 79 74 80 75 81 76 82 77 83 78 84
REMARK SMILES IDX 54 85 55 86 64 87 56 88 57 89 63 90 65 91 58 92 59 93 60 94
REMARK SMILES IDX 61 95 62 96
REMARK H PARENT 86 46 52 57
REMARK Flexibility Score: inf
ROOT
ATOM      1  C   UNL     1       4.126  -4.989  -3.905  1.00  0.00     0.202 C 
ENDROOT
BRANCH   1   2
ATOM      2  O   UNL     1       4.087  -4.780  -5.319  1.00  0.00    -0.374 OA
BRANCH   2   3
ATOM      3  C   UNL     1       5.244  -4.242  -5.955  1.00  0.00     0.202 C 
BRANCH   3   4
ATOM      4  C   UNL     1       5.555  -2.765  -5.691  1.00  0.00     0.261 C 
BRANCH   4   5
ATOM      5  O   UNL     1       5.589  -2.479  -4.286  1.00  0.00    -0.462 OA
BRANCH   5   6
ATOM      6  C   UNL     1       4.884  -1.378  -3.905  1.00  0.00     0.328 C 
ATOM      7  O   UNL     1       4.475  -0.513  -4.673  1.00  0.00    -0.250 OA
BRANCH   6   8
ATOM      8  C   UNL     1       4.476  -1.466  -2.419  1.00  0.00     0.195 C 
ATOM      9  N   UNL     1       4.022  -0.156  -1.945  1.00  0.00    -0.327 N 
ATOM     10  C   UNL     1       4.996   0.464  -1.069  1.00  0.00     0.120 C 
ATOM     11  C   UNL     1       6.222  -0.430  -1.148  1.00  0.00     0.024 C 
ATOM     12  C   UNL     1       5.640  -1.799  -1.484  1.00  0.00     0.039 C 
BRANCH   9  13
ATOM     13  C   UNL     1       2.844   0.483  -2.274  1.00  0.00     0.247 C 
ATOM     14  O   UNL     1       2.651   1.651  -1.927  1.00  0.00    -0.272 OA
BRANCH  13  15
ATOM     15  C   UNL     1       1.741  -0.348  -2.971  1.00  0.00     0.186 C 
ATOM     16  C   UNL     1       0.513   0.144   0.034  1.00  0.00     0.047 C 
ATOM     17  C   UNL     1      -0.024  -0.470  -1.259  1.00  0.00     0.087 C 
ATOM     18  C   UNL     1      -1.076  -1.531  -0.933  1.00  0.00     0.049 C 
ATOM     19  N   UNL     1       0.975  -1.173  -2.028  1.00  0.00    -0.315 N 
ATOM     20  S   UNL     1      -0.631   0.823  -2.404  1.00  0.00    -0.131 SA
ATOM     21  C   UNL     1      -0.895  -2.605  -1.990  1.00  0.00     0.103 C 
ATOM     22  C   UNL     1       0.534  -2.428  -2.433  1.00  0.00     0.224 C 
ATOM     23  C   UNL     1       0.697   0.549  -3.646  1.00  0.00     0.107 C 
ATOM     24  O   UNL     1       1.147  -3.202  -3.151  1.00  0.00    -0.275 OA
ENDBRANCH  13  15
ENDBRANCH   9  13
ENDBRANCH   6   8
ENDBRANCH   5   6
ENDBRANCH   4   5
ENDBRANCH   3   4
ENDBRANCH   2   3
ENDBRANCH   1   2
BRANCH   1  25
ATOM     25  C   UNL     1       5.107  -6.040  -3.371  1.00  0.00     0.261 C 
BRANCH  25  26
ATOM     26  O   UNL     1       6.483  -5.685  -3.608  1.00  0.00    -0.460 OA
BRANCH  26  27
ATOM     27  C   UNL     1       7.192  -6.626  -4.282  1.00  0.00     0.338 C 
ATOM     28  O   UNL     1       6.818  -7.743  -4.598  1.00  0.00    -0.246 OA
BRANCH  27  29
ATOM     29  C   UNL     1       8.463  -6.061  -4.772  1.00  0.00     0.060 A 
ATOM     30  C   UNL     1       8.661  -6.031  -6.158  1.00  0.00     0.016 A 
ATOM     31  C   UNL     1       9.486  -5.691  -3.898  1.00  0.00     0.016 A 
ATOM     32  C   UNL     1       9.904  -5.679  -6.676  1.00  0.00     0.010 A 
ATOM     33  C   UNL     1      10.741  -5.350  -4.421  1.00  0.00     0.010 A 
ATOM     34  C   UNL     1      10.965  -5.384  -5.809  1.00  0.00    -0.014 A 
BRANCH  34  35
ATOM     35  C   UNL     1      12.334  -5.285  -6.372  1.00  0.00     0.031 A 
ATOM     36  C   UNL     1      13.213  -6.507  -6.369  1.00  0.00     0.074 A 
ATOM     37  C   UNL     1      12.761  -4.146  -6.943  1.00  0.00     0.049 A 
ATOM     38  N   UNL     1      14.405  -6.673  -6.881  1.00  0.00    -0.248 NA
ATOM     39  C   UNL     1      12.673  -7.702  -5.700  1.00  0.00     0.031 C 
ATOM     40  C   UNL     1      11.996  -2.903  -7.024  1.00  0.00     0.029 A 
ATOM     41  N   UNL     1      13.946  -3.855  -7.571  1.00  0.00    -0.354 N 
ATOM     42  C   UNL     1      14.757  -7.989  -6.603  1.00  0.00     0.074 A 
ATOM     43  C   UNL     1      13.666  -8.567  -5.847  1.00  0.00     0.031 C 
ATOM     44  C   UNL     1      12.734  -1.979  -7.664  1.00  0.00     0.029 A 
ATOM     45  C   UNL     1      14.024  -2.563  -8.029  1.00  0.00     0.049 A 
ATOM     46  H   UNL     1      14.672  -4.511  -7.682  1.00  0.00     0.167 HD
ATOM     47  C   UNL     1      15.880  -8.659  -6.954  1.00  0.00     0.037 A 
ATOM     48  C   UNL     1      15.022  -1.925  -8.670  1.00  0.00     0.037 A 
ATOM     49  C   UNL     1      16.967  -8.082  -7.701  1.00  0.00     0.049 A 
ATOM     50  C   UNL     1      16.273  -2.682  -9.031  1.00  0.00     0.074 A 
ATOM     51  C   UNL     1      18.141  -8.683  -8.122  1.00  0.00     0.029 A 
ATOM     52  N   UNL     1      17.017  -6.764  -8.132  1.00  0.00    -0.354 N 
ATOM     53  N   UNL     1      16.575  -3.937  -8.795  1.00  0.00    -0.248 NA
ATOM     54  C   UNL     1      17.311  -1.939  -9.758  1.00  0.00     0.031 C 
ATOM     55  C   UNL     1      18.916  -7.717  -8.777  1.00  0.00     0.029 A 
ATOM     56  C   UNL     1      18.208  -6.527  -8.798  1.00  0.00     0.049 A 
ATOM     57  H   UNL     1      16.309  -6.096  -7.986  1.00  0.00     0.167 HD
ATOM     58  C   UNL     1      17.829  -4.140  -9.362  1.00  0.00     0.074 A 
ATOM     59  C   UNL     1      18.221  -2.881  -9.964  1.00  0.00     0.031 C 
ATOM     60  C   UNL     1      18.586  -5.265  -9.385  1.00  0.00     0.037 A 
BRANCH  47  61
ATOM     61  C   UNL     1      15.993 -10.090  -6.507  1.00  0.00     0.058 A 
ATOM     62  C   UNL     1      15.232 -11.110  -7.101  1.00  0.00     0.135 A 
ATOM     63  C   UNL     1      16.869 -10.445  -5.470  1.00  0.00     0.135 A 
ATOM     64  F   UNL     1      14.365 -10.821  -8.084  1.00  0.00    -0.206 F 
ATOM     65  C   UNL     1      15.311 -12.427  -6.659  1.00  0.00     0.059 A 
ATOM     66  C   UNL     1      16.981 -11.759  -5.027  1.00  0.00     0.059 A 
ATOM     67  F   UNL     1      17.617  -9.508  -4.867  1.00  0.00    -0.206 F 
ATOM     68  C   UNL     1      16.183 -12.740  -5.615  1.00  0.00     0.060 A 
BRANCH  68  69
ATOM     69  S   UNL     1      16.262 -14.447  -5.033  1.00  0.00     0.124 S 
ATOM     70  O   UNL     1      15.036 -14.542  -4.247  1.00  0.00    -0.237 OA
ATOM     71  O   UNL     1      16.276 -15.206  -6.280  1.00  0.00    -0.237 OA
ATOM     72  O   UNL     1      17.504 -14.487  -4.267  1.00  0.00    -0.744 OA
ENDBRANCH  68  69
ENDBRANCH  47  61
BRANCH  48  73
ATOM     73  C   UNL     1      14.871  -0.490  -9.023  1.00  0.00     0.058 A 
ATOM     74  C   UNL     1      14.669  -0.084 -10.350  1.00  0.00     0.135 A 
ATOM     75  C   UNL     1      14.906   0.502  -8.031  1.00  0.00     0.135 A 
ATOM     76  F   UNL     1      14.638  -0.996 -11.333  1.00  0.00    -0.206 F 
ATOM     77  C   UNL     1      14.512   1.258 -10.684  1.00  0.00     0.059 A 
ATOM     78  C   UNL     1      14.732   1.848  -8.338  1.00  0.00     0.059 A 
ATOM     79  F   UNL     1      15.086   0.162  -6.745  1.00  0.00    -0.206 F 
ATOM     80  C   UNL     1      14.542   2.216  -9.669  1.00  0.00     0.060 A 
BRANCH  80  81
ATOM     81  S   UNL     1      14.268   3.949 -10.101  1.00  0.00     0.124 S 
ATOM     82  O   UNL     1      15.555   4.313 -10.682  1.00  0.00    -0.237 OA
ATOM     83  O   UNL     1      13.148   3.861 -11.032  1.00  0.00    -0.237 OA
ATOM     84  O   UNL     1      13.957   4.567  -8.815  1.00  0.00    -0.744 OA
ENDBRANCH  80  81
ENDBRANCH  48  73
BRANCH  60  85
ATOM     85  C   UNL     1      19.905  -5.188 -10.102  1.00  0.00     0.058 A 
ATOM     86  C   UNL     1      21.002  -4.503  -9.555  1.00  0.00     0.135 A 
ATOM     87  C   UNL     1      20.079  -5.820 -11.344  1.00  0.00     0.135 A 
ATOM     88  F   UNL     1      20.886  -3.880  -8.372  1.00  0.00    -0.206 F 
ATOM     89  C   UNL     1      22.214  -4.415 -10.231  1.00  0.00     0.059 A 
ATOM     90  C   UNL     1      21.291  -5.765 -12.027  1.00  0.00     0.059 A 
ATOM     91  F   UNL     1      19.067  -6.500 -11.905  1.00  0.00    -0.206 F 
ATOM     92  C   UNL     1      22.346  -5.043 -11.471  1.00  0.00     0.060 A 
BRANCH  92  93
ATOM     93  S   UNL     1      23.922  -4.923 -12.345  1.00  0.00     0.124 S 
ATOM     94  O   UNL     1      23.836  -3.585 -12.921  1.00  0.00    -0.237 OA
ATOM     95  O   UNL     1      24.895  -5.090 -11.270  1.00  0.00    -0.237 OA
ATOM     96  O   UNL     1      23.861  -6.025 -13.302  1.00  0.00    -0.744 OA
ENDBRANCH  92  93
ENDBRANCH  60  85
ENDBRANCH  34  35
ENDBRANCH  27  29
ENDBRANCH  26  27
ENDBRANCH  25  26
ENDBRANCH   1  25
TORSDOF 19
