REMARK SMILES O=C(OCCOCCOC(=O)c1cnc2c(ccn2C2CCCCC2)c1)c1ccc(-c2c3nc(c(-c4c(F)cc(S(=O)(=O)[O-])cc4F)c4ccc([nH]4)c(-c4c(F)cc(S(=O)(=O)[O-])cc4F)c4nc(c(-c5c(F)cc(S(=O)(=O)[O-])cc5F)c5ccc2[nH]5)C=C4)C=C3)cc1
REMARK SMILES IDX 5 1 4 2 3 3 2 4 1 5 27 6 28 7 92 8 29 9 91 10 30 11 31 12
REMARK SMILES IDX 32 13 85 14 33 15 90 16 84 17 86 18 34 19 89 20 83 21 82 22
REMARK SMILES IDX 35 24 69 25 48 26 68 27 49 28 52 29 67 30 87 31 50 32 51 33
REMARK SMILES IDX 66 35 88 36 53 37 36 38 37 39 46 40 38 41 39 42 45 43 47 44
REMARK SMILES IDX 40 45 41 46 42 47 43 48 44 49 70 50 71 51 80 52 72 53 73 54
REMARK SMILES IDX 79 55 81 56 74 57 75 58 76 59 77 60 78 61 54 62 55 63 64 64
REMARK SMILES IDX 56 65 57 66 63 67 65 68 58 69 59 70 60 71 61 72 62 73 6 74
REMARK SMILES IDX 7 75 8 76 9 77 10 78 11 79 12 80 13 81 26 82 14 83 16 84
REMARK SMILES IDX 15 85 17 86 19 87 18 88 20 89 21 90 25 91 22 92 24 93 23 94
REMARK H PARENT 86 23 52 34
REMARK Flexibility Score: inf
ROOT
ATOM      1  C   UNL     1       4.904  -0.278  -0.943  1.00  0.00     0.202 C 
ENDROOT
BRANCH   1   2
ATOM      2  C   UNL     1       4.549  -1.366   0.076  1.00  0.00     0.261 C 
BRANCH   2   3
ATOM      3  O   UNL     1       3.149  -1.663   0.093  1.00  0.00    -0.460 OA
BRANCH   3   4
ATOM      4  C   UNL     1       2.166  -0.869   0.574  1.00  0.00     0.338 C 
ATOM      5  O   UNL     1       1.021  -1.026   0.150  1.00  0.00    -0.246 OA
BRANCH   4   6
ATOM      6  C   UNL     1       2.389   0.092   1.686  1.00  0.00     0.060 A 
ATOM      7  C   UNL     1       3.627   0.548   2.140  1.00  0.00     0.016 A 
ATOM      8  C   UNL     1       1.232   0.459   2.392  1.00  0.00     0.016 A 
ATOM      9  C   UNL     1       3.748   1.049   3.415  1.00  0.00     0.010 A 
ATOM     10  C   UNL     1       1.334   1.040   3.639  1.00  0.00     0.010 A 
ATOM     11  C   UNL     1       2.601   1.218   4.178  1.00  0.00    -0.014 A 
BRANCH  11  12
ATOM     12  C   UNL     1       2.799   1.661   5.539  1.00  0.00     0.031 A 
ATOM     13  C   UNL     1       3.340   3.037   5.643  1.00  0.00     0.074 A 
ATOM     14  C   UNL     1       2.470   0.873   6.577  1.00  0.00     0.049 A 
ATOM     15  N   UNL     1       4.471   3.423   6.135  1.00  0.00    -0.248 NA
ATOM     16  C   UNL     1       2.586   4.100   4.954  1.00  0.00     0.031 C 
ATOM     17  C   UNL     1       1.705  -0.377   6.551  1.00  0.00     0.029 A 
ATOM     18  N   UNL     1       2.655   1.090   7.903  1.00  0.00    -0.354 N 
ATOM     19  C   UNL     1       4.460   4.809   6.028  1.00  0.00     0.074 A 
ATOM     20  C   UNL     1       3.381   5.152   5.137  1.00  0.00     0.031 C 
ATOM     21  C   UNL     1       1.282  -0.658   7.803  1.00  0.00     0.029 A 
ATOM     22  C   UNL     1       1.840   0.322   8.720  1.00  0.00     0.049 A 
ATOM     23  H   UNL     1       3.310   1.736   8.254  1.00  0.00     0.167 HD
ATOM     24  C   UNL     1       5.149   5.599   6.893  1.00  0.00     0.037 A 
ATOM     25  C   UNL     1       1.561   0.574  10.023  1.00  0.00     0.037 A 
ATOM     26  C   UNL     1       6.224   4.896   7.535  1.00  0.00     0.049 A 
ATOM     27  C   UNL     1       2.628   1.484  10.528  1.00  0.00     0.074 A 
ATOM     28  C   UNL     1       7.337   4.218   7.074  1.00  0.00     0.029 A 
ATOM     29  N   UNL     1       6.049   4.485   8.834  1.00  0.00    -0.354 N 
ATOM     30  N   UNL     1       3.884   1.144  10.653  1.00  0.00    -0.248 NA
ATOM     31  C   UNL     1       2.381   2.918  10.464  1.00  0.00     0.031 C 
ATOM     32  C   UNL     1       7.471   3.094   7.939  1.00  0.00     0.029 A 
ATOM     33  C   UNL     1       6.469   3.179   8.906  1.00  0.00     0.049 A 
ATOM     34  H   UNL     1       5.690   5.025   9.575  1.00  0.00     0.167 HD
ATOM     35  C   UNL     1       4.603   2.271  10.277  1.00  0.00     0.074 A 
ATOM     36  C   UNL     1       3.625   3.355  10.252  1.00  0.00     0.031 C 
ATOM     37  C   UNL     1       5.861   2.174   9.752  1.00  0.00     0.037 A 
BRANCH  24  38
ATOM     38  C   UNL     1       4.579   6.895   7.396  1.00  0.00     0.058 A 
ATOM     39  C   UNL     1       5.405   7.852   8.007  1.00  0.00     0.135 A 
ATOM     40  C   UNL     1       3.186   7.118   7.510  1.00  0.00     0.135 A 
ATOM     41  F   UNL     1       6.739   7.702   8.002  1.00  0.00    -0.206 F 
ATOM     42  C   UNL     1       4.882   8.951   8.690  1.00  0.00     0.059 A 
ATOM     43  C   UNL     1       2.645   8.235   8.128  1.00  0.00     0.059 A 
ATOM     44  F   UNL     1       2.287   6.210   7.109  1.00  0.00    -0.206 F 
ATOM     45  C   UNL     1       3.500   9.131   8.745  1.00  0.00     0.060 A 
BRANCH  45  46
ATOM     46  S   UNL     1       2.815  10.509   9.680  1.00  0.00     0.124 S 
ATOM     47  O   UNL     1       3.089  10.092  11.050  1.00  0.00    -0.237 OA
ATOM     48  O   UNL     1       3.601  11.633   9.182  1.00  0.00    -0.237 OA
ATOM     49  O   UNL     1       1.409  10.514   9.288  1.00  0.00    -0.744 OA
ENDBRANCH  45  46
ENDBRANCH  24  38
BRANCH  25  50
ATOM     50  C   UNL     1       0.237   0.434  10.693  1.00  0.00     0.058 A 
ATOM     51  C   UNL     1       0.117   0.571  12.087  1.00  0.00     0.135 A 
ATOM     52  C   UNL     1      -0.974   0.433   9.967  1.00  0.00     0.135 A 
ATOM     53  F   UNL     1       1.215   0.605  12.857  1.00  0.00    -0.206 F 
ATOM     54  C   UNL     1      -1.121   0.750  12.716  1.00  0.00     0.059 A 
ATOM     55  C   UNL     1      -2.218   0.592  10.573  1.00  0.00     0.059 A 
ATOM     56  F   UNL     1      -0.988   0.374   8.628  1.00  0.00    -0.206 F 
ATOM     57  C   UNL     1      -2.283   0.781  11.946  1.00  0.00     0.060 A 
BRANCH  57  58
ATOM     58  S   UNL     1      -3.861   1.187  12.727  1.00  0.00     0.124 S 
ATOM     59  O   UNL     1      -4.080   0.028  13.585  1.00  0.00    -0.237 OA
ATOM     60  O   UNL     1      -3.550   2.437  13.411  1.00  0.00    -0.237 OA
ATOM     61  O   UNL     1      -4.779   1.309  11.597  1.00  0.00    -0.744 OA
ENDBRANCH  57  58
ENDBRANCH  25  50
BRANCH  37  62
ATOM     62  C   UNL     1       6.576   0.850   9.842  1.00  0.00     0.058 A 
ATOM     63  C   UNL     1       6.156  -0.322   9.187  1.00  0.00     0.135 A 
ATOM     64  C   UNL     1       7.829   0.815  10.473  1.00  0.00     0.135 A 
ATOM     65  F   UNL     1       5.023  -0.343   8.472  1.00  0.00    -0.206 F 
ATOM     66  C   UNL     1       6.931  -1.484   9.188  1.00  0.00     0.059 A 
ATOM     67  C   UNL     1       8.633  -0.323  10.460  1.00  0.00     0.059 A 
ATOM     68  F   UNL     1       8.316   1.920  11.062  1.00  0.00    -0.206 F 
ATOM     69  C   UNL     1       8.174  -1.472   9.822  1.00  0.00     0.060 A 
BRANCH  69  70
ATOM     70  S   UNL     1       9.216  -2.945   9.738  1.00  0.00     0.124 S 
ATOM     71  O   UNL     1       8.486  -3.889  10.577  1.00  0.00    -0.237 OA
ATOM     72  O   UNL     1       9.226  -3.244   8.308  1.00  0.00    -0.237 OA
ATOM     73  O   UNL     1      10.496  -2.490  10.278  1.00  0.00    -0.744 OA
ENDBRANCH  69  70
ENDBRANCH  37  62
ENDBRANCH  11  12
ENDBRANCH   4   6
ENDBRANCH   3   4
ENDBRANCH   2   3
ENDBRANCH   1   2
BRANCH   1  74
ATOM     74  O   UNL     1       4.158   0.933  -0.978  1.00  0.00    -0.374 OA
BRANCH  74  75
ATOM     75  C   UNL     1       2.986   0.976  -1.808  1.00  0.00     0.202 C 
BRANCH  75  76
ATOM     76  C   UNL     1       3.145   0.837  -3.332  1.00  0.00     0.261 C 
BRANCH  76  77
ATOM     77  O   UNL     1       3.495  -0.509  -3.720  1.00  0.00    -0.460 OA
BRANCH  77  78
ATOM     78  C   UNL     1       4.743  -0.671  -4.222  1.00  0.00     0.339 C 
ATOM     79  O   UNL     1       5.540   0.203  -4.523  1.00  0.00    -0.246 OA
BRANCH  78  80
ATOM     80  C   UNL     1       5.120  -2.086  -4.113  1.00  0.00     0.079 A 
ATOM     81  C   UNL     1       4.442  -3.061  -4.820  1.00  0.00     0.129 A 
ATOM     82  C   UNL     1       6.184  -2.450  -3.275  1.00  0.00     0.029 A 
ATOM     83  N   UNL     1       4.768  -4.375  -4.827  1.00  0.00    -0.237 NA
ATOM     84  C   UNL     1       6.502  -3.810  -3.183  1.00  0.00     0.020 A 
ATOM     85  C   UNL     1       5.797  -4.683  -4.005  1.00  0.00     0.140 A 
ATOM     86  C   UNL     1       7.422  -4.587  -2.433  1.00  0.00     0.030 A 
ATOM     87  N   UNL     1       6.390  -5.919  -3.888  1.00  0.00    -0.329 N 
ATOM     88  C   UNL     1       7.330  -5.887  -2.885  1.00  0.00     0.088 A 
BRANCH  87  89
ATOM     89  C   UNL     1       6.173  -7.045  -4.793  1.00  0.00     0.088 C 
ATOM     90  C   UNL     1       4.753  -7.616  -4.678  1.00  0.00     0.025 C 
ATOM     91  C   UNL     1       6.559  -6.667  -6.237  1.00  0.00     0.025 C 
ATOM     92  C   UNL     1       4.498  -8.717  -5.703  1.00  0.00     0.002 C 
ATOM     93  C   UNL     1       6.262  -7.780  -7.231  1.00  0.00     0.002 C 
ATOM     94  C   UNL     1       4.816  -8.247  -7.119  1.00  0.00     0.000 C 
ENDBRANCH  87  89
ENDBRANCH  78  80
ENDBRANCH  77  78
ENDBRANCH  76  77
ENDBRANCH  75  76
ENDBRANCH  74  75
ENDBRANCH   1  74
TORSDOF 18
