REMARK SMILES CCc1ccccc1C[N@@H+]1CC2(CC[NH+](C(=O)C3CC3)CC2)C[C@H]1C(=O)OCCOCCOC(=O)c1ccc(-c2c3nc(c(-c4c(F)cc(S(=O)(=O)[O-])cc4F)c4ccc([nH]4)c(-c4c(F)cc(S(=O)(=O)[O-])cc4F)c4nc(c(-c5c(F)cc(S(=O)(=O)[O-])cc5F)c5ccc2[nH]5)C=C4)C=C3)cc1
REMARK SMILES IDX 30 1 29 2 28 3 27 4 25 5 26 6 24 7 10 8 11 9 12 11 23 12
REMARK SMILES IDX 13 13 22 14 14 15 21 16 15 17 9 19 8 20 3 21 4 22 5 23 7 24
REMARK SMILES IDX 6 25 2 26 1 27 16 28 17 29 18 30 19 31 20 32 31 33 32 34
REMARK SMILES IDX 33 35 34 36 35 37 36 38 37 39 101 40 38 41 100 42 39 43
REMARK SMILES IDX 40 44 41 45 94 46 42 47 99 48 93 49 95 50 43 51 98 52 92 53
REMARK SMILES IDX 91 54 44 56 78 57 57 58 77 59 58 60 61 61 76 62 96 63 59 64
REMARK SMILES IDX 60 65 75 67 97 68 62 69 45 70 46 71 55 72 47 73 48 74 54 75
REMARK SMILES IDX 56 76 49 77 50 78 51 79 52 80 53 81 79 82 80 83 89 84 81 85
REMARK SMILES IDX 82 86 88 87 90 88 83 89 84 90 85 91 86 92 87 93 63 94 64 95
REMARK SMILES IDX 73 96 65 97 66 98 72 99 74 100 67 101 68 102 69 103 70 104
REMARK SMILES IDX 71 105
REMARK H PARENT 10 10 15 18 95 55 61 66
REMARK Flexibility Score: inf
ROOT
ATOM      1  O   UNL     1      -4.485   3.245  -0.772  1.00  0.00    -0.374 OA
ENDROOT
BRANCH   1   2
ATOM      2  C   UNL     1      -4.931   4.025   0.336  1.00  0.00     0.202 C 
BRANCH   2   3
ATOM      3  C   UNL     1      -4.915   3.339   1.703  1.00  0.00     0.261 C 
BRANCH   3   4
ATOM      4  O   UNL     1      -3.581   3.019   2.127  1.00  0.00    -0.459 OA
BRANCH   4   5
ATOM      5  C   UNL     1      -3.256   1.697   2.107  1.00  0.00     0.365 C 
ATOM      6  O   UNL     1      -4.034   0.791   1.821  1.00  0.00    -0.245 OA
BRANCH   5   7
ATOM      7  C   UNL     1      -1.816   1.420   2.548  1.00  0.00     0.296 C 
ATOM      8  N   UNL     1      -0.841   2.422   2.086  1.00  0.00    -0.319 N 
ATOM      9  C   UNL     1      -0.597   3.358   3.179  1.00  0.00     0.270 C 
ATOM     10  H   UNL     1      -1.262   2.923   1.304  1.00  0.00     0.349 HD
ATOM     11  C   UNL     1      -1.070   2.703   4.497  1.00  0.00     0.036 C 
ATOM     12  C   UNL     1      -1.763   1.401   4.066  1.00  0.00     0.091 C 
ATOM     13  C   UNL     1      -2.019   3.655   5.263  1.00  0.00     0.075 C 
ATOM     14  C   UNL     1       0.064   2.344   5.476  1.00  0.00     0.075 C 
ATOM     15  C   UNL     1      -1.268   4.858   5.859  1.00  0.00     0.271 C 
ATOM     16  C   UNL     1       0.816   3.572   5.960  1.00  0.00     0.271 C 
ATOM     17  N   UNL     1      -0.118   4.438   6.667  1.00  0.00    -0.272 N 
ATOM     18  H   UNL     1       0.550   4.017   7.255  1.00  0.00     0.356 HD
BRANCH   8  19
ATOM     19  C   UNL     1       0.358   1.923   1.391  1.00  0.00     0.300 C 
BRANCH  19  20
ATOM     20  C   UNL     1       1.229   0.922   2.132  1.00  0.00     0.009 A 
ATOM     21  C   UNL     1       1.105  -0.475   1.976  1.00  0.00    -0.039 A 
ATOM     22  C   UNL     1       1.735  -1.325   2.907  1.00  0.00     0.004 A 
ATOM     23  C   UNL     1       2.568  -0.818   3.901  1.00  0.00     0.000 A 
ATOM     24  C   UNL     1       2.181   1.402   3.053  1.00  0.00     0.010 A 
ATOM     25  C   UNL     1       2.840   0.542   3.935  1.00  0.00     0.001 A 
BRANCH  21  26
ATOM     26  C   UNL     1       0.405  -1.123   0.799  1.00  0.00     0.032 C 
ATOM     27  C   UNL     1       1.138  -0.862  -0.516  1.00  0.00     0.009 C 
ENDBRANCH  21  26
ENDBRANCH  19  20
ENDBRANCH   8  19
BRANCH  17  28
ATOM     28  C   UNL     1       0.204   4.746   7.990  1.00  0.00     0.315 C 
ATOM     29  O   UNL     1       1.310   4.453   8.447  1.00  0.00    -0.231 OA
BRANCH  28  30
ATOM     30  C   UNL     1      -0.742   5.348   8.970  1.00  0.00     0.119 C 
ATOM     31  C   UNL     1      -1.752   6.431   8.742  1.00  0.00     0.019 C 
ATOM     32  C   UNL     1      -2.210   5.017   9.007  1.00  0.00     0.019 C 
ENDBRANCH  28  30
ENDBRANCH  17  28
ENDBRANCH   5   7
ENDBRANCH   4   5
ENDBRANCH   3   4
ENDBRANCH   2   3
ENDBRANCH   1   2
BRANCH   1  33
ATOM     33  C   UNL     1      -3.075   3.089  -0.936  1.00  0.00     0.202 C 
BRANCH  33  34
ATOM     34  C   UNL     1      -2.313   4.272  -1.544  1.00  0.00     0.261 C 
BRANCH  34  35
ATOM     35  O   UNL     1      -2.337   5.441  -0.706  1.00  0.00    -0.460 OA
BRANCH  35  36
ATOM     36  C   UNL     1      -3.129   6.441  -1.164  1.00  0.00     0.338 C 
ATOM     37  O   UNL     1      -3.752   6.462  -2.211  1.00  0.00    -0.246 OA
BRANCH  36  38
ATOM     38  C   UNL     1      -3.287   7.488  -0.133  1.00  0.00     0.060 A 
ATOM     39  C   UNL     1      -4.588   7.931   0.133  1.00  0.00     0.016 A 
ATOM     40  C   UNL     1      -2.192   8.091   0.490  1.00  0.00     0.016 A 
ATOM     41  C   UNL     1      -4.796   9.027   0.967  1.00  0.00     0.010 A 
ATOM     42  C   UNL     1      -2.402   9.196   1.324  1.00  0.00     0.010 A 
ATOM     43  C   UNL     1      -3.701   9.696   1.529  1.00  0.00    -0.014 A 
BRANCH  43  44
ATOM     44  C   UNL     1      -3.921  11.005   2.195  1.00  0.00     0.031 A 
ATOM     45  C   UNL     1      -3.637  12.270   1.427  1.00  0.00     0.074 A 
ATOM     46  C   UNL     1      -4.415  11.066   3.445  1.00  0.00     0.049 A 
ATOM     47  N   UNL     1      -3.767  13.515   1.805  1.00  0.00    -0.248 NA
ATOM     48  C   UNL     1      -3.140  12.111   0.049  1.00  0.00     0.031 C 
ATOM     49  C   UNL     1      -4.752   9.912   4.279  1.00  0.00     0.029 A 
ATOM     50  N   UNL     1      -4.717  12.149   4.232  1.00  0.00    -0.354 N 
ATOM     51  C   UNL     1      -3.361  14.286   0.722  1.00  0.00     0.074 A 
ATOM     52  C   UNL     1      -2.957  13.370  -0.323  1.00  0.00     0.031 C 
ATOM     53  C   UNL     1      -5.203  10.350   5.467  1.00  0.00     0.029 A 
ATOM     54  C   UNL     1      -5.168  11.811   5.486  1.00  0.00     0.049 A 
ATOM     55  H   UNL     1      -4.620  13.080   3.928  1.00  0.00     0.167 HD
ATOM     56  C   UNL     1      -3.336  15.635   0.605  1.00  0.00     0.037 A 
ATOM     57  C   UNL     1      -5.501  12.593   6.532  1.00  0.00     0.037 A 
ATOM     58  C   UNL     1      -3.760  16.544   1.638  1.00  0.00     0.049 A 
ATOM     59  C   UNL     1      -5.444  14.092   6.381  1.00  0.00     0.074 A 
ATOM     60  C   UNL     1      -3.805  17.927   1.600  1.00  0.00     0.029 A 
ATOM     61  N   UNL     1      -4.212  16.163   2.892  1.00  0.00    -0.354 N 
ATOM     62  N   UNL     1      -5.093  14.804   5.336  1.00  0.00    -0.248 NA
ATOM     63  C   UNL     1      -5.842  14.895   7.547  1.00  0.00     0.031 C 
ATOM     64  C   UNL     1      -4.245  18.385   2.846  1.00  0.00     0.029 A 
ATOM     65  C   UNL     1      -4.521  17.285   3.643  1.00  0.00     0.049 A 
ATOM     66  H   UNL     1      -4.301  15.234   3.203  1.00  0.00     0.167 HD
ATOM     67  C   UNL     1      -5.261  16.134   5.709  1.00  0.00     0.074 A 
ATOM     68  C   UNL     1      -5.755  16.128   7.070  1.00  0.00     0.031 C 
ATOM     69  C   UNL     1      -5.030  17.261   4.990  1.00  0.00     0.037 A 
BRANCH  56  70
ATOM     70  C   UNL     1      -2.824  16.224  -0.679  1.00  0.00     0.058 A 
ATOM     71  C   UNL     1      -3.588  16.207  -1.856  1.00  0.00     0.135 A 
ATOM     72  C   UNL     1      -1.586  16.886  -0.710  1.00  0.00     0.135 A 
ATOM     73  F   UNL     1      -4.769  15.569  -1.886  1.00  0.00    -0.206 F 
ATOM     74  C   UNL     1      -3.142  16.825  -3.020  1.00  0.00     0.059 A 
ATOM     75  C   UNL     1      -1.130  17.530  -1.856  1.00  0.00     0.059 A 
ATOM     76  F   UNL     1      -0.814  16.925   0.388  1.00  0.00    -0.206 F 
ATOM     77  C   UNL     1      -1.914  17.491  -3.008  1.00  0.00     0.060 A 
BRANCH  77  78
ATOM     78  S   UNL     1      -1.373  18.332  -4.511  1.00  0.00     0.124 S 
ATOM     79  O   UNL     1      -1.006  17.203  -5.360  1.00  0.00    -0.237 OA
ATOM     80  O   UNL     1      -2.572  19.062  -4.909  1.00  0.00    -0.237 OA
ATOM     81  O   UNL     1      -0.261  19.160  -4.055  1.00  0.00    -0.744 OA
ENDBRANCH  77  78
ENDBRANCH  56  70
BRANCH  57  82
ATOM     82  C   UNL     1      -5.903  11.982   7.828  1.00  0.00     0.058 A 
ATOM     83  C   UNL     1      -7.214  12.095   8.313  1.00  0.00     0.135 A 
ATOM     84  C   UNL     1      -4.967  11.303   8.624  1.00  0.00     0.135 A 
ATOM     85  F   UNL     1      -8.143  12.740   7.591  1.00  0.00    -0.206 F 
ATOM     86  C   UNL     1      -7.577  11.589   9.558  1.00  0.00     0.059 A 
ATOM     87  C   UNL     1      -5.312  10.765   9.860  1.00  0.00     0.059 A 
ATOM     88  F   UNL     1      -3.704  11.152   8.198  1.00  0.00    -0.206 F 
ATOM     89  C   UNL     1      -6.615  10.930  10.326  1.00  0.00     0.060 A 
BRANCH  89  90
ATOM     90  S   UNL     1      -7.093  10.261  11.934  1.00  0.00     0.124 S 
ATOM     91  O   UNL     1      -7.138  11.467  12.751  1.00  0.00    -0.237 OA
ATOM     92  O   UNL     1      -8.380   9.639  11.639  1.00  0.00    -0.237 OA
ATOM     93  O   UNL     1      -6.012   9.328  12.239  1.00  0.00    -0.744 OA
ENDBRANCH  89  90
ENDBRANCH  57  82
BRANCH  69  94
ATOM     94  C   UNL     1      -5.358  18.577   5.639  1.00  0.00     0.058 A 
ATOM     95  C   UNL     1      -4.574  19.110   6.674  1.00  0.00     0.135 A 
ATOM     96  C   UNL     1      -6.458  19.330   5.196  1.00  0.00     0.135 A 
ATOM     97  F   UNL     1      -3.513  18.429   7.136  1.00  0.00    -0.206 F 
ATOM     98  C   UNL     1      -4.889  20.326   7.272  1.00  0.00     0.059 A 
ATOM     99  C   UNL     1      -6.775  20.561   5.760  1.00  0.00     0.059 A 
ATOM    100  F   UNL     1      -7.232  18.874   4.199  1.00  0.00    -0.206 F 
ATOM    101  C   UNL     1      -5.995  21.043   6.810  1.00  0.00     0.060 A 
BRANCH 101 102
ATOM    102  S   UNL     1      -6.393  22.623   7.588  1.00  0.00     0.124 S 
ATOM    103  O   UNL     1      -7.004  22.187   8.839  1.00  0.00    -0.237 OA
ATOM    104  O   UNL     1      -5.082  23.253   7.708  1.00  0.00    -0.237 OA
ATOM    105  O   UNL     1      -7.298  23.252   6.631  1.00  0.00    -0.744 OA
ENDBRANCH 101 102
ENDBRANCH  69  94
ENDBRANCH  43  44
ENDBRANCH  36  38
ENDBRANCH  35  36
ENDBRANCH  34  35
ENDBRANCH  33  34
ENDBRANCH   1  33
TORSDOF 22
