REMARK SMILES O=C(OCCOCCOC(=O)[C@@H]1CC[C@@H](CS(=O)(=O)c2cccc(F)c2)O1)c1ccc(-c2c3nc(c(-c4c(F)cc(S(=O)(=O)[O-])cc4F)c4ccc([nH]4)c(-c4c(F)cc(S(=O)(=O)[O-])cc4F)c4nc(c(-c5c(F)cc(S(=O)(=O)[O-])cc5F)c5ccc2[nH]5)C=C4)C=C3)cc1
REMARK SMILES IDX 6 1 5 2 4 3 3 4 2 5 1 6 28 7 29 8 93 9 30 10 92 11 31 12
REMARK SMILES IDX 32 13 33 14 86 15 34 16 91 17 85 18 87 19 35 20 90 21 84 22
REMARK SMILES IDX 83 23 36 25 70 26 49 27 69 28 50 29 53 30 68 31 88 32 51 33
REMARK SMILES IDX 52 34 67 36 89 37 54 38 37 39 38 40 47 41 39 42 40 43 46 44
REMARK SMILES IDX 48 45 41 46 42 47 43 48 44 49 45 50 71 51 72 52 81 53 73 54
REMARK SMILES IDX 74 55 80 56 82 57 75 58 76 59 77 60 78 61 79 62 55 63 56 64
REMARK SMILES IDX 65 65 57 66 58 67 64 68 66 69 59 70 60 71 61 72 62 73 63 74
REMARK SMILES IDX 7 75 8 76 9 77 10 78 11 79 12 80 13 81 27 82 14 83 15 84
REMARK SMILES IDX 16 85 17 86 18 87 19 88 20 89 21 90 26 91 22 92 24 93 23 94
REMARK SMILES IDX 25 95
REMARK H PARENT 87 24 53 35
REMARK Flexibility Score: inf
ROOT
ATOM      1  O   UNL     1       4.017  -1.379  -0.858  1.00  0.00    -0.374 OA
ENDROOT
BRANCH   1   2
ATOM      2  C   UNL     1       4.338  -1.458   0.532  1.00  0.00     0.202 C 
BRANCH   2   3
ATOM      3  C   UNL     1       4.196  -0.162   1.330  1.00  0.00     0.261 C 
BRANCH   3   4
ATOM      4  O   UNL     1       2.812   0.205   1.409  1.00  0.00    -0.460 OA
BRANCH   4   5
ATOM      5  C   UNL     1       2.124   0.992   0.552  1.00  0.00     0.338 C 
ATOM      6  O   UNL     1       0.897   1.009   0.621  1.00  0.00    -0.246 OA
BRANCH   5   7
ATOM      7  C   UNL     1       2.789   1.879  -0.444  1.00  0.00     0.060 A 
ATOM      8  C   UNL     1       3.956   1.566  -1.149  1.00  0.00     0.016 A 
ATOM      9  C   UNL     1       2.126   3.074  -0.751  1.00  0.00     0.016 A 
ATOM     10  C   UNL     1       4.484   2.416  -2.098  1.00  0.00     0.010 A 
ATOM     11  C   UNL     1       2.640   3.937  -1.716  1.00  0.00     0.010 A 
ATOM     12  C   UNL     1       3.829   3.606  -2.373  1.00  0.00    -0.014 A 
BRANCH  12  13
ATOM     13  C   UNL     1       4.512   4.561  -3.244  1.00  0.00     0.031 A 
ATOM     14  C   UNL     1       5.247   5.678  -2.584  1.00  0.00     0.074 A 
ATOM     15  C   UNL     1       4.546   4.341  -4.566  1.00  0.00     0.049 A 
ATOM     16  N   UNL     1       5.806   6.723  -3.118  1.00  0.00    -0.248 NA
ATOM     17  C   UNL     1       5.373   5.602  -1.116  1.00  0.00     0.031 C 
ATOM     18  C   UNL     1       3.990   3.163  -5.238  1.00  0.00     0.029 A 
ATOM     19  N   UNL     1       5.078   5.087  -5.578  1.00  0.00    -0.354 N 
ATOM     20  C   UNL     1       6.307   7.456  -2.052  1.00  0.00     0.074 A 
ATOM     21  C   UNL     1       6.001   6.734  -0.841  1.00  0.00     0.031 C 
ATOM     22  C   UNL     1       4.202   3.275  -6.559  1.00  0.00     0.029 A 
ATOM     23  C   UNL     1       4.832   4.564  -6.823  1.00  0.00     0.049 A 
ATOM     24  H   UNL     1       5.586   5.917  -5.429  1.00  0.00     0.167 HD
ATOM     25  C   UNL     1       6.946   8.645  -2.106  1.00  0.00     0.037 A 
ATOM     26  C   UNL     1       5.045   5.109  -8.035  1.00  0.00     0.037 A 
ATOM     27  C   UNL     1       7.211   9.313  -3.349  1.00  0.00     0.049 A 
ATOM     28  C   UNL     1       5.656   6.481  -8.075  1.00  0.00     0.074 A 
ATOM     29  C   UNL     1       7.794  10.545  -3.561  1.00  0.00     0.029 A 
ATOM     30  N   UNL     1       6.893   8.790  -4.600  1.00  0.00    -0.354 N 
ATOM     31  N   UNL     1       6.057   7.226  -7.068  1.00  0.00    -0.248 NA
ATOM     32  C   UNL     1       5.827   7.103  -9.391  1.00  0.00     0.031 C 
ATOM     33  C   UNL     1       7.776  10.791  -4.938  1.00  0.00     0.029 A 
ATOM     34  C   UNL     1       7.245   9.685  -5.590  1.00  0.00     0.049 A 
ATOM     35  H   UNL     1       6.478   7.911  -4.755  1.00  0.00     0.167 HD
ATOM     36  C   UNL     1       6.546   8.398  -7.626  1.00  0.00     0.074 A 
ATOM     37  C   UNL     1       6.389   8.262  -9.063  1.00  0.00     0.031 C 
ATOM     38  C   UNL     1       7.078   9.485  -7.013  1.00  0.00     0.037 A 
BRANCH  25  39
ATOM     39  C   UNL     1       7.287   9.304  -0.801  1.00  0.00     0.058 A 
ATOM     40  C   UNL     1       6.572  10.438  -0.383  1.00  0.00     0.135 A 
ATOM     41  C   UNL     1       8.272   8.799   0.063  1.00  0.00     0.135 A 
ATOM     42  F   UNL     1       5.603  10.950  -1.157  1.00  0.00    -0.206 F 
ATOM     43  C   UNL     1       6.820  11.046   0.843  1.00  0.00     0.059 A 
ATOM     44  C   UNL     1       8.517   9.374   1.308  1.00  0.00     0.059 A 
ATOM     45  F   UNL     1       8.957   7.691  -0.266  1.00  0.00    -0.206 F 
ATOM     46  C   UNL     1       7.788  10.502   1.686  1.00  0.00     0.060 A 
BRANCH  46  47
ATOM     47  S   UNL     1       8.031  11.250   3.312  1.00  0.00     0.124 S 
ATOM     48  O   UNL     1       8.674  12.513   2.968  1.00  0.00    -0.237 OA
ATOM     49  O   UNL     1       6.663  11.345   3.812  1.00  0.00    -0.237 OA
ATOM     50  O   UNL     1       8.874  10.281   4.006  1.00  0.00    -0.744 OA
ENDBRANCH  46  47
ENDBRANCH  25  39
BRANCH  26  51
ATOM     51  C   UNL     1       4.635   4.361  -9.252  1.00  0.00     0.058 A 
ATOM     52  C   UNL     1       3.280   4.093  -9.517  1.00  0.00     0.135 A 
ATOM     53  C   UNL     1       5.588   3.799 -10.113  1.00  0.00     0.135 A 
ATOM     54  F   UNL     1       2.326   4.598  -8.719  1.00  0.00    -0.206 F 
ATOM     55  C   UNL     1       2.889   3.256 -10.556  1.00  0.00     0.059 A 
ATOM     56  C   UNL     1       5.219   2.977 -11.176  1.00  0.00     0.059 A 
ATOM     57  F   UNL     1       6.893   4.032  -9.910  1.00  0.00    -0.206 F 
ATOM     58  C   UNL     1       3.867   2.691 -11.373  1.00  0.00     0.060 A 
BRANCH  58  59
ATOM     59  S   UNL     1       3.341   1.554 -12.674  1.00  0.00     0.124 S 
ATOM     60  O   UNL     1       2.804   0.444 -11.894  1.00  0.00    -0.237 OA
ATOM     61  O   UNL     1       2.358   2.355 -13.398  1.00  0.00    -0.237 OA
ATOM     62  O   UNL     1       4.576   1.273 -13.399  1.00  0.00    -0.744 OA
ENDBRANCH  58  59
ENDBRANCH  26  51
BRANCH  38  63
ATOM     63  C   UNL     1       7.567  10.603  -7.884  1.00  0.00     0.058 A 
ATOM     64  C   UNL     1       8.945  10.848  -7.991  1.00  0.00     0.135 A 
ATOM     65  C   UNL     1       6.679  11.527  -8.450  1.00  0.00     0.135 A 
ATOM     66  F   UNL     1       9.829   9.990  -7.455  1.00  0.00    -0.206 F 
ATOM     67  C   UNL     1       9.426  12.007  -8.582  1.00  0.00     0.059 A 
ATOM     68  C   UNL     1       7.140  12.682  -9.071  1.00  0.00     0.059 A 
ATOM     69  F   UNL     1       5.354  11.323  -8.380  1.00  0.00    -0.206 F 
ATOM     70  C   UNL     1       8.514  12.926  -9.102  1.00  0.00     0.060 A 
BRANCH  70  71
ATOM     71  S   UNL     1       9.157  14.463  -9.794  1.00  0.00     0.124 S 
ATOM     72  O   UNL     1       9.665  15.136  -8.604  1.00  0.00    -0.237 OA
ATOM     73  O   UNL     1      10.166  13.978 -10.730  1.00  0.00    -0.237 OA
ATOM     74  O   UNL     1       7.983  15.075 -10.409  1.00  0.00    -0.744 OA
ENDBRANCH  70  71
ENDBRANCH  38  63
ENDBRANCH  12  13
ENDBRANCH   5   7
ENDBRANCH   4   5
ENDBRANCH   3   4
ENDBRANCH   2   3
ENDBRANCH   1   2
BRANCH   1  75
ATOM     75  C   UNL     1       2.648  -1.608  -1.224  1.00  0.00     0.202 C 
BRANCH  75  76
ATOM     76  C   UNL     1       2.576  -2.711  -2.282  1.00  0.00     0.261 C 
BRANCH  76  77
ATOM     77  O   UNL     1       3.143  -3.894  -1.710  1.00  0.00    -0.461 OA
BRANCH  77  78
ATOM     78  C   UNL     1       4.506  -3.974  -1.813  1.00  0.00     0.335 C 
ATOM     79  O   UNL     1       5.186  -3.500  -2.711  1.00  0.00    -0.249 OA
BRANCH  78  80
ATOM     80  C   UNL     1       5.046  -4.612  -0.538  1.00  0.00     0.228 C 
ATOM     81  C   UNL     1       6.505  -5.026  -0.576  1.00  0.00     0.047 C 
ATOM     82  O   UNL     1       4.279  -5.769  -0.202  1.00  0.00    -0.362 OA
ATOM     83  C   UNL     1       6.481  -6.384   0.093  1.00  0.00     0.036 C 
ATOM     84  C   UNL     1       5.120  -6.914  -0.327  1.00  0.00     0.135 C 
BRANCH  84  85
ATOM     85  C   UNL     1       4.539  -7.978   0.571  1.00  0.00     0.174 C 
BRANCH  85  86
ATOM     86  S   UNL     1       3.399  -9.041  -0.272  1.00  0.00     0.181 S 
ATOM     87  O   UNL     1       4.166  -9.709  -1.313  1.00  0.00    -0.224 OA
ATOM     88  O   UNL     1       2.712  -9.825   0.737  1.00  0.00    -0.224 OA
BRANCH  86  89
ATOM     89  C   UNL     1       2.134  -8.102  -1.098  1.00  0.00     0.070 A 
ATOM     90  C   UNL     1       1.630  -6.904  -0.582  1.00  0.00     0.020 A 
ATOM     91  C   UNL     1       1.621  -8.618  -2.293  1.00  0.00     0.059 A 
ATOM     92  C   UNL     1       0.648  -6.200  -1.291  1.00  0.00     0.004 A 
ATOM     93  C   UNL     1       0.625  -7.923  -2.967  1.00  0.00     0.124 A 
ATOM     94  C   UNL     1       0.143  -6.712  -2.485  1.00  0.00     0.039 A 
ATOM     95  F   UNL     1       0.115  -8.433  -4.096  1.00  0.00    -0.207 F 
ENDBRANCH  86  89
ENDBRANCH  85  86
ENDBRANCH  84  85
ENDBRANCH  78  80
ENDBRANCH  77  78
ENDBRANCH  76  77
ENDBRANCH  75  76
ENDBRANCH   1  75
TORSDOF 20
