REMARK SMILES C[C@H](NC1=[NH+]S(=O)(=O)c2ccccc21)C(=O)OCCOCCOC(=O)c1ccc(-c2c3nc(c(-c4c(F)cc(S(=O)(=O)[O-])cc4F)c4ccc([nH]4)c(-c4c(F)cc(S(=O)(=O)[O-])cc4F)c4nc(c(-c5c(F)cc(S(=O)(=O)[O-])cc5F)c5ccc2[nH]5)C=C4)C=C3)cc1
REMARK SMILES IDX 21 1 20 2 19 3 18 4 17 5 15 6 16 7 2 8 1 9 3 10 4 11 5 13
REMARK SMILES IDX 14 14 6 15 9 17 13 18 7 19 8 20 10 21 12 22 11 23 22 24
REMARK SMILES IDX 23 25 24 26 25 27 26 28 27 29 91 30 28 31 90 32 29 33 30 34
REMARK SMILES IDX 31 35 84 36 32 37 89 38 83 39 85 40 33 41 88 42 82 43 81 44
REMARK SMILES IDX 34 46 68 47 47 48 67 49 48 50 51 51 66 52 86 53 49 54 50 55
REMARK SMILES IDX 65 57 87 58 52 59 35 60 36 61 45 62 37 63 38 64 44 65 46 66
REMARK SMILES IDX 39 67 40 68 41 69 42 70 43 71 69 72 70 73 79 74 71 75 72 76
REMARK SMILES IDX 78 77 80 78 73 79 74 80 75 81 76 82 77 83 53 84 54 85 63 86
REMARK SMILES IDX 55 87 56 88 62 89 64 90 57 91 58 92 59 93 60 94 61 95
REMARK H PARENT 3 12 5 16 85 45 51 56
REMARK Flexibility Score: inf
ROOT
ATOM      1  C   UNL     1      -1.815  -0.033  -1.857  1.00  0.00     0.202 C 
ENDROOT
BRANCH   1   2
ATOM      2  O   UNL     1      -3.028  -0.764  -1.671  1.00  0.00    -0.374 OA
BRANCH   2   3
ATOM      3  C   UNL     1      -3.578  -0.824  -0.360  1.00  0.00     0.202 C 
BRANCH   3   4
ATOM      4  C   UNL     1      -2.894  -1.743   0.659  1.00  0.00     0.261 C 
BRANCH   4   5
ATOM      5  O   UNL     1      -1.465  -1.599   0.701  1.00  0.00    -0.460 OA
BRANCH   5   6
ATOM      6  C   UNL     1      -0.786  -2.626   0.113  1.00  0.00     0.350 C 
ATOM      7  O   UNL     1      -1.308  -3.635  -0.353  1.00  0.00    -0.247 OA
BRANCH   6   8
ATOM      8  C   UNL     1       0.726  -2.454   0.162  1.00  0.00     0.279 C 
ATOM      9  C   UNL     1       1.262  -3.153   1.406  1.00  0.00     0.071 C 
BRANCH   8  10
ATOM     10  N   UNL     1       1.219  -1.061   0.161  1.00  0.00    -0.260 N 
ATOM     11  C   UNL     1       2.501  -0.838  -0.287  1.00  0.00     0.292 C 
ATOM     12  H   UNL     1       0.651  -0.319   0.469  1.00  0.00     0.306 HD
ATOM     13  N   UNL     1       2.964  -1.393  -1.373  1.00  0.00    -0.162 N 
ATOM     14  C   UNL     1       3.495  -0.087   0.514  1.00  0.00     0.087 A 
ATOM     15  S   UNL     1       4.571  -1.133  -1.535  1.00  0.00     0.329 S 
ATOM     16  H   UNL     1       2.416  -1.903  -2.013  1.00  0.00     0.327 HD
ATOM     17  C   UNL     1       4.749  -0.251  -0.049  1.00  0.00     0.124 A 
ATOM     18  C   UNL     1       3.357   0.562   1.727  1.00  0.00     0.018 A 
ATOM     19  O   UNL     1       4.837  -0.212  -2.615  1.00  0.00    -0.179 OA
ATOM     20  O   UNL     1       5.292  -2.381  -1.378  1.00  0.00    -0.179 OA
ATOM     21  C   UNL     1       5.920   0.145   0.566  1.00  0.00     0.025 A 
ATOM     22  C   UNL     1       4.524   1.008   2.365  1.00  0.00     0.001 A 
ATOM     23  C   UNL     1       5.795   0.785   1.798  1.00  0.00     0.002 A 
ENDBRANCH   8  10
ENDBRANCH   6   8
ENDBRANCH   5   6
ENDBRANCH   4   5
ENDBRANCH   3   4
ENDBRANCH   2   3
ENDBRANCH   1   2
BRANCH   1  24
ATOM     24  C   UNL     1      -1.868   1.492  -1.691  1.00  0.00     0.261 C 
BRANCH  24  25
ATOM     25  O   UNL     1      -2.181   1.898  -0.344  1.00  0.00    -0.460 OA
BRANCH  25  26
ATOM     26  C   UNL     1      -3.334   2.608  -0.229  1.00  0.00     0.338 C 
ATOM     27  O   UNL     1      -4.064   2.975  -1.134  1.00  0.00    -0.246 OA
BRANCH  26  28
ATOM     28  C   UNL     1      -3.721   2.742   1.189  1.00  0.00     0.060 A 
ATOM     29  C   UNL     1      -5.000   2.300   1.549  1.00  0.00     0.016 A 
ATOM     30  C   UNL     1      -2.904   3.383   2.123  1.00  0.00     0.016 A 
ATOM     31  C   UNL     1      -5.489   2.548   2.829  1.00  0.00     0.010 A 
ATOM     32  C   UNL     1      -3.401   3.637   3.408  1.00  0.00     0.010 A 
ATOM     33  C   UNL     1      -4.710   3.257   3.754  1.00  0.00    -0.014 A 
BRANCH  33  34
ATOM     34  C   UNL     1      -5.339   3.714   5.019  1.00  0.00     0.031 A 
ATOM     35  C   UNL     1      -5.840   5.131   5.122  1.00  0.00     0.074 A 
ATOM     36  C   UNL     1      -5.531   2.855   6.037  1.00  0.00     0.049 A 
ATOM     37  N   UNL     1      -6.461   5.720   6.111  1.00  0.00    -0.248 NA
ATOM     38  C   UNL     1      -5.611   5.997   3.954  1.00  0.00     0.031 C 
ATOM     39  C   UNL     1      -5.112   1.454   6.050  1.00  0.00     0.029 A 
ATOM     40  N   UNL     1      -6.132   3.037   7.257  1.00  0.00    -0.354 N 
ATOM     41  C   UNL     1      -6.712   7.019   5.682  1.00  0.00     0.074 A 
ATOM     42  C   UNL     1      -6.133   7.145   4.361  1.00  0.00     0.031 C 
ATOM     43  C   UNL     1      -5.464   0.904   7.225  1.00  0.00     0.029 A 
ATOM     44  C   UNL     1      -6.118   1.916   8.052  1.00  0.00     0.049 A 
ATOM     45  H   UNL     1      -6.536   3.890   7.537  1.00  0.00     0.167 HD
ATOM     46  C   UNL     1      -7.380   8.010   6.319  1.00  0.00     0.037 A 
ATOM     47  C   UNL     1      -6.573   1.730   9.307  1.00  0.00     0.037 A 
ATOM     48  C   UNL     1      -7.949   7.886   7.636  1.00  0.00     0.049 A 
ATOM     49  C   UNL     1      -7.273   2.861  10.015  1.00  0.00     0.074 A 
ATOM     50  C   UNL     1      -8.635   8.838   8.372  1.00  0.00     0.029 A 
ATOM     51  N   UNL     1      -7.900   6.740   8.416  1.00  0.00    -0.354 N 
ATOM     52  N   UNL     1      -7.515   4.078   9.588  1.00  0.00    -0.248 NA
ATOM     53  C   UNL     1      -7.775   2.589  11.369  1.00  0.00     0.031 C 
ATOM     54  C   UNL     1      -8.970   8.277   9.610  1.00  0.00     0.029 A 
ATOM     55  C   UNL     1      -8.532   6.963   9.628  1.00  0.00     0.049 A 
ATOM     56  H   UNL     1      -7.477   5.893   8.147  1.00  0.00     0.167 HD
ATOM     57  C   UNL     1      -8.214   4.709  10.612  1.00  0.00     0.074 A 
ATOM     58  C   UNL     1      -8.373   3.733  11.670  1.00  0.00     0.031 C 
ATOM     59  C   UNL     1      -8.682   5.981  10.672  1.00  0.00     0.037 A 
BRANCH  46  60
ATOM     60  C   UNL     1      -7.529   9.321   5.598  1.00  0.00     0.058 A 
ATOM     61  C   UNL     1      -8.403   9.462   4.508  1.00  0.00     0.135 A 
ATOM     62  C   UNL     1      -6.819  10.456   6.019  1.00  0.00     0.135 A 
ATOM     63  F   UNL     1      -9.092   8.403   4.053  1.00  0.00    -0.206 F 
ATOM     64  C   UNL     1      -8.552  10.677   3.848  1.00  0.00     0.059 A 
ATOM     65  C   UNL     1      -6.971  11.688   5.388  1.00  0.00     0.059 A 
ATOM     66  F   UNL     1      -5.968  10.375   7.054  1.00  0.00    -0.206 F 
ATOM     67  C   UNL     1      -7.830  11.785   4.295  1.00  0.00     0.060 A 
BRANCH  67  68
ATOM     68  S   UNL     1      -8.039  13.357   3.432  1.00  0.00     0.124 S 
ATOM     69  O   UNL     1      -7.308  13.108   2.194  1.00  0.00    -0.237 OA
ATOM     70  O   UNL     1      -9.490  13.453   3.303  1.00  0.00    -0.237 OA
ATOM     71  O   UNL     1      -7.428  14.325   4.338  1.00  0.00    -0.744 OA
ENDBRANCH  67  68
ENDBRANCH  46  60
BRANCH  47  72
ATOM     72  C   UNL     1      -6.372   0.422   9.984  1.00  0.00     0.058 A 
ATOM     73  C   UNL     1      -7.448  -0.435  10.257  1.00  0.00     0.135 A 
ATOM     74  C   UNL     1      -5.090   0.010  10.382  1.00  0.00     0.135 A 
ATOM     75  F   UNL     1      -8.693  -0.082   9.903  1.00  0.00    -0.206 F 
ATOM     76  C   UNL     1      -7.265  -1.645  10.920  1.00  0.00     0.059 A 
ATOM     77  C   UNL     1      -4.878  -1.206  11.023  1.00  0.00     0.059 A 
ATOM     78  F   UNL     1      -4.025   0.788  10.131  1.00  0.00    -0.206 F 
ATOM     79  C   UNL     1      -5.975  -2.021  11.299  1.00  0.00     0.060 A 
BRANCH  79  80
ATOM     80  S   UNL     1      -5.737  -3.611  12.123  1.00  0.00     0.124 S 
ATOM     81  O   UNL     1      -6.212  -3.317  13.470  1.00  0.00    -0.237 OA
ATOM     82  O   UNL     1      -6.578  -4.499  11.327  1.00  0.00    -0.237 OA
ATOM     83  O   UNL     1      -4.300  -3.840  11.993  1.00  0.00    -0.744 OA
ENDBRANCH  79  80
ENDBRANCH  47  72
BRANCH  59  84
ATOM     84  C   UNL     1      -9.431   6.380  11.914  1.00  0.00     0.058 A 
ATOM     85  C   UNL     1      -8.774   6.586  13.137  1.00  0.00     0.135 A 
ATOM     86  C   UNL     1     -10.821   6.582  11.874  1.00  0.00     0.135 A 
ATOM     87  F   UNL     1      -7.448   6.404  13.230  1.00  0.00    -0.206 F 
ATOM     88  C   UNL     1      -9.473   6.942  14.287  1.00  0.00     0.059 A 
ATOM     89  C   UNL     1     -11.536   6.963  13.005  1.00  0.00     0.059 A 
ATOM     90  F   UNL     1     -11.496   6.411  10.726  1.00  0.00    -0.206 F 
ATOM     91  C   UNL     1     -10.855   7.124  14.211  1.00  0.00     0.060 A 
BRANCH  91  92
ATOM     92  S   UNL     1     -11.753   7.589  15.707  1.00  0.00     0.124 S 
ATOM     93  O   UNL     1     -11.803   6.320  16.425  1.00  0.00    -0.237 OA
ATOM     94  O   UNL     1     -10.887   8.612  16.288  1.00  0.00    -0.237 OA
ATOM     95  O   UNL     1     -13.031   8.075  15.198  1.00  0.00    -0.744 OA
ENDBRANCH  91  92
ENDBRANCH  59  84
ENDBRANCH  33  34
ENDBRANCH  26  28
ENDBRANCH  25  26
ENDBRANCH  24  25
ENDBRANCH   1  24
TORSDOF 18
