REMARK SMILES CC[C@H]1CC[C@](O)([C@H](F)C(=O)OCCOCCOC(=O)c2ccc(-c3c4nc(c(-c5c(F)cc(S(=O)(=O)[O-])cc5F)c5ccc([nH]5)c(-c5c(F)cc(S(=O)(=O)[O-])cc5F)c5nc(c(-c6c(F)cc(S(=O)(=O)[O-])cc6F)c6ccc3[nH]6)C=C5)C=C4)cc2)CC1
REMARK SMILES IDX 16 1 15 2 14 3 13 4 12 5 10 6 11 7 8 8 9 9 6 10 3 11 4 12
REMARK SMILES IDX 88 13 5 14 87 15 2 16 1 17 7 18 17 20 18 21 19 22 20 23
REMARK SMILES IDX 21 24 22 25 86 26 23 27 85 28 24 29 25 30 26 31 79 32 27 33
REMARK SMILES IDX 84 34 78 35 80 36 28 37 83 38 77 39 76 40 29 42 63 43 42 44
REMARK SMILES IDX 62 45 43 46 46 47 61 48 81 49 44 50 45 51 60 53 82 54 47 55
REMARK SMILES IDX 30 56 31 57 40 58 32 59 33 60 39 61 41 62 34 63 35 64 36 65
REMARK SMILES IDX 37 66 38 67 64 68 65 69 74 70 66 71 67 72 73 73 75 74 68 75
REMARK SMILES IDX 69 76 70 77 71 78 72 79 48 80 49 81 58 82 50 83 51 84 57 85
REMARK SMILES IDX 59 86 52 87 53 88 54 89 55 90 56 91
REMARK H PARENT 7 19 80 41 46 52
REMARK Flexibility Score: inf
ROOT
ATOM      1  C   UNL     1      -3.409   4.947   4.144  1.00  0.00     0.202 C 
ENDROOT
BRANCH   1   2
ATOM      2  O   UNL     1      -2.897   6.149   4.712  1.00  0.00    -0.374 OA
BRANCH   2   3
ATOM      3  C   UNL     1      -1.562   6.525   4.399  1.00  0.00     0.202 C 
BRANCH   3   4
ATOM      4  C   UNL     1      -0.439   5.633   4.929  1.00  0.00     0.261 C 
BRANCH   4   5
ATOM      5  O   UNL     1      -0.471   4.290   4.422  1.00  0.00    -0.461 OA
BRANCH   5   6
ATOM      6  C   UNL     1      -0.698   3.304   5.337  1.00  0.00     0.343 C 
ATOM      7  O   UNL     1      -1.079   3.495   6.487  1.00  0.00    -0.249 OA
BRANCH   6   8
ATOM      8  C   UNL     1      -0.426   1.928   4.768  1.00  0.00     0.307 C 
ATOM      9  F   UNL     1      -0.621   1.894   3.408  1.00  0.00    -0.232 F 
BRANCH   8  10
ATOM     10  C   UNL     1       0.965   1.316   5.087  1.00  0.00     0.107 C 
ATOM     11  C   UNL     1       2.873   3.502   6.000  1.00  0.00    -0.011 C 
ATOM     12  C   UNL     1       1.943   2.778   6.993  1.00  0.00     0.006 C 
ATOM     13  C   UNL     1       2.557   3.243   4.517  1.00  0.00     0.006 C 
ATOM     14  C   UNL     1       1.409   1.417   6.554  1.00  0.00     0.039 C 
ATOM     15  C   UNL     1       2.096   1.832   4.188  1.00  0.00     0.039 C 
BRANCH  11  16
ATOM     16  C   UNL     1       4.347   3.241   6.365  1.00  0.00    -0.000 C 
ATOM     17  C   UNL     1       5.328   4.088   5.564  1.00  0.00     0.004 C 
ENDBRANCH  11  16
BRANCH  10  18
ATOM     18  O   UNL     1       0.820  -0.107   4.829  1.00  0.00    -0.386 OA
ATOM     19  H   UNL     1       1.660  -0.556   5.011  1.00  0.00     0.211 HD
ENDBRANCH  10  18
ENDBRANCH   8  10
ENDBRANCH   6   8
ENDBRANCH   5   6
ENDBRANCH   4   5
ENDBRANCH   3   4
ENDBRANCH   2   3
ENDBRANCH   1   2
BRANCH   1  20
ATOM     20  C   UNL     1      -3.606   4.890   2.623  1.00  0.00     0.261 C 
BRANCH  20  21
ATOM     21  O   UNL     1      -2.393   5.031   1.861  1.00  0.00    -0.460 OA
BRANCH  21  22
ATOM     22  C   UNL     1      -2.330   6.162   1.112  1.00  0.00     0.338 C 
ATOM     23  O   UNL     1      -3.152   7.060   1.070  1.00  0.00    -0.246 OA
BRANCH  22  24
ATOM     24  C   UNL     1      -1.042   6.257   0.402  1.00  0.00     0.060 A 
ATOM     25  C   UNL     1      -0.247   7.388   0.630  1.00  0.00     0.016 A 
ATOM     26  C   UNL     1      -0.712   5.349  -0.606  1.00  0.00     0.016 A 
ATOM     27  C   UNL     1       0.850   7.648  -0.192  1.00  0.00     0.010 A 
ATOM     28  C   UNL     1       0.383   5.617  -1.436  1.00  0.00     0.010 A 
ATOM     29  C   UNL     1       1.142   6.789  -1.260  1.00  0.00    -0.014 A 
BRANCH  29  30
ATOM     30  C   UNL     1       2.130   7.197  -2.289  1.00  0.00     0.031 A 
ATOM     31  C   UNL     1       1.637   7.828  -3.565  1.00  0.00     0.074 A 
ATOM     32  C   UNL     1       3.449   7.025  -2.088  1.00  0.00     0.049 A 
ATOM     33  N   UNL     1       2.312   8.196  -4.623  1.00  0.00    -0.248 NA
ATOM     34  C   UNL     1       0.188   8.076  -3.659  1.00  0.00     0.031 C 
ATOM     35  C   UNL     1       4.053   6.470  -0.878  1.00  0.00     0.029 A 
ATOM     36  N   UNL     1       4.517   7.293  -2.907  1.00  0.00    -0.354 N 
ATOM     37  C   UNL     1       1.374   8.713  -5.510  1.00  0.00     0.074 A 
ATOM     38  C   UNL     1       0.079   8.591  -4.876  1.00  0.00     0.031 C 
ATOM     39  C   UNL     1       5.387   6.421  -1.041  1.00  0.00     0.029 A 
ATOM     40  C   UNL     1       5.726   6.912  -2.376  1.00  0.00     0.049 A 
ATOM     41  H   UNL     1       4.426   7.717  -3.790  1.00  0.00     0.167 HD
ATOM     42  C   UNL     1       1.574   9.247  -6.739  1.00  0.00     0.037 A 
ATOM     43  C   UNL     1       6.961   6.934  -2.917  1.00  0.00     0.037 A 
ATOM     44  C   UNL     1       2.862   9.367  -7.370  1.00  0.00     0.049 A 
ATOM     45  C   UNL     1       7.151   7.466  -4.313  1.00  0.00     0.074 A 
ATOM     46  C   UNL     1       3.167   9.897  -8.612  1.00  0.00     0.029 A 
ATOM     47  N   UNL     1       4.059   8.948  -6.809  1.00  0.00    -0.354 N 
ATOM     48  N   UNL     1       6.256   7.956  -5.138  1.00  0.00    -0.248 NA
ATOM     49  C   UNL     1       8.518   7.446  -4.854  1.00  0.00     0.031 C 
ATOM     50  C   UNL     1       4.545   9.766  -8.817  1.00  0.00     0.029 A 
ATOM     51  C   UNL     1       5.103   9.192  -7.686  1.00  0.00     0.049 A 
ATOM     52  H   UNL     1       4.153   8.539  -5.919  1.00  0.00     0.167 HD
ATOM     53  C   UNL     1       6.955   8.326  -6.282  1.00  0.00     0.074 A 
ATOM     54  C   UNL     1       8.348   8.009  -6.043  1.00  0.00     0.031 C 
ATOM     55  C   UNL     1       6.487   8.881  -7.427  1.00  0.00     0.037 A 
BRANCH  42  56
ATOM     56  C   UNL     1       0.366   9.725  -7.494  1.00  0.00     0.058 A 
ATOM     57  C   UNL     1      -0.294  10.914  -7.148  1.00  0.00     0.135 A 
ATOM     58  C   UNL     1      -0.115   9.005  -8.599  1.00  0.00     0.135 A 
ATOM     59  F   UNL     1       0.116  11.631  -6.090  1.00  0.00    -0.206 F 
ATOM     60  C   UNL     1      -1.403  11.363  -7.859  1.00  0.00     0.059 A 
ATOM     61  C   UNL     1      -1.209   9.446  -9.338  1.00  0.00     0.059 A 
ATOM     62  F   UNL     1       0.479   7.860  -8.970  1.00  0.00    -0.206 F 
ATOM     63  C   UNL     1      -1.854  10.620  -8.952  1.00  0.00     0.060 A 
BRANCH  63  64
ATOM     64  S   UNL     1      -3.289  11.217  -9.871  1.00  0.00     0.124 S 
ATOM     65  O   UNL     1      -4.378  10.885  -8.957  1.00  0.00    -0.237 OA
ATOM     66  O   UNL     1      -2.998  12.640 -10.018  1.00  0.00    -0.237 OA
ATOM     67  O   UNL     1      -3.248  10.441 -11.106  1.00  0.00    -0.744 OA
ENDBRANCH  63  64
ENDBRANCH  42  56
BRANCH  43  68
ATOM     68  C   UNL     1       8.119   6.414  -2.143  1.00  0.00     0.058 A 
ATOM     69  C   UNL     1       9.103   7.279  -1.644  1.00  0.00     0.135 A 
ATOM     70  C   UNL     1       8.265   5.041  -1.892  1.00  0.00     0.135 A 
ATOM     71  F   UNL     1       9.013   8.599  -1.868  1.00  0.00    -0.206 F 
ATOM     72  C   UNL     1      10.200   6.801  -0.934  1.00  0.00     0.059 A 
ATOM     73  C   UNL     1       9.341   4.541  -1.167  1.00  0.00     0.059 A 
ATOM     74  F   UNL     1       7.345   4.173  -2.341  1.00  0.00    -0.206 F 
ATOM     75  C   UNL     1      10.310   5.429  -0.700  1.00  0.00     0.060 A 
BRANCH  75  76
ATOM     76  S   UNL     1      11.710   4.819   0.264  1.00  0.00     0.124 S 
ATOM     77  O   UNL     1      12.790   4.884  -0.714  1.00  0.00    -0.237 OA
ATOM     78  O   UNL     1      11.777   5.786   1.356  1.00  0.00    -0.237 OA
ATOM     79  O   UNL     1      11.287   3.477   0.653  1.00  0.00    -0.744 OA
ENDBRANCH  75  76
ENDBRANCH  43  68
BRANCH  55  80
ATOM     80  C   UNL     1       7.486   9.218  -8.498  1.00  0.00     0.058 A 
ATOM     81  C   UNL     1       8.056   8.227  -9.311  1.00  0.00     0.135 A 
ATOM     82  C   UNL     1       7.828  10.556  -8.754  1.00  0.00     0.135 A 
ATOM     83  F   UNL     1       7.766   6.933  -9.103  1.00  0.00    -0.206 F 
ATOM     84  C   UNL     1       8.943   8.550 -10.334  1.00  0.00     0.059 A 
ATOM     85  C   UNL     1       8.696  10.903  -9.785  1.00  0.00     0.059 A 
ATOM     86  F   UNL     1       7.303  11.542  -8.010  1.00  0.00    -0.206 F 
ATOM     87  C   UNL     1       9.255   9.891 -10.565  1.00  0.00     0.060 A 
BRANCH  87  88
ATOM     88  S   UNL     1      10.372  10.302 -11.923  1.00  0.00     0.124 S 
ATOM     89  O   UNL     1      11.668   9.945 -11.356  1.00  0.00    -0.237 OA
ATOM     90  O   UNL     1       9.891   9.440 -12.998  1.00  0.00    -0.237 OA
ATOM     91  O   UNL     1      10.146  11.730 -12.127  1.00  0.00    -0.744 OA
ENDBRANCH  87  88
ENDBRANCH  55  80
ENDBRANCH  29  30
ENDBRANCH  22  24
ENDBRANCH  21  22
ENDBRANCH  20  21
ENDBRANCH   1  20
TORSDOF 20
