REMARK SMILES Cc1cc(OC(F)(F)F)cc2c1O[C@H](C(F)(F)F)C(C(=O)OCCOCCOC(=O)c1ccc(-c3c4nc(c(-c5c(F)cc(S(=O)(=O)[O-])cc5F)c5ccc([nH]5)c(-c5c(F)cc(S(=O)(=O)[O-])cc5F)c5nc(c(-c6c(F)cc(S(=O)(=O)[O-])cc6F)c6ccc3[nH]6)C=C5)C=C4)cc1)=C2
REMARK SMILES IDX 26 1 25 2 24 3 23 4 22 5 20 6 21 7 19 8 1 9 2 10 3 11 12 12
REMARK SMILES IDX 4 13 11 14 13 15 10 16 97 17 14 18 5 19 6 20 7 21 8 22 9 23
REMARK SMILES IDX 15 24 16 25 17 26 18 27 27 28 28 29 29 30 30 31 31 32 32 33
REMARK SMILES IDX 96 34 33 35 95 36 34 37 35 38 36 39 89 40 37 41 94 42 88 43
REMARK SMILES IDX 90 44 38 45 93 46 87 47 86 48 39 50 73 51 52 52 72 53 53 54
REMARK SMILES IDX 56 55 71 56 91 57 54 58 55 59 70 61 92 62 57 63 40 64 41 65
REMARK SMILES IDX 50 66 42 67 43 68 49 69 51 70 44 71 45 72 46 73 47 74 48 75
REMARK SMILES IDX 74 76 75 77 84 78 76 79 77 80 83 81 85 82 78 83 79 84 80 85
REMARK SMILES IDX 81 86 82 87 58 88 59 89 68 90 60 91 61 92 67 93 69 94 62 95
REMARK SMILES IDX 63 96 64 97 65 98 66 99
REMARK H PARENT 90 49 56 60
REMARK Flexibility Score: inf
ROOT
ATOM      1  C   UNL     1       3.606  -7.352   1.091  1.00  0.00     0.202 C 
ENDROOT
BRANCH   1   2
ATOM      2  O   UNL     1       3.216  -8.632   0.587  1.00  0.00    -0.374 OA
BRANCH   2   3
ATOM      3  C   UNL     1       3.289  -8.835  -0.823  1.00  0.00     0.202 C 
BRANCH   3   4
ATOM      4  C   UNL     1       2.118  -8.293  -1.647  1.00  0.00     0.261 C 
BRANCH   4   5
ATOM      5  O   UNL     1       1.927  -6.886  -1.431  1.00  0.00    -0.460 OA
BRANCH   5   6
ATOM      6  C   UNL     1       0.796  -6.566  -0.763  1.00  0.00     0.338 C 
ATOM      7  O   UNL     1      -0.107  -7.325  -0.443  1.00  0.00    -0.246 OA
BRANCH   6   8
ATOM      8  C   UNL     1       0.845  -5.154  -0.340  1.00  0.00     0.087 C 
ATOM      9  C   UNL     1       1.025  -0.048  -0.052  1.00  0.00     0.048 C 
ATOM     10  C   UNL     1       0.562  -1.161   0.848  1.00  0.00    -0.005 A 
ATOM     11  C   UNL     1      -0.070  -0.859   2.070  1.00  0.00     0.054 A 
ATOM     12  C   UNL     1       0.744  -2.503   0.478  1.00  0.00     0.131 A 
ATOM     13  C   UNL     1      -0.515  -1.878   2.912  1.00  0.00     0.130 A 
ATOM     14  C   UNL     1       0.276  -3.521   1.308  1.00  0.00     0.021 A 
ATOM     15  O   UNL     1       1.401  -2.748  -0.696  1.00  0.00    -0.475 OA
ATOM     16  C   UNL     1      -0.331  -3.207   2.528  1.00  0.00     0.058 A 
ATOM     17  C   UNL     1       0.362  -4.904   0.883  1.00  0.00     0.027 C 
ATOM     18  C   UNL     1       1.384  -4.092  -1.258  1.00  0.00     0.316 C 
BRANCH  13  19
ATOM     19  O   UNL     1      -1.139  -1.728   4.117  1.00  0.00    -0.406 OA
BRANCH  19  20
ATOM     20  C   UNL     1      -1.566  -0.429   4.484  1.00  0.00     0.573 C 
ATOM     21  F   UNL     1      -0.514   0.395   4.669  1.00  0.00    -0.132 F 
ATOM     22  F   UNL     1      -2.396   0.095   3.558  1.00  0.00    -0.132 F 
ATOM     23  F   UNL     1      -2.242  -0.512   5.653  1.00  0.00    -0.132 F 
ENDBRANCH  19  20
ENDBRANCH  13  19
BRANCH  18  24
ATOM     24  C   UNL     1       0.643  -4.045  -2.603  1.00  0.00     0.430 C 
ATOM     25  F   UNL     1       1.117  -3.049  -3.387  1.00  0.00    -0.167 F 
ATOM     26  F   UNL     1       0.791  -5.197  -3.297  1.00  0.00    -0.167 F 
ATOM     27  F   UNL     1      -0.683  -3.837  -2.438  1.00  0.00    -0.167 F 
ENDBRANCH  18  24
ENDBRANCH   6   8
ENDBRANCH   5   6
ENDBRANCH   4   5
ENDBRANCH   3   4
ENDBRANCH   2   3
ENDBRANCH   1   2
BRANCH   1  28
ATOM     28  C   UNL     1       5.102  -7.019   1.061  1.00  0.00     0.261 C 
BRANCH  28  29
ATOM     29  O   UNL     1       5.567  -6.756  -0.277  1.00  0.00    -0.460 OA
BRANCH  29  30
ATOM     30  C   UNL     1       6.506  -7.619  -0.734  1.00  0.00     0.338 C 
ATOM     31  O   UNL     1       7.019  -8.545  -0.122  1.00  0.00    -0.246 OA
BRANCH  30  32
ATOM     32  C   UNL     1       6.720  -7.409  -2.174  1.00  0.00     0.060 A 
ATOM     33  C   UNL     1       6.402  -8.458  -3.046  1.00  0.00     0.016 A 
ATOM     34  C   UNL     1       7.335  -6.248  -2.648  1.00  0.00     0.016 A 
ATOM     35  C   UNL     1       6.737  -8.368  -4.395  1.00  0.00     0.010 A 
ATOM     36  C   UNL     1       7.688  -6.168  -3.998  1.00  0.00     0.010 A 
ATOM     37  C   UNL     1       7.424  -7.242  -4.867  1.00  0.00    -0.014 A 
BRANCH  37  38
ATOM     38  C   UNL     1       8.023  -7.271  -6.221  1.00  0.00     0.031 A 
ATOM     39  C   UNL     1       9.449  -7.726  -6.370  1.00  0.00     0.074 A 
ATOM     40  C   UNL     1       7.300  -6.929  -7.302  1.00  0.00     0.049 A 
ATOM     41  N   UNL     1      10.183  -7.809  -7.448  1.00  0.00    -0.248 NA
ATOM     42  C   UNL     1      10.137  -8.149  -5.138  1.00  0.00     0.031 C 
ATOM     43  C   UNL     1       5.896  -6.521  -7.283  1.00  0.00     0.029 A 
ATOM     44  N   UNL     1       7.652  -6.867  -8.626  1.00  0.00    -0.354 N 
ATOM     45  C   UNL     1      11.414  -8.300  -7.029  1.00  0.00     0.074 A 
ATOM     46  C   UNL     1      11.340  -8.468  -5.595  1.00  0.00     0.031 C 
ATOM     47  C   UNL     1       5.509  -6.239  -8.540  1.00  0.00     0.029 A 
ATOM     48  C   UNL     1       6.643  -6.421  -9.444  1.00  0.00     0.049 A 
ATOM     49  H   UNL     1       8.544  -7.119  -8.958  1.00  0.00     0.167 HD
ATOM     50  C   UNL     1      12.503  -8.595  -7.776  1.00  0.00     0.037 A 
ATOM     51  C   UNL     1       6.644  -6.171 -10.769  1.00  0.00     0.037 A 
ATOM     52  C   UNL     1      12.576  -8.414  -9.202  1.00  0.00     0.049 A 
ATOM     53  C   UNL     1       7.899  -6.417 -11.565  1.00  0.00     0.074 A 
ATOM     54  C   UNL     1      13.635  -8.684 -10.050  1.00  0.00     0.029 A 
ATOM     55  N   UNL     1      11.551  -7.910  -9.988  1.00  0.00    -0.354 N 
ATOM     56  N   UNL     1       9.053  -6.891 -11.159  1.00  0.00    -0.248 NA
ATOM     57  C   UNL     1       7.855  -6.091 -12.998  1.00  0.00     0.031 C 
ATOM     58  C   UNL     1      13.266  -8.301 -11.344  1.00  0.00     0.029 A 
ATOM     59  C   UNL     1      11.960  -7.836 -11.308  1.00  0.00     0.049 A 
ATOM     60  H   UNL     1      10.663  -7.643  -9.656  1.00  0.00     0.167 HD
ATOM     61  C   UNL     1       9.864  -6.941 -12.289  1.00  0.00     0.074 A 
ATOM     62  C   UNL     1       9.066  -6.458 -13.397  1.00  0.00     0.031 C 
ATOM     63  C   UNL     1      11.151  -7.353 -12.400  1.00  0.00     0.037 A 
BRANCH  50  64
ATOM     64  C   UNL     1      13.712  -9.133  -7.066  1.00  0.00     0.058 A 
ATOM     65  C   UNL     1      13.752 -10.449  -6.579  1.00  0.00     0.135 A 
ATOM     66  C   UNL     1      14.862  -8.342  -6.913  1.00  0.00     0.135 A 
ATOM     67  F   UNL     1      12.671 -11.239  -6.681  1.00  0.00    -0.206 F 
ATOM     68  C   UNL     1      14.886 -10.959  -5.957  1.00  0.00     0.059 A 
ATOM     69  C   UNL     1      16.015  -8.838  -6.314  1.00  0.00     0.059 A 
ATOM     70  F   UNL     1      14.873  -7.074  -7.354  1.00  0.00    -0.206 F 
ATOM     71  C   UNL     1      16.015 -10.147  -5.832  1.00  0.00     0.060 A 
BRANCH  71  72
ATOM     72  S   UNL     1      17.485 -10.834  -5.042  1.00  0.00     0.124 S 
ATOM     73  O   UNL     1      17.055 -10.920  -3.649  1.00  0.00    -0.237 OA
ATOM     74  O   UNL     1      17.644 -12.108  -5.736  1.00  0.00    -0.237 OA
ATOM     75  O   UNL     1      18.517  -9.839  -5.317  1.00  0.00    -0.744 OA
ENDBRANCH  71  72
ENDBRANCH  50  64
BRANCH  51  76
ATOM     76  C   UNL     1       5.416  -5.651 -11.425  1.00  0.00     0.058 A 
ATOM     77  C   UNL     1       4.671  -6.452 -12.302  1.00  0.00     0.135 A 
ATOM     78  C   UNL     1       4.959  -4.346 -11.182  1.00  0.00     0.135 A 
ATOM     79  F   UNL     1       5.075  -7.701 -12.575  1.00  0.00    -0.206 F 
ATOM     80  C   UNL     1       3.518  -5.977 -12.919  1.00  0.00     0.059 A 
ATOM     81  C   UNL     1       3.798  -3.856 -11.770  1.00  0.00     0.059 A 
ATOM     82  F   UNL     1       5.634  -3.542 -10.345  1.00  0.00    -0.206 F 
ATOM     83  C   UNL     1       3.087  -4.678 -12.643  1.00  0.00     0.060 A 
BRANCH  83  84
ATOM     84  S   UNL     1       1.560  -4.093 -13.409  1.00  0.00     0.124 S 
ATOM     85  O   UNL     1       1.971  -3.932 -14.799  1.00  0.00    -0.237 OA
ATOM     86  O   UNL     1       0.642  -5.195 -13.138  1.00  0.00    -0.237 OA
ATOM     87  O   UNL     1       1.274  -2.857 -12.688  1.00  0.00    -0.744 OA
ENDBRANCH  83  84
ENDBRANCH  51  76
BRANCH  63  88
ATOM     88  C   UNL     1      11.782  -7.317 -13.764  1.00  0.00     0.058 A 
ATOM     89  C   UNL     1      12.188  -6.110 -14.353  1.00  0.00     0.135 A 
ATOM     90  C   UNL     1      12.057  -8.510 -14.453  1.00  0.00     0.135 A 
ATOM     91  F   UNL     1      11.943  -4.942 -13.738  1.00  0.00    -0.206 F 
ATOM     92  C   UNL     1      12.836  -6.085 -15.583  1.00  0.00     0.059 A 
ATOM     93  C   UNL     1      12.726  -8.511 -15.673  1.00  0.00     0.059 A 
ATOM     94  F   UNL     1      11.699  -9.692 -13.927  1.00  0.00    -0.206 F 
ATOM     95  C   UNL     1      13.106  -7.292 -16.233  1.00  0.00     0.060 A 
BRANCH  95  96
ATOM     96  S   UNL     1      13.994  -7.246 -17.805  1.00  0.00     0.124 S 
ATOM     97  O   UNL     1      12.972  -6.722 -18.705  1.00  0.00    -0.237 OA
ATOM     98  O   UNL     1      15.103  -6.343 -17.510  1.00  0.00    -0.237 OA
ATOM     99  O   UNL     1      14.369  -8.639 -18.024  1.00  0.00    -0.744 OA
ENDBRANCH  95  96
ENDBRANCH  63  88
ENDBRANCH  37  38
ENDBRANCH  30  32
ENDBRANCH  29  30
ENDBRANCH  28  29
ENDBRANCH   1  28
TORSDOF 20
