REMARK SMILES COc1ccc2[nH]cc([C@H](C(=O)OCCOCCOC(=O)c3ccc(-c4c5nc(c(-c6c(F)cc(S(=O)(=O)[O-])cc6F)c6ccc([nH]6)c(-c6c(F)cc(S(=O)(=O)[O-])cc6F)c6nc(c(-c7c(F)cc(S(=O)(=O)[O-])cc7F)c7ccc4[nH]7)C=C6)C=C5)cc3)[NH+]3CC[NH+](Cc4cccc5ccccc45)CC3)c2c1
REMARK SMILES IDX 16 1 15 2 14 3 13 4 11 5 12 6 10 7 9 8 3 9 4 10 106 11 5 12
REMARK SMILES IDX 105 13 6 14 7 15 8 16 2 18 1 19 88 20 89 21 104 22 90 24
REMARK SMILES IDX 103 25 91 26 92 28 93 29 94 30 102 31 95 32 97 33 101 34
REMARK SMILES IDX 96 35 98 36 100 37 99 38 17 39 18 40 19 41 20 42 21 43 22 44
REMARK SMILES IDX 23 45 87 46 24 47 86 48 25 49 26 50 27 51 80 52 28 53 85 54
REMARK SMILES IDX 79 55 81 56 29 57 84 58 78 59 77 60 30 62 64 63 43 64 63 65
REMARK SMILES IDX 44 66 47 67 62 68 82 69 45 70 46 71 61 73 83 74 48 75 31 76
REMARK SMILES IDX 32 77 41 78 33 79 34 80 40 81 42 82 35 83 36 84 37 85 38 86
REMARK SMILES IDX 39 87 65 88 66 89 75 90 67 91 68 92 74 93 76 94 69 95 70 96
REMARK SMILES IDX 71 97 72 98 73 99 49 100 50 101 59 102 51 103 52 104 58 105
REMARK SMILES IDX 60 106 53 107 54 108 55 109 56 110 57 111
REMARK H PARENT 7 17 88 23 91 27 81 61 47 72
REMARK Flexibility Score: inf
ROOT
ATOM      1  O   UNL     1       2.803  -2.820   3.821  1.00  0.00    -0.374 OA
ENDROOT
BRANCH   1   2
ATOM      2  C   UNL     1       2.557  -3.294   2.506  1.00  0.00     0.202 C 
BRANCH   2   3
ATOM      3  C   UNL     1       1.484  -4.331   2.170  1.00  0.00     0.261 C 
BRANCH   3   4
ATOM      4  O   UNL     1       0.147  -4.008   2.587  1.00  0.00    -0.459 OA
BRANCH   4   5
ATOM      5  C   UNL     1      -0.211  -4.680   3.720  1.00  0.00     0.370 C 
ATOM      6  O   UNL     1       0.612  -5.299   4.385  1.00  0.00    -0.245 OA
BRANCH   5   7
ATOM      7  C   UNL     1      -1.712  -4.623   4.014  1.00  0.00     0.328 C 
BRANCH   7   8
ATOM      8  C   UNL     1      -2.471  -5.773   3.348  1.00  0.00     0.046 A 
ATOM      9  C   UNL     1      -0.453  -8.687   1.854  1.00  0.00     0.119 A 
ATOM     10  C   UNL     1      -1.533  -9.492   1.540  1.00  0.00     0.048 A 
ATOM     11  C   UNL     1      -0.637  -7.451   2.466  1.00  0.00     0.057 A 
ATOM     12  C   UNL     1      -2.836  -9.055   1.804  1.00  0.00     0.030 A 
ATOM     13  C   UNL     1      -1.934  -6.962   2.727  1.00  0.00     0.013 A 
ATOM     14  C   UNL     1      -3.006  -7.789   2.388  1.00  0.00     0.046 A 
ATOM     15  N   UNL     1      -4.154  -7.133   2.762  1.00  0.00    -0.361 N 
ATOM     16  C   UNL     1      -3.851  -5.922   3.322  1.00  0.00     0.094 A 
ATOM     17  H   UNL     1      -5.066  -7.485   2.643  1.00  0.00     0.166 HD
BRANCH   9  18
ATOM     18  O   UNL     1       0.830  -9.116   1.649  1.00  0.00    -0.497 OA
ATOM     19  C   UNL     1       1.254  -8.786   0.325  1.00  0.00     0.278 C 
ENDBRANCH   9  18
ENDBRANCH   7   8
BRANCH   7  20
ATOM     20  N   UNL     1      -2.013  -4.675   5.468  1.00  0.00    -0.310 N 
ATOM     21  C   UNL     1      -1.589  -5.891   6.170  1.00  0.00     0.325 C 
ATOM     22  C   UNL     1      -1.775  -3.473   6.262  1.00  0.00     0.325 C 
ATOM     23  H   UNL     1      -3.030  -4.720   5.400  1.00  0.00     0.349 HD
ATOM     24  C   UNL     1      -0.287  -5.853   7.009  1.00  0.00     0.324 C 
ATOM     25  C   UNL     1      -0.483  -3.415   7.123  1.00  0.00     0.324 C 
ATOM     26  N   UNL     1      -0.002  -4.637   7.765  1.00  0.00    -0.322 N 
ATOM     27  H   UNL     1       1.009  -4.521   7.707  1.00  0.00     0.348 HD
BRANCH  26  28
ATOM     28  C   UNL     1      -0.143  -4.746   9.218  1.00  0.00     0.300 C 
BRANCH  28  29
ATOM     29  C   UNL     1      -1.549  -4.468   9.712  1.00  0.00     0.014 A 
ATOM     30  C   UNL     1      -1.828  -3.149  10.115  1.00  0.00     0.010 A 
ATOM     31  C   UNL     1      -2.607  -5.391   9.507  1.00  0.00    -0.010 A 
ATOM     32  C   UNL     1      -3.133  -2.684  10.129  1.00  0.00     0.001 A 
ATOM     33  C   UNL     1      -3.914  -4.872   9.397  1.00  0.00    -0.018 A 
ATOM     34  C   UNL     1      -2.427  -6.784   9.332  1.00  0.00     0.009 A 
ATOM     35  C   UNL     1      -4.160  -3.524   9.709  1.00  0.00     0.009 A 
ATOM     36  C   UNL     1      -4.946  -5.704   8.931  1.00  0.00     0.009 A 
ATOM     37  C   UNL     1      -3.473  -7.609   8.917  1.00  0.00     0.001 A 
ATOM     38  C   UNL     1      -4.723  -7.057   8.673  1.00  0.00     0.001 A 
ENDBRANCH  28  29
ENDBRANCH  26  28
ENDBRANCH   7  20
ENDBRANCH   5   7
ENDBRANCH   4   5
ENDBRANCH   3   4
ENDBRANCH   2   3
ENDBRANCH   1   2
BRANCH   1  39
ATOM     39  C   UNL     1       1.750  -2.227   4.558  1.00  0.00     0.202 C 
BRANCH  39  40
ATOM     40  C   UNL     1       1.122  -0.886   4.157  1.00  0.00     0.261 C 
BRANCH  40  41
ATOM     41  O   UNL     1       0.945  -0.724   2.754  1.00  0.00    -0.460 OA
BRANCH  41  42
ATOM     42  C   UNL     1       1.956  -0.042   2.164  1.00  0.00     0.338 C 
ATOM     43  O   UNL     1       2.895   0.518   2.709  1.00  0.00    -0.246 OA
BRANCH  42  44
ATOM     44  C   UNL     1       1.888  -0.301   0.720  1.00  0.00     0.060 A 
ATOM     45  C   UNL     1       3.011  -0.899   0.129  1.00  0.00     0.016 A 
ATOM     46  C   UNL     1       0.735  -0.028  -0.016  1.00  0.00     0.016 A 
ATOM     47  C   UNL     1       2.989  -1.222  -1.215  1.00  0.00     0.010 A 
ATOM     48  C   UNL     1       0.735  -0.298  -1.381  1.00  0.00     0.010 A 
ATOM     49  C   UNL     1       1.875  -0.863  -1.980  1.00  0.00    -0.014 A 
BRANCH  49  50
ATOM     50  C   UNL     1       2.041  -0.824  -3.441  1.00  0.00     0.031 A 
ATOM     51  C   UNL     1       2.499   0.473  -4.040  1.00  0.00     0.074 A 
ATOM     52  C   UNL     1       1.866  -1.931  -4.179  1.00  0.00     0.049 A 
ATOM     53  N   UNL     1       2.718   0.776  -5.289  1.00  0.00    -0.248 NA
ATOM     54  C   UNL     1       2.749   1.580  -3.097  1.00  0.00     0.031 C 
ATOM     55  C   UNL     1       1.488  -3.244  -3.656  1.00  0.00     0.029 A 
ATOM     56  N   UNL     1       1.987  -2.122  -5.527  1.00  0.00    -0.354 N 
ATOM     57  C   UNL     1       3.123   2.105  -5.283  1.00  0.00     0.074 A 
ATOM     58  C   UNL     1       3.094   2.562  -3.913  1.00  0.00     0.031 C 
ATOM     59  C   UNL     1       1.394  -4.107  -4.683  1.00  0.00     0.029 A 
ATOM     60  C   UNL     1       1.670  -3.396  -5.929  1.00  0.00     0.049 A 
ATOM     61  H   UNL     1       2.273  -1.415  -6.149  1.00  0.00     0.167 HD
ATOM     62  C   UNL     1       3.491   2.869  -6.335  1.00  0.00     0.037 A 
ATOM     63  C   UNL     1       1.589  -3.908  -7.172  1.00  0.00     0.037 A 
ATOM     64  C   UNL     1       3.502   2.386  -7.688  1.00  0.00     0.049 A 
ATOM     65  C   UNL     1       1.927  -3.013  -8.336  1.00  0.00     0.074 A 
ATOM     66  C   UNL     1       3.851   3.062  -8.841  1.00  0.00     0.029 A 
ATOM     67  N   UNL     1       3.135   1.101  -8.068  1.00  0.00    -0.354 N 
ATOM     68  N   UNL     1       2.315  -1.758  -8.327  1.00  0.00    -0.248 NA
ATOM     69  C   UNL     1       1.823  -3.600  -9.677  1.00  0.00     0.031 C 
ATOM     70  C   UNL     1       3.638   2.204  -9.924  1.00  0.00     0.029 A 
ATOM     71  C   UNL     1       3.222   0.971  -9.441  1.00  0.00     0.049 A 
ATOM     72  H   UNL     1       2.855   0.388  -7.449  1.00  0.00     0.167 HD
ATOM     73  C   UNL     1       2.528  -1.413  -9.657  1.00  0.00     0.074 A 
ATOM     74  C   UNL     1       2.238  -2.598 -10.440  1.00  0.00     0.031 C 
ATOM     75  C   UNL     1       2.929  -0.229 -10.187  1.00  0.00     0.037 A 
BRANCH  62  76
ATOM     76  C   UNL     1       3.859   4.301  -6.063  1.00  0.00     0.058 A 
ATOM     77  C   UNL     1       5.034   4.654  -5.379  1.00  0.00     0.135 A 
ATOM     78  C   UNL     1       3.024   5.340  -6.505  1.00  0.00     0.135 A 
ATOM     79  F   UNL     1       5.854   3.701  -4.906  1.00  0.00    -0.206 F 
ATOM     80  C   UNL     1       5.358   5.983  -5.127  1.00  0.00     0.059 A 
ATOM     81  C   UNL     1       3.343   6.677  -6.291  1.00  0.00     0.059 A 
ATOM     82  F   UNL     1       1.880   5.060  -7.149  1.00  0.00    -0.206 F 
ATOM     83  C   UNL     1       4.508   6.988  -5.592  1.00  0.00     0.060 A 
BRANCH  83  84
ATOM     84  S   UNL     1       4.952   8.709  -5.275  1.00  0.00     0.124 S 
ATOM     85  O   UNL     1       4.734   8.807  -3.836  1.00  0.00    -0.237 OA
ATOM     86  O   UNL     1       6.345   8.754  -5.710  1.00  0.00    -0.237 OA
ATOM     87  O   UNL     1       4.015   9.461  -6.104  1.00  0.00    -0.744 OA
ENDBRANCH  83  84
ENDBRANCH  62  76
BRANCH  63  88
ATOM     88  C   UNL     1       1.156  -5.316  -7.370  1.00  0.00     0.058 A 
ATOM     89  C   UNL     1       2.037  -6.289  -7.862  1.00  0.00     0.135 A 
ATOM     90  C   UNL     1      -0.152  -5.721  -7.056  1.00  0.00     0.135 A 
ATOM     91  F   UNL     1       3.296  -5.953  -8.183  1.00  0.00    -0.206 F 
ATOM     92  C   UNL     1       1.636  -7.609  -8.049  1.00  0.00     0.059 A 
ATOM     93  C   UNL     1      -0.569  -7.039  -7.207  1.00  0.00     0.059 A 
ATOM     94  F   UNL     1      -1.033  -4.832  -6.570  1.00  0.00    -0.206 F 
ATOM     95  C   UNL     1       0.331  -7.974  -7.714  1.00  0.00     0.060 A 
BRANCH  95  96
ATOM     96  S   UNL     1      -0.164  -9.700  -7.914  1.00  0.00     0.124 S 
ATOM     97  O   UNL     1      -0.217  -9.824  -9.366  1.00  0.00    -0.237 OA
ATOM     98  O   UNL     1       0.926 -10.407  -7.250  1.00  0.00    -0.237 OA
ATOM     99  O   UNL     1      -1.451  -9.762  -7.228  1.00  0.00    -0.744 OA
ENDBRANCH  95  96
ENDBRANCH  63  88
BRANCH  75 100
ATOM    100  C   UNL     1       3.114  -0.171 -11.678  1.00  0.00     0.058 A 
ATOM    101  C   UNL     1       2.024  -0.184 -12.560  1.00  0.00     0.135 A 
ATOM    102  C   UNL     1       4.402  -0.036 -12.223  1.00  0.00     0.135 A 
ATOM    103  F   UNL     1       0.773  -0.316 -12.089  1.00  0.00    -0.206 F 
ATOM    104  C   UNL     1       2.204  -0.092 -13.935  1.00  0.00     0.059 A 
ATOM    105  C   UNL     1       4.603   0.092 -13.592  1.00  0.00     0.059 A 
ATOM    106  F   UNL     1       5.477  -0.003 -11.421  1.00  0.00    -0.206 F 
ATOM    107  C   UNL     1       3.498   0.050 -14.441  1.00  0.00     0.060 A 
BRANCH 107 108
ATOM    108  S   UNL     1       3.714   0.202 -16.226  1.00  0.00     0.124 S 
ATOM    109  O   UNL     1       3.424  -1.156 -16.673  1.00  0.00    -0.237 OA
ATOM    110  O   UNL     1       2.719   1.211 -16.575  1.00  0.00    -0.237 OA
ATOM    111  O   UNL     1       5.104   0.625 -16.366  1.00  0.00    -0.744 OA
ENDBRANCH 107 108
ENDBRANCH  75 100
ENDBRANCH  49  50
ENDBRANCH  42  44
ENDBRANCH  41  42
ENDBRANCH  40  41
ENDBRANCH  39  40
ENDBRANCH   1  39
TORSDOF 22
