REMARK SMILES O=C(OCCOCCOC(=O)[C@H]1[C@@H]2C[C@H]3C[C@@H](C2)C[C@]1(n1ncc(N2CCN(c4ccc(F)cc4)CC2)c(Cl)c1=O)C3)c1ccc(-c2c3nc(c(-c4c(F)cc(S(=O)(=O)[O-])cc4F)c4ccc([nH]4)c(-c4c(F)cc(S(=O)(=O)[O-])cc4F)c4nc(c(-c5c(F)cc(S(=O)(=O)[O-])cc5F)c5ccc2[nH]5)C=C4)C=C3)cc1
REMARK SMILES IDX 6 1 5 2 4 3 3 4 2 5 1 6 43 7 44 8 108 9 45 10 107 11 46 12
REMARK SMILES IDX 47 13 48 14 101 15 49 16 106 17 100 18 102 19 50 20 105 21
REMARK SMILES IDX 99 22 98 23 51 25 85 26 64 27 84 28 65 29 68 30 83 31 103 32
REMARK SMILES IDX 66 33 67 34 82 36 104 37 69 38 52 39 53 40 62 41 54 42 55 43
REMARK SMILES IDX 61 44 63 45 56 46 57 47 58 48 59 49 60 50 86 51 87 52 96 53
REMARK SMILES IDX 88 54 89 55 95 56 97 57 90 58 91 59 92 60 93 61 94 62 70 63
REMARK SMILES IDX 71 64 80 65 72 66 73 67 79 68 81 69 74 70 75 71 76 72 77 73
REMARK SMILES IDX 78 74 7 75 8 76 9 77 10 78 11 79 12 80 13 81 20 82 18 83
REMARK SMILES IDX 14 84 42 85 19 86 17 87 15 88 16 89 21 90 22 91 40 92 23 93
REMARK SMILES IDX 38 94 41 95 24 96 39 97 25 98 26 99 37 100 27 101 36 102
REMARK SMILES IDX 28 103 29 104 30 105 35 106 31 107 34 108 32 109 33 110
REMARK H PARENT 102 24 68 35
REMARK Flexibility Score: inf
ROOT
ATOM      1  O   UNL     1       7.880   1.506   1.463  1.00  0.00    -0.374 OA
ENDROOT
BRANCH   1   2
ATOM      2  C   UNL     1       6.770   1.616   0.576  1.00  0.00     0.202 C 
BRANCH   2   3
ATOM      3  C   UNL     1       7.115   1.375  -0.897  1.00  0.00     0.261 C 
BRANCH   3   4
ATOM      4  O   UNL     1       7.926   0.210  -1.139  1.00  0.00    -0.460 OA
BRANCH   4   5
ATOM      5  C   UNL     1       9.274   0.065  -1.096  1.00  0.00     0.338 C 
ATOM      6  O   UNL     1       9.746  -0.993  -1.516  1.00  0.00    -0.246 OA
BRANCH   5   7
ATOM      7  C   UNL     1      10.219   1.040  -0.452  1.00  0.00     0.060 A 
ATOM      8  C   UNL     1      11.505   0.559  -0.127  1.00  0.00     0.016 A 
ATOM      9  C   UNL     1       9.929   2.367  -0.131  1.00  0.00     0.016 A 
ATOM     10  C   UNL     1      12.461   1.386   0.476  1.00  0.00     0.010 A 
ATOM     11  C   UNL     1      10.839   3.171   0.546  1.00  0.00     0.010 A 
ATOM     12  C   UNL     1      12.129   2.705   0.794  1.00  0.00    -0.014 A 
BRANCH  12  13
ATOM     13  C   UNL     1      13.163   3.729   1.026  1.00  0.00     0.031 A 
ATOM     14  C   UNL     1      13.563   4.169   2.395  1.00  0.00     0.074 A 
ATOM     15  C   UNL     1      13.608   4.345  -0.087  1.00  0.00     0.049 A 
ATOM     16  N   UNL     1      14.462   5.055   2.729  1.00  0.00    -0.248 NA
ATOM     17  C   UNL     1      12.869   3.553   3.536  1.00  0.00     0.031 C 
ATOM     18  C   UNL     1      13.174   4.016  -1.454  1.00  0.00     0.029 A 
ATOM     19  N   UNL     1      14.471   5.388  -0.261  1.00  0.00    -0.354 N 
ATOM     20  C   UNL     1      14.482   5.075   4.117  1.00  0.00     0.074 A 
ATOM     21  C   UNL     1      13.460   4.152   4.566  1.00  0.00     0.031 C 
ATOM     22  C   UNL     1      13.750   4.860  -2.318  1.00  0.00     0.029 A 
ATOM     23  C   UNL     1      14.607   5.768  -1.574  1.00  0.00     0.049 A 
ATOM     24  H   UNL     1      14.948   5.824   0.481  1.00  0.00     0.167 HD
ATOM     25  C   UNL     1      15.306   5.791   4.920  1.00  0.00     0.037 A 
ATOM     26  C   UNL     1      15.364   6.732  -2.121  1.00  0.00     0.037 A 
ATOM     27  C   UNL     1      16.276   6.733   4.412  1.00  0.00     0.049 A 
ATOM     28  C   UNL     1      16.269   7.500  -1.209  1.00  0.00     0.074 A 
ATOM     29  C   UNL     1      17.204   7.482   5.115  1.00  0.00     0.029 A 
ATOM     30  N   UNL     1      16.432   7.065   3.071  1.00  0.00    -0.354 N 
ATOM     31  N   UNL     1      16.369   7.423   0.097  1.00  0.00    -0.248 NA
ATOM     32  C   UNL     1      17.189   8.452  -1.837  1.00  0.00     0.031 C 
ATOM     33  C   UNL     1      17.888   8.295   4.206  1.00  0.00     0.029 A 
ATOM     34  C   UNL     1      17.428   8.017   2.928  1.00  0.00     0.049 A 
ATOM     35  H   UNL     1      15.910   6.680   2.330  1.00  0.00     0.167 HD
ATOM     36  C   UNL     1      17.389   8.292   0.449  1.00  0.00     0.074 A 
ATOM     37  C   UNL     1      17.879   8.875  -0.787  1.00  0.00     0.031 C 
ATOM     38  C   UNL     1      17.881   8.581   1.679  1.00  0.00     0.037 A 
BRANCH  25  39
ATOM     39  C   UNL     1      15.246   5.566   6.409  1.00  0.00     0.058 A 
ATOM     40  C   UNL     1      15.720   4.372   6.978  1.00  0.00     0.135 A 
ATOM     41  C   UNL     1      14.848   6.588   7.287  1.00  0.00     0.135 A 
ATOM     42  F   UNL     1      16.106   3.355   6.191  1.00  0.00    -0.206 F 
ATOM     43  C   UNL     1      15.811   4.203   8.357  1.00  0.00     0.059 A 
ATOM     44  C   UNL     1      14.950   6.449   8.671  1.00  0.00     0.059 A 
ATOM     45  F   UNL     1      14.385   7.752   6.804  1.00  0.00    -0.206 F 
ATOM     46  C   UNL     1      15.437   5.253   9.197  1.00  0.00     0.060 A 
BRANCH  46  47
ATOM     47  S   UNL     1      15.630   5.035  10.980  1.00  0.00     0.124 S 
ATOM     48  O   UNL     1      14.635   4.003  11.260  1.00  0.00    -0.237 OA
ATOM     49  O   UNL     1      17.023   4.616  11.091  1.00  0.00    -0.237 OA
ATOM     50  O   UNL     1      15.329   6.356  11.522  1.00  0.00    -0.744 OA
ENDBRANCH  46  47
ENDBRANCH  25  39
BRANCH  26  51
ATOM     51  C   UNL     1      15.363   6.918  -3.593  1.00  0.00     0.058 A 
ATOM     52  C   UNL     1      16.450   6.487  -4.366  1.00  0.00     0.135 A 
ATOM     53  C   UNL     1      14.249   7.446  -4.265  1.00  0.00     0.135 A 
ATOM     54  F   UNL     1      17.527   5.954  -3.769  1.00  0.00    -0.206 F 
ATOM     55  C   UNL     1      16.448   6.599  -5.751  1.00  0.00     0.059 A 
ATOM     56  C   UNL     1      14.213   7.546  -5.653  1.00  0.00     0.059 A 
ATOM     57  F   UNL     1      13.165   7.830  -3.573  1.00  0.00    -0.206 F 
ATOM     58  C   UNL     1      15.324   7.131  -6.386  1.00  0.00     0.060 A 
BRANCH  58  59
ATOM     59  S   UNL     1      15.328   7.244  -8.188  1.00  0.00     0.124 S 
ATOM     60  O   UNL     1      16.306   8.303  -8.412  1.00  0.00    -0.237 OA
ATOM     61  O   UNL     1      15.742   5.900  -8.578  1.00  0.00    -0.237 OA
ATOM     62  O   UNL     1      13.945   7.584  -8.507  1.00  0.00    -0.744 OA
ENDBRANCH  58  59
ENDBRANCH  26  51
BRANCH  38  63
ATOM     63  C   UNL     1      19.014   9.562   1.733  1.00  0.00     0.058 A 
ATOM     64  C   UNL     1      18.807  10.930   1.501  1.00  0.00     0.135 A 
ATOM     65  C   UNL     1      20.311   9.133   2.054  1.00  0.00     0.135 A 
ATOM     66  F   UNL     1      17.585  11.385   1.178  1.00  0.00    -0.206 F 
ATOM     67  C   UNL     1      19.855  11.839   1.560  1.00  0.00     0.059 A 
ATOM     68  C   UNL     1      21.369  10.029   2.149  1.00  0.00     0.059 A 
ATOM     69  F   UNL     1      20.555   7.835   2.291  1.00  0.00    -0.206 F 
ATOM     70  C   UNL     1      21.132  11.379   1.888  1.00  0.00     0.060 A 
BRANCH  70  71
ATOM     71  S   UNL     1      22.476  12.577   1.989  1.00  0.00     0.124 S 
ATOM     72  O   UNL     1      22.677  12.913   0.583  1.00  0.00    -0.237 OA
ATOM     73  O   UNL     1      21.891  13.629   2.815  1.00  0.00    -0.237 OA
ATOM     74  O   UNL     1      23.558  11.824   2.615  1.00  0.00    -0.744 OA
ENDBRANCH  70  71
ENDBRANCH  38  63
ENDBRANCH  12  13
ENDBRANCH   5   7
ENDBRANCH   4   5
ENDBRANCH   3   4
ENDBRANCH   2   3
ENDBRANCH   1   2
BRANCH   1  75
ATOM     75  C   UNL     1       8.108   0.188   1.943  1.00  0.00     0.202 C 
BRANCH  75  76
ATOM     76  C   UNL     1       7.274  -0.129   3.170  1.00  0.00     0.261 C 
BRANCH  76  77
ATOM     77  O   UNL     1       5.970   0.480   3.133  1.00  0.00    -0.463 OA
BRANCH  77  78
ATOM     78  C   UNL     1       5.805   1.563   3.966  1.00  0.00     0.311 C 
ATOM     79  O   UNL     1       6.011   2.710   3.620  1.00  0.00    -0.252 OA
BRANCH  78  80
ATOM     80  C   UNL     1       5.462   1.083   5.357  1.00  0.00     0.130 C 
ATOM     81  C   UNL     1       6.758   1.126   6.226  1.00  0.00     0.006 C 
ATOM     82  C   UNL     1       4.247   1.604   6.194  1.00  0.00     0.081 C 
ATOM     83  C   UNL     1       6.984   2.484   6.906  1.00  0.00     0.008 C 
ATOM     84  C   UNL     1       6.614   0.023   7.274  1.00  0.00     0.008 C 
ATOM     85  C   UNL     1       4.124   0.485   7.317  1.00  0.00     0.035 C 
ATOM     86  C   UNL     1       4.570   2.926   6.949  1.00  0.00     0.035 C 
ATOM     87  C   UNL     1       5.815   2.803   7.829  1.00  0.00    -0.008 C 
ATOM     88  C   UNL     1       5.404   0.343   8.156  1.00  0.00    -0.008 C 
ATOM     89  C   UNL     1       5.649   1.679   8.864  1.00  0.00     0.007 C 
BRANCH  82  90
ATOM     90  N   UNL     1       2.900   1.776   5.526  1.00  0.00    -0.222 N 
ATOM     91  N   UNL     1       1.891   0.976   6.028  1.00  0.00    -0.175 NA
ATOM     92  C   UNL     1       2.602   2.888   4.721  1.00  0.00     0.288 A 
ATOM     93  C   UNL     1       0.691   1.449   6.026  1.00  0.00     0.161 A 
ATOM     94  C   UNL     1       1.185   3.385   4.790  1.00  0.00     0.132 A 
ATOM     95  O   UNL     1       3.441   3.526   4.095  1.00  0.00    -0.266 OA
ATOM     96  C   UNL     1       0.256   2.776   5.541  1.00  0.00     0.082 A 
ATOM     97  Cl  UNL     1       0.866   4.933   4.069  1.00  0.00    -0.076 Cl
BRANCH  96  98
ATOM     98  N   UNL     1      -1.022   3.209   5.896  1.00  0.00    -0.365 N 
ATOM     99  C   UNL     1      -1.444   3.322   7.316  1.00  0.00     0.138 C 
ATOM    100  C   UNL     1      -2.132   3.322   4.926  1.00  0.00     0.138 C 
ATOM    101  C   UNL     1      -2.300   4.592   7.563  1.00  0.00     0.138 C 
ATOM    102  C   UNL     1      -2.991   4.578   5.184  1.00  0.00     0.138 C 
ATOM    103  N   UNL     1      -3.404   4.629   6.597  1.00  0.00    -0.368 N 
BRANCH 103 104
ATOM    104  C   UNL     1      -4.678   5.023   6.934  1.00  0.00     0.037 A 
ATOM    105  C   UNL     1      -5.780   4.311   6.433  1.00  0.00     0.029 A 
ATOM    106  C   UNL     1      -4.934   6.108   7.783  1.00  0.00     0.029 A 
ATOM    107  C   UNL     1      -7.090   4.662   6.766  1.00  0.00     0.041 A 
ATOM    108  C   UNL     1      -6.245   6.479   8.107  1.00  0.00     0.041 A 
ATOM    109  C   UNL     1      -7.310   5.748   7.597  1.00  0.00     0.123 A 
ATOM    110  F   UNL     1      -8.565   6.095   7.913  1.00  0.00    -0.207 F 
ENDBRANCH 103 104
ENDBRANCH  96  98
ENDBRANCH  82  90
ENDBRANCH  78  80
ENDBRANCH  77  78
ENDBRANCH  76  77
ENDBRANCH  75  76
ENDBRANCH   1  75
TORSDOF 20
