REMARK SMILES O=C(N[C@@H](CS)C(=O)N[C@@H](CO)C(=O)OCCOCCOC(=O)c1ccc(-c2c3nc(c(-c4c(F)cc(S(=O)(=O)[O-])cc4F)c4ccc([nH]4)c(-c4c(F)cc(S(=O)(=O)[O-])cc4F)c4nc(c(-c5c(F)cc(S(=O)(=O)[O-])cc5F)c5ccc2[nH]5)C=C4)C=C3)cc1)c1ccc(F)cc1
REMARK SMILES IDX 17 1 16 2 15 3 13 4 14 5 10 6 9 7 7 8 8 9 4 11 3 12 1 13
REMARK SMILES IDX 2 14 90 16 91 17 96 18 92 19 95 20 93 21 94 22 5 23 6 24
REMARK SMILES IDX 11 26 12 27 18 29 19 30 20 31 21 32 22 33 23 34 24 35 25 36
REMARK SMILES IDX 89 37 26 38 88 39 27 40 28 41 29 42 82 43 30 44 87 45 81 46
REMARK SMILES IDX 83 47 31 48 86 49 80 50 79 51 32 53 66 54 45 55 65 56 46 57
REMARK SMILES IDX 49 58 64 59 84 60 47 61 48 62 63 64 85 65 50 66 33 67 34 68
REMARK SMILES IDX 43 69 35 70 36 71 42 72 44 73 37 74 38 75 39 76 40 77 41 78
REMARK SMILES IDX 67 79 68 80 77 81 69 82 70 83 76 84 78 85 71 86 72 87 73 88
REMARK SMILES IDX 74 89 75 90 51 91 52 92 61 93 53 94 54 95 60 96 62 97 55 98
REMARK SMILES IDX 56 99 57 100 58 101 59 102
REMARK H PARENT 9 10 3 15 6 25 12 28 83 52 49 63
REMARK Flexibility Score: inf
ROOT
ATOM      1  C   UNL     1       6.534  -4.328  -5.988  1.00  0.00     0.202 C 
ENDROOT
BRANCH   1   2
ATOM      2  C   UNL     1       5.081  -3.963  -6.302  1.00  0.00     0.261 C 
BRANCH   2   3
ATOM      3  O   UNL     1       4.679  -2.776  -5.599  1.00  0.00    -0.462 OA
BRANCH   3   4
ATOM      4  C   UNL     1       3.438  -2.817  -5.039  1.00  0.00     0.331 C 
ATOM      5  O   UNL     1       2.618  -3.714  -5.205  1.00  0.00    -0.250 OA
BRANCH   4   6
ATOM      6  C   UNL     1       3.150  -1.581  -4.173  1.00  0.00     0.218 C 
BRANCH   6   7
ATOM      7  N   UNL     1       4.335  -0.764  -3.866  1.00  0.00    -0.339 N 
ATOM      8  C   UNL     1       4.943  -0.419  -2.705  1.00  0.00     0.244 C 
ATOM      9  O   UNL     1       6.053   0.117  -2.803  1.00  0.00    -0.273 OA
ATOM     10  H   UNL     1       4.774  -0.393  -4.665  1.00  0.00     0.164 HD
BRANCH   8  11
ATOM     11  C   UNL     1       4.406  -0.748  -1.294  1.00  0.00     0.181 C 
BRANCH  11  12
ATOM     12  N   UNL     1       2.992  -0.440  -1.065  1.00  0.00    -0.339 N 
ATOM     13  O   UNL     1       1.149   0.096   0.096  1.00  0.00    -0.269 OA
ATOM     14  C   UNL     1       2.376   0.082   0.045  1.00  0.00     0.251 C 
ATOM     15  H   UNL     1       2.394  -0.638  -1.821  1.00  0.00     0.164 HD
BRANCH  14  16
ATOM     16  C   UNL     1       3.154   0.583   1.201  1.00  0.00     0.040 A 
ATOM     17  C   UNL     1       4.191   1.513   1.053  1.00  0.00     0.017 A 
ATOM     18  C   UNL     1       2.781   0.153   2.482  1.00  0.00     0.017 A 
ATOM     19  C   UNL     1       4.914   1.934   2.171  1.00  0.00     0.040 A 
ATOM     20  C   UNL     1       3.491   0.594   3.600  1.00  0.00     0.040 A 
ATOM     21  C   UNL     1       4.561   1.467   3.433  1.00  0.00     0.123 A 
ATOM     22  F   UNL     1       5.255   1.872   4.504  1.00  0.00    -0.207 F 
ENDBRANCH  14  16
ENDBRANCH  11  12
BRANCH  11  23
ATOM     23  C   UNL     1       4.851  -2.129  -0.779  1.00  0.00     0.101 C 
BRANCH  23  24
ATOM     24  S   UNL     1       3.844  -3.556  -1.286  1.00  0.00    -0.177 SA
ATOM     25  H   UNL     1       2.592  -3.432  -0.771  1.00  0.00     0.102 HD
ENDBRANCH  23  24
ENDBRANCH  11  23
ENDBRANCH   8  11
ENDBRANCH   6   7
BRANCH   6  26
ATOM     26  C   UNL     1       2.084  -0.744  -4.884  1.00  0.00     0.193 C 
BRANCH  26  27
ATOM     27  O   UNL     1       2.614  -0.117  -6.048  1.00  0.00    -0.394 OA
ATOM     28  H   UNL     1       3.339   0.475  -5.795  1.00  0.00     0.210 HD
ENDBRANCH  26  27
ENDBRANCH   6  26
ENDBRANCH   4   6
ENDBRANCH   3   4
ENDBRANCH   2   3
ENDBRANCH   1   2
BRANCH   1  29
ATOM     29  O   UNL     1       6.837  -4.622  -4.625  1.00  0.00    -0.374 OA
BRANCH  29  30
ATOM     30  C   UNL     1       6.847  -3.535  -3.701  1.00  0.00     0.202 C 
BRANCH  30  31
ATOM     31  C   UNL     1       8.027  -2.558  -3.770  1.00  0.00     0.261 C 
BRANCH  31  32
ATOM     32  O   UNL     1       8.097  -1.846  -5.015  1.00  0.00    -0.460 OA
BRANCH  32  33
ATOM     33  C   UNL     1       9.167  -2.161  -5.784  1.00  0.00     0.338 C 
ATOM     34  O   UNL     1      10.069  -2.943  -5.515  1.00  0.00    -0.246 OA
BRANCH  33  35
ATOM     35  C   UNL     1       9.017  -1.558  -7.117  1.00  0.00     0.060 A 
ATOM     36  C   UNL     1       9.005  -2.415  -8.226  1.00  0.00     0.016 A 
ATOM     37  C   UNL     1       8.973  -0.173  -7.284  1.00  0.00     0.016 A 
ATOM     38  C   UNL     1       8.982  -1.887  -9.514  1.00  0.00     0.010 A 
ATOM     39  C   UNL     1       8.966   0.354  -8.578  1.00  0.00     0.010 A 
ATOM     40  C   UNL     1       9.000  -0.499  -9.696  1.00  0.00    -0.014 A 
BRANCH  40  41
ATOM     41  C   UNL     1       9.206   0.070 -11.048  1.00  0.00     0.031 A 
ATOM     42  C   UNL     1      10.586   0.522 -11.436  1.00  0.00     0.074 A 
ATOM     43  C   UNL     1       8.178   0.193 -11.905  1.00  0.00     0.049 A 
ATOM     44  N   UNL     1      10.978   1.161 -12.506  1.00  0.00    -0.248 NA
ATOM     45  C   UNL     1      11.668   0.216 -10.486  1.00  0.00     0.031 C 
ATOM     46  C   UNL     1       6.811  -0.260 -11.654  1.00  0.00     0.029 A 
ATOM     47  N   UNL     1       8.123   0.756 -13.155  1.00  0.00    -0.354 N 
ATOM     48  C   UNL     1      12.346   1.349 -12.353  1.00  0.00     0.074 A 
ATOM     49  C   UNL     1      12.715   0.773 -11.078  1.00  0.00     0.031 C 
ATOM     50  C   UNL     1       6.043   0.067 -12.707  1.00  0.00     0.029 A 
ATOM     51  C   UNL     1       6.856   0.787 -13.687  1.00  0.00     0.049 A 
ATOM     52  H   UNL     1       8.914   1.104 -13.626  1.00  0.00     0.167 HD
ATOM     53  C   UNL     1      13.214   1.950 -13.201  1.00  0.00     0.037 A 
ATOM     54  C   UNL     1       6.400   1.364 -14.816  1.00  0.00     0.037 A 
ATOM     55  C   UNL     1      12.833   2.519 -14.466  1.00  0.00     0.049 A 
ATOM     56  C   UNL     1       7.370   2.091 -15.712  1.00  0.00     0.074 A 
ATOM     57  C   UNL     1      13.634   3.142 -15.406  1.00  0.00     0.029 A 
ATOM     58  N   UNL     1      11.538   2.540 -14.966  1.00  0.00    -0.354 N 
ATOM     59  N   UNL     1       8.663   2.259 -15.561  1.00  0.00    -0.248 NA
ATOM     60  C   UNL     1       6.824   2.711 -16.928  1.00  0.00     0.031 C 
ATOM     61  C   UNL     1      12.817   3.581 -16.453  1.00  0.00     0.029 A 
ATOM     62  C   UNL     1      11.515   3.183 -16.191  1.00  0.00     0.049 A 
ATOM     63  H   UNL     1      10.753   2.154 -14.515  1.00  0.00     0.167 HD
ATOM     64  C   UNL     1       9.089   2.970 -16.678  1.00  0.00     0.074 A 
ATOM     65  C   UNL     1       7.917   3.206 -17.495  1.00  0.00     0.031 C 
ATOM     66  C   UNL     1      10.339   3.386 -17.000  1.00  0.00     0.037 A 
BRANCH  53  67
ATOM     67  C   UNL     1      14.652   2.050 -12.774  1.00  0.00     0.058 A 
ATOM     68  C   UNL     1      15.495   0.929 -12.740  1.00  0.00     0.135 A 
ATOM     69  C   UNL     1      15.202   3.294 -12.422  1.00  0.00     0.135 A 
ATOM     70  F   UNL     1      15.015  -0.287 -13.049  1.00  0.00    -0.206 F 
ATOM     71  C   UNL     1      16.826   1.032 -12.349  1.00  0.00     0.059 A 
ATOM     72  C   UNL     1      16.537   3.425 -12.053  1.00  0.00     0.059 A 
ATOM     73  F   UNL     1      14.439   4.398 -12.434  1.00  0.00    -0.206 F 
ATOM     74  C   UNL     1      17.338   2.285 -12.007  1.00  0.00     0.060 A 
BRANCH  74  75
ATOM     75  S   UNL     1      19.068   2.403 -11.503  1.00  0.00     0.124 S 
ATOM     76  O   UNL     1      19.025   1.803 -10.173  1.00  0.00    -0.237 OA
ATOM     77  O   UNL     1      19.746   1.619 -12.530  1.00  0.00    -0.237 OA
ATOM     78  O   UNL     1      19.335   3.837 -11.536  1.00  0.00    -0.744 OA
ENDBRANCH  74  75
ENDBRANCH  53  67
BRANCH  54  79
ATOM     79  C   UNL     1       4.953   1.297 -15.152  1.00  0.00     0.058 A 
ATOM     80  C   UNL     1       4.495   0.527 -16.231  1.00  0.00     0.135 A 
ATOM     81  C   UNL     1       3.998   1.993 -14.394  1.00  0.00     0.135 A 
ATOM     82  F   UNL     1       5.369  -0.148 -16.992  1.00  0.00    -0.206 F 
ATOM     83  C   UNL     1       3.143   0.457 -16.554  1.00  0.00     0.059 A 
ATOM     84  C   UNL     1       2.639   1.918 -14.681  1.00  0.00     0.059 A 
ATOM     85  F   UNL     1       4.383   2.736 -13.345  1.00  0.00    -0.206 F 
ATOM     86  C   UNL     1       2.222   1.154 -15.770  1.00  0.00     0.060 A 
BRANCH  86  87
ATOM     87  S   UNL     1       0.466   1.016 -16.168  1.00  0.00     0.124 S 
ATOM     88  O   UNL     1       0.375   1.823 -17.379  1.00  0.00    -0.237 OA
ATOM     89  O   UNL     1       0.304  -0.424 -16.345  1.00  0.00    -0.237 OA
ATOM     90  O   UNL     1      -0.190   1.572 -14.988  1.00  0.00    -0.744 OA
ENDBRANCH  86  87
ENDBRANCH  54  79
BRANCH  66  91
ATOM     91  C   UNL     1      10.528   4.091 -18.314  1.00  0.00     0.058 A 
ATOM     92  C   UNL     1      10.141   5.426 -18.500  1.00  0.00     0.135 A 
ATOM     93  C   UNL     1      11.204   3.450 -19.366  1.00  0.00     0.135 A 
ATOM     94  F   UNL     1       9.485   6.081 -17.528  1.00  0.00    -0.206 F 
ATOM     95  C   UNL     1      10.418   6.103 -19.683  1.00  0.00     0.059 A 
ATOM     96  C   UNL     1      11.512   4.114 -20.548  1.00  0.00     0.059 A 
ATOM     97  F   UNL     1      11.603   2.175 -19.234  1.00  0.00    -0.206 F 
ATOM     98  C   UNL     1      11.113   5.441 -20.698  1.00  0.00     0.060 A 
BRANCH  98  99
ATOM     99  S   UNL     1      11.535   6.355 -22.197  1.00  0.00     0.124 S 
ATOM    100  O   UNL     1      10.240   6.444 -22.863  1.00  0.00    -0.237 OA
ATOM    101  O   UNL     1      12.060   7.607 -21.662  1.00  0.00    -0.237 OA
ATOM    102  O   UNL     1      12.520   5.499 -22.852  1.00  0.00    -0.744 OA
ENDBRANCH  98  99
ENDBRANCH  66  91
ENDBRANCH  40  41
ENDBRANCH  33  35
ENDBRANCH  32  33
ENDBRANCH  31  32
ENDBRANCH  30  31
ENDBRANCH  29  30
ENDBRANCH   1  29
TORSDOF 25
