REMARK SMILES CC(=O)NS(=O)(=O)c1cc(-c2ccn(C(F)F)c(=O)c2)ccc1C(=O)OCCOCCOC(=O)c1ccc(-c2c3nc(c(-c4c(F)cc(S(=O)(=O)[O-])cc4F)c4ccc([nH]4)c(-c4c(F)cc(S(=O)(=O)[O-])cc4F)c4nc(c(-c5c(F)cc(S(=O)(=O)[O-])cc5F)c5ccc2[nH]5)C=C4)C=C3)cc1
REMARK SMILES IDX 30 1 29 2 28 3 27 4 26 5 24 6 25 7 23 8 8 9 9 10 10 11 22 12
REMARK SMILES IDX 21 13 5 14 6 15 7 16 4 17 1 18 2 19 3 20 11 22 12 23 20 24
REMARK SMILES IDX 13 25 18 26 14 27 19 28 15 29 16 30 17 31 31 32 32 33 33 34
REMARK SMILES IDX 34 35 35 36 36 37 100 38 37 39 99 40 38 41 39 42 40 43 93 44
REMARK SMILES IDX 41 45 98 46 92 47 94 48 42 49 97 50 91 51 90 52 43 54 77 55
REMARK SMILES IDX 56 56 76 57 57 58 60 59 75 60 95 61 58 62 59 63 74 65 96 66
REMARK SMILES IDX 61 67 44 68 45 69 54 70 46 71 47 72 53 73 55 74 48 75 49 76
REMARK SMILES IDX 50 77 51 78 52 79 78 80 79 81 88 82 80 83 81 84 87 85 89 86
REMARK SMILES IDX 82 87 83 88 84 89 85 90 86 91 62 92 63 93 72 94 64 95 65 96
REMARK SMILES IDX 71 97 73 98 66 99 67 100 68 101 69 102 70 103
REMARK H PARENT 4 21 94 53 60 64
REMARK Flexibility Score: inf
ROOT
ATOM      1  C   UNL     1       3.556   2.447   1.168  1.00  0.00     0.202 C 
ENDROOT
BRANCH   1   2
ATOM      2  O   UNL     1       2.396   3.151   1.600  1.00  0.00    -0.374 OA
BRANCH   2   3
ATOM      3  C   UNL     1       1.528   2.531   2.539  1.00  0.00     0.202 C 
BRANCH   3   4
ATOM      4  C   UNL     1       0.760   1.273   2.110  1.00  0.00     0.261 C 
BRANCH   4   5
ATOM      5  O   UNL     1       1.552   0.288   1.425  1.00  0.00    -0.460 OA
BRANCH   5   6
ATOM      6  C   UNL     1       1.302   0.205   0.099  1.00  0.00     0.339 C 
ATOM      7  O   UNL     1       0.533   0.885  -0.559  1.00  0.00    -0.246 OA
BRANCH   6   8
ATOM      8  C   UNL     1       2.150  -0.801  -0.558  1.00  0.00     0.080 A 
ATOM      9  C   UNL     1       2.131  -2.167  -0.286  1.00  0.00     0.103 A 
ATOM     10  C   UNL     1       2.862  -3.054  -1.108  1.00  0.00     0.032 A 
ATOM     11  C   UNL     1       3.586  -2.585  -2.213  1.00  0.00    -0.017 A 
ATOM     12  C   UNL     1       2.892  -0.329  -1.653  1.00  0.00     0.018 A 
ATOM     13  C   UNL     1       3.602  -1.210  -2.469  1.00  0.00     0.010 A 
BRANCH   9  14
ATOM     14  S   UNL     1       1.129  -2.908   0.971  1.00  0.00     0.264 S 
ATOM     15  O   UNL     1       1.926  -2.878   2.176  1.00  0.00    -0.201 OA
ATOM     16  O   UNL     1       0.637  -4.153   0.425  1.00  0.00    -0.201 OA
BRANCH  14  17
ATOM     17  N   UNL     1      -0.175  -1.940   1.231  1.00  0.00    -0.249 N 
ATOM     18  C   UNL     1      -1.258  -2.052  -1.023  1.00  0.00     0.115 C 
ATOM     19  C   UNL     1      -1.277  -1.644   0.421  1.00  0.00     0.230 C 
ATOM     20  O   UNL     1      -2.188  -0.982   0.899  1.00  0.00    -0.274 OA
ATOM     21  H   UNL     1      -0.181  -1.492   2.107  1.00  0.00     0.183 HD
ENDBRANCH  14  17
ENDBRANCH   9  14
BRANCH  11  22
ATOM     22  C   UNL     1       4.273  -3.494  -3.157  1.00  0.00    -0.011 A 
ATOM     23  C   UNL     1       5.666  -3.326  -3.530  1.00  0.00     0.027 A 
ATOM     24  C   UNL     1       3.552  -4.450  -3.770  1.00  0.00     0.080 A 
ATOM     25  C   UNL     1       6.208  -4.066  -4.505  1.00  0.00     0.095 A 
ATOM     26  C   UNL     1       4.147  -5.299  -4.843  1.00  0.00     0.255 A 
ATOM     27  N   UNL     1       5.467  -5.027  -5.165  1.00  0.00    -0.258 N 
ATOM     28  O   UNL     1       3.442  -6.145  -5.382  1.00  0.00    -0.269 OA
BRANCH  27  29
ATOM     29  C   UNL     1       6.045  -5.781  -6.248  1.00  0.00     0.451 C 
ATOM     30  F   UNL     1       6.016  -7.112  -5.997  1.00  0.00    -0.185 F 
ATOM     31  F   UNL     1       5.375  -5.557  -7.406  1.00  0.00    -0.185 F 
ENDBRANCH  27  29
ENDBRANCH  11  22
ENDBRANCH   6   8
ENDBRANCH   5   6
ENDBRANCH   4   5
ENDBRANCH   3   4
ENDBRANCH   2   3
ENDBRANCH   1   2
BRANCH   1  32
ATOM     32  C   UNL     1       4.567   1.940   2.206  1.00  0.00     0.261 C 
BRANCH  32  33
ATOM     33  O   UNL     1       4.009   1.025   3.166  1.00  0.00    -0.460 OA
BRANCH  33  34
ATOM     34  C   UNL     1       4.117   1.447   4.452  1.00  0.00     0.338 C 
ATOM     35  O   UNL     1       4.641   2.478   4.841  1.00  0.00    -0.246 OA
BRANCH  34  36
ATOM     36  C   UNL     1       3.364   0.577   5.371  1.00  0.00     0.060 A 
ATOM     37  C   UNL     1       2.354   1.176   6.135  1.00  0.00     0.016 A 
ATOM     38  C   UNL     1       3.774  -0.731   5.632  1.00  0.00     0.016 A 
ATOM     39  C   UNL     1       1.808   0.497   7.220  1.00  0.00     0.010 A 
ATOM     40  C   UNL     1       3.231  -1.409   6.731  1.00  0.00     0.010 A 
ATOM     41  C   UNL     1       2.292  -0.773   7.562  1.00  0.00    -0.014 A 
BRANCH  41  42
ATOM     42  C   UNL     1       1.958  -1.315   8.902  1.00  0.00     0.031 A 
ATOM     43  C   UNL     1       2.921  -1.080  10.038  1.00  0.00     0.074 A 
ATOM     44  C   UNL     1       0.782  -1.926   9.126  1.00  0.00     0.049 A 
ATOM     45  N   UNL     1       2.804  -1.391  11.303  1.00  0.00    -0.248 NA
ATOM     46  C   UNL     1       4.181  -0.396   9.702  1.00  0.00     0.031 C 
ATOM     47  C   UNL     1      -0.242  -2.181   8.116  1.00  0.00     0.029 A 
ATOM     48  N   UNL     1       0.251  -2.435  10.284  1.00  0.00    -0.354 N 
ATOM     49  C   UNL     1       3.969  -0.939  11.914  1.00  0.00     0.074 A 
ATOM     50  C   UNL     1       4.795  -0.362  10.876  1.00  0.00     0.031 C 
ATOM     51  C   UNL     1      -1.282  -2.803   8.698  1.00  0.00     0.029 A 
ATOM     52  C   UNL     1      -0.990  -3.001  10.117  1.00  0.00     0.049 A 
ATOM     53  H   UNL     1       0.714  -2.398  11.152  1.00  0.00     0.167 HD
ATOM     54  C   UNL     1       4.316  -0.990  13.223  1.00  0.00     0.037 A 
ATOM     55  C   UNL     1      -1.795  -3.612  11.008  1.00  0.00     0.037 A 
ATOM     56  C   UNL     1       3.495  -1.567  14.254  1.00  0.00     0.049 A 
ATOM     57  C   UNL     1      -1.371  -3.692  12.452  1.00  0.00     0.074 A 
ATOM     58  C   UNL     1       3.751  -1.661  15.611  1.00  0.00     0.029 A 
ATOM     59  N   UNL     1       2.256  -2.155  14.040  1.00  0.00    -0.354 N 
ATOM     60  N   UNL     1      -0.278  -3.238  13.018  1.00  0.00    -0.248 NA
ATOM     61  C   UNL     1      -2.297  -4.358  13.379  1.00  0.00     0.031 C 
ATOM     62  C   UNL     1       2.684  -2.339  16.212  1.00  0.00     0.029 A 
ATOM     63  C   UNL     1       1.744  -2.630  15.236  1.00  0.00     0.049 A 
ATOM     64  H   UNL     1       1.808  -2.225  13.166  1.00  0.00     0.167 HD
ATOM     65  C   UNL     1      -0.396  -3.542  14.371  1.00  0.00     0.074 A 
ATOM     66  C   UNL     1      -1.671  -4.207  14.539  1.00  0.00     0.031 C 
ATOM     67  C   UNL     1       0.471  -3.290  15.384  1.00  0.00     0.037 A 
BRANCH  54  68
ATOM     68  C   UNL     1       5.655  -0.424  13.605  1.00  0.00     0.058 A 
ATOM     69  C   UNL     1       5.891   0.960  13.633  1.00  0.00     0.135 A 
ATOM     70  C   UNL     1       6.713  -1.275  13.960  1.00  0.00     0.135 A 
ATOM     71  F   UNL     1       4.919   1.818  13.284  1.00  0.00    -0.206 F 
ATOM     72  C   UNL     1       7.136   1.479  13.974  1.00  0.00     0.059 A 
ATOM     73  C   UNL     1       7.961  -0.777  14.326  1.00  0.00     0.059 A 
ATOM     74  F   UNL     1       6.543  -2.607  13.947  1.00  0.00    -0.206 F 
ATOM     75  C   UNL     1       8.167   0.602  14.315  1.00  0.00     0.060 A 
BRANCH  75  76
ATOM     76  S   UNL     1       9.781   1.286  14.747  1.00  0.00     0.124 S 
ATOM     77  O   UNL     1      10.295   1.668  13.435  1.00  0.00    -0.237 OA
ATOM     78  O   UNL     1       9.427   2.389  15.634  1.00  0.00    -0.237 OA
ATOM     79  O   UNL     1      10.464   0.166  15.387  1.00  0.00    -0.744 OA
ENDBRANCH  75  76
ENDBRANCH  54  68
BRANCH  55  80
ATOM     80  C   UNL     1      -3.087  -4.192  10.560  1.00  0.00     0.058 A 
ATOM     81  C   UNL     1      -4.311  -3.608  10.916  1.00  0.00     0.135 A 
ATOM     82  C   UNL     1      -3.119  -5.343   9.757  1.00  0.00     0.135 A 
ATOM     83  F   UNL     1      -4.331  -2.513  11.690  1.00  0.00    -0.206 F 
ATOM     84  C   UNL     1      -5.523  -4.150  10.501  1.00  0.00     0.059 A 
ATOM     85  C   UNL     1      -4.317  -5.890   9.311  1.00  0.00     0.059 A 
ATOM     86  F   UNL     1      -1.973  -5.933   9.382  1.00  0.00    -0.206 F 
ATOM     87  C   UNL     1      -5.516  -5.291   9.697  1.00  0.00     0.060 A 
BRANCH  87  88
ATOM     88  S   UNL     1      -7.092  -5.956   9.116  1.00  0.00     0.124 S 
ATOM     89  O   UNL     1      -7.592  -6.615  10.317  1.00  0.00    -0.237 OA
ATOM     90  O   UNL     1      -7.803  -4.750   8.706  1.00  0.00    -0.237 OA
ATOM     91  O   UNL     1      -6.698  -6.843   8.025  1.00  0.00    -0.744 OA
ENDBRANCH  87  88
ENDBRANCH  55  80
BRANCH  67  92
ATOM     92  C   UNL     1       0.056  -3.712  16.766  1.00  0.00     0.058 A 
ATOM     93  C   UNL     1       0.054  -5.060  17.156  1.00  0.00     0.135 A 
ATOM     94  C   UNL     1      -0.318  -2.752  17.720  1.00  0.00     0.135 A 
ATOM     95  F   UNL     1       0.401  -6.017  16.280  1.00  0.00    -0.206 F 
ATOM     96  C   UNL     1      -0.335  -5.446  18.434  1.00  0.00     0.059 A 
ATOM     97  C   UNL     1      -0.687  -3.113  19.012  1.00  0.00     0.059 A 
ATOM     98  F   UNL     1      -0.320  -1.448  17.402  1.00  0.00    -0.206 F 
ATOM     99  C   UNL     1      -0.709  -4.464  19.355  1.00  0.00     0.060 A 
BRANCH  99 100
ATOM    100  S   UNL     1      -1.205  -4.971  21.015  1.00  0.00     0.124 S 
ATOM    101  O   UNL     1      -2.565  -5.446  20.782  1.00  0.00    -0.237 OA
ATOM    102  O   UNL     1      -0.221  -6.000  21.338  1.00  0.00    -0.237 OA
ATOM    103  O   UNL     1      -1.093  -3.741  21.792  1.00  0.00    -0.744 OA
ENDBRANCH  99 100
ENDBRANCH  67  92
ENDBRANCH  41  42
ENDBRANCH  34  36
ENDBRANCH  33  34
ENDBRANCH  32  33
ENDBRANCH   1  32
TORSDOF 21
