REMARK SMILES C[N@H+](CC(=O)OCCOCCOC(=O)c1ccc(-c2c3nc(c(-c4c(F)cc(S(=O)(=O)[O-])cc4F)c4ccc([nH]4)c(-c4c(F)cc(S(=O)(=O)[O-])cc4F)c4nc(c(-c5c(F)cc(S(=O)(=O)[O-])cc5F)c5ccc2[nH]5)C=C4)C=C3)cc1)Cc1nc(-c2ccsc2)no1
REMARK SMILES IDX 8 1 7 2 6 3 4 4 5 5 3 6 2 7 1 8 81 10 82 11 83 12 91 13
REMARK SMILES IDX 84 14 90 15 85 16 86 17 89 18 87 19 88 20 9 21 10 22 11 23
REMARK SMILES IDX 12 24 13 25 14 26 15 27 16 28 80 29 17 30 79 31 18 32 19 33
REMARK SMILES IDX 20 34 73 35 21 36 78 37 72 38 74 39 22 40 77 41 71 42 70 43
REMARK SMILES IDX 23 45 57 46 36 47 56 48 37 49 40 50 55 51 75 52 38 53 39 54
REMARK SMILES IDX 54 56 76 57 41 58 24 59 25 60 34 61 26 62 27 63 33 64 35 65
REMARK SMILES IDX 28 66 29 67 30 68 31 69 32 70 58 71 59 72 68 73 60 74 61 75
REMARK SMILES IDX 67 76 69 77 62 78 63 79 64 80 65 81 66 82 42 83 43 84 52 85
REMARK SMILES IDX 44 86 45 87 51 88 53 89 46 90 47 91 48 92 49 93 50 94
REMARK H PARENT 2 9 74 44 40 55
REMARK Flexibility Score: inf
ROOT
ATOM      1  C   UNL     1      -2.524  -1.038  -3.356  1.00  0.00     0.202 C 
ENDROOT
BRANCH   1   2
ATOM      2  C   UNL     1      -3.321   0.078  -2.609  1.00  0.00     0.261 C 
BRANCH   2   3
ATOM      3  O   UNL     1      -2.745   0.483  -1.371  1.00  0.00    -0.459 OA
BRANCH   3   4
ATOM      4  C   UNL     1      -2.473  -0.531  -0.522  1.00  0.00     0.361 C 
ATOM      5  O   UNL     1      -3.185  -1.517  -0.380  1.00  0.00    -0.245 OA
BRANCH   4   6
ATOM      6  C   UNL     1      -1.114  -0.359   0.141  1.00  0.00     0.386 C 
BRANCH   6   7
ATOM      7  N   UNL     1      -0.427   0.944  -0.160  1.00  0.00    -0.320 N 
ATOM      8  C   UNL     1       0.631   1.124   0.847  1.00  0.00     0.333 C 
ATOM      9  H   UNL     1      -1.123   1.689  -0.145  1.00  0.00     0.348 HD
BRANCH   7  10
ATOM     10  C   UNL     1       0.225   0.938  -1.504  1.00  0.00     0.364 C 
BRANCH  10  11
ATOM     11  C   UNL     1      -0.476   1.525  -2.733  1.00  0.00     0.282 A 
ATOM     12  N   UNL     1      -0.460   1.055  -3.970  1.00  0.00    -0.186 NA
ATOM     13  O   UNL     1      -1.096   2.743  -2.678  1.00  0.00    -0.333 OA
ATOM     14  C   UNL     1      -1.137   1.964  -4.707  1.00  0.00     0.203 A 
ATOM     15  N   UNL     1      -1.559   3.020  -4.001  1.00  0.00    -0.057 NA
BRANCH  14  16
ATOM     16  C   UNL     1      -1.323   1.695  -6.145  1.00  0.00     0.033 A 
ATOM     17  C   UNL     1      -0.318   1.906  -7.147  1.00  0.00     0.024 A 
ATOM     18  C   UNL     1      -2.433   1.087  -6.693  1.00  0.00     0.077 A 
ATOM     19  C   UNL     1      -0.739   1.552  -8.413  1.00  0.00     0.065 A 
ATOM     20  S   UNL     1      -2.304   0.871  -8.390  1.00  0.00    -0.152 S 
ENDBRANCH  14  16
ENDBRANCH  10  11
ENDBRANCH   7  10
ENDBRANCH   6   7
ENDBRANCH   4   6
ENDBRANCH   3   4
ENDBRANCH   2   3
ENDBRANCH   1   2
BRANCH   1  21
ATOM     21  O   UNL     1      -1.134  -1.139  -2.960  1.00  0.00    -0.374 OA
BRANCH  21  22
ATOM     22  C   UNL     1      -0.271  -1.844  -3.862  1.00  0.00     0.202 C 
BRANCH  22  23
ATOM     23  C   UNL     1       1.168  -1.252  -4.273  1.00  0.00     0.261 C 
BRANCH  23  24
ATOM     24  O   UNL     1       1.773  -0.089  -3.598  1.00  0.00    -0.460 OA
BRANCH  24  25
ATOM     25  C   UNL     1       2.405   0.849  -4.394  1.00  0.00     0.338 C 
ATOM     26  O   UNL     1       2.696   0.667  -5.569  1.00  0.00    -0.246 OA
BRANCH  25  27
ATOM     27  C   UNL     1       2.547   2.243  -3.786  1.00  0.00     0.060 A 
ATOM     28  C   UNL     1       1.798   3.283  -4.358  1.00  0.00     0.016 A 
ATOM     29  C   UNL     1       3.437   2.619  -2.777  1.00  0.00     0.016 A 
ATOM     30  C   UNL     1       1.832   4.620  -3.910  1.00  0.00     0.010 A 
ATOM     31  C   UNL     1       3.537   3.992  -2.366  1.00  0.00     0.010 A 
ATOM     32  C   UNL     1       2.733   5.015  -2.925  1.00  0.00    -0.014 A 
BRANCH  32  33
ATOM     33  C   UNL     1       2.997   6.494  -2.736  1.00  0.00     0.031 A 
ATOM     34  C   UNL     1       4.060   7.138  -3.606  1.00  0.00     0.074 A 
ATOM     35  C   UNL     1       2.271   7.323  -1.947  1.00  0.00     0.049 A 
ATOM     36  N   UNL     1       4.541   8.358  -3.589  1.00  0.00    -0.248 NA
ATOM     37  C   UNL     1       4.638   6.284  -4.654  1.00  0.00     0.031 C 
ATOM     38  C   UNL     1       1.097   6.951  -1.162  1.00  0.00     0.029 A 
ATOM     39  N   UNL     1       2.420   8.677  -1.684  1.00  0.00    -0.354 N 
ATOM     40  C   UNL     1       5.495   8.408  -4.602  1.00  0.00     0.074 A 
ATOM     41  C   UNL     1       5.517   7.098  -5.218  1.00  0.00     0.031 C 
ATOM     42  C   UNL     1       0.652   8.034  -0.491  1.00  0.00     0.029 A 
ATOM     43  C   UNL     1       1.528   9.179  -0.757  1.00  0.00     0.049 A 
ATOM     44  H   UNL     1       3.104   9.233  -2.123  1.00  0.00     0.167 HD
ATOM     45  C   UNL     1       6.293   9.435  -4.989  1.00  0.00     0.037 A 
ATOM     46  C   UNL     1       1.440  10.396  -0.163  1.00  0.00     0.037 A 
ATOM     47  C   UNL     1       6.287  10.753  -4.409  1.00  0.00     0.049 A 
ATOM     48  C   UNL     1       2.427  11.496  -0.511  1.00  0.00     0.074 A 
ATOM     49  C   UNL     1       7.099  11.832  -4.722  1.00  0.00     0.029 A 
ATOM     50  N   UNL     1       5.433  11.180  -3.406  1.00  0.00    -0.354 N 
ATOM     51  N   UNL     1       3.381  11.498  -1.412  1.00  0.00    -0.248 NA
ATOM     52  C   UNL     1       2.334  12.757   0.249  1.00  0.00     0.031 C 
ATOM     53  C   UNL     1       6.771  12.893  -3.873  1.00  0.00     0.029 A 
ATOM     54  C   UNL     1       5.714  12.496  -3.072  1.00  0.00     0.049 A 
ATOM     55  H   UNL     1       4.730  10.630  -2.991  1.00  0.00     0.167 HD
ATOM     56  C   UNL     1       3.974  12.761  -1.345  1.00  0.00     0.074 A 
ATOM     57  C   UNL     1       3.271  13.502  -0.323  1.00  0.00     0.031 C 
ATOM     58  C   UNL     1       5.010  13.254  -2.069  1.00  0.00     0.037 A 
BRANCH  45  59
ATOM     59  C   UNL     1       7.309   9.149  -6.062  1.00  0.00     0.058 A 
ATOM     60  C   UNL     1       6.952   8.984  -7.409  1.00  0.00     0.135 A 
ATOM     61  C   UNL     1       8.671   9.060  -5.729  1.00  0.00     0.135 A 
ATOM     62  F   UNL     1       5.662   9.039  -7.778  1.00  0.00    -0.206 F 
ATOM     63  C   UNL     1       7.906   8.709  -8.384  1.00  0.00     0.059 A 
ATOM     64  C   UNL     1       9.645   8.816  -6.692  1.00  0.00     0.059 A 
ATOM     65  F   UNL     1       9.067   9.210  -4.456  1.00  0.00    -0.206 F 
ATOM     66  C   UNL     1       9.251   8.624  -8.014  1.00  0.00     0.060 A 
BRANCH  66  67
ATOM     67  S   UNL     1      10.477   8.257  -9.287  1.00  0.00     0.124 S 
ATOM     68  O   UNL     1      10.204   6.848  -9.555  1.00  0.00    -0.237 OA
ATOM     69  O   UNL     1      10.110   9.187 -10.351  1.00  0.00    -0.237 OA
ATOM     70  O   UNL     1      11.748   8.534  -8.626  1.00  0.00    -0.744 OA
ENDBRANCH  66  67
ENDBRANCH  45  59
BRANCH  46  71
ATOM     71  C   UNL     1       0.418  10.655   0.904  1.00  0.00     0.058 A 
ATOM     72  C   UNL     1      -0.600  11.612   0.743  1.00  0.00     0.135 A 
ATOM     73  C   UNL     1       0.490  10.000   2.144  1.00  0.00     0.135 A 
ATOM     74  F   UNL     1      -0.694  12.306  -0.402  1.00  0.00    -0.206 F 
ATOM     75  C   UNL     1      -1.501  11.909   1.767  1.00  0.00     0.059 A 
ATOM     76  C   UNL     1      -0.416  10.258   3.171  1.00  0.00     0.059 A 
ATOM     77  F   UNL     1       1.454   9.095   2.370  1.00  0.00    -0.206 F 
ATOM     78  C   UNL     1      -1.405  11.220   2.977  1.00  0.00     0.060 A 
BRANCH  78  79
ATOM     79  S   UNL     1      -2.610  11.566   4.280  1.00  0.00     0.124 S 
ATOM     80  O   UNL     1      -2.183  12.883   4.740  1.00  0.00    -0.237 OA
ATOM     81  O   UNL     1      -3.873  11.524   3.550  1.00  0.00    -0.237 OA
ATOM     82  O   UNL     1      -2.406  10.472   5.225  1.00  0.00    -0.744 OA
ENDBRANCH  78  79
ENDBRANCH  46  71
BRANCH  58  83
ATOM     83  C   UNL     1       5.436  14.684  -1.837  1.00  0.00     0.058 A 
ATOM     84  C   UNL     1       6.122  15.079  -0.678  1.00  0.00     0.135 A 
ATOM     85  C   UNL     1       5.221  15.660  -2.826  1.00  0.00     0.135 A 
ATOM     86  F   UNL     1       6.358  14.192   0.302  1.00  0.00    -0.206 F 
ATOM     87  C   UNL     1       6.561  16.390  -0.498  1.00  0.00     0.059 A 
ATOM     88  C   UNL     1       5.673  16.970  -2.679  1.00  0.00     0.059 A 
ATOM     89  F   UNL     1       4.583  15.340  -3.963  1.00  0.00    -0.206 F 
ATOM     90  C   UNL     1       6.333  17.329  -1.506  1.00  0.00     0.060 A 
BRANCH  90  91
ATOM     91  S   UNL     1       6.939  19.016  -1.275  1.00  0.00     0.124 S 
ATOM     92  O   UNL     1       6.005  19.532  -0.281  1.00  0.00    -0.237 OA
ATOM     93  O   UNL     1       8.305  18.799  -0.812  1.00  0.00    -0.237 OA
ATOM     94  O   UNL     1       6.823  19.605  -2.609  1.00  0.00    -0.744 OA
ENDBRANCH  90  91
ENDBRANCH  58  83
ENDBRANCH  32  33
ENDBRANCH  25  27
ENDBRANCH  24  25
ENDBRANCH  23  24
ENDBRANCH  22  23
ENDBRANCH  21  22
ENDBRANCH   1  21
TORSDOF 21
