REMARK SMILES O=C(N[C@@H](Cc1ccc(O)cc1)C(=O)N[C@@H](CO)C(=O)OCCOCCOC(=O)c1ccc(-c2c3nc(c(-c4c(F)cc(S(=O)(=O)[O-])cc4F)c4ccc([nH]4)c(-c4c(F)cc(S(=O)(=O)[O-])cc4F)c4nc(c(-c5c(F)cc(S(=O)(=O)[O-])cc5F)c5ccc2[nH]5)C=C4)C=C3)cc1)c1ccc(F)cc1
REMARK SMILES IDX 23 1 22 2 21 3 19 4 20 5 16 6 15 7 13 8 14 9 4 11 3 12 1 13
REMARK SMILES IDX 2 14 96 16 97 17 102 18 98 19 101 20 99 21 100 22 5 23 6 24
REMARK SMILES IDX 7 25 12 26 8 27 11 28 9 29 10 30 17 32 18 33 24 35 25 36
REMARK SMILES IDX 26 37 27 38 28 39 29 40 30 41 31 42 95 43 32 44 94 45 33 46
REMARK SMILES IDX 34 47 35 48 88 49 36 50 93 51 87 52 89 53 37 54 92 55 86 56
REMARK SMILES IDX 85 57 38 59 72 60 51 61 71 62 52 63 55 64 70 65 90 66 53 67
REMARK SMILES IDX 54 68 69 70 91 71 56 72 39 73 40 74 49 75 41 76 42 77 48 78
REMARK SMILES IDX 50 79 43 80 44 81 45 82 46 83 47 84 73 85 74 86 83 87 75 88
REMARK SMILES IDX 76 89 82 90 84 91 77 92 78 93 79 94 80 95 81 96 57 97 58 98
REMARK SMILES IDX 67 99 59 100 60 101 66 102 68 103 61 104 62 105 63 106
REMARK SMILES IDX 64 107 65 108
REMARK H PARENT 15 10 3 15 10 31 18 34 89 58 55 69
REMARK Flexibility Score: inf
ROOT
ATOM      1  C   UNL     1       6.700   4.910   5.236  1.00  0.00     0.202 C 
ENDROOT
BRANCH   1   2
ATOM      2  C   UNL     1       5.500   4.245   5.925  1.00  0.00     0.261 C 
BRANCH   2   3
ATOM      3  O   UNL     1       5.057   3.042   5.284  1.00  0.00    -0.462 OA
BRANCH   3   4
ATOM      4  C   UNL     1       3.742   3.027   4.918  1.00  0.00     0.331 C 
ATOM      5  O   UNL     1       2.932   3.910   5.179  1.00  0.00    -0.250 OA
BRANCH   4   6
ATOM      6  C   UNL     1       3.350   1.733   4.184  1.00  0.00     0.218 C 
BRANCH   6   7
ATOM      7  N   UNL     1       4.472   0.911   3.720  1.00  0.00    -0.339 N 
ATOM      8  C   UNL     1       4.911   0.604   2.470  1.00  0.00     0.243 C 
ATOM      9  O   UNL     1       5.998   0.015   2.407  1.00  0.00    -0.273 OA
ATOM     10  H   UNL     1       5.003   0.508   4.444  1.00  0.00     0.164 HD
BRANCH   8  11
ATOM     11  C   UNL     1       4.176   0.955   1.146  1.00  0.00     0.176 C 
BRANCH  11  12
ATOM     12  N   UNL     1       2.803   0.459   1.067  1.00  0.00    -0.340 N 
ATOM     13  O   UNL     1       0.998  -0.380   0.024  1.00  0.00    -0.269 OA
ATOM     14  C   UNL     1       2.222  -0.300   0.080  1.00  0.00     0.251 C 
ATOM     15  H   UNL     1       2.218   0.700   1.820  1.00  0.00     0.164 HD
BRANCH  14  16
ATOM     16  C   UNL     1       3.040  -1.025  -0.923  1.00  0.00     0.040 A 
ATOM     17  C   UNL     1       4.076  -1.884  -0.529  1.00  0.00     0.017 A 
ATOM     18  C   UNL     1       2.693  -0.923  -2.277  1.00  0.00     0.017 A 
ATOM     19  C   UNL     1       4.794  -2.597  -1.492  1.00  0.00     0.040 A 
ATOM     20  C   UNL     1       3.408  -1.646  -3.236  1.00  0.00     0.040 A 
ATOM     21  C   UNL     1       4.453  -2.472  -2.836  1.00  0.00     0.123 A 
ATOM     22  F   UNL     1       5.133  -3.168  -3.756  1.00  0.00    -0.207 F 
ENDBRANCH  14  16
ENDBRANCH  11  12
BRANCH  11  23
ATOM     23  C   UNL     1       4.391   2.373   0.548  1.00  0.00     0.070 C 
BRANCH  23  24
ATOM     24  C   UNL     1       3.747   3.610   1.133  1.00  0.00    -0.045 A 
ATOM     25  C   UNL     1       4.509   4.789   1.224  1.00  0.00     0.007 A 
ATOM     26  C   UNL     1       2.411   3.678   1.539  1.00  0.00     0.007 A 
ATOM     27  C   UNL     1       4.046   5.903   1.923  1.00  0.00     0.046 A 
ATOM     28  C   UNL     1       1.935   4.794   2.235  1.00  0.00     0.046 A 
ATOM     29  C   UNL     1       2.777   5.870   2.468  1.00  0.00     0.115 A 
BRANCH  29  30
ATOM     30  O   UNL     1       2.349   6.883   3.267  1.00  0.00    -0.508 OA
ATOM     31  H   UNL     1       2.907   7.617   3.434  1.00  0.00     0.293 HD
ENDBRANCH  29  30
ENDBRANCH  23  24
ENDBRANCH  11  23
ENDBRANCH   8  11
ENDBRANCH   6   7
BRANCH   6  32
ATOM     32  C   UNL     1       2.409   0.948   5.102  1.00  0.00     0.193 C 
BRANCH  32  33
ATOM     33  O   UNL     1       3.045   0.580   6.321  1.00  0.00    -0.394 OA
ATOM     34  H   UNL     1       3.807   0.011   6.130  1.00  0.00     0.210 HD
ENDBRANCH  32  33
ENDBRANCH   6  32
ENDBRANCH   4   6
ENDBRANCH   3   4
ENDBRANCH   2   3
ENDBRANCH   1   2
BRANCH   1  35
ATOM     35  O   UNL     1       6.778   4.919   3.817  1.00  0.00    -0.374 OA
BRANCH  35  36
ATOM     36  C   UNL     1       6.872   3.675   3.128  1.00  0.00     0.202 C 
BRANCH  36  37
ATOM     37  C   UNL     1       8.055   2.736   3.356  1.00  0.00     0.261 C 
BRANCH  37  38
ATOM     38  O   UNL     1       8.199   2.333   4.717  1.00  0.00    -0.460 OA
BRANCH  38  39
ATOM     39  C   UNL     1       9.316   2.819   5.309  1.00  0.00     0.338 C 
ATOM     40  O   UNL     1      10.194   3.498   4.801  1.00  0.00    -0.246 OA
BRANCH  39  41
ATOM     41  C   UNL     1       9.211   2.603   6.756  1.00  0.00     0.060 A 
ATOM     42  C   UNL     1       9.344   3.728   7.580  1.00  0.00     0.016 A 
ATOM     43  C   UNL     1       9.033   1.327   7.290  1.00  0.00     0.016 A 
ATOM     44  C   UNL     1       9.351   3.572   8.956  1.00  0.00     0.010 A 
ATOM     45  C   UNL     1       9.060   1.169   8.675  1.00  0.00     0.010 A 
ATOM     46  C   UNL     1       9.263   2.287   9.503  1.00  0.00    -0.014 A 
BRANCH  46  47
ATOM     47  C   UNL     1       9.602   2.110  10.928  1.00  0.00     0.031 A 
ATOM     48  C   UNL     1      11.007   1.708  11.274  1.00  0.00     0.074 A 
ATOM     49  C   UNL     1       8.692   2.373  11.880  1.00  0.00     0.049 A 
ATOM     50  N   UNL     1      11.545   1.505  12.446  1.00  0.00    -0.248 NA
ATOM     51  C   UNL     1      11.933   1.509  10.144  1.00  0.00     0.031 C 
ATOM     52  C   UNL     1       7.320   2.817  11.636  1.00  0.00     0.029 A 
ATOM     53  N   UNL     1       8.791   2.309  13.243  1.00  0.00    -0.354 N 
ATOM     54  C   UNL     1      12.866   1.154  12.197  1.00  0.00     0.074 A 
ATOM     55  C   UNL     1      13.042   1.137  10.762  1.00  0.00     0.031 C 
ATOM     56  C   UNL     1       6.700   2.978  12.818  1.00  0.00     0.029 A 
ATOM     57  C   UNL     1       7.623   2.623  13.893  1.00  0.00     0.049 A 
ATOM     58  H   UNL     1       9.621   2.062  13.713  1.00  0.00     0.167 HD
ATOM     59  C   UNL     1      13.845   0.881  13.090  1.00  0.00     0.037 A 
ATOM     60  C   UNL     1       7.337   2.606  15.208  1.00  0.00     0.037 A 
ATOM     61  C   UNL     1      13.647   0.902  14.515  1.00  0.00     0.049 A 
ATOM     62  C   UNL     1       8.426   2.236  16.181  1.00  0.00     0.074 A 
ATOM     63  C   UNL     1      14.565   0.646  15.516  1.00  0.00     0.029 A 
ATOM     64  N   UNL     1      12.441   1.190  15.139  1.00  0.00    -0.354 N 
ATOM     65  N   UNL     1       9.677   1.918  15.937  1.00  0.00    -0.248 NA
ATOM     66  C   UNL     1       8.070   2.228  17.605  1.00  0.00     0.031 C 
ATOM     67  C   UNL     1      13.901   0.731  16.745  1.00  0.00     0.029 A 
ATOM     68  C   UNL     1      12.584   1.096  16.512  1.00  0.00     0.049 A 
ATOM     69  H   UNL     1      11.606   1.427  14.673  1.00  0.00     0.167 HD
ATOM     70  C   UNL     1      10.264   1.700  17.178  1.00  0.00     0.074 A 
ATOM     71  C   UNL     1       9.233   1.935  18.170  1.00  0.00     0.031 C 
ATOM     72  C   UNL     1      11.539   1.340  17.476  1.00  0.00     0.037 A 
BRANCH  59  73
ATOM     73  C   UNL     1      15.197   0.509  12.550  1.00  0.00     0.058 A 
ATOM     74  C   UNL     1      16.031   1.450  11.924  1.00  0.00     0.135 A 
ATOM     75  C   UNL     1      15.674  -0.806  12.675  1.00  0.00     0.135 A 
ATOM     76  F   UNL     1      15.616   2.715  11.754  1.00  0.00    -0.206 F 
ATOM     77  C   UNL     1      17.280   1.095  11.423  1.00  0.00     0.059 A 
ATOM     78  C   UNL     1      16.931  -1.177  12.206  1.00  0.00     0.059 A 
ATOM     79  F   UNL     1      14.914  -1.748  13.255  1.00  0.00    -0.206 F 
ATOM     80  C   UNL     1      17.721  -0.221  11.570  1.00  0.00     0.060 A 
BRANCH  80  81
ATOM     81  S   UNL     1      19.348  -0.663  10.923  1.00  0.00     0.124 S 
ATOM     82  O   UNL     1      19.104  -0.643   9.484  1.00  0.00    -0.237 OA
ATOM     83  O   UNL     1      20.190   0.411  11.438  1.00  0.00    -0.237 OA
ATOM     84  O   UNL     1      19.596  -1.982  11.498  1.00  0.00    -0.744 OA
ENDBRANCH  80  81
ENDBRANCH  59  73
BRANCH  60  85
ATOM     85  C   UNL     1       5.965   2.939  15.675  1.00  0.00     0.058 A 
ATOM     86  C   UNL     1       5.708   4.111  16.402  1.00  0.00     0.135 A 
ATOM     87  C   UNL     1       4.880   2.094  15.394  1.00  0.00     0.135 A 
ATOM     88  F   UNL     1       6.713   4.948  16.701  1.00  0.00    -0.206 F 
ATOM     89  C   UNL     1       4.429   4.425  16.849  1.00  0.00     0.059 A 
ATOM     90  C   UNL     1       3.587   2.399  15.806  1.00  0.00     0.059 A 
ATOM     91  F   UNL     1       5.070   0.967  14.690  1.00  0.00    -0.206 F 
ATOM     92  C   UNL     1       3.373   3.563  16.543  1.00  0.00     0.060 A 
BRANCH  92  93
ATOM     93  S   UNL     1       1.710   4.002  17.090  1.00  0.00     0.124 S 
ATOM     94  O   UNL     1       1.799   3.759  18.525  1.00  0.00    -0.237 OA
ATOM     95  O   UNL     1       1.613   5.401  16.683  1.00  0.00    -0.237 OA
ATOM     96  O   UNL     1       0.857   3.080  16.345  1.00  0.00    -0.744 OA
ENDBRANCH  92  93
ENDBRANCH  60  85
BRANCH  72  97
ATOM     97  C   UNL     1      11.896   1.215  18.931  1.00  0.00     0.058 A 
ATOM     98  C   UNL     1      11.432   0.149  19.716  1.00  0.00     0.135 A 
ATOM     99  C   UNL     1      12.756   2.149  19.531  1.00  0.00     0.135 A 
ATOM    100  F   UNL     1      10.605  -0.768  19.191  1.00  0.00    -0.206 F 
ATOM    101  C   UNL     1      11.783   0.030  21.057  1.00  0.00     0.059 A 
ATOM    102  C   UNL     1      13.145   2.033  20.861  1.00  0.00     0.059 A 
ATOM    103  F   UNL     1      13.239   3.180  18.819  1.00  0.00    -0.206 F 
ATOM    104  C   UNL     1      12.641   0.978  21.620  1.00  0.00     0.060 A 
BRANCH 104 105
ATOM    105  S   UNL     1      13.108   0.798  23.354  1.00  0.00     0.124 S 
ATOM    106  O   UNL     1      11.881   1.203  24.031  1.00  0.00    -0.237 OA
ATOM    107  O   UNL     1      13.444  -0.620  23.442  1.00  0.00    -0.237 OA
ATOM    108  O   UNL     1      14.237   1.713  23.498  1.00  0.00    -0.744 OA
ENDBRANCH 104 105
ENDBRANCH  72  97
ENDBRANCH  46  47
ENDBRANCH  39  41
ENDBRANCH  38  39
ENDBRANCH  37  38
ENDBRANCH  36  37
ENDBRANCH  35  36
ENDBRANCH   1  35
TORSDOF 26
