REMARK SMILES O=C(OCCOCCOC(=O)c1cn2ccccc2n1)c1ccc(-c2c3nc(c(-c4c(F)cc(S(=O)(=O)[O-])cc4F)c4ccc([nH]4)c(-c4c(F)cc(S(=O)(=O)[O-])cc4F)c4nc(c(-c5c(F)cc(S(=O)(=O)[O-])cc5F)c5ccc2[nH]5)C=C4)C=C3)cc1
REMARK SMILES IDX 4 1 3 2 2 3 1 4 21 5 22 6 86 7 23 8 85 9 24 10 25 11 26 12
REMARK SMILES IDX 79 13 27 14 84 15 78 16 80 17 28 18 83 19 77 20 76 21 29 23
REMARK SMILES IDX 63 24 42 25 62 26 43 27 46 28 61 29 81 30 44 31 45 32 60 34
REMARK SMILES IDX 82 35 47 36 30 37 31 38 40 39 32 40 33 41 39 42 41 43 34 44
REMARK SMILES IDX 35 45 36 46 37 47 38 48 64 49 65 50 74 51 66 52 67 53 73 54
REMARK SMILES IDX 75 55 68 56 69 57 70 58 71 59 72 60 48 61 49 62 58 63 50 64
REMARK SMILES IDX 51 65 57 66 59 67 52 68 53 69 54 70 55 71 56 72 5 73 6 74
REMARK SMILES IDX 7 75 8 76 9 77 10 78 11 79 12 80 13 81 20 82 14 83 19 84
REMARK SMILES IDX 15 85 18 86 16 87 17 88
REMARK H PARENT 80 22 46 33
REMARK Flexibility Score: inf
ROOT
ATOM      1  C   UNL     1       3.896   1.322  -0.655  1.00  0.00     0.261 C 
ENDROOT
BRANCH   1   2
ATOM      2  O   UNL     1       2.545   0.833  -0.753  1.00  0.00    -0.460 OA
BRANCH   2   3
ATOM      3  C   UNL     1       2.103  -0.440  -0.867  1.00  0.00     0.338 C 
ATOM      4  O   UNL     1       0.890  -0.625  -0.961  1.00  0.00    -0.246 OA
BRANCH   3   5
ATOM      5  C   UNL     1       2.995  -1.640  -0.915  1.00  0.00     0.060 A 
ATOM      6  C   UNL     1       4.211  -1.774  -0.239  1.00  0.00     0.016 A 
ATOM      7  C   UNL     1       2.498  -2.761  -1.603  1.00  0.00     0.016 A 
ATOM      8  C   UNL     1       4.945  -2.963  -0.304  1.00  0.00     0.010 A 
ATOM      9  C   UNL     1       3.203  -3.970  -1.629  1.00  0.00     0.010 A 
ATOM     10  C   UNL     1       4.442  -4.074  -0.990  1.00  0.00    -0.014 A 
BRANCH  10  11
ATOM     11  C   UNL     1       5.210  -5.341  -1.020  1.00  0.00     0.031 A 
ATOM     12  C   UNL     1       5.923  -5.762  -2.271  1.00  0.00     0.074 A 
ATOM     13  C   UNL     1       5.282  -6.104   0.088  1.00  0.00     0.049 A 
ATOM     14  N   UNL     1       6.635  -6.837  -2.492  1.00  0.00    -0.248 NA
ATOM     15  C   UNL     1       5.821  -4.856  -3.425  1.00  0.00     0.031 C 
ATOM     16  C   UNL     1       4.639  -5.800   1.367  1.00  0.00     0.029 A 
ATOM     17  N   UNL     1       5.939  -7.286   0.316  1.00  0.00    -0.354 N 
ATOM     18  C   UNL     1       7.064  -6.742  -3.809  1.00  0.00     0.074 A 
ATOM     19  C   UNL     1       6.518  -5.511  -4.343  1.00  0.00     0.031 C 
ATOM     20  C   UNL     1       4.955  -6.759   2.254  1.00  0.00     0.029 A 
ATOM     21  C   UNL     1       5.800  -7.754   1.600  1.00  0.00     0.049 A 
ATOM     22  H   UNL     1       6.461  -7.755  -0.375  1.00  0.00     0.167 HD
ATOM     23  C   UNL     1       7.846  -7.597  -4.510  1.00  0.00     0.037 A 
ATOM     24  C   UNL     1       6.299  -8.860   2.183  1.00  0.00     0.037 A 
ATOM     25  C   UNL     1       8.392  -8.820  -3.987  1.00  0.00     0.049 A 
ATOM     26  C   UNL     1       7.159  -9.797   1.384  1.00  0.00     0.074 A 
ATOM     27  C   UNL     1       9.167  -9.767  -4.633  1.00  0.00     0.029 A 
ATOM     28  N   UNL     1       8.225  -9.261  -2.683  1.00  0.00    -0.354 N 
ATOM     29  N   UNL     1       7.538  -9.700   0.133  1.00  0.00    -0.248 NA
ATOM     30  C   UNL     1       7.651 -10.998   2.074  1.00  0.00     0.031 C 
ATOM     31  C   UNL     1       9.463 -10.787  -3.719  1.00  0.00     0.029 A 
ATOM     32  C   UNL     1       8.880 -10.468  -2.504  1.00  0.00     0.049 A 
ATOM     33  H   UNL     1       7.715  -8.787  -1.988  1.00  0.00     0.167 HD
ATOM     34  C   UNL     1       8.310 -10.827  -0.116  1.00  0.00     0.074 A 
ATOM     35  C   UNL     1       8.360 -11.585   1.118  1.00  0.00     0.031 C 
ATOM     36  C   UNL     1       8.915 -11.206  -1.268  1.00  0.00     0.037 A 
BRANCH  23  37
ATOM     37  C   UNL     1       8.139  -7.223  -5.930  1.00  0.00     0.058 A 
ATOM     38  C   UNL     1       9.153  -6.305  -6.242  1.00  0.00     0.135 A 
ATOM     39  C   UNL     1       7.378  -7.752  -6.982  1.00  0.00     0.135 A 
ATOM     40  F   UNL     1       9.893  -5.758  -5.264  1.00  0.00    -0.206 F 
ATOM     41  C   UNL     1       9.383  -5.898  -7.551  1.00  0.00     0.059 A 
ATOM     42  C   UNL     1       7.596  -7.365  -8.301  1.00  0.00     0.059 A 
ATOM     43  F   UNL     1       6.390  -8.625  -6.730  1.00  0.00    -0.206 F 
ATOM     44  C   UNL     1       8.588  -6.421  -8.572  1.00  0.00     0.060 A 
BRANCH  44  45
ATOM     45  S   UNL     1       8.849  -5.851 -10.265  1.00  0.00     0.124 S 
ATOM     46  O   UNL     1       8.073  -4.614 -10.275  1.00  0.00    -0.237 OA
ATOM     47  O   UNL     1      10.298  -5.688 -10.331  1.00  0.00    -0.237 OA
ATOM     48  O   UNL     1       8.308  -6.940 -11.072  1.00  0.00    -0.744 OA
ENDBRANCH  44  45
ENDBRANCH  23  37
BRANCH  24  49
ATOM     49  C   UNL     1       6.001  -9.135   3.609  1.00  0.00     0.058 A 
ATOM     50  C   UNL     1       6.951  -8.867   4.604  1.00  0.00     0.135 A 
ATOM     51  C   UNL     1       4.757  -9.645   4.004  1.00  0.00     0.135 A 
ATOM     52  F   UNL     1       8.156  -8.383   4.267  1.00  0.00    -0.206 F 
ATOM     53  C   UNL     1       6.680  -9.098   5.948  1.00  0.00     0.059 A 
ATOM     54  C   UNL     1       4.458  -9.874   5.343  1.00  0.00     0.059 A 
ATOM     55  F   UNL     1       3.815  -9.907   3.085  1.00  0.00    -0.206 F 
ATOM     56  C   UNL     1       5.430  -9.603   6.308  1.00  0.00     0.060 A 
BRANCH  56  57
ATOM     57  S   UNL     1       5.037  -9.849   8.054  1.00  0.00     0.124 S 
ATOM     58  O   UNL     1       5.458 -11.230   8.257  1.00  0.00    -0.237 OA
ATOM     59  O   UNL     1       5.850  -8.832   8.715  1.00  0.00    -0.237 OA
ATOM     60  O   UNL     1       3.597  -9.610   8.098  1.00  0.00    -0.744 OA
ENDBRANCH  56  57
ENDBRANCH  24  49
BRANCH  36  61
ATOM     61  C   UNL     1       9.670 -12.500  -1.247  1.00  0.00     0.058 A 
ATOM     62  C   UNL     1       9.008 -13.722  -1.438  1.00  0.00     0.135 A 
ATOM     63  C   UNL     1      11.062 -12.519  -1.077  1.00  0.00     0.135 A 
ATOM     64  F   UNL     1       7.676 -13.750  -1.598  1.00  0.00    -0.206 F 
ATOM     65  C   UNL     1       9.703 -14.926  -1.456  1.00  0.00     0.059 A 
ATOM     66  C   UNL     1      11.778 -13.712  -1.099  1.00  0.00     0.059 A 
ATOM     67  F   UNL     1      11.736 -11.374  -0.891  1.00  0.00    -0.206 F 
ATOM     68  C   UNL     1      11.088 -14.912  -1.282  1.00  0.00     0.060 A 
BRANCH  68  69
ATOM     69  S   UNL     1      12.001 -16.469  -1.348  1.00  0.00     0.124 S 
ATOM     70  O   UNL     1      11.920 -16.915   0.038  1.00  0.00    -0.237 OA
ATOM     71  O   UNL     1      11.234 -17.254  -2.311  1.00  0.00    -0.237 OA
ATOM     72  O   UNL     1      13.326 -16.057  -1.803  1.00  0.00    -0.744 OA
ENDBRANCH  68  69
ENDBRANCH  36  61
ENDBRANCH  10  11
ENDBRANCH   3   5
ENDBRANCH   2   3
ENDBRANCH   1   2
BRANCH   1  73
ATOM     73  C   UNL     1       4.150   1.830   0.765  1.00  0.00     0.202 C 
BRANCH  73  74
ATOM     74  O   UNL     1       4.045   0.798   1.747  1.00  0.00    -0.374 OA
BRANCH  74  75
ATOM     75  C   UNL     1       2.748   0.631   2.331  1.00  0.00     0.202 C 
BRANCH  75  76
ATOM     76  C   UNL     1       2.902   0.460   3.847  1.00  0.00     0.261 C 
BRANCH  76  77
ATOM     77  O   UNL     1       3.440   1.680   4.387  1.00  0.00    -0.458 OA
BRANCH  77  78
ATOM     78  C   UNL     1       4.809   1.750   4.356  1.00  0.00     0.358 C 
ATOM     79  O   UNL     1       5.556   0.780   4.380  1.00  0.00    -0.244 OA
BRANCH  78  80
ATOM     80  C   UNL     1       5.263   3.129   4.172  1.00  0.00     0.167 A 
ATOM     81  C   UNL     1       4.555   4.285   4.459  1.00  0.00     0.128 A 
ATOM     82  N   UNL     1       6.468   3.453   3.568  1.00  0.00    -0.222 NA
ATOM     83  N   UNL     1       5.322   5.320   3.996  1.00  0.00    -0.306 N 
ATOM     84  C   UNL     1       6.467   4.760   3.444  1.00  0.00     0.137 A 
ATOM     85  C   UNL     1       5.064   6.689   4.007  1.00  0.00     0.093 A 
ATOM     86  C   UNL     1       7.399   5.647   2.837  1.00  0.00     0.048 A 
ATOM     87  C   UNL     1       5.952   7.526   3.443  1.00  0.00     0.018 A 
ATOM     88  C   UNL     1       7.152   6.972   2.831  1.00  0.00     0.005 A 
ENDBRANCH  78  80
ENDBRANCH  77  78
ENDBRANCH  76  77
ENDBRANCH  75  76
ENDBRANCH  74  75
ENDBRANCH  73  74
ENDBRANCH   1  73
TORSDOF 17
