REMARK SMILES Cc1ccc2[nH]cc([C@@H](C(=O)OCCOCCOC(=O)c3ccc(-c4c5nc(c(-c6c(F)cc(S(=O)(=O)[O-])cc6F)c6ccc([nH]6)c(-c6c(F)cc(S(=O)(=O)[O-])cc6F)c6nc(c(-c7c(F)cc(S(=O)(=O)[O-])cc7F)c7ccc4[nH]7)C=C6)C=C5)cc3)[NH+]3CCN(c4cccc(Cl)c4)CC3)c2c1
REMARK SMILES IDX 16 1 15 2 14 3 13 4 12 5 10 6 11 7 9 8 8 9 1 10 2 11 3 12
REMARK SMILES IDX 101 13 4 14 100 15 5 16 6 17 7 18 87 20 88 21 99 22 89 24
REMARK SMILES IDX 98 25 90 26 91 27 92 28 97 29 93 30 95 31 94 32 96 33 17 34
REMARK SMILES IDX 18 35 19 36 20 37 21 38 22 39 86 40 23 41 85 42 24 43 25 44
REMARK SMILES IDX 26 45 79 46 27 47 84 48 78 49 80 50 28 51 83 52 77 53 76 54
REMARK SMILES IDX 29 56 63 57 42 58 62 59 43 60 46 61 61 62 81 63 44 64 45 65
REMARK SMILES IDX 60 67 82 68 47 69 30 70 31 71 40 72 32 73 33 74 39 75 41 76
REMARK SMILES IDX 34 77 35 78 36 79 37 80 38 81 64 82 65 83 74 84 66 85 67 86
REMARK SMILES IDX 73 87 75 88 68 89 69 90 70 91 71 92 72 93 48 94 49 95 58 96
REMARK SMILES IDX 50 97 51 98 57 99 59 100 52 101 53 102 54 103 55 104 56 105
REMARK H PARENT 6 19 87 23 80 55 46 66
REMARK Flexibility Score: inf
ROOT
ATOM      1  C   UNL     1      -5.299  -2.630   2.156  1.00  0.00     0.202 C 
ENDROOT
BRANCH   1   2
ATOM      2  O   UNL     1      -5.202  -3.561   3.230  1.00  0.00    -0.374 OA
BRANCH   2   3
ATOM      3  C   UNL     1      -3.997  -3.549   3.997  1.00  0.00     0.202 C 
BRANCH   3   4
ATOM      4  C   UNL     1      -2.729  -4.057   3.300  1.00  0.00     0.261 C 
BRANCH   4   5
ATOM      5  O   UNL     1      -2.252  -3.182   2.255  1.00  0.00    -0.459 OA
BRANCH   5   6
ATOM      6  C   UNL     1      -2.223  -3.724   1.002  1.00  0.00     0.370 C 
ATOM      7  O   UNL     1      -2.633  -4.859   0.753  1.00  0.00    -0.245 OA
BRANCH   6   8
ATOM      8  C   UNL     1      -1.580  -2.822  -0.075  1.00  0.00     0.328 C 
BRANCH   8   9
ATOM      9  C   UNL     1      -1.348  -1.363   0.244  1.00  0.00     0.046 A 
ATOM     10  C   UNL     1       3.741  -0.759  -0.077  1.00  0.00     0.044 C 
ATOM     11  C   UNL     1       2.333  -0.248   0.026  1.00  0.00    -0.050 A 
ATOM     12  C   UNL     1       2.071   1.120   0.130  1.00  0.00     0.005 A 
ATOM     13  C   UNL     1       1.268  -1.164   0.048  1.00  0.00     0.014 A 
ATOM     14  C   UNL     1       0.767   1.599   0.302  1.00  0.00     0.027 A 
ATOM     15  C   UNL     1      -0.059  -0.711   0.220  1.00  0.00     0.009 A 
ATOM     16  C   UNL     1      -0.268   0.659   0.371  1.00  0.00     0.046 A 
ATOM     17  N   UNL     1      -1.611   0.836   0.590  1.00  0.00    -0.361 N 
ATOM     18  C   UNL     1      -2.258  -0.371   0.565  1.00  0.00     0.094 A 
ATOM     19  H   UNL     1      -2.046   1.706   0.742  1.00  0.00     0.166 HD
ENDBRANCH   8   9
BRANCH   8  20
ATOM     20  N   UNL     1      -2.234  -3.028  -1.393  1.00  0.00    -0.316 N 
ATOM     21  C   UNL     1      -3.666  -2.751  -1.536  1.00  0.00     0.284 C 
ATOM     22  C   UNL     1      -1.472  -2.610  -2.573  1.00  0.00     0.284 C 
ATOM     23  H   UNL     1      -2.205  -4.048  -1.366  1.00  0.00     0.349 HD
ATOM     24  C   UNL     1      -4.070  -1.380  -2.129  1.00  0.00     0.178 C 
ATOM     25  C   UNL     1      -1.795  -1.202  -3.121  1.00  0.00     0.178 C 
ATOM     26  N   UNL     1      -3.248  -1.025  -3.291  1.00  0.00    -0.360 N 
BRANCH  26  27
ATOM     27  C   UNL     1      -3.612   0.121  -3.997  1.00  0.00     0.038 A 
ATOM     28  C   UNL     1      -3.795   1.365  -3.376  1.00  0.00     0.026 A 
ATOM     29  C   UNL     1      -3.779   0.037  -5.383  1.00  0.00     0.046 A 
ATOM     30  C   UNL     1      -4.153   2.494  -4.118  1.00  0.00     0.004 A 
ATOM     31  C   UNL     1      -4.141   1.163  -6.123  1.00  0.00     0.043 A 
ATOM     32  C   UNL     1      -4.330   2.392  -5.496  1.00  0.00     0.020 A 
ATOM     33  Cl  UNL     1      -4.358   1.032  -7.826  1.00  0.00    -0.084 Cl
ENDBRANCH  26  27
ENDBRANCH   8  20
ENDBRANCH   6   8
ENDBRANCH   5   6
ENDBRANCH   4   5
ENDBRANCH   3   4
ENDBRANCH   2   3
ENDBRANCH   1   2
BRANCH   1  34
ATOM     34  C   UNL     1      -5.508  -1.167   2.554  1.00  0.00     0.261 C 
BRANCH  34  35
ATOM     35  O   UNL     1      -4.379  -0.667   3.291  1.00  0.00    -0.460 OA
BRANCH  35  36
ATOM     36  C   UNL     1      -4.711   0.029   4.401  1.00  0.00     0.338 C 
ATOM     37  O   UNL     1      -5.821   0.457   4.694  1.00  0.00    -0.246 OA
BRANCH  36  38
ATOM     38  C   UNL     1      -3.580   0.065   5.341  1.00  0.00     0.060 A 
ATOM     39  C   UNL     1      -3.717  -0.655   6.534  1.00  0.00     0.016 A 
ATOM     40  C   UNL     1      -2.472   0.886   5.127  1.00  0.00     0.016 A 
ATOM     41  C   UNL     1      -2.781  -0.496   7.552  1.00  0.00     0.010 A 
ATOM     42  C   UNL     1      -1.536   1.051   6.156  1.00  0.00     0.010 A 
ATOM     43  C   UNL     1      -1.715   0.401   7.391  1.00  0.00    -0.014 A 
BRANCH  43  44
ATOM     44  C   UNL     1      -0.921   0.778   8.588  1.00  0.00     0.031 A 
ATOM     45  C   UNL     1      -1.289   2.031   9.340  1.00  0.00     0.074 A 
ATOM     46  C   UNL     1       0.052  -0.025   9.053  1.00  0.00     0.049 A 
ATOM     47  N   UNL     1      -0.792   2.507  10.453  1.00  0.00    -0.248 NA
ATOM     48  C   UNL     1      -2.366   2.853   8.764  1.00  0.00     0.031 C 
ATOM     49  C   UNL     1       0.480  -1.278   8.434  1.00  0.00     0.029 A 
ATOM     50  N   UNL     1       0.849   0.091  10.165  1.00  0.00    -0.354 N 
ATOM     51  C   UNL     1      -1.497   3.676  10.714  1.00  0.00     0.074 A 
ATOM     52  C   UNL     1      -2.432   3.858   9.625  1.00  0.00     0.031 C 
ATOM     53  C   UNL     1       1.462  -1.818   9.177  1.00  0.00     0.029 A 
ATOM     54  C   UNL     1       1.742  -0.942  10.314  1.00  0.00     0.049 A 
ATOM     55  H   UNL     1       0.786   0.844  10.796  1.00  0.00     0.167 HD
ATOM     56  C   UNL     1      -1.387   4.516  11.771  1.00  0.00     0.037 A 
ATOM     57  C   UNL     1       2.680  -1.155  11.259  1.00  0.00     0.037 A 
ATOM     58  C   UNL     1      -0.457   4.337  12.855  1.00  0.00     0.049 A 
ATOM     59  C   UNL     1       2.816  -0.183  12.402  1.00  0.00     0.074 A 
ATOM     60  C   UNL     1      -0.277   5.129  13.975  1.00  0.00     0.029 A 
ATOM     61  N   UNL     1       0.454   3.295  12.952  1.00  0.00    -0.354 N 
ATOM     62  N   UNL     1       2.123   0.904  12.648  1.00  0.00    -0.248 NA
ATOM     63  C   UNL     1       3.854  -0.472  13.402  1.00  0.00     0.031 C 
ATOM     64  C   UNL     1       0.770   4.588  14.730  1.00  0.00     0.029 A 
ATOM     65  C   UNL     1       1.212   3.434  14.103  1.00  0.00     0.049 A 
ATOM     66  H   UNL     1       0.547   2.564  12.299  1.00  0.00     0.167 HD
ATOM     67  C   UNL     1       2.623   1.412  13.843  1.00  0.00     0.074 A 
ATOM     68  C   UNL     1       3.670   0.509  14.275  1.00  0.00     0.031 C 
ATOM     69  C   UNL     1       2.248   2.525  14.523  1.00  0.00     0.037 A 
BRANCH  56  70
ATOM     70  C   UNL     1      -2.285   5.722  11.794  1.00  0.00     0.058 A 
ATOM     71  C   UNL     1      -3.658   5.614  12.067  1.00  0.00     0.135 A 
ATOM     72  C   UNL     1      -1.761   7.004  11.565  1.00  0.00     0.135 A 
ATOM     73  F   UNL     1      -4.213   4.409  12.275  1.00  0.00    -0.206 F 
ATOM     74  C   UNL     1      -4.486   6.732  12.086  1.00  0.00     0.059 A 
ATOM     75  C   UNL     1      -2.566   8.139  11.602  1.00  0.00     0.059 A 
ATOM     76  F   UNL     1      -0.456   7.163  11.296  1.00  0.00    -0.206 F 
ATOM     77  C   UNL     1      -3.930   7.991  11.848  1.00  0.00     0.060 A 
BRANCH  77  78
ATOM     78  S   UNL     1      -5.015   9.434  11.871  1.00  0.00     0.124 S 
ATOM     79  O   UNL     1      -5.719   9.288  10.601  1.00  0.00    -0.237 OA
ATOM     80  O   UNL     1      -5.816   9.206  13.069  1.00  0.00    -0.237 OA
ATOM     81  O   UNL     1      -4.085  10.557  11.947  1.00  0.00    -0.744 OA
ENDBRANCH  77  78
ENDBRANCH  56  70
BRANCH  57  82
ATOM     82  C   UNL     1       3.567  -2.344  11.165  1.00  0.00     0.058 A 
ATOM     83  C   UNL     1       3.450  -3.415  12.063  1.00  0.00     0.135 A 
ATOM     84  C   UNL     1       4.554  -2.430  10.170  1.00  0.00     0.135 A 
ATOM     85  F   UNL     1       2.530  -3.374  13.039  1.00  0.00    -0.206 F 
ATOM     86  C   UNL     1       4.286  -4.525  11.987  1.00  0.00     0.059 A 
ATOM     87  C   UNL     1       5.386  -3.539  10.059  1.00  0.00     0.059 A 
ATOM     88  F   UNL     1       4.700  -1.436   9.281  1.00  0.00    -0.206 F 
ATOM     89  C   UNL     1       5.250  -4.578  10.978  1.00  0.00     0.060 A 
BRANCH  89  90
ATOM     90  S   UNL     1       6.296  -6.045  10.851  1.00  0.00     0.124 S 
ATOM     91  O   UNL     1       7.224  -5.840  11.958  1.00  0.00    -0.237 OA
ATOM     92  O   UNL     1       5.331  -7.127  11.018  1.00  0.00    -0.237 OA
ATOM     93  O   UNL     1       6.871  -5.930   9.514  1.00  0.00    -0.744 OA
ENDBRANCH  89  90
ENDBRANCH  57  82
BRANCH  69  94
ATOM     94  C   UNL     1       2.950   2.812  15.822  1.00  0.00     0.058 A 
ATOM     95  C   UNL     1       4.270   3.286  15.858  1.00  0.00     0.135 A 
ATOM     96  C   UNL     1       2.277   2.650  17.044  1.00  0.00     0.135 A 
ATOM     97  F   UNL     1       4.959   3.455  14.719  1.00  0.00    -0.206 F 
ATOM     98  C   UNL     1       4.910   3.561  17.063  1.00  0.00     0.059 A 
ATOM     99  C   UNL     1       2.889   2.943  18.259  1.00  0.00     0.059 A 
ATOM    100  F   UNL     1       1.008   2.212  17.065  1.00  0.00    -0.206 F 
ATOM    101  C   UNL     1       4.212   3.383  18.259  1.00  0.00     0.060 A 
BRANCH 101 102
ATOM    102  S   UNL     1       5.045   3.760  19.816  1.00  0.00     0.124 S 
ATOM    103  O   UNL     1       5.909   2.596  19.976  1.00  0.00    -0.237 OA
ATOM    104  O   UNL     1       5.724   5.017  19.514  1.00  0.00    -0.237 OA
ATOM    105  O   UNL     1       3.946   3.864  20.772  1.00  0.00    -0.744 OA
ENDBRANCH 101 102
ENDBRANCH  69  94
ENDBRANCH  43  44
ENDBRANCH  36  38
ENDBRANCH  35  36
ENDBRANCH  34  35
ENDBRANCH   1  34
TORSDOF 20
