REMARK SMILES O=C(OCCOCCOC(=O)c1ccc([S@@](=O)[C@H]2CCOC3(CCCC3)C2)cc1)c1ccc(-c2c3nc(c(-c4c(F)cc(S(=O)(=O)[O-])cc4F)c4ccc([nH]4)c(-c4c(F)cc(S(=O)(=O)[O-])cc4F)c4nc(c(-c5c(F)cc(S(=O)(=O)[O-])cc5F)c5ccc2[nH]5)C=C4)C=C3)cc1
REMARK SMILES IDX 5 1 4 2 3 3 2 4 1 5 30 6 31 7 95 8 32 9 94 10 33 11 34 12
REMARK SMILES IDX 35 13 88 14 36 15 93 16 87 17 89 18 37 19 92 20 86 21 85 22
REMARK SMILES IDX 38 24 72 25 51 26 71 27 52 28 55 29 70 30 90 31 53 32 54 33
REMARK SMILES IDX 69 35 91 36 56 37 39 38 40 39 49 40 41 41 42 42 48 43 50 44
REMARK SMILES IDX 43 45 44 46 45 47 46 48 47 49 73 50 74 51 83 52 75 53 76 54
REMARK SMILES IDX 82 55 84 56 77 57 78 58 79 59 80 60 81 61 57 62 58 63 67 64
REMARK SMILES IDX 59 65 60 66 66 67 68 68 61 69 62 70 63 71 64 72 65 73 6 74
REMARK SMILES IDX 7 75 8 76 9 77 10 78 11 79 12 80 13 81 29 82 14 83 28 84
REMARK SMILES IDX 15 85 16 86 17 87 18 88 19 89 27 90 20 91 22 92 21 93 23 94
REMARK SMILES IDX 26 95 24 96 25 97
REMARK H PARENT 89 23 55 34
REMARK Flexibility Score: inf
ROOT
ATOM      1  C   UNL     1       2.293  -5.675 -12.909  1.00  0.00     0.202 C 
ENDROOT
BRANCH   1   2
ATOM      2  C   UNL     1       1.459  -4.403 -13.100  1.00  0.00     0.261 C 
BRANCH   2   3
ATOM      3  O   UNL     1       0.055  -4.718 -13.099  1.00  0.00    -0.460 OA
BRANCH   3   4
ATOM      4  C   UNL     1      -0.779  -4.856 -14.157  1.00  0.00     0.338 C 
ATOM      5  O   UNL     1      -1.955  -5.145 -13.942  1.00  0.00    -0.246 OA
BRANCH   4   6
ATOM      6  C   UNL     1      -0.356  -4.653 -15.576  1.00  0.00     0.060 A 
ATOM      7  C   UNL     1       0.931  -4.877 -16.063  1.00  0.00     0.016 A 
ATOM      8  C   UNL     1      -1.350  -4.277 -16.496  1.00  0.00     0.016 A 
ATOM      9  C   UNL     1       1.259  -4.640 -17.387  1.00  0.00     0.010 A 
ATOM     10  C   UNL     1      -1.042  -4.084 -17.848  1.00  0.00     0.010 A 
ATOM     11  C   UNL     1       0.278  -4.232 -18.284  1.00  0.00    -0.014 A 
BRANCH  11  12
ATOM     12  C   UNL     1       0.726  -3.839 -19.632  1.00  0.00     0.031 A 
ATOM     13  C   UNL     1       0.837  -2.376 -19.937  1.00  0.00     0.074 A 
ATOM     14  C   UNL     1       1.190  -4.781 -20.473  1.00  0.00     0.049 A 
ATOM     15  N   UNL     1       1.248  -1.787 -21.025  1.00  0.00    -0.248 NA
ATOM     16  C   UNL     1       0.450  -1.448 -18.859  1.00  0.00     0.031 C 
ATOM     17  C   UNL     1       1.234  -6.218 -20.185  1.00  0.00     0.029 A 
ATOM     18  N   UNL     1       1.758  -4.674 -21.712  1.00  0.00    -0.354 N 
ATOM     19  C   UNL     1       1.139  -0.424 -20.778  1.00  0.00     0.074 A 
ATOM     20  C   UNL     1       0.623  -0.270 -19.437  1.00  0.00     0.031 C 
ATOM     21  C   UNL     1       1.835  -6.852 -21.205  1.00  0.00     0.029 A 
ATOM     22  C   UNL     1       2.158  -5.879 -22.241  1.00  0.00     0.049 A 
ATOM     23  H   UNL     1       1.871  -3.815 -22.182  1.00  0.00     0.167 HD
ATOM     24  C   UNL     1       1.439   0.600 -21.608  1.00  0.00     0.037 A 
ATOM     25  C   UNL     1       2.705  -6.154 -23.440  1.00  0.00     0.037 A 
ATOM     26  C   UNL     1       1.958   0.405 -22.934  1.00  0.00     0.049 A 
ATOM     27  C   UNL     1       2.959  -5.001 -24.373  1.00  0.00     0.074 A 
ATOM     28  C   UNL     1       2.241   1.349 -23.902  1.00  0.00     0.029 A 
ATOM     29  N   UNL     1       2.276  -0.836 -23.475  1.00  0.00    -0.354 N 
ATOM     30  N   UNL     1       2.778  -3.716 -24.162  1.00  0.00    -0.248 NA
ATOM     31  C   UNL     1       3.477  -5.326 -25.706  1.00  0.00     0.031 C 
ATOM     32  C   UNL     1       2.690   0.675 -25.043  1.00  0.00     0.029 A 
ATOM     33  C   UNL     1       2.740  -0.684 -24.768  1.00  0.00     0.049 A 
ATOM     34  H   UNL     1       2.185  -1.696 -23.005  1.00  0.00     0.167 HD
ATOM     35  C   UNL     1       3.184  -3.077 -25.327  1.00  0.00     0.074 A 
ATOM     36  C   UNL     1       3.630  -4.119 -26.233  1.00  0.00     0.031 C 
ATOM     37  C   UNL     1       3.188  -1.754 -25.627  1.00  0.00     0.037 A 
BRANCH  24  38
ATOM     38  C   UNL     1       1.124   1.988 -21.125  1.00  0.00     0.058 A 
ATOM     39  C   UNL     1       1.867   2.620 -20.114  1.00  0.00     0.135 A 
ATOM     40  C   UNL     1       0.024   2.680 -21.656  1.00  0.00     0.135 A 
ATOM     41  F   UNL     1       2.909   1.991 -19.547  1.00  0.00    -0.206 F 
ATOM     42  C   UNL     1       1.508   3.872 -19.622  1.00  0.00     0.059 A 
ATOM     43  C   UNL     1      -0.339   3.943 -21.197  1.00  0.00     0.059 A 
ATOM     44  F   UNL     1      -0.730   2.119 -22.614  1.00  0.00    -0.206 F 
ATOM     45  C   UNL     1       0.398   4.523 -20.166  1.00  0.00     0.060 A 
BRANCH  45  46
ATOM     46  S   UNL     1      -0.080   6.130 -19.497  1.00  0.00     0.124 S 
ATOM     47  O   UNL     1      -0.653   5.751 -18.209  1.00  0.00    -0.237 OA
ATOM     48  O   UNL     1       1.196   6.837 -19.438  1.00  0.00    -0.237 OA
ATOM     49  O   UNL     1      -1.031   6.639 -20.480  1.00  0.00    -0.744 OA
ENDBRANCH  45  46
ENDBRANCH  24  38
BRANCH  25  50
ATOM     50  C   UNL     1       3.009  -7.559 -23.829  1.00  0.00     0.058 A 
ATOM     51  C   UNL     1       4.325  -7.993 -24.047  1.00  0.00     0.135 A 
ATOM     52  C   UNL     1       1.981  -8.504 -23.994  1.00  0.00     0.135 A 
ATOM     53  F   UNL     1       5.346  -7.133 -23.910  1.00  0.00    -0.206 F 
ATOM     54  C   UNL     1       4.611  -9.302 -24.430  1.00  0.00     0.059 A 
ATOM     55  C   UNL     1       2.243  -9.824 -24.347  1.00  0.00     0.059 A 
ATOM     56  F   UNL     1       0.703  -8.149 -23.790  1.00  0.00    -0.206 F 
ATOM     57  C   UNL     1       3.561 -10.210 -24.578  1.00  0.00     0.060 A 
BRANCH  57  58
ATOM     58  S   UNL     1       3.940 -11.912 -25.051  1.00  0.00     0.124 S 
ATOM     59  O   UNL     1       4.295 -11.754 -26.456  1.00  0.00    -0.237 OA
ATOM     60  O   UNL     1       5.037 -12.247 -24.148  1.00  0.00    -0.237 OA
ATOM     61  O   UNL     1       2.688 -12.619 -24.793  1.00  0.00    -0.744 OA
ENDBRANCH  57  58
ENDBRANCH  25  50
BRANCH  37  62
ATOM     62  C   UNL     1       3.741  -1.366 -26.967  1.00  0.00     0.058 A 
ATOM     63  C   UNL     1       3.028  -1.591 -28.154  1.00  0.00     0.135 A 
ATOM     64  C   UNL     1       4.981  -0.715 -27.052  1.00  0.00     0.135 A 
ATOM     65  F   UNL     1       1.839  -2.214 -28.121  1.00  0.00    -0.206 F 
ATOM     66  C   UNL     1       3.541  -1.207 -29.387  1.00  0.00     0.059 A 
ATOM     67  C   UNL     1       5.500  -0.296 -28.271  1.00  0.00     0.059 A 
ATOM     68  F   UNL     1       5.693  -0.466 -25.941  1.00  0.00    -0.206 F 
ATOM     69  C   UNL     1       4.778  -0.560 -29.434  1.00  0.00     0.060 A 
BRANCH  69  70
ATOM     70  S   UNL     1       5.422  -0.040 -31.037  1.00  0.00     0.124 S 
ATOM     71  O   UNL     1       5.881  -1.308 -31.593  1.00  0.00    -0.237 OA
ATOM     72  O   UNL     1       4.244   0.543 -31.674  1.00  0.00    -0.237 OA
ATOM     73  O   UNL     1       6.472   0.912 -30.687  1.00  0.00    -0.744 OA
ENDBRANCH  69  70
ENDBRANCH  37  62
ENDBRANCH  11  12
ENDBRANCH   4   6
ENDBRANCH   3   4
ENDBRANCH   2   3
ENDBRANCH   1   2
BRANCH   1  74
ATOM     74  O   UNL     1       2.079  -6.675 -13.907  1.00  0.00    -0.374 OA
BRANCH  74  75
ATOM     75  C   UNL     1       0.993  -7.577 -13.663  1.00  0.00     0.202 C 
BRANCH  75  76
ATOM     76  C   UNL     1       1.517  -9.010 -13.567  1.00  0.00     0.261 C 
BRANCH  76  77
ATOM     77  O   UNL     1       2.421  -9.084 -12.452  1.00  0.00    -0.460 OA
BRANCH  77  78
ATOM     78  C   UNL     1       3.714  -8.811 -12.764  1.00  0.00     0.338 C 
ATOM     79  O   UNL     1       4.239  -8.852 -13.863  1.00  0.00    -0.246 OA
BRANCH  78  80
ATOM     80  C   UNL     1       4.368  -8.243 -11.565  1.00  0.00     0.060 A 
ATOM     81  C   UNL     1       5.285  -7.200 -11.743  1.00  0.00     0.017 A 
ATOM     82  C   UNL     1       4.065  -8.697 -10.279  1.00  0.00     0.017 A 
ATOM     83  C   UNL     1       5.905  -6.617 -10.636  1.00  0.00     0.018 A 
ATOM     84  C   UNL     1       4.696  -8.118  -9.174  1.00  0.00     0.018 A 
ATOM     85  C   UNL     1       5.620  -7.078  -9.346  1.00  0.00     0.039 A 
BRANCH  85  86
ATOM     86  S   UNL     1       6.573  -6.526  -7.926  1.00  0.00     0.056 S 
ATOM     87  O   UNL     1       7.927  -6.160  -8.457  1.00  0.00    -0.254 OA
BRANCH  86  88
ATOM     88  C   UNL     1       5.751  -4.989  -7.429  1.00  0.00     0.089 C 
ATOM     89  C   UNL     1       5.903  -3.834  -8.408  1.00  0.00     0.046 C 
ATOM     90  C   UNL     1       4.284  -5.153  -7.049  1.00  0.00     0.053 C 
ATOM     91  C   UNL     1       5.350  -2.571  -7.761  1.00  0.00     0.162 C 
ATOM     92  C   UNL     1       3.766  -3.845  -6.420  1.00  0.00     0.069 C 
ATOM     93  O   UNL     1       4.005  -2.746  -7.313  1.00  0.00    -0.375 OA
ATOM     94  C   UNL     1       2.236  -3.891  -6.188  1.00  0.00     0.035 C 
ATOM     95  C   UNL     1       4.366  -3.585  -5.019  1.00  0.00     0.035 C 
ATOM     96  C   UNL     1       2.026  -3.759  -4.684  1.00  0.00     0.003 C 
ATOM     97  C   UNL     1       3.232  -2.970  -4.213  1.00  0.00     0.003 C 
ENDBRANCH  86  88
ENDBRANCH  85  86
ENDBRANCH  78  80
ENDBRANCH  77  78
ENDBRANCH  76  77
ENDBRANCH  75  76
ENDBRANCH  74  75
ENDBRANCH   1  74
TORSDOF 19
