REMARK SMILES O=C(OCCOCCOC(=O)c1csc(S(=O)(=O)Nc2cccc(S(=O)(=O)N3CCCC3)c2)c1)c1ccc(-c2c3nc(c(-c4c(F)cc(S(=O)(=O)[O-])cc4F)c4ccc([nH]4)c(-c4c(F)cc(S(=O)(=O)[O-])cc4F)c4nc(c(-c5c(F)cc(S(=O)(=O)[O-])cc5F)c5ccc2[nH]5)C=C4)C=C3)cc1
REMARK SMILES IDX 7 1 6 2 5 3 4 4 3 5 2 6 1 7 35 8 36 9 100 10 37 11 99 12
REMARK SMILES IDX 38 13 39 14 40 15 93 16 41 17 98 18 92 19 94 20 42 21 97 22
REMARK SMILES IDX 91 23 90 24 43 26 77 27 56 28 76 29 57 30 60 31 75 32 95 33
REMARK SMILES IDX 58 34 59 35 74 37 96 38 61 39 44 40 45 41 54 42 46 43 47 44
REMARK SMILES IDX 53 45 55 46 48 47 49 48 50 49 51 50 52 51 78 52 79 53 88 54
REMARK SMILES IDX 80 55 81 56 87 57 89 58 82 59 83 60 84 61 85 62 86 63 62 64
REMARK SMILES IDX 63 65 72 66 64 67 65 68 71 69 73 70 66 71 67 72 68 73 69 74
REMARK SMILES IDX 70 75 8 76 9 77 10 78 11 79 12 80 13 81 34 82 14 83 15 84
REMARK SMILES IDX 16 85 17 86 18 87 19 88 20 90 21 91 33 92 22 93 24 94 23 95
REMARK SMILES IDX 25 96 26 97 27 98 28 99 29 100 32 101 30 102 31 103
REMARK H PARENT 94 25 60 36 19 89
REMARK Flexibility Score: inf
ROOT
ATOM      1  C   UNL     1       2.880   2.655  -1.965  1.00  0.00     0.202 C 
ENDROOT
BRANCH   1   2
ATOM      2  O   UNL     1       4.228   2.426  -1.542  1.00  0.00    -0.374 OA
BRANCH   2   3
ATOM      3  C   UNL     1       4.697   1.089  -1.702  1.00  0.00     0.202 C 
BRANCH   3   4
ATOM      4  C   UNL     1       4.333   0.126  -0.573  1.00  0.00     0.261 C 
BRANCH   4   5
ATOM      5  O   UNL     1       2.899  -0.017  -0.445  1.00  0.00    -0.460 OA
BRANCH   5   6
ATOM      6  C   UNL     1       2.149   0.235   0.665  1.00  0.00     0.338 C 
ATOM      7  O   UNL     1       0.978  -0.121   0.726  1.00  0.00    -0.246 OA
BRANCH   6   8
ATOM      8  C   UNL     1       2.762   0.960   1.804  1.00  0.00     0.060 A 
ATOM      9  C   UNL     1       3.720   1.930   1.568  1.00  0.00     0.016 A 
ATOM     10  C   UNL     1       2.407   0.676   3.125  1.00  0.00     0.016 A 
ATOM     11  C   UNL     1       4.554   2.340   2.577  1.00  0.00     0.010 A 
ATOM     12  C   UNL     1       3.100   1.294   4.178  1.00  0.00     0.010 A 
ATOM     13  C   UNL     1       4.227   2.086   3.906  1.00  0.00    -0.014 A 
BRANCH  13  14
ATOM     14  C   UNL     1       5.135   2.659   4.931  1.00  0.00     0.031 A 
ATOM     15  C   UNL     1       5.840   1.752   5.898  1.00  0.00     0.074 A 
ATOM     16  C   UNL     1       5.452   3.971   4.846  1.00  0.00     0.049 A 
ATOM     17  N   UNL     1       6.677   2.066   6.850  1.00  0.00    -0.248 NA
ATOM     18  C   UNL     1       5.572   0.308   5.791  1.00  0.00     0.031 C 
ATOM     19  C   UNL     1       4.874   4.918   3.880  1.00  0.00     0.029 A 
ATOM     20  N   UNL     1       6.394   4.721   5.499  1.00  0.00    -0.354 N 
ATOM     21  C   UNL     1       6.971   0.876   7.503  1.00  0.00     0.074 A 
ATOM     22  C   UNL     1       6.242  -0.173   6.828  1.00  0.00     0.031 C 
ATOM     23  C   UNL     1       5.573   6.059   3.900  1.00  0.00     0.029 A 
ATOM     24  C   UNL     1       6.536   5.992   4.987  1.00  0.00     0.049 A 
ATOM     25  H   UNL     1       6.919   4.383   6.260  1.00  0.00     0.167 HD
ATOM     26  C   UNL     1       7.767   0.691   8.583  1.00  0.00     0.037 A 
ATOM     27  C   UNL     1       7.327   7.008   5.377  1.00  0.00     0.037 A 
ATOM     28  C   UNL     1       8.518   1.754   9.197  1.00  0.00     0.049 A 
ATOM     29  C   UNL     1       8.189   6.781   6.583  1.00  0.00     0.074 A 
ATOM     30  C   UNL     1       9.316   1.713  10.324  1.00  0.00     0.029 A 
ATOM     31  N   UNL     1       8.573   3.056   8.712  1.00  0.00    -0.354 N 
ATOM     32  N   UNL     1       8.369   5.673   7.264  1.00  0.00    -0.248 NA
ATOM     33  C   UNL     1       8.917   7.941   7.105  1.00  0.00     0.031 C 
ATOM     34  C   UNL     1       9.829   2.998  10.539  1.00  0.00     0.029 A 
ATOM     35  C   UNL     1       9.387   3.829   9.520  1.00  0.00     0.049 A 
ATOM     36  H   UNL     1       8.101   3.380   7.911  1.00  0.00     0.167 HD
ATOM     37  C   UNL     1       9.229   6.001   8.300  1.00  0.00     0.074 A 
ATOM     38  C   UNL     1       9.559   7.405   8.135  1.00  0.00     0.031 C 
ATOM     39  C   UNL     1       9.695   5.223   9.308  1.00  0.00     0.037 A 
BRANCH  26  40
ATOM     40  C   UNL     1       7.782  -0.680   9.201  1.00  0.00     0.058 A 
ATOM     41  C   UNL     1       8.421  -1.774   8.599  1.00  0.00     0.135 A 
ATOM     42  C   UNL     1       7.104  -0.905  10.411  1.00  0.00     0.135 A 
ATOM     43  F   UNL     1       9.060  -1.624   7.428  1.00  0.00    -0.206 F 
ATOM     44  C   UNL     1       8.358  -3.050   9.155  1.00  0.00     0.059 A 
ATOM     45  C   UNL     1       7.048  -2.166  10.998  1.00  0.00     0.059 A 
ATOM     46  F   UNL     1       6.468   0.104  11.027  1.00  0.00    -0.206 F 
ATOM     47  C   UNL     1       7.661  -3.237  10.351  1.00  0.00     0.060 A 
BRANCH  47  48
ATOM     48  S   UNL     1       7.557  -4.900  11.048  1.00  0.00     0.124 S 
ATOM     49  O   UNL     1       6.583  -5.527  10.160  1.00  0.00    -0.237 OA
ATOM     50  O   UNL     1       8.929  -5.379  10.923  1.00  0.00    -0.237 OA
ATOM     51  O   UNL     1       7.101  -4.667  12.415  1.00  0.00    -0.744 OA
ENDBRANCH  47  48
ENDBRANCH  26  40
BRANCH  27  52
ATOM     52  C   UNL     1       7.278   8.324   4.679  1.00  0.00     0.058 A 
ATOM     53  C   UNL     1       8.394   8.835   4.000  1.00  0.00     0.135 A 
ATOM     54  C   UNL     1       6.103   9.096   4.662  1.00  0.00     0.135 A 
ATOM     55  F   UNL     1       9.546   8.146   3.988  1.00  0.00    -0.206 F 
ATOM     56  C   UNL     1       8.351  10.062   3.340  1.00  0.00     0.059 A 
ATOM     57  C   UNL     1       6.024  10.306   3.980  1.00  0.00     0.059 A 
ATOM     58  F   UNL     1       4.999   8.656   5.285  1.00  0.00    -0.206 F 
ATOM     59  C   UNL     1       7.159  10.789   3.334  1.00  0.00     0.060 A 
BRANCH  59  60
ATOM     60  S   UNL     1       7.094  12.361   2.447  1.00  0.00     0.124 S 
ATOM     61  O   UNL     1       7.818  13.240   3.357  1.00  0.00    -0.237 OA
ATOM     62  O   UNL     1       7.771  12.038   1.195  1.00  0.00    -0.237 OA
ATOM     63  O   UNL     1       5.661  12.617   2.326  1.00  0.00    -0.744 OA
ENDBRANCH  59  60
ENDBRANCH  27  52
BRANCH  39  64
ATOM     64  C   UNL     1      10.636   5.875  10.274  1.00  0.00     0.058 A 
ATOM     65  C   UNL     1      10.181   6.774  11.249  1.00  0.00     0.135 A 
ATOM     66  C   UNL     1      12.004   5.568  10.238  1.00  0.00     0.135 A 
ATOM     67  F   UNL     1       8.881   7.104  11.312  1.00  0.00    -0.206 F 
ATOM     68  C   UNL     1      11.060   7.370  12.145  1.00  0.00     0.059 A 
ATOM     69  C   UNL     1      12.896   6.132  11.140  1.00  0.00     0.059 A 
ATOM     70  F   UNL     1      12.481   4.707   9.325  1.00  0.00    -0.206 F 
ATOM     71  C   UNL     1      12.416   7.042  12.081  1.00  0.00     0.060 A 
BRANCH  71  72
ATOM     72  S   UNL     1      13.546   7.799  13.266  1.00  0.00     0.124 S 
ATOM     73  O   UNL     1      13.701   9.138  12.706  1.00  0.00    -0.237 OA
ATOM     74  O   UNL     1      12.795   7.716  14.514  1.00  0.00    -0.237 OA
ATOM     75  O   UNL     1      14.729   6.947  13.196  1.00  0.00    -0.744 OA
ENDBRANCH  71  72
ENDBRANCH  39  64
ENDBRANCH  13  14
ENDBRANCH   6   8
ENDBRANCH   5   6
ENDBRANCH   4   5
ENDBRANCH   3   4
ENDBRANCH   2   3
ENDBRANCH   1   2
BRANCH   1  76
ATOM     76  C   UNL     1       2.830   3.356  -3.325  1.00  0.00     0.261 C 
BRANCH  76  77
ATOM     77  O   UNL     1       3.409   2.518  -4.341  1.00  0.00    -0.460 OA
BRANCH  77  78
ATOM     78  C   UNL     1       4.761   2.652  -4.501  1.00  0.00     0.339 C 
ATOM     79  O   UNL     1       5.441   3.561  -4.064  1.00  0.00    -0.246 OA
BRANCH  78  80
ATOM     80  C   UNL     1       5.340   1.466  -5.129  1.00  0.00     0.072 A 
ATOM     81  C   UNL     1       4.727   0.735  -6.127  1.00  0.00     0.082 A 
ATOM     82  C   UNL     1       6.591   0.863  -4.747  1.00  0.00     0.050 A 
ATOM     83  S   UNL     1       5.662  -0.607  -6.621  1.00  0.00    -0.130 S 
ATOM     84  C   UNL     1       6.835  -0.327  -5.404  1.00  0.00     0.141 A 
BRANCH  84  85
ATOM     85  S   UNL     1       8.115  -1.554  -5.269  1.00  0.00     0.271 S 
ATOM     86  O   UNL     1       7.451  -2.838  -5.290  1.00  0.00    -0.200 OA
ATOM     87  O   UNL     1       9.074  -1.192  -6.290  1.00  0.00    -0.200 OA
BRANCH  85  88
ATOM     88  N   UNL     1       8.909  -1.371  -3.805  1.00  0.00    -0.279 N 
ATOM     89  H   UNL     1       9.843  -1.062  -3.839  1.00  0.00     0.180 HD
BRANCH  88  90
ATOM     90  C   UNL     1       8.357  -1.620  -2.511  1.00  0.00     0.050 A 
ATOM     91  C   UNL     1       9.061  -1.051  -1.441  1.00  0.00     0.027 A 
ATOM     92  C   UNL     1       7.261  -2.443  -2.240  1.00  0.00     0.048 A 
ATOM     93  C   UNL     1       8.657  -1.258  -0.121  1.00  0.00     0.004 A 
ATOM     94  C   UNL     1       6.850  -2.649  -0.914  1.00  0.00     0.084 A 
ATOM     95  C   UNL     1       7.542  -2.047   0.144  1.00  0.00     0.022 A 
BRANCH  94  96
ATOM     96  S   UNL     1       5.405  -3.618  -0.483  1.00  0.00     0.243 S 
ATOM     97  O   UNL     1       5.896  -4.916  -0.076  1.00  0.00    -0.207 OA
ATOM     98  O   UNL     1       4.629  -2.792   0.417  1.00  0.00    -0.207 OA
BRANCH  96  99
ATOM     99  N   UNL     1       4.518  -3.800  -1.880  1.00  0.00    -0.198 NA
ATOM    100  C   UNL     1       4.457  -5.058  -2.614  1.00  0.00     0.102 C 
ATOM    101  C   UNL     1       3.944  -2.717  -2.676  1.00  0.00     0.102 C 
ATOM    102  C   UNL     1       4.609  -4.618  -4.054  1.00  0.00     0.018 C 
ATOM    103  C   UNL     1       3.933  -3.255  -4.108  1.00  0.00     0.018 C 
ENDBRANCH  96  99
ENDBRANCH  94  96
ENDBRANCH  88  90
ENDBRANCH  85  88
ENDBRANCH  84  85
ENDBRANCH  78  80
ENDBRANCH  77  78
ENDBRANCH  76  77
ENDBRANCH   1  76
TORSDOF 22
