REMARK SMILES COc1ccc(-n2c(SCC(=O)OCCOCCOC(=O)c3ccc(-c4c5nc(c(-c6c(F)cc(S(=O)(=O)[O-])cc6F)c6ccc([nH]6)c(-c6c(F)cc(S(=O)(=O)[O-])cc6F)c6nc(c(-c7c(F)cc(S(=O)(=O)[O-])cc7F)c7ccc4[nH]7)C=C6)C=C5)cc3)nc3sc4c(c3c2=O)CC[N@H+](C)C4)cc1
REMARK SMILES IDX 15 1 14 2 13 3 11 4 12 5 10 6 9 7 8 8 7 9 94 10 88 11 93 12
REMARK SMILES IDX 95 13 89 14 92 15 90 16 91 17 96 18 100 19 97 20 98 21 99 22
REMARK SMILES IDX 6 24 3 25 4 26 102 27 5 28 101 29 2 30 1 31 16 32 17 33
REMARK SMILES IDX 18 34 19 35 20 36 21 37 22 38 23 39 87 40 24 41 86 42 25 43
REMARK SMILES IDX 26 44 27 45 80 46 28 47 85 48 79 49 81 50 29 51 84 52 78 53
REMARK SMILES IDX 77 54 30 56 64 57 43 58 63 59 44 60 47 61 62 62 82 63 45 64
REMARK SMILES IDX 46 65 61 67 83 68 48 69 31 70 32 71 41 72 33 73 34 74 40 75
REMARK SMILES IDX 42 76 35 77 36 78 37 79 38 80 39 81 65 82 66 83 75 84 67 85
REMARK SMILES IDX 68 86 74 87 76 88 69 89 70 90 71 91 72 92 73 93 49 94 50 95
REMARK SMILES IDX 59 96 51 97 52 98 58 99 60 100 53 101 54 102 55 103 56 104
REMARK SMILES IDX 57 105
REMARK H PARENT 98 23 81 55 47 66
REMARK Flexibility Score: inf
ROOT
ATOM      1  C   UNL     1       4.908   2.340   3.570  1.00  0.00     0.202 C 
ENDROOT
BRANCH   1   2
ATOM      2  C   UNL     1       4.981   2.350   2.047  1.00  0.00     0.261 C 
BRANCH   2   3
ATOM      3  O   UNL     1       4.814   3.660   1.438  1.00  0.00    -0.463 OA
BRANCH   3   4
ATOM      4  C   UNL     1       4.980   3.589   0.090  1.00  0.00     0.316 C 
ATOM      5  O   UNL     1       5.392   2.564  -0.464  1.00  0.00    -0.251 OA
BRANCH   4   6
ATOM      6  C   UNL     1       4.481   4.711  -0.783  1.00  0.00     0.200 C 
BRANCH   6   7
ATOM      7  S   UNL     1       3.830   6.304  -0.397  1.00  0.00    -0.076 SA
BRANCH   7   8
ATOM      8  C   UNL     1       2.847   6.652   1.004  1.00  0.00     0.177 A 
ATOM      9  N   UNL     1       1.576   6.106   1.336  1.00  0.00    -0.255 N 
ATOM     10  C   UNL     1       0.871   6.620   2.467  1.00  0.00     0.267 A 
ATOM     11  N   UNL     1       3.350   7.699   1.596  1.00  0.00    -0.212 NA
ATOM     12  C   UNL     1       1.456   7.788   3.097  1.00  0.00     0.081 A 
ATOM     13  O   UNL     1      -0.137   6.116   2.958  1.00  0.00    -0.268 OA
ATOM     14  C   UNL     1       2.631   8.265   2.584  1.00  0.00     0.132 A 
ATOM     15  C   UNL     1       1.046   8.521   4.259  1.00  0.00    -0.008 A 
ATOM     16  S   UNL     1       3.112   9.726   3.329  1.00  0.00    -0.114 S 
ATOM     17  C   UNL     1       1.816   9.658   4.431  1.00  0.00     0.065 A 
ATOM     18  C   UNL     1      -0.069   8.211   5.218  1.00  0.00     0.099 C 
ATOM     19  C   UNL     1       1.605  10.691   5.508  1.00  0.00     0.310 C 
ATOM     20  C   UNL     1      -0.018   9.145   6.455  1.00  0.00     0.267 C 
ATOM     21  N   UNL     1       0.275  10.563   6.154  1.00  0.00    -0.333 N 
ATOM     22  C   UNL     1      -0.784  11.188   5.367  1.00  0.00     0.333 C 
ATOM     23  H   UNL     1       0.306  11.073   7.036  1.00  0.00     0.348 HD
BRANCH   9  24
ATOM     24  C   UNL     1       0.952   4.973   0.689  1.00  0.00     0.052 A 
ATOM     25  C   UNL     1      -0.211   2.521  -0.185  1.00  0.00     0.119 A 
ATOM     26  C   UNL     1      -1.010   3.627   0.103  1.00  0.00     0.048 A 
ATOM     27  C   UNL     1       1.160   2.655  -0.093  1.00  0.00     0.048 A 
ATOM     28  C   UNL     1      -0.435   4.840   0.532  1.00  0.00     0.030 A 
ATOM     29  C   UNL     1       1.699   3.853   0.368  1.00  0.00     0.030 A 
BRANCH  25  30
ATOM     30  O   UNL     1      -0.844   1.359  -0.527  1.00  0.00    -0.497 OA
ATOM     31  C   UNL     1      -0.135   0.170  -0.168  1.00  0.00     0.278 C 
ENDBRANCH  25  30
ENDBRANCH   9  24
ENDBRANCH   7   8
ENDBRANCH   6   7
ENDBRANCH   4   6
ENDBRANCH   3   4
ENDBRANCH   2   3
ENDBRANCH   1   2
BRANCH   1  32
ATOM     32  O   UNL     1       3.623   2.543   4.143  1.00  0.00    -0.374 OA
BRANCH  32  33
ATOM     33  C   UNL     1       2.924   3.734   3.824  1.00  0.00     0.202 C 
BRANCH  33  34
ATOM     34  C   UNL     1       3.598   5.090   4.069  1.00  0.00     0.261 C 
BRANCH  34  35
ATOM     35  O   UNL     1       4.850   5.063   4.724  1.00  0.00    -0.460 OA
BRANCH  35  36
ATOM     36  C   UNL     1       4.764   4.730   6.028  1.00  0.00     0.338 C 
ATOM     37  O   UNL     1       3.769   4.454   6.666  1.00  0.00    -0.246 OA
BRANCH  36  38
ATOM     38  C   UNL     1       6.136   4.662   6.521  1.00  0.00     0.060 A 
ATOM     39  C   UNL     1       6.608   3.436   6.986  1.00  0.00     0.016 A 
ATOM     40  C   UNL     1       6.912   5.821   6.567  1.00  0.00     0.016 A 
ATOM     41  C   UNL     1       7.859   3.385   7.580  1.00  0.00     0.010 A 
ATOM     42  C   UNL     1       8.151   5.771   7.187  1.00  0.00     0.010 A 
ATOM     43  C   UNL     1       8.614   4.562   7.728  1.00  0.00    -0.014 A 
BRANCH  43  44
ATOM     44  C   UNL     1       9.833   4.497   8.554  1.00  0.00     0.031 A 
ATOM     45  C   UNL     1      10.996   5.314   8.105  1.00  0.00     0.074 A 
ATOM     46  C   UNL     1       9.695   4.278   9.881  1.00  0.00     0.049 A 
ATOM     47  N   UNL     1      11.036   6.604   8.261  1.00  0.00    -0.248 NA
ATOM     48  C   UNL     1      12.057   4.789   7.249  1.00  0.00     0.031 C 
ATOM     49  C   UNL     1       8.475   4.614  10.636  1.00  0.00     0.029 A 
ATOM     50  N   UNL     1      10.615   3.963  10.849  1.00  0.00    -0.354 N 
ATOM     51  C   UNL     1      12.069   7.082   7.482  1.00  0.00     0.074 A 
ATOM     52  C   UNL     1      12.694   5.917   6.892  1.00  0.00     0.031 C 
ATOM     53  C   UNL     1       8.778   4.672  11.946  1.00  0.00     0.029 A 
ATOM     54  C   UNL     1      10.153   4.233  12.136  1.00  0.00     0.049 A 
ATOM     55  H   UNL     1      11.504   3.587  10.655  1.00  0.00     0.167 HD
ATOM     56  C   UNL     1      12.331   8.408   7.347  1.00  0.00     0.037 A 
ATOM     57  C   UNL     1      10.943   4.598  13.182  1.00  0.00     0.037 A 
ATOM     58  C   UNL     1      11.469   9.293   8.076  1.00  0.00     0.049 A 
ATOM     59  C   UNL     1      11.335   5.994  12.754  1.00  0.00     0.074 A 
ATOM     60  C   UNL     1      10.306   9.993   7.831  1.00  0.00     0.029 A 
ATOM     61  N   UNL     1      11.730   9.509   9.409  1.00  0.00    -0.354 N 
ATOM     62  N   UNL     1      10.594   7.068  12.857  1.00  0.00    -0.248 NA
ATOM     63  C   UNL     1      12.476   6.134  11.847  1.00  0.00     0.031 C 
ATOM     64  C   UNL     1       9.704  10.198   9.113  1.00  0.00     0.029 A 
ATOM     65  C   UNL     1      10.514   9.558  10.050  1.00  0.00     0.049 A 
ATOM     66  H   UNL     1      12.616   9.610   9.825  1.00  0.00     0.167 HD
ATOM     67  C   UNL     1      11.016   7.915  11.828  1.00  0.00     0.074 A 
ATOM     68  C   UNL     1      12.202   7.297  11.273  1.00  0.00     0.031 C 
ATOM     69  C   UNL     1      10.284   8.966  11.353  1.00  0.00     0.037 A 
BRANCH  56  70
ATOM     70  C   UNL     1      13.483   8.950   6.606  1.00  0.00     0.058 A 
ATOM     71  C   UNL     1      14.589   9.405   7.337  1.00  0.00     0.135 A 
ATOM     72  C   UNL     1      13.445   9.198   5.230  1.00  0.00     0.135 A 
ATOM     73  F   UNL     1      14.655   9.184   8.661  1.00  0.00    -0.206 F 
ATOM     74  C   UNL     1      15.608  10.127   6.736  1.00  0.00     0.059 A 
ATOM     75  C   UNL     1      14.459   9.920   4.602  1.00  0.00     0.059 A 
ATOM     76  F   UNL     1      12.403   8.782   4.494  1.00  0.00    -0.206 F 
ATOM     77  C   UNL     1      15.522  10.400   5.370  1.00  0.00     0.060 A 
BRANCH  77  78
ATOM     78  S   UNL     1      16.806  11.433   4.634  1.00  0.00     0.124 S 
ATOM     79  O   UNL     1      16.596  12.704   5.319  1.00  0.00    -0.237 OA
ATOM     80  O   UNL     1      18.020  10.708   4.995  1.00  0.00    -0.237 OA
ATOM     81  O   UNL     1      16.475  11.425   3.212  1.00  0.00    -0.744 OA
ENDBRANCH  77  78
ENDBRANCH  56  70
BRANCH  57  82
ATOM     82  C   UNL     1      11.912   3.531  13.595  1.00  0.00     0.058 A 
ATOM     83  C   UNL     1      11.411   2.226  13.810  1.00  0.00     0.135 A 
ATOM     84  C   UNL     1      13.296   3.691  13.752  1.00  0.00     0.135 A 
ATOM     85  F   UNL     1      10.087   2.001  13.819  1.00  0.00    -0.206 F 
ATOM     86  C   UNL     1      12.242   1.125  13.986  1.00  0.00     0.059 A 
ATOM     87  C   UNL     1      14.154   2.600  13.903  1.00  0.00     0.059 A 
ATOM     88  F   UNL     1      13.859   4.906  13.734  1.00  0.00    -0.206 F 
ATOM     89  C   UNL     1      13.619   1.317  13.979  1.00  0.00     0.060 A 
BRANCH  89  90
ATOM     90  S   UNL     1      14.688  -0.135  13.996  1.00  0.00     0.124 S 
ATOM     91  O   UNL     1      14.454  -0.666  15.334  1.00  0.00    -0.237 OA
ATOM     92  O   UNL     1      14.141  -0.923  12.894  1.00  0.00    -0.237 OA
ATOM     93  O   UNL     1      16.016   0.421  13.759  1.00  0.00    -0.744 OA
ENDBRANCH  89  90
ENDBRANCH  57  82
BRANCH  69  94
ATOM     94  C   UNL     1       9.053   9.311  12.128  1.00  0.00     0.058 A 
ATOM     95  C   UNL     1       9.157   9.910  13.392  1.00  0.00     0.135 A 
ATOM     96  C   UNL     1       7.764   9.104  11.609  1.00  0.00     0.135 A 
ATOM     97  F   UNL     1      10.363  10.144  13.934  1.00  0.00    -0.206 F 
ATOM     98  C   UNL     1       8.029  10.316  14.100  1.00  0.00     0.059 A 
ATOM     99  C   UNL     1       6.623   9.527  12.289  1.00  0.00     0.059 A 
ATOM    100  F   UNL     1       7.591   8.516  10.414  1.00  0.00    -0.206 F 
ATOM    101  C   UNL     1       6.766  10.134  13.535  1.00  0.00     0.060 A 
BRANCH 101 102
ATOM    102  S   UNL     1       5.323  10.774  14.411  1.00  0.00     0.124 S 
ATOM    103  O   UNL     1       5.175   9.814  15.499  1.00  0.00    -0.237 OA
ATOM    104  O   UNL     1       5.762  12.111  14.803  1.00  0.00    -0.237 OA
ATOM    105  O   UNL     1       4.269  10.746  13.401  1.00  0.00    -0.744 OA
ENDBRANCH 101 102
ENDBRANCH  69  94
ENDBRANCH  43  44
ENDBRANCH  36  38
ENDBRANCH  35  36
ENDBRANCH  34  35
ENDBRANCH  33  34
ENDBRANCH  32  33
ENDBRANCH   1  32
TORSDOF 21
