REMARK SMILES Cc1ccccc1-n1c(S[C@@H](C)C(=O)OCCOCCOC(=O)c2ccc(-c3c4nc(c(-c5c(F)cc(S(=O)(=O)[O-])cc5F)c5ccc([nH]5)c(-c5c(F)cc(S(=O)(=O)[O-])cc5F)c5nc(c(-c6c(F)cc(S(=O)(=O)[O-])cc6F)c6ccc3[nH]6)C=C5)C=C4)cc2)nc2sc3c(c2c1=O)C[C@@H](C(C)C)OC3
REMARK SMILES IDX 18 1 17 2 16 3 15 4 13 5 14 6 11 7 12 8 10 9 9 10 8 11 96 12
REMARK SMILES IDX 90 13 95 14 97 15 91 16 94 17 92 18 93 19 98 20 104 21 99 22
REMARK SMILES IDX 103 23 7 24 1 25 2 26 3 27 4 28 6 29 5 30 100 31 101 32
REMARK SMILES IDX 102 33 19 34 20 35 21 36 22 37 23 38 24 39 25 40 89 41 26 42
REMARK SMILES IDX 88 43 27 44 28 45 29 46 82 47 30 48 87 49 81 50 83 51 31 52
REMARK SMILES IDX 86 53 80 54 79 55 32 57 66 58 45 59 65 60 46 61 49 62 64 63
REMARK SMILES IDX 84 64 47 65 48 66 63 68 85 69 50 70 33 71 34 72 43 73 35 74
REMARK SMILES IDX 36 75 42 76 44 77 37 78 38 79 39 80 40 81 41 82 67 83 68 84
REMARK SMILES IDX 77 85 69 86 70 87 76 88 78 89 71 90 72 91 73 92 74 93 75 94
REMARK SMILES IDX 51 95 52 96 61 97 53 98 54 99 60 100 62 101 55 102 56 103
REMARK SMILES IDX 57 104 58 105 59 106
REMARK H PARENT 83 56 49 67
REMARK Flexibility Score: inf
ROOT
ATOM      1  O   UNL     1      -1.116   1.362  -4.336  1.00  0.00    -0.374 OA
ENDROOT
BRANCH   1   2
ATOM      2  C   UNL     1      -1.835   0.737  -3.292  1.00  0.00     0.202 C 
BRANCH   2   3
ATOM      3  C   UNL     1      -1.322   1.185  -1.913  1.00  0.00     0.261 C 
BRANCH   3   4
ATOM      4  O   UNL     1       0.073   1.408  -1.940  1.00  0.00    -0.462 OA
BRANCH   4   5
ATOM      5  C   UNL     1       0.690   0.209  -2.053  1.00  0.00     0.319 C 
ATOM      6  O   UNL     1       0.115  -0.850  -2.058  1.00  0.00    -0.251 OA
BRANCH   5   7
ATOM      7  C   UNL     1       2.163   0.357  -2.190  1.00  0.00     0.161 C 
ATOM      8  C   UNL     1       2.742  -0.742  -1.369  1.00  0.00     0.032 C 
BRANCH   7   9
ATOM      9  S   UNL     1       3.020   1.841  -1.727  1.00  0.00    -0.072 SA
BRANCH   9  10
ATOM     10  C   UNL     1       2.317   2.872  -0.513  1.00  0.00     0.177 A 
ATOM     11  N   UNL     1       1.534   2.546   0.619  1.00  0.00    -0.255 N 
ATOM     12  C   UNL     1       1.024   3.576   1.440  1.00  0.00     0.267 A 
ATOM     13  N   UNL     1       2.703   4.091  -0.783  1.00  0.00    -0.212 NA
ATOM     14  C   UNL     1       1.570   4.879   1.185  1.00  0.00     0.081 A 
ATOM     15  O   UNL     1       0.226   3.434   2.364  1.00  0.00    -0.268 OA
ATOM     16  C   UNL     1       2.382   5.046   0.103  1.00  0.00     0.132 A 
ATOM     17  C   UNL     1       1.465   6.048   1.976  1.00  0.00    -0.014 A 
ATOM     18  S   UNL     1       3.056   6.614   0.048  1.00  0.00    -0.117 S 
ATOM     19  C   UNL     1       2.307   7.037   1.518  1.00  0.00     0.037 A 
ATOM     20  C   UNL     1       0.711   6.238   3.245  1.00  0.00     0.070 C 
ATOM     21  C   UNL     1       2.636   8.281   2.272  1.00  0.00     0.207 C 
ATOM     22  C   UNL     1       1.523   7.164   4.164  1.00  0.00     0.125 C 
ATOM     23  O   UNL     1       1.807   8.396   3.454  1.00  0.00    -0.372 OA
BRANCH  11  24
ATOM     24  C   UNL     1       1.131   1.251   1.061  1.00  0.00     0.054 A 
ATOM     25  C   UNL     1       3.476   0.492   1.782  1.00  0.00     0.046 C 
ATOM     26  C   UNL     1       2.003   0.282   1.579  1.00  0.00    -0.027 A 
ATOM     27  C   UNL     1       1.489  -0.997   1.884  1.00  0.00     0.005 A 
ATOM     28  C   UNL     1       0.129  -1.237   1.889  1.00  0.00     0.000 A 
ATOM     29  C   UNL     1      -0.247   1.026   1.207  1.00  0.00     0.027 A 
ATOM     30  C   UNL     1      -0.730  -0.188   1.661  1.00  0.00     0.002 A 
ENDBRANCH  11  24
BRANCH  22  31
ATOM     31  C   UNL     1       2.799   6.517   4.774  1.00  0.00     0.012 C 
ATOM     32  C   UNL     1       3.470   7.499   5.737  1.00  0.00     0.010 C 
ATOM     33  C   UNL     1       2.516   5.199   5.505  1.00  0.00     0.010 C 
ENDBRANCH  22  31
ENDBRANCH   9  10
ENDBRANCH   7   9
ENDBRANCH   5   7
ENDBRANCH   4   5
ENDBRANCH   3   4
ENDBRANCH   2   3
ENDBRANCH   1   2
BRANCH   1  34
ATOM     34  C   UNL     1      -1.313   2.761  -4.500  1.00  0.00     0.202 C 
BRANCH  34  35
ATOM     35  C   UNL     1      -2.132   3.624  -3.467  1.00  0.00     0.261 C 
BRANCH  35  36
ATOM     36  O   UNL     1      -3.339   2.969  -2.905  1.00  0.00    -0.460 OA
BRANCH  36  37
ATOM     37  C   UNL     1      -3.781   3.295  -1.629  1.00  0.00     0.338 C 
ATOM     38  O   UNL     1      -3.689   4.418  -1.160  1.00  0.00    -0.246 OA
BRANCH  37  39
ATOM     39  C   UNL     1      -4.150   2.046  -0.769  1.00  0.00     0.060 A 
ATOM     40  C   UNL     1      -4.082   1.992   0.644  1.00  0.00     0.016 A 
ATOM     41  C   UNL     1      -4.333   0.817  -1.357  1.00  0.00     0.016 A 
ATOM     42  C   UNL     1      -4.051   0.729   1.422  1.00  0.00     0.010 A 
ATOM     43  C   UNL     1      -4.133  -0.384  -0.613  1.00  0.00     0.010 A 
ATOM     44  C   UNL     1      -3.980  -0.536   0.808  1.00  0.00    -0.014 A 
BRANCH  44  45
ATOM     45  C   UNL     1      -3.849  -2.094   1.413  1.00  0.00     0.031 A 
ATOM     46  C   UNL     1      -4.397  -2.949   0.286  1.00  0.00     0.074 A 
ATOM     47  C   UNL     1      -3.154  -2.781   2.461  1.00  0.00     0.049 A 
ATOM     48  N   UNL     1      -3.721  -3.337  -0.751  1.00  0.00    -0.248 NA
ATOM     49  C   UNL     1      -5.859  -2.983   0.031  1.00  0.00     0.031 C 
ATOM     50  C   UNL     1      -3.916  -3.233   3.674  1.00  0.00     0.029 A 
ATOM     51  N   UNL     1      -2.146  -3.853   2.513  1.00  0.00    -0.354 N 
ATOM     52  C   UNL     1      -4.630  -4.008  -1.587  1.00  0.00     0.074 A 
ATOM     53  C   UNL     1      -5.934  -3.532  -1.196  1.00  0.00     0.031 C 
ATOM     54  C   UNL     1      -3.468  -4.410   4.209  1.00  0.00     0.029 A 
ATOM     55  C   UNL     1      -2.298  -4.933   3.503  1.00  0.00     0.049 A 
ATOM     56  H   UNL     1      -1.381  -3.847   1.894  1.00  0.00     0.167 HD
ATOM     57  C   UNL     1      -4.293  -5.233  -2.100  1.00  0.00     0.037 A 
ATOM     58  C   UNL     1      -1.660  -6.197   3.705  1.00  0.00     0.037 A 
ATOM     59  C   UNL     1      -3.227  -5.684  -1.291  1.00  0.00     0.049 A 
ATOM     60  C   UNL     1      -0.358  -6.451   2.946  1.00  0.00     0.074 A 
ATOM     61  C   UNL     1      -3.486  -6.041  -0.006  1.00  0.00     0.029 A 
ATOM     62  N   UNL     1      -1.879  -5.545  -1.513  1.00  0.00    -0.354 N 
ATOM     63  N   UNL     1      -0.360  -7.050   1.792  1.00  0.00    -0.248 NA
ATOM     64  C   UNL     1       1.022  -6.092   3.300  1.00  0.00     0.031 C 
ATOM     65  C   UNL     1      -2.265  -5.935   0.550  1.00  0.00     0.029 A 
ATOM     66  C   UNL     1      -1.218  -5.705  -0.311  1.00  0.00     0.049 A 
ATOM     67  H   UNL     1      -1.455  -5.362  -2.382  1.00  0.00     0.167 HD
ATOM     68  C   UNL     1       0.582  -6.358   1.089  1.00  0.00     0.074 A 
ATOM     69  C   UNL     1       1.611  -6.213   2.090  1.00  0.00     0.031 C 
ATOM     70  C   UNL     1       0.222  -5.607  -0.015  1.00  0.00     0.037 A 
BRANCH  57  71
ATOM     71  C   UNL     1      -5.089  -6.345  -2.721  1.00  0.00     0.058 A 
ATOM     72  C   UNL     1      -4.892  -7.695  -2.287  1.00  0.00     0.135 A 
ATOM     73  C   UNL     1      -5.838  -6.175  -3.878  1.00  0.00     0.135 A 
ATOM     74  F   UNL     1      -4.262  -8.024  -1.152  1.00  0.00    -0.206 F 
ATOM     75  C   UNL     1      -5.284  -8.793  -3.014  1.00  0.00     0.059 A 
ATOM     76  C   UNL     1      -6.265  -7.282  -4.624  1.00  0.00     0.059 A 
ATOM     77  F   UNL     1      -6.109  -4.942  -4.333  1.00  0.00    -0.206 F 
ATOM     78  C   UNL     1      -5.935  -8.578  -4.207  1.00  0.00     0.060 A 
BRANCH  78  79
ATOM     79  S   UNL     1      -6.264 -10.035  -5.201  1.00  0.00     0.124 S 
ATOM     80  O   UNL     1      -4.915 -10.480  -5.537  1.00  0.00    -0.237 OA
ATOM     81  O   UNL     1      -7.004 -10.883  -4.273  1.00  0.00    -0.237 OA
ATOM     82  O   UNL     1      -7.043  -9.504  -6.315  1.00  0.00    -0.744 OA
ENDBRANCH  78  79
ENDBRANCH  57  71
BRANCH  58  83
ATOM     83  C   UNL     1      -2.387  -7.626   3.909  1.00  0.00     0.058 A 
ATOM     84  C   UNL     1      -2.470  -8.340   5.116  1.00  0.00     0.135 A 
ATOM     85  C   UNL     1      -2.746  -8.459   2.792  1.00  0.00     0.135 A 
ATOM     86  F   UNL     1      -2.024  -7.780   6.251  1.00  0.00    -0.206 F 
ATOM     87  C   UNL     1      -2.965  -9.687   5.200  1.00  0.00     0.059 A 
ATOM     88  C   UNL     1      -3.215  -9.774   2.840  1.00  0.00     0.059 A 
ATOM     89  F   UNL     1      -2.596  -8.086   1.530  1.00  0.00    -0.206 F 
ATOM     90  C   UNL     1      -3.360 -10.386   4.053  1.00  0.00     0.060 A 
BRANCH  90  91
ATOM     91  S   UNL     1      -4.098 -12.042   4.111  1.00  0.00     0.124 S 
ATOM     92  O   UNL     1      -3.024 -12.848   4.682  1.00  0.00    -0.237 OA
ATOM     93  O   UNL     1      -5.252 -11.821   4.977  1.00  0.00    -0.237 OA
ATOM     94  O   UNL     1      -4.421 -12.339   2.718  1.00  0.00    -0.744 OA
ENDBRANCH  90  91
ENDBRANCH  58  83
BRANCH  70  95
ATOM     95  C   UNL     1       1.197  -4.710  -0.732  1.00  0.00     0.058 A 
ATOM     96  C   UNL     1       2.411  -4.282  -0.167  1.00  0.00     0.135 A 
ATOM     97  C   UNL     1       1.006  -4.302  -2.064  1.00  0.00     0.135 A 
ATOM     98  F   UNL     1       2.576  -4.183   1.160  1.00  0.00    -0.206 F 
ATOM     99  C   UNL     1       3.478  -3.826  -0.931  1.00  0.00     0.059 A 
ATOM    100  C   UNL     1       2.030  -3.775  -2.844  1.00  0.00     0.059 A 
ATOM    101  F   UNL     1      -0.184  -4.363  -2.671  1.00  0.00    -0.206 F 
ATOM    102  C   UNL     1       3.298  -3.635  -2.294  1.00  0.00     0.060 A 
BRANCH 102 103
ATOM    103  S   UNL     1       4.610  -2.893  -3.284  1.00  0.00     0.124 S 
ATOM    104  O   UNL     1       5.513  -2.334  -2.280  1.00  0.00    -0.237 OA
ATOM    105  O   UNL     1       5.120  -4.050  -4.007  1.00  0.00    -0.237 OA
ATOM    106  O   UNL     1       3.888  -1.902  -4.077  1.00  0.00    -0.744 OA
ENDBRANCH 102 103
ENDBRANCH  70  95
ENDBRANCH  44  45
ENDBRANCH  37  39
ENDBRANCH  36  37
ENDBRANCH  35  36
ENDBRANCH  34  35
ENDBRANCH   1  34
TORSDOF 21
