REMARK SMILES CC(C)Cc1ccc([C@@H](C)C(=O)OCCOCCOC(=O)c2ccc(-c3c4nc(c(-c5c(F)cc(S(=O)(=O)[O-])cc5F)c5ccc([nH]5)c(-c5c(F)cc(S(=O)(=O)[O-])cc5F)c5nc(c(-c6c(F)cc(S(=O)(=O)[O-])cc6F)c6ccc3[nH]6)C=C5)C=C4)cc2)cc1
REMARK SMILES IDX 16 1 15 2 14 3 13 4 11 5 12 6 9 7 10 8 8 9 5 10 6 11 89 12
REMARK SMILES IDX 7 13 88 14 4 15 2 16 1 17 3 18 17 19 18 20 19 21 20 22 21 23
REMARK SMILES IDX 22 24 23 25 87 26 24 27 86 28 25 29 26 30 27 31 80 32 28 33
REMARK SMILES IDX 85 34 79 35 81 36 29 37 84 38 78 39 77 40 30 42 64 43 43 44
REMARK SMILES IDX 63 45 44 46 47 47 62 48 82 49 45 50 46 51 61 53 83 54 48 55
REMARK SMILES IDX 31 56 32 57 41 58 33 59 34 60 40 61 42 62 35 63 36 64 37 65
REMARK SMILES IDX 38 66 39 67 65 68 66 69 75 70 67 71 68 72 74 73 76 74 69 75
REMARK SMILES IDX 70 76 71 77 72 78 73 79 49 80 50 81 59 82 51 83 52 84 58 85
REMARK SMILES IDX 60 86 53 87 54 88 55 89 56 90 57 91
REMARK H PARENT 81 41 47 52
REMARK Flexibility Score: inf
ROOT
ATOM      1  O   UNL     1       0.518  -0.206  -6.662  1.00  0.00    -0.374 OA
ENDROOT
BRANCH   1   2
ATOM      2  C   UNL     1       0.364   1.204  -6.499  1.00  0.00     0.202 C 
BRANCH   2   3
ATOM      3  C   UNL     1      -1.064   1.746  -6.600  1.00  0.00     0.261 C 
BRANCH   3   4
ATOM      4  O   UNL     1      -1.887   1.278  -5.516  1.00  0.00    -0.463 OA
BRANCH   4   5
ATOM      5  C   UNL     1      -2.927   0.475  -5.862  1.00  0.00     0.313 C 
ATOM      6  O   UNL     1      -3.261   0.232  -7.019  1.00  0.00    -0.252 OA
BRANCH   5   7
ATOM      7  C   UNL     1      -3.700  -0.081  -4.678  1.00  0.00     0.126 C 
ATOM      8  C   UNL     1      -4.925   0.798  -4.430  1.00  0.00     0.025 C 
BRANCH   7   9
ATOM      9  C   UNL     1      -2.930  -0.376  -3.394  1.00  0.00    -0.034 A 
ATOM     10  C   UNL     1      -1.739  -0.993  -0.890  1.00  0.00    -0.048 A 
ATOM     11  C   UNL     1      -1.871   0.334  -1.318  1.00  0.00     0.004 A 
ATOM     12  C   UNL     1      -2.158  -2.014  -1.749  1.00  0.00     0.004 A 
ATOM     13  C   UNL     1      -2.454   0.640  -2.555  1.00  0.00     0.005 A 
ATOM     14  C   UNL     1      -2.748  -1.708  -2.982  1.00  0.00     0.005 A 
BRANCH  10  15
ATOM     15  C   UNL     1      -1.206  -1.309   0.490  1.00  0.00     0.038 C 
BRANCH  15  16
ATOM     16  C   UNL     1       0.306  -1.593   0.578  1.00  0.00    -0.013 C 
ATOM     17  C   UNL     1       1.145  -0.411   0.102  1.00  0.00     0.008 C 
ATOM     18  C   UNL     1       0.689  -1.931   2.022  1.00  0.00     0.008 C 
ENDBRANCH  15  16
ENDBRANCH  10  15
ENDBRANCH   7   9
ENDBRANCH   5   7
ENDBRANCH   4   5
ENDBRANCH   3   4
ENDBRANCH   2   3
ENDBRANCH   1   2
BRANCH   1  19
ATOM     19  C   UNL     1       0.140  -1.040  -5.567  1.00  0.00     0.202 C 
BRANCH  19  20
ATOM     20  C   UNL     1       1.107  -1.110  -4.380  1.00  0.00     0.261 C 
BRANCH  20  21
ATOM     21  O   UNL     1       1.266   0.159  -3.724  1.00  0.00    -0.460 OA
BRANCH  21  22
ATOM     22  C   UNL     1       2.470   0.742  -3.915  1.00  0.00     0.338 C 
ATOM     23  O   UNL     1       3.426   0.267  -4.522  1.00  0.00    -0.246 OA
BRANCH  22  24
ATOM     24  C   UNL     1       2.473   2.131  -3.418  1.00  0.00     0.060 A 
ATOM     25  C   UNL     1       3.130   3.089  -4.199  1.00  0.00     0.016 A 
ATOM     26  C   UNL     1       1.941   2.483  -2.175  1.00  0.00     0.016 A 
ATOM     27  C   UNL     1       3.353   4.365  -3.692  1.00  0.00     0.010 A 
ATOM     28  C   UNL     1       2.172   3.760  -1.660  1.00  0.00     0.010 A 
ATOM     29  C   UNL     1       2.933   4.682  -2.394  1.00  0.00    -0.014 A 
BRANCH  29  30
ATOM     30  C   UNL     1       3.471   5.899  -1.747  1.00  0.00     0.031 A 
ATOM     31  C   UNL     1       4.686   5.768  -0.868  1.00  0.00     0.074 A 
ATOM     32  C   UNL     1       2.923   7.101  -1.989  1.00  0.00     0.049 A 
ATOM     33  N   UNL     1       5.377   6.699  -0.265  1.00  0.00    -0.248 NA
ATOM     34  C   UNL     1       5.188   4.403  -0.638  1.00  0.00     0.031 C 
ATOM     35  C   UNL     1       1.754   7.341  -2.834  1.00  0.00     0.029 A 
ATOM     36  N   UNL     1       3.288   8.347  -1.552  1.00  0.00    -0.354 N 
ATOM     37  C   UNL     1       6.399   6.036   0.405  1.00  0.00     0.074 A 
ATOM     38  C   UNL     1       6.210   4.621   0.175  1.00  0.00     0.031 C 
ATOM     39  C   UNL     1       1.501   8.661  -2.860  1.00  0.00     0.029 A 
ATOM     40  C   UNL     1       2.483   9.353  -2.027  1.00  0.00     0.049 A 
ATOM     41  H   UNL     1       4.053   8.506  -0.953  1.00  0.00     0.167 HD
ATOM     42  C   UNL     1       7.416   6.561   1.130  1.00  0.00     0.037 A 
ATOM     43  C   UNL     1       2.543  10.682  -1.818  1.00  0.00     0.037 A 
ATOM     44  C   UNL     1       7.591   7.971   1.360  1.00  0.00     0.049 A 
ATOM     45  C   UNL     1       3.662  11.242  -0.981  1.00  0.00     0.074 A 
ATOM     46  C   UNL     1       8.584   8.613   2.079  1.00  0.00     0.029 A 
ATOM     47  N   UNL     1       6.745   8.958   0.875  1.00  0.00    -0.354 N 
ATOM     48  N   UNL     1       4.641  10.608  -0.379  1.00  0.00    -0.248 NA
ATOM     49  C   UNL     1       3.695  12.701  -0.809  1.00  0.00     0.031 C 
ATOM     50  C   UNL     1       8.319   9.987   2.055  1.00  0.00     0.029 A 
ATOM     51  C   UNL     1       7.187  10.204   1.285  1.00  0.00     0.049 A 
ATOM     52  H   UNL     1       5.948   8.796   0.320  1.00  0.00     0.167 HD
ATOM     53  C   UNL     1       5.427  11.592   0.212  1.00  0.00     0.074 A 
ATOM     54  C   UNL     1       4.809  12.863  -0.107  1.00  0.00     0.031 C 
ATOM     55  C   UNL     1       6.561  11.458   0.944  1.00  0.00     0.037 A 
BRANCH  42  56
ATOM     56  C   UNL     1       8.402   5.598   1.732  1.00  0.00     0.058 A 
ATOM     57  C   UNL     1       9.323   4.895   0.938  1.00  0.00     0.135 A 
ATOM     58  C   UNL     1       8.428   5.372   3.118  1.00  0.00     0.135 A 
ATOM     59  F   UNL     1       9.329   5.060  -0.395  1.00  0.00    -0.206 F 
ATOM     60  C   UNL     1      10.209   3.976   1.490  1.00  0.00     0.059 A 
ATOM     61  C   UNL     1       9.323   4.475   3.695  1.00  0.00     0.059 A 
ATOM     62  F   UNL     1       7.569   6.014   3.924  1.00  0.00    -0.206 F 
ATOM     63  C   UNL     1      10.197   3.767   2.870  1.00  0.00     0.060 A 
BRANCH  63  64
ATOM     64  S   UNL     1      11.337   2.557   3.573  1.00  0.00     0.124 S 
ATOM     65  O   UNL     1      10.694   1.301   3.198  1.00  0.00    -0.237 OA
ATOM     66  O   UNL     1      12.585   2.860   2.881  1.00  0.00    -0.237 OA
ATOM     67  O   UNL     1      11.324   2.867   4.999  1.00  0.00    -0.744 OA
ENDBRANCH  63  64
ENDBRANCH  42  56
BRANCH  43  68
ATOM     68  C   UNL     1       1.535  11.573  -2.447  1.00  0.00     0.058 A 
ATOM     69  C   UNL     1       1.879  12.412  -3.517  1.00  0.00     0.135 A 
ATOM     70  C   UNL     1       0.203  11.587  -2.005  1.00  0.00     0.135 A 
ATOM     71  F   UNL     1       3.141  12.436  -3.970  1.00  0.00    -0.206 F 
ATOM     72  C   UNL     1       0.941  13.242  -4.122  1.00  0.00     0.059 A 
ATOM     73  C   UNL     1      -0.758  12.393  -2.607  1.00  0.00     0.059 A 
ATOM     74  F   UNL     1      -0.179  10.791  -0.994  1.00  0.00    -0.206 F 
ATOM     75  C   UNL     1      -0.377  13.223  -3.661  1.00  0.00     0.060 A 
BRANCH  75  76
ATOM     76  S   UNL     1      -1.600  14.261  -4.491  1.00  0.00     0.124 S 
ATOM     77  O   UNL     1      -1.248  15.585  -3.993  1.00  0.00    -0.237 OA
ATOM     78  O   UNL     1      -1.312  14.009  -5.899  1.00  0.00    -0.237 OA
ATOM     79  O   UNL     1      -2.872  13.724  -4.015  1.00  0.00    -0.744 OA
ENDBRANCH  75  76
ENDBRANCH  43  68
BRANCH  55  80
ATOM     80  C   UNL     1       7.232  12.719   1.409  1.00  0.00     0.058 A 
ATOM     81  C   UNL     1       6.708  13.496   2.453  1.00  0.00     0.135 A 
ATOM     82  C   UNL     1       8.441  13.132   0.825  1.00  0.00     0.135 A 
ATOM     83  F   UNL     1       5.553  13.146   3.042  1.00  0.00    -0.206 F 
ATOM     84  C   UNL     1       7.343  14.656   2.883  1.00  0.00     0.059 A 
ATOM     85  C   UNL     1       9.106  14.275   1.256  1.00  0.00     0.059 A 
ATOM     86  F   UNL     1       8.991  12.417  -0.169  1.00  0.00    -0.206 F 
ATOM     87  C   UNL     1       8.541  15.039   2.276  1.00  0.00     0.060 A 
BRANCH  87  88
ATOM     88  S   UNL     1       9.368  16.537   2.854  1.00  0.00     0.124 S 
ATOM     89  O   UNL     1       8.555  17.578   2.235  1.00  0.00    -0.237 OA
ATOM     90  O   UNL     1       9.252  16.421   4.305  1.00  0.00    -0.237 OA
ATOM     91  O   UNL     1      10.723  16.399   2.328  1.00  0.00    -0.744 OA
ENDBRANCH  87  88
ENDBRANCH  55  80
ENDBRANCH  29  30
ENDBRANCH  22  24
ENDBRANCH  21  22
ENDBRANCH  20  21
ENDBRANCH  19  20
ENDBRANCH   1  19
TORSDOF 20
