REMARK SMILES Cc1ccc(F)c(C(=O)N[C@@H]2C=C[C@@H](C(=O)OCCOCCOC(=O)c3ccc(-c4c5nc(c(-c6c(F)cc(S(=O)(=O)[O-])cc6F)c6ccc([nH]6)c(-c6c(F)cc(S(=O)(=O)[O-])cc6F)c6nc(c(-c7c(F)cc(S(=O)(=O)[O-])cc7F)c7ccc4[nH]7)C=C6)C=C5)cc3)C2)c1
REMARK SMILES IDX 21 1 20 2 19 3 18 4 17 5 15 6 16 7 14 8 11 9 12 10 92 11
REMARK SMILES IDX 13 12 10 13 8 14 9 15 7 17 1 18 2 19 3 20 93 21 4 22 5 23
REMARK SMILES IDX 6 24 22 25 23 26 24 27 25 28 26 29 27 30 91 31 28 32 90 33
REMARK SMILES IDX 29 34 30 35 31 36 84 37 32 38 89 39 83 40 85 41 33 42 88 43
REMARK SMILES IDX 82 44 81 45 34 47 68 48 47 49 67 50 48 51 51 52 66 53 86 54
REMARK SMILES IDX 49 55 50 56 65 58 87 59 52 60 35 61 36 62 45 63 37 64 38 65
REMARK SMILES IDX 44 66 46 67 39 68 40 69 41 70 42 71 43 72 69 73 70 74 79 75
REMARK SMILES IDX 71 76 72 77 78 78 80 79 73 80 74 81 75 82 76 83 77 84 53 85
REMARK SMILES IDX 54 86 63 87 55 88 56 89 62 90 64 91 57 92 58 93 59 94 60 95
REMARK SMILES IDX 61 96
REMARK H PARENT 10 16 85 46 51 57
REMARK Flexibility Score: inf
ROOT
ATOM      1  C   UNL     1       3.175  -7.609   3.350  1.00  0.00     0.202 C 
ENDROOT
BRANCH   1   2
ATOM      2  O   UNL     1       3.452  -7.445   4.743  1.00  0.00    -0.374 OA
BRANCH   2   3
ATOM      3  C   UNL     1       2.467  -6.779   5.535  1.00  0.00     0.202 C 
BRANCH   3   4
ATOM      4  C   UNL     1       2.362  -5.264   5.326  1.00  0.00     0.261 C 
BRANCH   4   5
ATOM      5  O   UNL     1       2.129  -4.931   3.947  1.00  0.00    -0.463 OA
BRANCH   5   6
ATOM      6  C   UNL     1       2.870  -3.903   3.455  1.00  0.00     0.312 C 
ATOM      7  O   UNL     1       3.590  -3.179   4.137  1.00  0.00    -0.252 OA
BRANCH   6   8
ATOM      8  C   UNL     1       2.769  -3.751   1.937  1.00  0.00     0.124 C 
ATOM      9  C   UNL     1       1.017  -3.813   0.191  1.00  0.00     0.106 C 
ATOM     10  C   UNL     1       1.271  -2.429   0.695  1.00  0.00    -0.006 C 
ATOM     11  C   UNL     1       1.820  -4.686   1.168  1.00  0.00     0.048 C 
ATOM     12  C   UNL     1       2.236  -2.388   1.618  1.00  0.00    -0.014 C 
BRANCH   9  13
ATOM     13  N   UNL     1       1.448  -3.836  -1.195  1.00  0.00    -0.346 N 
ATOM     14  C   UNL     1       1.498  -4.821  -2.147  1.00  0.00     0.254 C 
ATOM     15  O   UNL     1       1.764  -4.496  -3.303  1.00  0.00    -0.269 OA
ATOM     16  H   UNL     1       1.771  -2.963  -1.518  1.00  0.00     0.164 HD
BRANCH  14  17
ATOM     17  C   UNL     1       1.287  -6.247  -1.827  1.00  0.00     0.075 A 
ATOM     18  C   UNL     1      -0.946  -8.522   0.241  1.00  0.00     0.044 C 
ATOM     19  C   UNL     1       0.132  -8.057  -0.689  1.00  0.00    -0.050 A 
ATOM     20  C   UNL     1       0.997  -8.984  -1.282  1.00  0.00     0.006 A 
ATOM     21  C   UNL     1       0.254  -6.693  -0.999  1.00  0.00     0.020 A 
ATOM     22  C   UNL     1       1.995  -8.549  -2.149  1.00  0.00     0.040 A 
ATOM     23  C   UNL     1       2.141  -7.188  -2.410  1.00  0.00     0.135 A 
ATOM     24  F   UNL     1       3.144  -6.813  -3.217  1.00  0.00    -0.206 F 
ENDBRANCH  14  17
ENDBRANCH   9  13
ENDBRANCH   6   8
ENDBRANCH   5   6
ENDBRANCH   4   5
ENDBRANCH   3   4
ENDBRANCH   2   3
ENDBRANCH   1   2
BRANCH   1  25
ATOM     25  C   UNL     1       1.997  -8.526   3.003  1.00  0.00     0.261 C 
BRANCH  25  26
ATOM     26  O   UNL     1       0.734  -7.985   3.437  1.00  0.00    -0.460 OA
BRANCH  26  27
ATOM     27  C   UNL     1      -0.146  -8.928   3.860  1.00  0.00     0.338 C 
ATOM     28  O   UNL     1      -0.023 -10.137   3.770  1.00  0.00    -0.246 OA
BRANCH  27  29
ATOM     29  C   UNL     1      -1.298  -8.304   4.534  1.00  0.00     0.060 A 
ATOM     30  C   UNL     1      -1.343  -8.295   5.931  1.00  0.00     0.016 A 
ATOM     31  C   UNL     1      -2.406  -7.894   3.790  1.00  0.00     0.016 A 
ATOM     32  C   UNL     1      -2.518  -7.908   6.585  1.00  0.00     0.010 A 
ATOM     33  C   UNL     1      -3.573  -7.494   4.445  1.00  0.00     0.010 A 
ATOM     34  C   UNL     1      -3.650  -7.535   5.845  1.00  0.00    -0.014 A 
BRANCH  34  35
ATOM     35  C   UNL     1      -4.947  -7.277   6.522  1.00  0.00     0.031 A 
ATOM     36  C   UNL     1      -6.031  -8.322   6.488  1.00  0.00     0.074 A 
ATOM     37  C   UNL     1      -5.166  -6.101   7.137  1.00  0.00     0.049 A 
ATOM     38  N   UNL     1      -7.234  -8.281   7.001  1.00  0.00    -0.248 NA
ATOM     39  C   UNL     1      -5.725  -9.573   5.774  1.00  0.00     0.031 C 
ATOM     40  C   UNL     1      -4.210  -4.997   7.214  1.00  0.00     0.029 A 
ATOM     41  N   UNL     1      -6.272  -5.635   7.801  1.00  0.00    -0.354 N 
ATOM     42  C   UNL     1      -7.832  -9.491   6.668  1.00  0.00     0.074 A 
ATOM     43  C   UNL     1      -6.869 -10.235   5.884  1.00  0.00     0.031 C 
ATOM     44  C   UNL     1      -4.776  -3.975   7.877  1.00  0.00     0.029 A 
ATOM     45  C   UNL     1      -6.137  -4.347   8.259  1.00  0.00     0.049 A 
ATOM     46  H   UNL     1      -7.087  -6.172   7.935  1.00  0.00     0.167 HD
ATOM     47  C   UNL     1      -9.065  -9.947   6.996  1.00  0.00     0.037 A 
ATOM     48  C   UNL     1      -7.014  -3.553   8.905  1.00  0.00     0.037 A 
ATOM     49  C   UNL     1     -10.016  -9.218   7.794  1.00  0.00     0.049 A 
ATOM     50  C   UNL     1      -8.376  -4.082   9.261  1.00  0.00     0.074 A 
ATOM     51  C   UNL     1     -11.260  -9.631   8.241  1.00  0.00     0.029 A 
ATOM     52  N   UNL     1      -9.834  -7.925   8.259  1.00  0.00    -0.354 N 
ATOM     53  N   UNL     1      -8.895  -5.260   9.006  1.00  0.00    -0.248 NA
ATOM     54  C   UNL     1      -9.269  -3.179  10.001  1.00  0.00     0.031 C 
ATOM     55  C   UNL     1     -11.845  -8.573   8.947  1.00  0.00     0.029 A 
ATOM     56  C   UNL     1     -10.951  -7.515   8.967  1.00  0.00     0.049 A 
ATOM     57  H   UNL     1      -9.029  -7.379   8.107  1.00  0.00     0.167 HD
ATOM     58  C   UNL     1     -10.165  -5.245   9.572  1.00  0.00     0.074 A 
ATOM     59  C   UNL     1     -10.334  -3.946  10.190  1.00  0.00     0.031 C 
ATOM     60  C   UNL     1     -11.106  -6.221   9.580  1.00  0.00     0.037 A 
BRANCH  47  61
ATOM     61  C   UNL     1      -9.463 -11.305   6.494  1.00  0.00     0.058 A 
ATOM     62  C   UNL     1      -8.957 -12.479   7.074  1.00  0.00     0.135 A 
ATOM     63  C   UNL     1     -10.401 -11.435   5.457  1.00  0.00     0.135 A 
ATOM     64  F   UNL     1      -8.048 -12.408   8.059  1.00  0.00    -0.206 F 
ATOM     65  C   UNL     1      -9.354 -13.736   6.631  1.00  0.00     0.059 A 
ATOM     66  C   UNL     1     -10.826 -12.683   5.011  1.00  0.00     0.059 A 
ATOM     67  F   UNL     1     -10.913 -10.343   4.869  1.00  0.00    -0.206 F 
ATOM     68  C   UNL     1     -10.287 -13.828   5.597  1.00  0.00     0.060 A 
BRANCH  68  69
ATOM     69  S   UNL     1     -10.803 -15.466   5.039  1.00  0.00     0.124 S 
ATOM     70  O   UNL     1      -9.654 -15.873   4.235  1.00  0.00    -0.237 OA
ATOM     71  O   UNL     1     -10.983 -16.186   6.295  1.00  0.00    -0.237 OA
ATOM     72  O   UNL     1     -12.029 -15.199   4.292  1.00  0.00    -0.744 OA
ENDBRANCH  68  69
ENDBRANCH  47  61
BRANCH  48  73
ATOM     73  C   UNL     1      -6.625  -2.166   9.264  1.00  0.00     0.058 A 
ATOM     74  C   UNL     1      -6.336  -1.817  10.591  1.00  0.00     0.135 A 
ATOM     75  C   UNL     1      -6.528  -1.167   8.284  1.00  0.00     0.135 A 
ATOM     76  F   UNL     1      -6.422  -2.740  11.561  1.00  0.00    -0.206 F 
ATOM     77  C   UNL     1      -5.977  -0.519  10.938  1.00  0.00     0.059 A 
ATOM     78  C   UNL     1      -6.153   0.133   8.604  1.00  0.00     0.059 A 
ATOM     79  F   UNL     1      -6.782  -1.459   6.999  1.00  0.00    -0.206 F 
ATOM     80  C   UNL     1      -5.889   0.449   9.937  1.00  0.00     0.060 A 
BRANCH  80  81
ATOM     81  S   UNL     1      -5.371   2.121  10.383  1.00  0.00     0.124 S 
ATOM     82  O   UNL     1      -6.607   2.675  10.924  1.00  0.00    -0.237 OA
ATOM     83  O   UNL     1      -4.307   1.869  11.350  1.00  0.00    -0.237 OA
ATOM     84  O   UNL     1      -4.929   2.681   9.110  1.00  0.00    -0.744 OA
ENDBRANCH  80  81
ENDBRANCH  48  73
BRANCH  60  85
ATOM     85  C   UNL     1     -12.394  -5.933  10.297  1.00  0.00     0.058 A 
ATOM     86  C   UNL     1     -13.379  -5.110   9.732  1.00  0.00     0.135 A 
ATOM     87  C   UNL     1     -12.664  -6.524  11.542  1.00  0.00     0.135 A 
ATOM     88  F   UNL     1     -13.165  -4.517   8.546  1.00  0.00    -0.206 F 
ATOM     89  C   UNL     1     -14.582  -4.865  10.386  1.00  0.00     0.059 A 
ATOM     90  C   UNL     1     -13.868  -6.308  12.204  1.00  0.00     0.059 A 
ATOM     91  F   UNL     1     -11.757  -7.327  12.120  1.00  0.00    -0.206 F 
ATOM     92  C   UNL     1     -14.817  -5.467  11.623  1.00  0.00     0.060 A 
BRANCH  92  93
ATOM     93  S   UNL     1     -16.394  -5.170  12.452  1.00  0.00     0.124 S 
ATOM     94  O   UNL     1     -16.174  -3.851  13.035  1.00  0.00    -0.237 OA
ATOM     95  O   UNL     1     -17.348  -5.225  11.349  1.00  0.00    -0.237 OA
ATOM     96  O   UNL     1     -16.486  -6.272  13.405  1.00  0.00    -0.744 OA
ENDBRANCH  92  93
ENDBRANCH  60  85
ENDBRANCH  34  35
ENDBRANCH  27  29
ENDBRANCH  26  27
ENDBRANCH  25  26
ENDBRANCH   1  25
TORSDOF 19
