REMARK SMILES O=C(OCCOCCOC(=O)c1cccc(N[C@H]2CCCC[C@@H]2O)c1)c1ccc(-c2c3nc(c(-c4c(F)cc(S(=O)(=O)[O-])cc4F)c4ccc([nH]4)c(-c4c(F)cc(S(=O)(=O)[O-])cc4F)c4nc(c(-c5c(F)cc(S(=O)(=O)[O-])cc5F)c5ccc2[nH]5)C=C4)C=C3)cc1
REMARK SMILES IDX 6 1 5 2 4 3 3 4 2 5 1 6 26 7 27 8 91 9 28 10 90 11 29 12
REMARK SMILES IDX 30 13 31 14 84 15 32 16 89 17 83 18 85 19 33 20 88 21 82 22
REMARK SMILES IDX 81 23 34 25 68 26 47 27 67 28 48 29 51 30 66 31 86 32 49 33
REMARK SMILES IDX 50 34 65 36 87 37 52 38 35 39 36 40 45 41 37 42 38 43 44 44
REMARK SMILES IDX 46 45 39 46 40 47 41 48 42 49 43 50 69 51 70 52 79 53 71 54
REMARK SMILES IDX 72 55 78 56 80 57 73 58 74 59 75 60 76 61 77 62 53 63 54 64
REMARK SMILES IDX 63 65 55 66 56 67 62 68 64 69 57 70 58 71 59 72 60 73 61 74
REMARK SMILES IDX 7 75 8 76 9 77 10 78 11 79 12 80 13 81 25 82 14 83 16 84
REMARK SMILES IDX 15 85 17 86 18 88 19 89 23 90 20 91 22 92 21 93 24 94
REMARK H PARENT 85 24 51 35 17 87 24 95
REMARK Flexibility Score: inf
ROOT
ATOM      1  O   UNL     1       4.023  -0.346   1.577  1.00  0.00    -0.374 OA
ENDROOT
BRANCH   1   2
ATOM      2  C   UNL     1       4.316   1.020   1.297  1.00  0.00     0.202 C 
BRANCH   2   3
ATOM      3  C   UNL     1       4.058   1.451  -0.148  1.00  0.00     0.261 C 
BRANCH   3   4
ATOM      4  O   UNL     1       2.686   1.223  -0.503  1.00  0.00    -0.460 OA
BRANCH   4   5
ATOM      5  C   UNL     1       2.193   0.246  -1.301  1.00  0.00     0.338 C 
ATOM      6  O   UNL     1       0.991   0.250  -1.562  1.00  0.00    -0.246 OA
BRANCH   5   7
ATOM      7  C   UNL     1       3.031  -0.854  -1.867  1.00  0.00     0.060 A 
ATOM      8  C   UNL     1       4.168  -1.377  -1.250  1.00  0.00     0.016 A 
ATOM      9  C   UNL     1       2.570  -1.480  -3.036  1.00  0.00     0.016 A 
ATOM     10  C   UNL     1       4.846  -2.465  -1.766  1.00  0.00     0.010 A 
ATOM     11  C   UNL     1       3.223  -2.607  -3.545  1.00  0.00     0.010 A 
ATOM     12  C   UNL     1       4.356  -3.104  -2.895  1.00  0.00    -0.014 A 
BRANCH  12  13
ATOM     13  C   UNL     1       5.095  -4.281  -3.369  1.00  0.00     0.031 A 
ATOM     14  C   UNL     1       5.982  -4.129  -4.559  1.00  0.00     0.074 A 
ATOM     15  C   UNL     1       5.047  -5.412  -2.640  1.00  0.00     0.049 A 
ATOM     16  N   UNL     1       6.667  -5.037  -5.191  1.00  0.00    -0.248 NA
ATOM     17  C   UNL     1       6.132  -2.766  -5.102  1.00  0.00     0.031 C 
ATOM     18  C   UNL     1       4.306  -5.575  -1.383  1.00  0.00     0.029 A 
ATOM     19  N   UNL     1       5.644  -6.628  -2.829  1.00  0.00    -0.354 N 
ATOM     20  C   UNL     1       7.294  -4.371  -6.233  1.00  0.00     0.074 A 
ATOM     21  C   UNL     1       6.930  -2.976  -6.139  1.00  0.00     0.031 C 
ATOM     22  C   UNL     1       4.495  -6.819  -0.917  1.00  0.00     0.029 A 
ATOM     23  C   UNL     1       5.297  -7.562  -1.880  1.00  0.00     0.049 A 
ATOM     24  H   UNL     1       6.263  -6.817  -3.571  1.00  0.00     0.167 HD
ATOM     25  C   UNL     1       8.086  -4.903  -7.188  1.00  0.00     0.037 A 
ATOM     26  C   UNL     1       5.553  -8.883  -1.840  1.00  0.00     0.037 A 
ATOM     27  C   UNL     1       8.428  -6.298  -7.227  1.00  0.00     0.049 A 
ATOM     28  C   UNL     1       6.357  -9.462  -2.975  1.00  0.00     0.074 A 
ATOM     29  C   UNL     1       9.200  -6.971  -8.154  1.00  0.00     0.029 A 
ATOM     30  N   UNL     1       8.008  -7.237  -6.292  1.00  0.00    -0.354 N 
ATOM     31  N   UNL     1       6.921  -8.837  -3.985  1.00  0.00    -0.248 NA
ATOM     32  C   UNL     1       6.541 -10.917  -2.987  1.00  0.00     0.031 C 
ATOM     33  C   UNL     1       9.195  -8.326  -7.814  1.00  0.00     0.029 A 
ATOM     34  C   UNL     1       8.470  -8.491  -6.641  1.00  0.00     0.049 A 
ATOM     35  H   UNL     1       7.461  -7.037  -5.498  1.00  0.00     0.167 HD
ATOM     36  C   UNL     1       7.532  -9.822  -4.748  1.00  0.00     0.074 A 
ATOM     37  C   UNL     1       7.296 -11.079  -4.064  1.00  0.00     0.031 C 
ATOM     38  C   UNL     1       8.214  -9.710  -5.915  1.00  0.00     0.037 A 
BRANCH  25  39
ATOM     39  C   UNL     1       8.552  -4.005  -8.294  1.00  0.00     0.058 A 
ATOM     40  C   UNL     1       9.560  -3.047  -8.112  1.00  0.00     0.135 A 
ATOM     41  C   UNL     1       7.992  -4.135  -9.575  1.00  0.00     0.135 A 
ATOM     42  F   UNL     1      10.100  -2.854  -6.898  1.00  0.00    -0.206 F 
ATOM     43  C   UNL     1      10.002  -2.252  -9.165  1.00  0.00     0.059 A 
ATOM     44  C   UNL     1       8.433  -3.367 -10.647  1.00  0.00     0.059 A 
ATOM     45  F   UNL     1       7.006  -5.019  -9.795  1.00  0.00    -0.206 F 
ATOM     46  C   UNL     1       9.439  -2.427 -10.432  1.00  0.00     0.060 A 
BRANCH  46  47
ATOM     47  S   UNL     1      10.062  -1.427 -11.800  1.00  0.00     0.124 S 
ATOM     48  O   UNL     1       9.551  -0.105 -11.452  1.00  0.00    -0.237 OA
ATOM     49  O   UNL     1      11.505  -1.601 -11.677  1.00  0.00    -0.237 OA
ATOM     50  O   UNL     1       9.456  -2.043 -12.976  1.00  0.00    -0.744 OA
ENDBRANCH  46  47
ENDBRANCH  25  39
BRANCH  26  51
ATOM     51  C   UNL     1       4.966  -9.748  -0.778  1.00  0.00     0.058 A 
ATOM     52  C   UNL     1       5.774 -10.482   0.104  1.00  0.00     0.135 A 
ATOM     53  C   UNL     1       3.574  -9.901  -0.656  1.00  0.00     0.135 A 
ATOM     54  F   UNL     1       7.109 -10.380   0.032  1.00  0.00    -0.206 F 
ATOM     55  C   UNL     1       5.228 -11.363   1.035  1.00  0.00     0.059 A 
ATOM     56  C   UNL     1       3.003 -10.747   0.289  1.00  0.00     0.059 A 
ATOM     57  F   UNL     1       2.746  -9.219  -1.464  1.00  0.00    -0.206 F 
ATOM     58  C   UNL     1       3.840 -11.495   1.113  1.00  0.00     0.060 A 
BRANCH  58  59
ATOM     59  S   UNL     1       3.139 -12.659   2.303  1.00  0.00     0.124 S 
ATOM     60  O   UNL     1       3.462 -13.939   1.684  1.00  0.00    -0.237 OA
ATOM     61  O   UNL     1       3.874 -12.335   3.522  1.00  0.00    -0.237 OA
ATOM     62  O   UNL     1       1.722 -12.308   2.322  1.00  0.00    -0.744 OA
ENDBRANCH  58  59
ENDBRANCH  26  51
BRANCH  38  63
ATOM     63  C   UNL     1       8.760 -10.976  -6.504  1.00  0.00     0.058 A 
ATOM     64  C   UNL     1       7.920 -11.916  -7.120  1.00  0.00     0.135 A 
ATOM     65  C   UNL     1      10.144 -11.210  -6.521  1.00  0.00     0.135 A 
ATOM     66  F   UNL     1       6.590 -11.739  -7.119  1.00  0.00    -0.206 F 
ATOM     67  C   UNL     1       8.435 -13.056  -7.723  1.00  0.00     0.059 A 
ATOM     68  C   UNL     1      10.682 -12.326  -7.147  1.00  0.00     0.059 A 
ATOM     69  F   UNL     1      10.986 -10.332  -5.953  1.00  0.00    -0.206 F 
ATOM     70  C   UNL     1       9.818 -13.247  -7.739  1.00  0.00     0.060 A 
BRANCH  70  71
ATOM     71  S   UNL     1      10.476 -14.700  -8.581  1.00  0.00     0.124 S 
ATOM     72  O   UNL     1      10.109 -15.766  -7.655  1.00  0.00    -0.237 OA
ATOM     73  O   UNL     1       9.750 -14.681  -9.847  1.00  0.00    -0.237 OA
ATOM     74  O   UNL     1      11.905 -14.418  -8.680  1.00  0.00    -0.744 OA
ENDBRANCH  70  71
ENDBRANCH  38  63
ENDBRANCH  12  13
ENDBRANCH   5   7
ENDBRANCH   4   5
ENDBRANCH   3   4
ENDBRANCH   2   3
ENDBRANCH   1   2
BRANCH   1  75
ATOM     75  C   UNL     1       2.667  -0.666   1.908  1.00  0.00     0.202 C 
BRANCH  75  76
ATOM     76  C   UNL     1       2.665  -1.735   3.008  1.00  0.00     0.261 C 
BRANCH  76  77
ATOM     77  O   UNL     1       3.314  -1.184   4.163  1.00  0.00    -0.460 OA
BRANCH  77  78
ATOM     78  C   UNL     1       4.675  -1.245   4.117  1.00  0.00     0.338 C 
ATOM     79  O   UNL     1       5.363  -2.053   3.535  1.00  0.00    -0.246 OA
BRANCH  78  80
ATOM     80  C   UNL     1       5.183   0.010   4.713  1.00  0.00     0.062 A 
ATOM     81  C   UNL     1       6.311   0.614   4.156  1.00  0.00     0.016 A 
ATOM     82  C   UNL     1       4.504   0.617   5.773  1.00  0.00     0.041 A 
ATOM     83  C   UNL     1       6.731   1.846   4.641  1.00  0.00     0.003 A 
ATOM     84  C   UNL     1       4.947   1.823   6.317  1.00  0.00     0.035 A 
ATOM     85  C   UNL     1       6.051   2.438   5.711  1.00  0.00     0.026 A 
BRANCH  84  86
ATOM     86  N   UNL     1       4.302   2.289   7.449  1.00  0.00    -0.380 N 
ATOM     87  H   UNL     1       3.344   2.081   7.536  1.00  0.00     0.160 HD
BRANCH  86  88
ATOM     88  C   UNL     1       4.918   3.065   8.530  1.00  0.00     0.107 C 
ATOM     89  C   UNL     1       6.274   2.493   8.965  1.00  0.00     0.027 C 
ATOM     90  C   UNL     1       4.916   4.569   8.186  1.00  0.00     0.136 C 
ATOM     91  C   UNL     1       6.979   3.387   9.976  1.00  0.00     0.002 C 
ATOM     92  C   UNL     1       5.672   5.394   9.220  1.00  0.00     0.034 C 
ATOM     93  C   UNL     1       7.063   4.825   9.474  1.00  0.00     0.003 C 
BRANCH  90  94
ATOM     94  O   UNL     1       3.561   5.034   8.119  1.00  0.00    -0.391 OA
ATOM     95  H   UNL     1       3.135   4.916   8.982  1.00  0.00     0.211 HD
ENDBRANCH  90  94
ENDBRANCH  86  88
ENDBRANCH  84  86
ENDBRANCH  78  80
ENDBRANCH  77  78
ENDBRANCH  76  77
ENDBRANCH  75  76
ENDBRANCH   1  75
TORSDOF 20
