REMARK SMILES C[C@@]1(CN2C(=O)c3ccc(C(=O)OCCOCCOC(=O)c4ccc(-c5c6nc(c(-c7c(F)cc(S(=O)(=O)[O-])cc7F)c7ccc([nH]7)c(-c7c(F)cc(S(=O)(=O)[O-])cc7F)c7nc(c(-c8c(F)cc(S(=O)(=O)[O-])cc8F)c8ccc5[nH]8)C=C7)C=C6)cc4)cc3C2=O)CCCO1
REMARK SMILES IDX 17 1 16 2 15 3 14 4 13 5 11 6 12 7 10 8 4 9 5 10 90 11 6 12
REMARK SMILES IDX 7 13 89 14 91 15 8 16 88 17 9 18 3 19 2 20 1 21 92 22 95 23
REMARK SMILES IDX 93 24 94 25 18 26 19 27 20 28 21 29 22 30 23 31 87 32 24 33
REMARK SMILES IDX 86 34 25 35 26 36 27 37 80 38 28 39 85 40 79 41 81 42 29 43
REMARK SMILES IDX 84 44 78 45 77 46 30 48 64 49 43 50 63 51 44 52 47 53 62 54
REMARK SMILES IDX 82 55 45 56 46 57 61 59 83 60 48 61 31 62 32 63 41 64 33 65
REMARK SMILES IDX 34 66 40 67 42 68 35 69 36 70 37 71 38 72 39 73 65 74 66 75
REMARK SMILES IDX 75 76 67 77 68 78 74 79 76 80 69 81 70 82 71 83 72 84 73 85
REMARK SMILES IDX 49 86 50 87 59 88 51 89 52 90 58 91 60 92 53 93 54 94 55 95
REMARK SMILES IDX 56 96 57 97
REMARK H PARENT 81 47 47 58
REMARK Flexibility Score: inf
ROOT
ATOM      1  C   UNL     1      -3.919   4.710   6.548  1.00  0.00     0.202 C 
ENDROOT
BRANCH   1   2
ATOM      2  O   UNL     1      -3.581   5.216   7.838  1.00  0.00    -0.374 OA
BRANCH   2   3
ATOM      3  C   UNL     1      -2.761   6.381   7.908  1.00  0.00     0.202 C 
BRANCH   3   4
ATOM      4  C   UNL     1      -1.259   6.210   7.661  1.00  0.00     0.261 C 
BRANCH   4   5
ATOM      5  O   UNL     1      -0.989   5.666   6.361  1.00  0.00    -0.460 OA
BRANCH   5   6
ATOM      6  C   UNL     1      -0.549   4.385   6.365  1.00  0.00     0.338 C 
ATOM      7  O   UNL     1      -0.260   3.710   7.338  1.00  0.00    -0.246 OA
BRANCH   6   8
ATOM      8  C   UNL     1      -0.628   3.812   4.999  1.00  0.00     0.060 A 
ATOM      9  N   UNL     1      -0.926   0.464   1.887  1.00  0.00    -0.271 N 
ATOM     10  C   UNL     1      -0.801   1.725   1.367  1.00  0.00     0.261 C 
ATOM     11  C   UNL     1      -1.089   0.489   3.243  1.00  0.00     0.261 C 
ATOM     12  O   UNL     1      -0.733   2.072   0.206  1.00  0.00    -0.269 OA
ATOM     13  C   UNL     1      -0.753   2.640   2.507  1.00  0.00     0.053 A 
ATOM     14  C   UNL     1      -0.924   1.881   3.650  1.00  0.00     0.054 A 
ATOM     15  O   UNL     1      -1.358  -0.418   4.011  1.00  0.00    -0.269 OA
ATOM     16  C   UNL     1      -0.533   4.004   2.561  1.00  0.00     0.015 A 
ATOM     17  C   UNL     1      -0.878   2.434   4.910  1.00  0.00     0.030 A 
ATOM     18  C   UNL     1      -0.472   4.597   3.831  1.00  0.00     0.016 A 
BRANCH   9  19
ATOM     19  C   UNL     1      -0.874  -0.759   1.102  1.00  0.00     0.164 C 
BRANCH  19  20
ATOM     20  C   UNL     1       0.578  -1.246   0.819  1.00  0.00     0.084 C 
ATOM     21  C   UNL     1       1.387  -0.240  -0.001  1.00  0.00     0.044 C 
ATOM     22  C   UNL     1       0.565  -2.614   0.127  1.00  0.00     0.039 C 
ATOM     23  O   UNL     1       1.265  -1.451   2.073  1.00  0.00    -0.373 OA
ATOM     24  C   UNL     1       0.601  -3.583   1.283  1.00  0.00     0.031 C 
ATOM     25  C   UNL     1       1.467  -2.853   2.285  1.00  0.00     0.161 C 
ENDBRANCH  19  20
ENDBRANCH   9  19
ENDBRANCH   6   8
ENDBRANCH   5   6
ENDBRANCH   4   5
ENDBRANCH   3   4
ENDBRANCH   2   3
ENDBRANCH   1   2
BRANCH   1  26
ATOM     26  C   UNL     1      -4.952   5.478   5.711  1.00  0.00     0.261 C 
BRANCH  26  27
ATOM     27  O   UNL     1      -4.525   6.805   5.364  1.00  0.00    -0.460 OA
BRANCH  27  28
ATOM     28  C   UNL     1      -5.152   7.791   6.055  1.00  0.00     0.338 C 
ATOM     29  O   UNL     1      -6.036   7.662   6.884  1.00  0.00    -0.246 OA
BRANCH  28  30
ATOM     30  C   UNL     1      -4.479   9.080   5.806  1.00  0.00     0.060 A 
ATOM     31  C   UNL     1      -4.026   9.804   6.917  1.00  0.00     0.016 A 
ATOM     32  C   UNL     1      -4.369   9.606   4.519  1.00  0.00     0.016 A 
ATOM     33  C   UNL     1      -3.506  11.085   6.749  1.00  0.00     0.010 A 
ATOM     34  C   UNL     1      -3.853  10.894   4.354  1.00  0.00     0.010 A 
ATOM     35  C   UNL     1      -3.456  11.654   5.470  1.00  0.00    -0.014 A 
BRANCH  35  36
ATOM     36  C   UNL     1      -3.140  13.095   5.311  1.00  0.00     0.031 A 
ATOM     37  C   UNL     1      -4.265  14.057   5.038  1.00  0.00     0.074 A 
ATOM     38  C   UNL     1      -1.875  13.540   5.412  1.00  0.00     0.049 A 
ATOM     39  N   UNL     1      -4.217  15.335   4.770  1.00  0.00    -0.248 NA
ATOM     40  C   UNL     1      -5.627  13.498   5.062  1.00  0.00     0.031 C 
ATOM     41  C   UNL     1      -0.710  12.712   5.719  1.00  0.00     0.029 A 
ATOM     42  N   UNL     1      -1.359  14.801   5.250  1.00  0.00    -0.354 N 
ATOM     43  C   UNL     1      -5.536  15.731   4.578  1.00  0.00     0.074 A 
ATOM     44  C   UNL     1      -6.359  14.551   4.730  1.00  0.00     0.031 C 
ATOM     45  C   UNL     1       0.389  13.485   5.707  1.00  0.00     0.029 A 
ATOM     46  C   UNL     1       0.011  14.851   5.351  1.00  0.00     0.049 A 
ATOM     47  H   UNL     1      -1.916  15.594   5.079  1.00  0.00     0.167 HD
ATOM     48  C   UNL     1      -6.017  16.968   4.307  1.00  0.00     0.037 A 
ATOM     49  C   UNL     1       0.864  15.876   5.147  1.00  0.00     0.037 A 
ATOM     50  C   UNL     1      -5.188  18.137   4.163  1.00  0.00     0.049 A 
ATOM     51  C   UNL     1       0.313  17.230   4.777  1.00  0.00     0.074 A 
ATOM     52  C   UNL     1      -5.577  19.440   3.906  1.00  0.00     0.029 A 
ATOM     53  N   UNL     1      -3.803  18.145   4.256  1.00  0.00    -0.354 N 
ATOM     54  N   UNL     1      -0.937  17.595   4.611  1.00  0.00    -0.248 NA
ATOM     55  C   UNL     1       1.286  18.311   4.569  1.00  0.00     0.031 C 
ATOM     56  C   UNL     1      -4.425  20.223   3.783  1.00  0.00     0.029 A 
ATOM     57  C   UNL     1      -3.321  19.424   4.035  1.00  0.00     0.049 A 
ATOM     58  H   UNL     1      -3.246  17.357   4.450  1.00  0.00     0.167 HD
ATOM     59  C   UNL     1      -0.901  18.956   4.320  1.00  0.00     0.074 A 
ATOM     60  C   UNL     1       0.493  19.348   4.335  1.00  0.00     0.031 C 
ATOM     61  C   UNL     1      -1.930  19.805   4.070  1.00  0.00     0.037 A 
BRANCH  48  62
ATOM     62  C   UNL     1      -7.502  17.118   4.117  1.00  0.00     0.058 A 
ATOM     63  C   UNL     1      -8.406  16.985   5.184  1.00  0.00     0.135 A 
ATOM     64  C   UNL     1      -8.027  17.438   2.854  1.00  0.00     0.135 A 
ATOM     65  F   UNL     1      -7.964  16.663   6.410  1.00  0.00    -0.206 F 
ATOM     66  C   UNL     1      -9.777  17.137   4.999  1.00  0.00     0.059 A 
ATOM     67  C   UNL     1      -9.391  17.625   2.652  1.00  0.00     0.059 A 
ATOM     68  F   UNL     1      -7.209  17.574   1.798  1.00  0.00    -0.206 F 
ATOM     69  C   UNL     1     -10.259  17.459   3.729  1.00  0.00     0.060 A 
BRANCH  69  70
ATOM     70  S   UNL     1     -12.040  17.660   3.509  1.00  0.00     0.124 S 
ATOM     71  O   UNL     1     -12.507  16.283   3.642  1.00  0.00    -0.237 OA
ATOM     72  O   UNL     1     -12.389  18.557   4.605  1.00  0.00    -0.237 OA
ATOM     73  O   UNL     1     -12.156  18.233   2.171  1.00  0.00    -0.744 OA
ENDBRANCH  69  70
ENDBRANCH  48  62
BRANCH  49  74
ATOM     74  C   UNL     1       2.330  15.660   5.277  1.00  0.00     0.058 A 
ATOM     75  C   UNL     1       3.063  16.256   6.313  1.00  0.00     0.135 A 
ATOM     76  C   UNL     1       3.029  14.851   4.365  1.00  0.00     0.135 A 
ATOM     77  F   UNL     1       2.444  17.046   7.203  1.00  0.00    -0.206 F 
ATOM     78  C   UNL     1       4.437  16.073   6.434  1.00  0.00     0.059 A 
ATOM     79  C   UNL     1       4.397  14.629   4.482  1.00  0.00     0.059 A 
ATOM     80  F   UNL     1       2.374  14.248   3.361  1.00  0.00    -0.206 F 
ATOM     81  C   UNL     1       5.095  15.253   5.515  1.00  0.00     0.060 A 
BRANCH  81  82
ATOM     82  S   UNL     1       6.869  14.984   5.711  1.00  0.00     0.124 S 
ATOM     83  O   UNL     1       7.408  16.286   5.337  1.00  0.00    -0.237 OA
ATOM     84  O   UNL     1       6.969  14.633   7.124  1.00  0.00    -0.237 OA
ATOM     85  O   UNL     1       7.148  13.894   4.781  1.00  0.00    -0.744 OA
ENDBRANCH  81  82
ENDBRANCH  49  74
BRANCH  61  86
ATOM     86  C   UNL     1      -1.603  21.259   3.853  1.00  0.00     0.058 A 
ATOM     87  C   UNL     1      -0.974  21.717   2.685  1.00  0.00     0.135 A 
ATOM     88  C   UNL     1      -1.994  22.218   4.803  1.00  0.00     0.135 A 
ATOM     89  F   UNL     1      -0.574  20.845   1.746  1.00  0.00    -0.206 F 
ATOM     90  C   UNL     1      -0.724  23.070   2.477  1.00  0.00     0.059 A 
ATOM     91  C   UNL     1      -1.784  23.578   4.601  1.00  0.00     0.059 A 
ATOM     92  F   UNL     1      -2.610  21.837   5.934  1.00  0.00    -0.206 F 
ATOM     93  C   UNL     1      -1.139  23.994   3.438  1.00  0.00     0.060 A 
BRANCH  93  94
ATOM     94  S   UNL     1      -0.850  25.750   3.134  1.00  0.00     0.124 S 
ATOM     95  O   UNL     1       0.597  25.844   3.302  1.00  0.00    -0.237 OA
ATOM     96  O   UNL     1      -1.342  25.914   1.770  1.00  0.00    -0.237 OA
ATOM     97  O   UNL     1      -1.645  26.411   4.165  1.00  0.00    -0.744 OA
ENDBRANCH  93  94
ENDBRANCH  61  86
ENDBRANCH  35  36
ENDBRANCH  28  30
ENDBRANCH  27  28
ENDBRANCH  26  27
ENDBRANCH   1  26
TORSDOF 19
