REMARK SMILES Cc1ccccc1CSCC(=O)Nc1ccc(C)c(C(=O)OCCOCCOC(=O)c2ccc(-c3c4nc(c(-c5c(F)cc(S(=O)(=O)[O-])cc5F)c5ccc([nH]5)c(-c5c(F)cc(S(=O)(=O)[O-])cc5F)c5nc(c(-c6c(F)cc(S(=O)(=O)[O-])cc6F)c6ccc3[nH]6)C=C5)C=C4)cc2)c1
REMARK SMILES IDX 24 1 23 2 22 3 20 4 21 5 19 6 14 7 15 8 97 9 16 10 17 11
REMARK SMILES IDX 18 12 13 13 11 14 12 15 10 17 9 18 8 19 7 20 1 21 2 22 3 23
REMARK SMILES IDX 4 24 6 25 5 26 25 27 26 28 27 29 28 30 29 31 30 32 31 33
REMARK SMILES IDX 32 34 96 35 33 36 95 37 34 38 35 39 36 40 89 41 37 42 94 43
REMARK SMILES IDX 88 44 90 45 38 46 93 47 87 48 86 49 39 51 73 52 52 53 72 54
REMARK SMILES IDX 53 55 56 56 71 57 91 58 54 59 55 60 70 62 92 63 57 64 40 65
REMARK SMILES IDX 41 66 50 67 42 68 43 69 49 70 51 71 44 72 45 73 46 74 47 75
REMARK SMILES IDX 48 76 74 77 75 78 84 79 76 80 77 81 83 82 85 83 78 84 79 85
REMARK SMILES IDX 80 86 81 87 82 88 58 89 59 90 68 91 60 92 61 93 67 94 69 95
REMARK SMILES IDX 62 96 63 97 64 98 65 99 66 100
REMARK H PARENT 13 16 90 50 56 61
REMARK Flexibility Score: inf
ROOT
ATOM      1  C   UNL     1       5.106   9.676  -3.232  1.00  0.00     0.202 C 
ENDROOT
BRANCH   1   2
ATOM      2  C   UNL     1       3.881   9.739  -4.070  1.00  0.00     0.261 C 
BRANCH   2   3
ATOM      3  O   UNL     1       3.080   8.562  -3.904  1.00  0.00    -0.460 OA
BRANCH   3   4
ATOM      4  C   UNL     1       3.449   7.329  -4.304  1.00  0.00     0.338 C 
ATOM      5  O   UNL     1       4.194   7.003  -5.194  1.00  0.00    -0.246 OA
BRANCH   4   6
ATOM      6  C   UNL     1       2.871   6.402  -3.304  1.00  0.00     0.065 A 
ATOM      7  C   UNL     1       3.049   4.202  -2.388  1.00  0.00     0.042 A 
ATOM      8  C   UNL     1       2.529   4.684  -1.191  1.00  0.00     0.026 A 
ATOM      9  C   UNL     1       3.309   5.077  -3.422  1.00  0.00     0.042 A 
ATOM     10  C   UNL     1       1.982   5.955  -1.115  1.00  0.00     0.006 A 
ATOM     11  C   UNL     1       2.083   6.817  -2.199  1.00  0.00    -0.036 A 
ATOM     12  C   UNL     1       1.411   8.160  -2.061  1.00  0.00     0.045 C 
BRANCH   7  13
ATOM     13  N   UNL     1       3.351   2.852  -2.530  1.00  0.00    -0.325 N 
ATOM     14  C   UNL     1       2.444   1.838  -2.710  1.00  0.00     0.234 C 
ATOM     15  O   UNL     1       2.892   0.689  -2.799  1.00  0.00    -0.274 OA
ATOM     16  H   UNL     1       4.302   2.601  -2.499  1.00  0.00     0.169 HD
BRANCH  14  17
ATOM     17  C   UNL     1       0.969   2.111  -2.990  1.00  0.00     0.170 C 
BRANCH  17  18
ATOM     18  S   UNL     1      -0.035   2.954  -1.739  1.00  0.00    -0.147 SA
BRANCH  18  19
ATOM     19  C   UNL     1       0.588   2.213  -0.192  1.00  0.00     0.105 C 
BRANCH  19  20
ATOM     20  C   UNL     1       0.034   0.841   0.045  1.00  0.00    -0.035 A 
ATOM     21  C   UNL     1       2.335  -0.339   0.088  1.00  0.00     0.044 C 
ATOM     22  C   UNL     1       0.828  -0.321   0.093  1.00  0.00    -0.047 A 
ATOM     23  C   UNL     1       0.180  -1.565   0.144  1.00  0.00     0.004 A 
ATOM     24  C   UNL     1      -1.211  -1.658   0.201  1.00  0.00     0.000 A 
ATOM     25  C   UNL     1      -1.365   0.733   0.177  1.00  0.00     0.005 A 
ATOM     26  C   UNL     1      -1.984  -0.507   0.245  1.00  0.00     0.000 A 
ENDBRANCH  19  20
ENDBRANCH  18  19
ENDBRANCH  17  18
ENDBRANCH  14  17
ENDBRANCH   7  13
ENDBRANCH   4   6
ENDBRANCH   3   4
ENDBRANCH   2   3
ENDBRANCH   1   2
BRANCH   1  27
ATOM     27  O   UNL     1       5.873   8.654  -3.852  1.00  0.00    -0.374 OA
BRANCH  27  28
ATOM     28  C   UNL     1       6.997   8.207  -3.147  1.00  0.00     0.202 C 
BRANCH  28  29
ATOM     29  C   UNL     1       7.965   9.353  -2.864  1.00  0.00     0.261 C 
BRANCH  29  30
ATOM     30  O   UNL     1       8.562   9.838  -4.092  1.00  0.00    -0.460 OA
BRANCH  30  31
ATOM     31  C   UNL     1       8.038  10.986  -4.625  1.00  0.00     0.338 C 
ATOM     32  O   UNL     1       8.303  12.103  -4.218  1.00  0.00    -0.246 OA
BRANCH  31  33
ATOM     33  C   UNL     1       7.144  10.684  -5.784  1.00  0.00     0.060 A 
ATOM     34  C   UNL     1       6.157  11.596  -6.215  1.00  0.00     0.016 A 
ATOM     35  C   UNL     1       7.155   9.390  -6.294  1.00  0.00     0.016 A 
ATOM     36  C   UNL     1       5.096  11.168  -7.036  1.00  0.00     0.010 A 
ATOM     37  C   UNL     1       6.055   8.946  -6.993  1.00  0.00     0.010 A 
ATOM     38  C   UNL     1       5.005   9.817  -7.351  1.00  0.00    -0.014 A 
BRANCH  38  39
ATOM     39  C   UNL     1       3.907   9.124  -8.038  1.00  0.00     0.031 A 
ATOM     40  C   UNL     1       4.281   8.495  -9.318  1.00  0.00     0.074 A 
ATOM     41  C   UNL     1       2.808   8.710  -7.358  1.00  0.00     0.049 A 
ATOM     42  N   UNL     1       3.523   7.716  -9.992  1.00  0.00    -0.248 NA
ATOM     43  C   UNL     1       5.574   8.719  -9.963  1.00  0.00     0.031 C 
ATOM     44  C   UNL     1       2.051   7.463  -7.494  1.00  0.00     0.029 A 
ATOM     45  N   UNL     1       2.127   9.360  -6.331  1.00  0.00    -0.354 N 
ATOM     46  C   UNL     1       4.296   7.087 -10.939  1.00  0.00     0.074 A 
ATOM     47  C   UNL     1       5.522   7.840 -10.966  1.00  0.00     0.031 C 
ATOM     48  C   UNL     1       0.910   7.545  -6.778  1.00  0.00     0.029 A 
ATOM     49  C   UNL     1       0.801   8.912  -6.287  1.00  0.00     0.049 A 
ATOM     50  H   UNL     1       2.518  10.034  -5.729  1.00  0.00     0.167 HD
ATOM     51  C   UNL     1       3.808   5.930 -11.472  1.00  0.00     0.037 A 
ATOM     52  C   UNL     1      -0.182   9.827  -6.508  1.00  0.00     0.037 A 
ATOM     53  C   UNL     1       2.412   5.733 -11.019  1.00  0.00     0.049 A 
ATOM     54  C   UNL     1      -0.743   9.579  -7.888  1.00  0.00     0.074 A 
ATOM     55  C   UNL     1       1.775   4.912 -10.104  1.00  0.00     0.029 A 
ATOM     56  N   UNL     1       1.499   6.743 -11.293  1.00  0.00    -0.354 N 
ATOM     57  N   UNL     1      -0.274   8.650  -8.679  1.00  0.00    -0.248 NA
ATOM     58  C   UNL     1      -1.845  10.303  -8.499  1.00  0.00     0.031 C 
ATOM     59  C   UNL     1       0.485   5.483  -9.815  1.00  0.00     0.029 A 
ATOM     60  C   UNL     1       0.327   6.634 -10.572  1.00  0.00     0.049 A 
ATOM     61  H   UNL     1       1.671   7.466 -11.939  1.00  0.00     0.167 HD
ATOM     62  C   UNL     1      -0.965   8.596  -9.838  1.00  0.00     0.074 A 
ATOM     63  C   UNL     1      -1.907   9.705  -9.706  1.00  0.00     0.031 C 
ATOM     64  C   UNL     1      -0.716   7.643 -10.788  1.00  0.00     0.037 A 
BRANCH  51  65
ATOM     65  C   UNL     1       4.597   4.907 -12.280  1.00  0.00     0.058 A 
ATOM     66  C   UNL     1       3.990   3.686 -12.646  1.00  0.00     0.135 A 
ATOM     67  C   UNL     1       5.947   5.016 -12.692  1.00  0.00     0.135 A 
ATOM     68  F   UNL     1       2.714   3.421 -12.333  1.00  0.00    -0.206 F 
ATOM     69  C   UNL     1       4.660   2.670 -13.341  1.00  0.00     0.059 A 
ATOM     70  C   UNL     1       6.634   4.020 -13.394  1.00  0.00     0.059 A 
ATOM     71  F   UNL     1       6.700   6.086 -12.440  1.00  0.00    -0.206 F 
ATOM     72  C   UNL     1       5.984   2.845 -13.714  1.00  0.00     0.060 A 
BRANCH  72  73
ATOM     73  S   UNL     1       6.834   1.541 -14.619  1.00  0.00     0.124 S 
ATOM     74  O   UNL     1       6.782   0.431 -13.674  1.00  0.00    -0.237 OA
ATOM     75  O   UNL     1       6.002   1.405 -15.810  1.00  0.00    -0.237 OA
ATOM     76  O   UNL     1       8.165   2.095 -14.851  1.00  0.00    -0.744 OA
ENDBRANCH  72  73
ENDBRANCH  51  65
BRANCH  52  77
ATOM     77  C   UNL     1       0.124  11.124  -5.792  1.00  0.00     0.058 A 
ATOM     78  C   UNL     1       0.003  11.126  -4.379  1.00  0.00     0.135 A 
ATOM     79  C   UNL     1       1.018  12.063  -6.335  1.00  0.00     0.135 A 
ATOM     80  F   UNL     1      -0.820  10.249  -3.779  1.00  0.00    -0.206 F 
ATOM     81  C   UNL     1       0.833  11.893  -3.549  1.00  0.00     0.059 A 
ATOM     82  C   UNL     1       1.878  12.822  -5.521  1.00  0.00     0.059 A 
ATOM     83  F   UNL     1       1.204  12.118  -7.662  1.00  0.00    -0.206 F 
ATOM     84  C   UNL     1       1.815  12.694  -4.129  1.00  0.00     0.060 A 
BRANCH  84  85
ATOM     85  S   UNL     1       3.209  13.269  -3.090  1.00  0.00     0.124 S 
ATOM     86  O   UNL     1       2.699  14.521  -2.550  1.00  0.00    -0.237 OA
ATOM     87  O   UNL     1       3.367  12.184  -2.120  1.00  0.00    -0.237 OA
ATOM     88  O   UNL     1       4.301  13.377  -4.051  1.00  0.00    -0.744 OA
ENDBRANCH  84  85
ENDBRANCH  52  77
BRANCH  64  89
ATOM     89  C   UNL     1      -1.454   7.662 -12.087  1.00  0.00     0.058 A 
ATOM     90  C   UNL     1      -2.830   7.913 -12.151  1.00  0.00     0.135 A 
ATOM     91  C   UNL     1      -0.799   7.432 -13.315  1.00  0.00     0.135 A 
ATOM     92  F   UNL     1      -3.574   7.977 -11.035  1.00  0.00    -0.206 F 
ATOM     93  C   UNL     1      -3.473   8.129 -13.361  1.00  0.00     0.059 A 
ATOM     94  C   UNL     1      -1.439   7.559 -14.533  1.00  0.00     0.059 A 
ATOM     95  F   UNL     1       0.502   7.128 -13.396  1.00  0.00    -0.206 F 
ATOM     96  C   UNL     1      -2.758   7.976 -14.545  1.00  0.00     0.060 A 
BRANCH  96  97
ATOM     97  S   UNL     1      -3.556   8.336 -16.108  1.00  0.00     0.124 S 
ATOM     98  O   UNL     1      -4.881   7.752 -15.921  1.00  0.00    -0.237 OA
ATOM     99  O   UNL     1      -3.502   9.794 -16.127  1.00  0.00    -0.237 OA
ATOM    100  O   UNL     1      -2.709   7.661 -17.085  1.00  0.00    -0.744 OA
ENDBRANCH  96  97
ENDBRANCH  64  89
ENDBRANCH  38  39
ENDBRANCH  31  33
ENDBRANCH  30  31
ENDBRANCH  29  30
ENDBRANCH  28  29
ENDBRANCH  27  28
ENDBRANCH   1  27
TORSDOF 22
