REMARK SMILES C[C@H](NC(=O)[C@]1(C)Sc2ccccc2NC1=O)C(=O)OCCOCCOC(=O)c1ccc(-c2c3nc(c(-c4c(F)cc(S(=O)(=O)[O-])cc4F)c4ccc([nH]4)c(-c4c(F)cc(S(=O)(=O)[O-])cc4F)c4nc(c(-c5c(F)cc(S(=O)(=O)[O-])cc5F)c5ccc2[nH]5)C=C4)C=C3)cc1
REMARK SMILES IDX 24 1 23 2 22 3 21 4 20 5 18 6 19 7 2 8 1 9 3 10 4 11 5 13
REMARK SMILES IDX 6 14 8 15 16 16 7 17 9 18 15 19 17 20 10 21 14 22 11 24
REMARK SMILES IDX 13 25 12 26 25 27 26 28 27 29 28 30 29 31 30 32 94 33 31 34
REMARK SMILES IDX 93 35 32 36 33 37 34 38 87 39 35 40 92 41 86 42 88 43 36 44
REMARK SMILES IDX 91 45 85 46 84 47 37 49 71 50 50 51 70 52 51 53 54 54 69 55
REMARK SMILES IDX 89 56 52 57 53 58 68 60 90 61 55 62 38 63 39 64 48 65 40 66
REMARK SMILES IDX 41 67 47 68 49 69 42 70 43 71 44 72 45 73 46 74 72 75 73 76
REMARK SMILES IDX 82 77 74 78 75 79 81 80 83 81 76 82 77 83 78 84 79 85 80 86
REMARK SMILES IDX 56 87 57 88 66 89 58 90 59 91 65 92 67 93 60 94 61 95 62 96
REMARK SMILES IDX 63 97 64 98
REMARK H PARENT 3 12 15 23 88 48 54 59
REMARK Flexibility Score: inf
ROOT
ATOM      1  C   UNL     1       7.360  -1.808   0.732  1.00  0.00     0.202 C 
ENDROOT
BRANCH   1   2
ATOM      2  O   UNL     1       7.382  -3.236   0.707  1.00  0.00    -0.374 OA
BRANCH   2   3
ATOM      3  C   UNL     1       7.275  -3.895  -0.548  1.00  0.00     0.202 C 
BRANCH   3   4
ATOM      4  C   UNL     1       5.925  -3.842  -1.268  1.00  0.00     0.261 C 
BRANCH   4   5
ATOM      5  O   UNL     1       5.338  -2.530  -1.301  1.00  0.00    -0.462 OA
BRANCH   5   6
ATOM      6  C   UNL     1       4.208  -2.424  -0.552  1.00  0.00     0.328 C 
ATOM      7  O   UNL     1       3.688  -3.346   0.070  1.00  0.00    -0.250 OA
BRANCH   6   8
ATOM      8  C   UNL     1       3.528  -1.058  -0.640  1.00  0.00     0.189 C 
ATOM      9  C   UNL     1       2.611  -1.045  -1.854  1.00  0.00     0.043 C 
BRANCH   8  10
ATOM     10  N   UNL     1       4.330   0.157  -0.638  1.00  0.00    -0.341 N 
ATOM     11  C   UNL     1       4.034   1.393  -0.132  1.00  0.00     0.246 C 
ATOM     12  H   UNL     1       5.214   0.078  -1.064  1.00  0.00     0.164 HD
ATOM     13  O   UNL     1       4.856   2.278  -0.421  1.00  0.00    -0.273 OA
BRANCH  11  14
ATOM     14  C   UNL     1       2.816   1.738   0.798  1.00  0.00     0.175 C 
ATOM     15  S   UNL     1       1.795   3.002  -0.080  1.00  0.00    -0.097 SA
ATOM     16  C   UNL     1       3.412   2.192   2.132  1.00  0.00     0.250 C 
ATOM     17  C   UNL     1       1.755   0.688   1.158  1.00  0.00     0.045 C 
ATOM     18  C   UNL     1       2.402   4.527   0.575  1.00  0.00     0.032 A 
ATOM     19  N   UNL     1       3.653   3.499   2.410  1.00  0.00    -0.323 N 
ATOM     20  O   UNL     1       3.785   1.365   2.976  1.00  0.00    -0.273 OA
ATOM     21  C   UNL     1       1.951   5.707  -0.032  1.00  0.00     0.017 A 
ATOM     22  C   UNL     1       3.250   4.615   1.678  1.00  0.00     0.054 A 
ATOM     23  H   UNL     1       4.175   3.680   3.225  1.00  0.00     0.170 HD
ATOM     24  C   UNL     1       2.373   6.955   0.428  1.00  0.00     0.001 A 
ATOM     25  C   UNL     1       3.685   5.867   2.130  1.00  0.00     0.027 A 
ATOM     26  C   UNL     1       3.254   7.034   1.501  1.00  0.00     0.002 A 
ENDBRANCH  11  14
ENDBRANCH   8  10
ENDBRANCH   6   8
ENDBRANCH   5   6
ENDBRANCH   4   5
ENDBRANCH   3   4
ENDBRANCH   2   3
ENDBRANCH   1   2
BRANCH   1  27
ATOM     27  C   UNL     1       8.441  -1.050  -0.053  1.00  0.00     0.261 C 
BRANCH  27  28
ATOM     28  O   UNL     1       8.271  -1.160  -1.480  1.00  0.00    -0.460 OA
BRANCH  28  29
ATOM     29  C   UNL     1       9.292  -1.755  -2.146  1.00  0.00     0.338 C 
ATOM     30  O   UNL     1      10.329  -2.197  -1.673  1.00  0.00    -0.246 OA
BRANCH  29  31
ATOM     31  C   UNL     1       8.884  -1.986  -3.541  1.00  0.00     0.060 A 
ATOM     32  C   UNL     1       8.674  -0.911  -4.403  1.00  0.00     0.016 A 
ATOM     33  C   UNL     1       8.767  -3.305  -4.000  1.00  0.00     0.016 A 
ATOM     34  C   UNL     1       8.350  -1.161  -5.738  1.00  0.00     0.010 A 
ATOM     35  C   UNL     1       8.438  -3.551  -5.334  1.00  0.00     0.010 A 
ATOM     36  C   UNL     1       8.240  -2.481  -6.216  1.00  0.00    -0.014 A 
BRANCH  36  37
ATOM     37  C   UNL     1       8.029  -2.733  -7.662  1.00  0.00     0.031 A 
ATOM     38  C   UNL     1       6.702  -3.197  -8.187  1.00  0.00     0.074 A 
ATOM     39  C   UNL     1       9.060  -2.538  -8.506  1.00  0.00     0.049 A 
ATOM     40  N   UNL     1       6.333  -3.393  -9.427  1.00  0.00    -0.248 NA
ATOM     41  C   UNL     1       5.657  -3.483  -7.194  1.00  0.00     0.031 C 
ATOM     42  C   UNL     1      10.403  -2.116  -8.102  1.00  0.00     0.029 A 
ATOM     43  N   UNL     1       9.142  -2.652  -9.870  1.00  0.00    -0.354 N 
ATOM     44  C   UNL     1       5.005  -3.794  -9.370  1.00  0.00     0.074 A 
ATOM     45  C   UNL     1       4.652  -3.874  -7.967  1.00  0.00     0.031 C 
ATOM     46  C   UNL     1      11.163  -1.967  -9.198  1.00  0.00     0.029 A 
ATOM     47  C   UNL     1      10.374  -2.313 -10.377  1.00  0.00     0.049 A 
ATOM     48  H   UNL     1       8.390  -2.948 -10.432  1.00  0.00     0.167 HD
ATOM     49  C   UNL     1       4.155  -4.046 -10.395  1.00  0.00     0.037 A 
ATOM     50  C   UNL     1      10.816  -2.276 -11.648  1.00  0.00     0.037 A 
ATOM     51  C   UNL     1       4.526  -3.990 -11.788  1.00  0.00     0.049 A 
ATOM     52  C   UNL     1       9.871  -2.627 -12.764  1.00  0.00     0.074 A 
ATOM     53  C   UNL     1       3.732  -4.218 -12.899  1.00  0.00     0.029 A 
ATOM     54  N   UNL     1       5.797  -3.696 -12.263  1.00  0.00    -0.354 N 
ATOM     55  N   UNL     1       8.602  -2.951 -12.698  1.00  0.00    -0.248 NA
ATOM     56  C   UNL     1      10.417  -2.606 -14.128  1.00  0.00     0.031 C 
ATOM     57  C   UNL     1       4.534  -4.114 -14.041  1.00  0.00     0.029 A 
ATOM     58  C   UNL     1       5.815  -3.763 -13.648  1.00  0.00     0.049 A 
ATOM     59  H   UNL     1       6.572  -3.472 -11.699  1.00  0.00     0.167 HD
ATOM     60  C   UNL     1       8.191  -3.149 -14.011  1.00  0.00     0.074 A 
ATOM     61  C   UNL     1       9.343  -2.892 -14.851  1.00  0.00     0.031 C 
ATOM     62  C   UNL     1       6.969  -3.512 -14.477  1.00  0.00     0.037 A 
BRANCH  49  63
ATOM     63  C   UNL     1       2.731  -4.397 -10.054  1.00  0.00     0.058 A 
ATOM     64  C   UNL     1       1.851  -3.437  -9.527  1.00  0.00     0.135 A 
ATOM     65  C   UNL     1       2.220  -5.679 -10.310  1.00  0.00     0.135 A 
ATOM     66  F   UNL     1       2.287  -2.198  -9.251  1.00  0.00    -0.206 F 
ATOM     67  C   UNL     1       0.524  -3.743  -9.244  1.00  0.00     0.059 A 
ATOM     68  C   UNL     1       0.887  -6.000 -10.061  1.00  0.00     0.059 A 
ATOM     69  F   UNL     1       3.015  -6.636 -10.816  1.00  0.00    -0.206 F 
ATOM     70  C   UNL     1       0.051  -5.027  -9.516  1.00  0.00     0.060 A 
BRANCH  70  71
ATOM     71  S   UNL     1      -1.675  -5.401  -9.139  1.00  0.00     0.124 S 
ATOM     72  O   UNL     1      -1.672  -5.346  -7.680  1.00  0.00    -0.237 OA
ATOM     73  O   UNL     1      -2.381  -4.315  -9.812  1.00  0.00    -0.237 OA
ATOM     74  O   UNL     1      -1.871  -6.727  -9.715  1.00  0.00    -0.744 OA
ENDBRANCH  70  71
ENDBRANCH  49  63
BRANCH  50  75
ATOM     75  C   UNL     1      12.213  -1.849 -11.930  1.00  0.00     0.058 A 
ATOM     76  C   UNL     1      12.476  -0.623 -12.557  1.00  0.00     0.135 A 
ATOM     77  C   UNL     1      13.310  -2.638 -11.549  1.00  0.00     0.135 A 
ATOM     78  F   UNL     1      11.460   0.163 -12.947  1.00  0.00    -0.206 F 
ATOM     79  C   UNL     1      13.775  -0.195 -12.803  1.00  0.00     0.059 A 
ATOM     80  C   UNL     1      14.619  -2.219 -11.759  1.00  0.00     0.059 A 
ATOM     81  F   UNL     1      13.111  -3.813 -10.932  1.00  0.00    -0.206 F 
ATOM     82  C   UNL     1      14.841  -0.997 -12.392  1.00  0.00     0.060 A 
BRANCH  82  83
ATOM     83  S   UNL     1      16.523  -0.400 -12.666  1.00  0.00     0.124 S 
ATOM     84  O   UNL     1      16.624  -0.458 -14.119  1.00  0.00    -0.237 OA
ATOM     85  O   UNL     1      16.468   0.937 -12.082  1.00  0.00    -0.237 OA
ATOM     86  O   UNL     1      17.345  -1.361 -11.937  1.00  0.00    -0.744 OA
ENDBRANCH  82  83
ENDBRANCH  50  75
BRANCH  62  87
ATOM     87  C   UNL     1       6.805  -3.643 -15.969  1.00  0.00     0.058 A 
ATOM     88  C   UNL     1       7.391  -4.699 -16.684  1.00  0.00     0.135 A 
ATOM     89  C   UNL     1       6.003  -2.736 -16.682  1.00  0.00     0.135 A 
ATOM     90  F   UNL     1       8.172  -5.591 -16.055  1.00  0.00    -0.206 F 
ATOM     91  C   UNL     1       7.206  -4.839 -18.056  1.00  0.00     0.059 A 
ATOM     92  C   UNL     1       5.779  -2.875 -18.049  1.00  0.00     0.059 A 
ATOM     93  F   UNL     1       5.410  -1.712 -16.047  1.00  0.00    -0.206 F 
ATOM     94  C   UNL     1       6.394  -3.925 -18.729  1.00  0.00     0.060 A 
BRANCH  94  95
ATOM     95  S   UNL     1       6.137  -4.144 -20.503  1.00  0.00     0.124 S 
ATOM     96  O   UNL     1       7.456  -3.817 -21.035  1.00  0.00    -0.237 OA
ATOM     97  O   UNL     1       5.748  -5.548 -20.588  1.00  0.00    -0.237 OA
ATOM     98  O   UNL     1       5.080  -3.186 -20.816  1.00  0.00    -0.744 OA
ENDBRANCH  94  95
ENDBRANCH  62  87
ENDBRANCH  36  37
ENDBRANCH  29  31
ENDBRANCH  28  29
ENDBRANCH  27  28
ENDBRANCH   1  27
TORSDOF 19
