REMARK SMILES O=C(OCCOCCOC(=O)c1ccccc1Nc1cccc(S(F)(F)(F)(F)F)c1)c1ccc(-c2c3nc(c(-c4c(F)cc(S(=O)(=O)[O-])cc4F)c4ccc([nH]4)c(-c4c(F)cc(S(=O)(=O)[O-])cc4F)c4nc(c(-c5c(F)cc(S(=O)(=O)[O-])cc5F)c5ccc2[nH]5)C=C4)C=C3)cc1
REMARK SMILES IDX 6 1 5 2 4 3 3 4 2 5 1 6 31 7 32 8 96 9 33 10 95 11 34 12
REMARK SMILES IDX 35 13 36 14 89 15 37 16 94 17 88 18 90 19 38 20 93 21 87 22
REMARK SMILES IDX 86 23 39 25 73 26 52 27 72 28 53 29 56 30 71 31 91 32 54 33
REMARK SMILES IDX 55 34 70 36 92 37 57 38 40 39 41 40 50 41 42 42 43 43 49 44
REMARK SMILES IDX 51 45 44 46 45 47 46 48 47 49 48 50 74 51 75 52 84 53 76 54
REMARK SMILES IDX 77 55 83 56 85 57 78 58 79 59 80 60 81 61 82 62 58 63 59 64
REMARK SMILES IDX 68 65 60 66 61 67 67 68 69 69 62 70 63 71 64 72 65 73 66 74
REMARK SMILES IDX 7 75 8 76 9 77 10 78 11 79 12 80 13 81 17 82 14 83 16 84
REMARK SMILES IDX 15 85 18 86 19 88 20 89 30 90 21 91 23 92 22 93 24 94 25 95
REMARK SMILES IDX 26 96 27 97 28 98 29 99
REMARK H PARENT 90 24 56 35 18 87
REMARK Flexibility Score: inf
ROOT
ATOM      1  O   UNL     1       4.363   0.712  -1.379  1.00  0.00    -0.374 OA
ENDROOT
BRANCH   1   2
ATOM      2  C   UNL     1       4.836  -0.615  -1.202  1.00  0.00     0.202 C 
BRANCH   2   3
ATOM      3  C   UNL     1       4.330  -1.161   0.123  1.00  0.00     0.261 C 
BRANCH   3   4
ATOM      4  O   UNL     1       2.909  -1.161   0.123  1.00  0.00    -0.460 OA
BRANCH   4   5
ATOM      5  C   UNL     1       2.200   0.058  -0.040  1.00  0.00     0.338 C 
ATOM      6  O   UNL     1       0.929   0.058  -0.040  1.00  0.00    -0.246 OA
BRANCH   5   7
ATOM      7  C   UNL     1       2.959   1.363  -0.213  1.00  0.00     0.060 A 
ATOM      8  C   UNL     1       4.038   1.412  -1.081  1.00  0.00     0.016 A 
ATOM      9  C   UNL     1       2.576   2.435   0.470  1.00  0.00     0.016 A 
ATOM     10  C   UNL     1       4.834   2.573  -0.941  1.00  0.00     0.010 A 
ATOM     11  C   UNL     1       3.331   3.582   0.453  1.00  0.00     0.010 A 
ATOM     12  C   UNL     1       4.444   3.680  -0.336  1.00  0.00    -0.014 A 
BRANCH  12  13
ATOM     13  C   UNL     1       5.190   4.993  -0.508  1.00  0.00     0.031 A 
ATOM     14  C   UNL     1       5.721   5.585   0.639  1.00  0.00     0.074 A 
ATOM     15  C   UNL     1       5.303   5.530  -1.779  1.00  0.00     0.049 A 
ATOM     16  N   UNL     1       6.432   6.711   0.719  1.00  0.00    -0.248 NA
ATOM     17  C   UNL     1       5.573   5.035   1.995  1.00  0.00     0.031 C 
ATOM     18  C   UNL     1       4.778   4.934  -2.942  1.00  0.00     0.029 A 
ATOM     19  N   UNL     1       5.922   6.704  -2.149  1.00  0.00    -0.354 N 
ATOM     20  C   UNL     1       6.781   6.947   1.986  1.00  0.00     0.074 A 
ATOM     21  C   UNL     1       6.228   5.875   2.825  1.00  0.00     0.031 C 
ATOM     22  C   UNL     1       5.066   5.742  -3.996  1.00  0.00     0.029 A 
ATOM     23  C   UNL     1       5.776   6.856  -3.510  1.00  0.00     0.049 A 
ATOM     24  H   UNL     1       6.387   7.326  -1.545  1.00  0.00     0.167 HD
ATOM     25  C   UNL     1       7.540   8.012   2.473  1.00  0.00     0.037 A 
ATOM     26  C   UNL     1       6.228   7.901  -4.300  1.00  0.00     0.037 A 
ATOM     27  C   UNL     1       8.030   9.034   1.676  1.00  0.00     0.049 A 
ATOM     28  C   UNL     1       6.938   8.997  -3.804  1.00  0.00     0.074 A 
ATOM     29  C   UNL     1       8.803  10.111   2.150  1.00  0.00     0.029 A 
ATOM     30  N   UNL     1       7.863   9.200   0.319  1.00  0.00    -0.354 N 
ATOM     31  N   UNL     1       7.321   9.212  -2.544  1.00  0.00    -0.248 NA
ATOM     32  C   UNL     1       7.394  10.126  -4.626  1.00  0.00     0.031 C 
ATOM     33  C   UNL     1       9.091  10.920   1.095  1.00  0.00     0.029 A 
ATOM     34  C   UNL     1       8.502  10.361  -0.055  1.00  0.00     0.049 A 
ATOM     35  H   UNL     1       7.373   8.592  -0.281  1.00  0.00     0.167 HD
ATOM     36  C   UNL     1       7.997  10.359  -2.458  1.00  0.00     0.074 A 
ATOM     37  C   UNL     1       8.047  10.967  -3.795  1.00  0.00     0.031 C 
ATOM     38  C   UNL     1       8.577  10.922  -1.320  1.00  0.00     0.037 A 
BRANCH  25  39
ATOM     39  C   UNL     1       7.848   8.052   3.961  1.00  0.00     0.058 A 
ATOM     40  C   UNL     1       8.551   7.008   4.538  1.00  0.00     0.135 A 
ATOM     41  C   UNL     1       7.435   9.087   4.684  1.00  0.00     0.135 A 
ATOM     42  F   UNL     1       9.197   6.088   3.828  1.00  0.00    -0.206 F 
ATOM     43  C   UNL     1       8.519   7.008   5.953  1.00  0.00     0.059 A 
ATOM     44  C   UNL     1       7.559   9.079   6.052  1.00  0.00     0.059 A 
ATOM     45  F   UNL     1       6.897  10.141   4.077  1.00  0.00    -0.206 F 
ATOM     46  C   UNL     1       8.190   8.050   6.694  1.00  0.00     0.060 A 
BRANCH  46  47
ATOM     47  S   UNL     1       8.556   8.114   8.466  1.00  0.00     0.124 S 
ATOM     48  O   UNL     1       7.854   6.952   9.174  1.00  0.00    -0.237 OA
ATOM     49  O   UNL     1      10.067   8.002   8.680  1.00  0.00    -0.237 OA
ATOM     50  O   UNL     1       7.996   9.595   9.111  1.00  0.00    -0.744 OA
ENDBRANCH  46  47
ENDBRANCH  25  39
BRANCH  26  51
ATOM     51  C   UNL     1       5.935   7.852  -5.791  1.00  0.00     0.058 A 
ATOM     52  C   UNL     1       6.989   7.843  -6.690  1.00  0.00     0.135 A 
ATOM     53  C   UNL     1       4.675   7.814  -6.206  1.00  0.00     0.135 A 
ATOM     54  F   UNL     1       8.250   7.626  -6.329  1.00  0.00    -0.206 F 
ATOM     55  C   UNL     1       6.601   8.087  -8.029  1.00  0.00     0.059 A 
ATOM     56  C   UNL     1       4.375   7.921  -7.542  1.00  0.00     0.059 A 
ATOM     57  F   UNL     1       3.693   7.672  -5.320  1.00  0.00    -0.206 F 
ATOM     58  C   UNL     1       5.365   7.977  -8.483  1.00  0.00     0.060 A 
BRANCH  58  59
ATOM     59  S   UNL     1       5.003   7.904 -10.255  1.00  0.00     0.124 S 
ATOM     60  O   UNL     1       5.506   9.181 -10.932  1.00  0.00    -0.237 OA
ATOM     61  O   UNL     1       5.705   6.690 -10.869  1.00  0.00    -0.237 OA
ATOM     62  O   UNL     1       3.315   7.763 -10.486  1.00  0.00    -0.744 OA
ENDBRANCH  58  59
ENDBRANCH  26  51
BRANCH  38  63
ATOM     63  C   UNL     1       9.338  12.228  -1.478  1.00  0.00     0.058 A 
ATOM     64  C   UNL     1       8.674  13.346  -1.956  1.00  0.00     0.135 A 
ATOM     65  C   UNL     1      10.625  12.276  -1.157  1.00  0.00     0.135 A 
ATOM     66  F   UNL     1       7.350  13.419  -2.050  1.00  0.00    -0.206 F 
ATOM     67  C   UNL     1       9.534  14.405  -2.335  1.00  0.00     0.059 A 
ATOM     68  C   UNL     1      11.374  13.395  -1.433  1.00  0.00     0.059 A 
ATOM     69  F   UNL     1      11.195  11.232  -0.561  1.00  0.00    -0.206 F 
ATOM     70  C   UNL     1      10.795  14.516  -1.960  1.00  0.00     0.060 A 
BRANCH  70  71
ATOM     71  S   UNL     1      11.709  16.068  -2.136  1.00  0.00     0.124 S 
ATOM     72  O   UNL     1      11.751  16.472  -3.611  1.00  0.00    -0.237 OA
ATOM     73  O   UNL     1      11.012  17.165  -1.327  1.00  0.00    -0.237 OA
ATOM     74  O   UNL     1      13.304  15.860  -1.556  1.00  0.00    -0.744 OA
ENDBRANCH  70  71
ENDBRANCH  38  63
ENDBRANCH  12  13
ENDBRANCH   5   7
ENDBRANCH   4   5
ENDBRANCH   3   4
ENDBRANCH   2   3
ENDBRANCH   1   2
BRANCH   1  75
ATOM     75  C   UNL     1       2.943   0.712  -1.379  1.00  0.00     0.202 C 
BRANCH  75  76
ATOM     76  C   UNL     1       2.436  -0.162  -2.514  1.00  0.00     0.261 C 
BRANCH  76  77
ATOM     77  O   UNL     1       2.909  -1.489  -2.337  1.00  0.00    -0.460 OA
BRANCH  77  78
ATOM     78  C   UNL     1       4.306  -1.746  -2.303  1.00  0.00     0.340 C 
ATOM     79  O   UNL     1       5.131  -0.789  -2.431  1.00  0.00    -0.246 OA
BRANCH  78  80
ATOM     80  C   UNL     1       4.812  -3.167  -2.114  1.00  0.00     0.083 A 
ATOM     81  C   UNL     1       5.846  -3.402  -1.223  1.00  0.00     0.018 A 
ATOM     82  C   UNL     1       4.261  -4.157  -2.806  1.00  0.00     0.053 A 
ATOM     83  C   UNL     1       6.428  -4.686  -1.345  1.00  0.00     0.001 A 
ATOM     84  C   UNL     1       4.802  -5.420  -2.773  1.00  0.00     0.027 A 
ATOM     85  C   UNL     1       5.862  -5.709  -1.959  1.00  0.00     0.002 A 
BRANCH  82  86
ATOM     86  N   UNL     1       3.061  -3.900  -3.615  1.00  0.00    -0.355 N 
ATOM     87  H   UNL     1       2.669  -2.997  -3.642  1.00  0.00     0.167 HD
BRANCH  86  88
ATOM     88  C   UNL     1       2.445  -4.992  -4.383  1.00  0.00     0.040 A 
ATOM     89  C   UNL     1       2.388  -5.023  -5.767  1.00  0.00     0.026 A 
ATOM     90  C   UNL     1       2.032  -6.021  -3.653  1.00  0.00     0.050 A 
ATOM     91  C   UNL     1       1.605  -6.082  -6.284  1.00  0.00     0.004 A 
ATOM     92  C   UNL     1       1.394  -7.086  -4.243  1.00  0.00     0.109 A 
ATOM     93  C   UNL     1       1.251  -7.155  -5.601  1.00  0.00     0.024 A 
BRANCH  92  94
ATOM     94  S   UNL     1       0.735  -8.416  -3.207  1.00  0.00     0.310 S 
ATOM     95  F   UNL     1       2.008  -8.180  -2.291  1.00  0.00    -0.094 F 
ATOM     96  F   UNL     1       1.635  -9.353  -4.098  1.00  0.00    -0.094 F 
ATOM     97  F   UNL     1       0.364  -9.607  -2.280  1.00  0.00    -0.094 F 
ATOM     98  F   UNL     1      -0.047  -7.435  -2.247  1.00  0.00    -0.094 F 
ATOM     99  F   UNL     1       1.195  -7.177  -4.074  1.00  0.00    -0.094 F 
ENDBRANCH  92  94
ENDBRANCH  86  88
ENDBRANCH  82  86
ENDBRANCH  78  80
ENDBRANCH  77  78
ENDBRANCH  76  77
ENDBRANCH  75  76
ENDBRANCH   1  75
TORSDOF 20
