REMARK SMILES Cc1c([C@H]2[C@H](C(=O)OCCOCCOC(=O)c3ccc(-c4c5nc(c(-c6c(F)cc(S(=O)(=O)[O-])cc6F)c6ccc([nH]6)c(-c6c(F)cc(S(=O)(=O)[O-])cc6F)c6nc(c(-c7c(F)cc(S(=O)(=O)[O-])cc7F)c7ccc4[nH]7)C=C6)C=C5)cc3)OCC(=O)N2CC(C)C)cnn1C
REMARK SMILES IDX 12 1 11 2 10 3 9 4 8 5 6 6 7 7 5 8 4 9 87 10 83 11 85 12
REMARK SMILES IDX 84 13 86 14 3 15 1 16 2 17 94 18 92 19 93 20 95 21 88 22
REMARK SMILES IDX 89 23 90 24 91 25 13 26 14 27 15 28 16 29 17 30 18 31 82 32
REMARK SMILES IDX 19 33 81 34 20 35 21 36 22 37 75 38 23 39 80 40 74 41 76 42
REMARK SMILES IDX 24 43 79 44 73 45 72 46 25 48 59 49 38 50 58 51 39 52 42 53
REMARK SMILES IDX 57 54 77 55 40 56 41 57 56 59 78 60 43 61 26 62 27 63 36 64
REMARK SMILES IDX 28 65 29 66 35 67 37 68 30 69 31 70 32 71 33 72 34 73 60 74
REMARK SMILES IDX 61 75 70 76 62 77 63 78 69 79 71 80 64 81 65 82 66 83 67 84
REMARK SMILES IDX 68 85 44 86 45 87 54 88 46 89 47 90 53 91 55 92 48 93 49 94
REMARK SMILES IDX 50 95 51 96 52 97
REMARK H PARENT 76 47 42 58
REMARK Flexibility Score: inf
ROOT
ATOM      1  C   UNL     1      -4.050  -2.049  -2.069  1.00  0.00     0.202 C 
ENDROOT
BRANCH   1   2
ATOM      2  O   UNL     1      -5.330  -2.665  -1.970  1.00  0.00    -0.374 OA
BRANCH   2   3
ATOM      3  C   UNL     1      -5.770  -3.051  -0.670  1.00  0.00     0.202 C 
BRANCH   3   4
ATOM      4  C   UNL     1      -5.204  -4.353  -0.093  1.00  0.00     0.261 C 
BRANCH   4   5
ATOM      5  O   UNL     1      -3.774  -4.321   0.082  1.00  0.00    -0.461 OA
BRANCH   5   6
ATOM      6  C   UNL     1      -3.077  -5.131  -0.758  1.00  0.00     0.337 C 
ATOM      7  O   UNL     1      -3.584  -5.827  -1.633  1.00  0.00    -0.249 OA
BRANCH   6   8
ATOM      8  C   UNL     1      -1.567  -5.112  -0.510  1.00  0.00     0.255 C 
ATOM      9  C   UNL     1      -0.967  -3.713  -0.178  1.00  0.00     0.159 C 
ATOM     10  N   UNL     1      -0.740  -3.450   1.254  1.00  0.00    -0.330 N 
ATOM     11  O   UNL     1      -1.062  -6.136   0.339  1.00  0.00    -0.354 OA
ATOM     12  C   UNL     1      -0.793  -4.468   2.201  1.00  0.00     0.249 C 
ATOM     13  C   UNL     1      -1.271  -5.837   1.703  1.00  0.00     0.261 C 
ATOM     14  O   UNL     1      -0.564  -4.279   3.395  1.00  0.00    -0.272 OA
BRANCH   9  15
ATOM     15  C   UNL     1       0.295  -3.558  -0.991  1.00  0.00     0.019 A 
ATOM     16  C   UNL     1      -0.665  -2.639  -3.243  1.00  0.00     0.067 C 
ATOM     17  C   UNL     1       0.382  -3.148  -2.319  1.00  0.00     0.040 A 
ATOM     18  N   UNL     1       1.674  -3.407  -2.703  1.00  0.00    -0.273 N 
ATOM     19  C   UNL     1       1.611  -3.960  -0.667  1.00  0.00     0.141 A 
ATOM     20  N   UNL     1       2.451  -3.838  -1.696  1.00  0.00    -0.181 NA
ATOM     21  C   UNL     1       2.201  -3.403  -4.048  1.00  0.00     0.174 C 
ENDBRANCH   9  15
BRANCH  10  22
ATOM     22  C   UNL     1      -0.572  -2.068   1.735  1.00  0.00     0.123 C 
BRANCH  22  23
ATOM     23  C   UNL     1       0.891  -1.661   2.018  1.00  0.00     0.002 C 
ATOM     24  C   UNL     1       1.431  -0.733   0.927  1.00  0.00     0.009 C 
ATOM     25  C   UNL     1       1.010  -0.940   3.367  1.00  0.00     0.009 C 
ENDBRANCH  22  23
ENDBRANCH  10  22
ENDBRANCH   6   8
ENDBRANCH   5   6
ENDBRANCH   4   5
ENDBRANCH   3   4
ENDBRANCH   2   3
ENDBRANCH   1   2
BRANCH   1  26
ATOM     26  C   UNL     1      -3.918  -0.597  -1.587  1.00  0.00     0.261 C 
BRANCH  26  27
ATOM     27  O   UNL     1      -4.131  -0.462  -0.171  1.00  0.00    -0.460 OA
BRANCH  27  28
ATOM     28  C   UNL     1      -5.260   0.210   0.163  1.00  0.00     0.338 C 
ATOM     29  O   UNL     1      -6.044   0.756  -0.602  1.00  0.00    -0.246 OA
BRANCH  28  30
ATOM     30  C   UNL     1      -5.552   0.036   1.596  1.00  0.00     0.060 A 
ATOM     31  C   UNL     1      -6.798  -0.506   1.939  1.00  0.00     0.016 A 
ATOM     32  C   UNL     1      -4.667   0.467   2.586  1.00  0.00     0.016 A 
ATOM     33  C   UNL     1      -7.186  -0.574   3.274  1.00  0.00     0.010 A 
ATOM     34  C   UNL     1      -5.064   0.410   3.926  1.00  0.00     0.010 A 
ATOM     35  C   UNL     1      -6.338  -0.076   4.272  1.00  0.00    -0.014 A 
BRANCH  35  36
ATOM     36  C   UNL     1      -6.856   0.077   5.653  1.00  0.00     0.031 A 
ATOM     37  C   UNL     1      -7.358   1.426   6.093  1.00  0.00     0.074 A 
ATOM     38  C   UNL     1      -6.912  -0.977   6.487  1.00  0.00     0.049 A 
ATOM     39  N   UNL     1      -7.834   1.795   7.253  1.00  0.00    -0.248 NA
ATOM     40  C   UNL     1      -7.318   2.503   5.090  1.00  0.00     0.031 C 
ATOM     41  C   UNL     1      -6.493  -2.338   6.156  1.00  0.00     0.029 A 
ATOM     42  N   UNL     1      -7.343  -1.063   7.786  1.00  0.00    -0.354 N 
ATOM     43  C   UNL     1      -8.137   3.146   7.126  1.00  0.00     0.074 A 
ATOM     44  C   UNL     1      -7.774   3.537   5.782  1.00  0.00     0.031 C 
ATOM     45  C   UNL     1      -6.681  -3.125   7.230  1.00  0.00     0.029 A 
ATOM     46  C   UNL     1      -7.204  -2.317   8.331  1.00  0.00     0.049 A 
ATOM     47  H   UNL     1      -7.718  -0.299   8.281  1.00  0.00     0.167 HD
ATOM     48  C   UNL     1      -8.675   3.981   8.046  1.00  0.00     0.037 A 
ATOM     49  C   UNL     1      -7.451  -2.755   9.581  1.00  0.00     0.037 A 
ATOM     50  C   UNL     1      -9.044   3.581   9.379  1.00  0.00     0.049 A 
ATOM     51  C   UNL     1      -7.995  -1.791  10.604  1.00  0.00     0.074 A 
ATOM     52  C   UNL     1      -9.627   4.343  10.376  1.00  0.00     0.029 A 
ATOM     53  N   UNL     1      -8.859   2.310   9.903  1.00  0.00    -0.354 N 
ATOM     54  N   UNL     1      -8.306  -0.524  10.461  1.00  0.00    -0.248 NA
ATOM     55  C   UNL     1      -8.221  -2.315  11.959  1.00  0.00     0.031 C 
ATOM     56  C   UNL     1      -9.750   3.547  11.519  1.00  0.00     0.029 A 
ATOM     57  C   UNL     1      -9.291   2.274  11.219  1.00  0.00     0.049 A 
ATOM     58  H   UNL     1      -8.478   1.547   9.413  1.00  0.00     0.167 HD
ATOM     59  C   UNL     1      -8.792  -0.109  11.697  1.00  0.00     0.074 A 
ATOM     60  C   UNL     1      -8.741  -1.262  12.573  1.00  0.00     0.031 C 
ATOM     61  C   UNL     1      -9.243   1.113  12.073  1.00  0.00     0.037 A 
BRANCH  48  62
ATOM     62  C   UNL     1      -8.870   5.420   7.656  1.00  0.00     0.058 A 
ATOM     63  C   UNL     1      -9.878   5.816   6.764  1.00  0.00     0.135 A 
ATOM     64  C   UNL     1      -8.059   6.421   8.216  1.00  0.00     0.135 A 
ATOM     65  F   UNL     1     -10.668   4.899   6.185  1.00  0.00    -0.206 F 
ATOM     66  C   UNL     1     -10.064   7.153   6.426  1.00  0.00     0.059 A 
ATOM     67  C   UNL     1      -8.243   7.766   7.911  1.00  0.00     0.059 A 
ATOM     68  F   UNL     1      -7.077   6.096   9.071  1.00  0.00    -0.206 F 
ATOM     69  C   UNL     1      -9.241   8.121   7.005  1.00  0.00     0.060 A 
BRANCH  69  70
ATOM     70  S   UNL     1      -9.501   9.853   6.565  1.00  0.00     0.124 S 
ATOM     71  O   UNL     1      -8.967   9.891   5.207  1.00  0.00    -0.237 OA
ATOM     72  O   UNL     1     -10.950   9.990   6.679  1.00  0.00    -0.237 OA
ATOM     73  O   UNL     1      -8.725  10.579   7.565  1.00  0.00    -0.744 OA
ENDBRANCH  69  70
ENDBRANCH  48  62
BRANCH  49  74
ATOM     74  C   UNL     1      -7.180  -4.172   9.944  1.00  0.00     0.058 A 
ATOM     75  C   UNL     1      -8.228  -5.060  10.227  1.00  0.00     0.135 A 
ATOM     76  C   UNL     1      -5.868  -4.662  10.028  1.00  0.00     0.135 A 
ATOM     77  F   UNL     1      -9.500  -4.636  10.171  1.00  0.00    -0.206 F 
ATOM     78  C   UNL     1      -7.986  -6.379  10.598  1.00  0.00     0.059 A 
ATOM     79  C   UNL     1      -5.601  -5.984  10.372  1.00  0.00     0.059 A 
ATOM     80  F   UNL     1      -4.830  -3.856   9.758  1.00  0.00    -0.206 F 
ATOM     81  C   UNL     1      -6.667  -6.832  10.667  1.00  0.00     0.060 A 
BRANCH  81  82
ATOM     82  S   UNL     1      -6.365  -8.555  11.114  1.00  0.00     0.124 S 
ATOM     83  O   UNL     1      -6.644  -8.541  12.545  1.00  0.00    -0.237 OA
ATOM     84  O   UNL     1      -7.334  -9.262  10.281  1.00  0.00    -0.237 OA
ATOM     85  O   UNL     1      -4.968  -8.757  10.743  1.00  0.00    -0.744 OA
ENDBRANCH  81  82
ENDBRANCH  49  74
BRANCH  61  86
ATOM     86  C   UNL     1      -9.757   1.262  13.478  1.00  0.00     0.058 A 
ATOM     87  C   UNL     1      -8.890   1.294  14.582  1.00  0.00     0.135 A 
ATOM     88  C   UNL     1     -11.130   1.431  13.717  1.00  0.00     0.135 A 
ATOM     89  F   UNL     1      -7.569   1.131  14.409  1.00  0.00    -0.206 F 
ATOM     90  C   UNL     1      -9.370   1.466  15.876  1.00  0.00     0.059 A 
ATOM     91  C   UNL     1     -11.630   1.631  15.000  1.00  0.00     0.059 A 
ATOM     92  F   UNL     1     -12.001   1.421  12.695  1.00  0.00    -0.206 F 
ATOM     93  C   UNL     1     -10.742   1.635  16.075  1.00  0.00     0.060 A 
BRANCH  93  94
ATOM     94  S   UNL     1     -11.350   1.892  17.756  1.00  0.00     0.124 S 
ATOM     95  O   UNL     1     -11.255   0.547  18.312  1.00  0.00    -0.237 OA
ATOM     96  O   UNL     1     -10.401   2.866  18.287  1.00  0.00    -0.237 OA
ATOM     97  O   UNL     1     -12.706   2.394  17.553  1.00  0.00    -0.744 OA
ENDBRANCH  93  94
ENDBRANCH  61  86
ENDBRANCH  35  36
ENDBRANCH  28  30
ENDBRANCH  27  28
ENDBRANCH  26  27
ENDBRANCH   1  26
TORSDOF 20
