REMARK SMILES Cc1ccc([C@H](CC2CCCC2)C(=O)OCCOCCOC(=O)c2ccc(-c3c4nc(c(-c5c(F)cc(S(=O)(=O)[O-])cc5F)c5ccc([nH]5)c(-c5c(F)cc(S(=O)(=O)[O-])cc5F)c5nc(c(-c6c(F)cc(S(=O)(=O)[O-])cc6F)c6ccc3[nH]6)C=C5)C=C4)cc2)cc1
REMARK SMILES IDX 19 1 18 2 17 3 16 4 15 5 13 6 14 7 6 8 5 9 1 10 2 11 3 12
REMARK SMILES IDX 91 13 4 14 90 15 7 16 8 17 9 18 12 19 10 20 11 21 20 22
REMARK SMILES IDX 21 23 22 24 23 25 24 26 25 27 89 28 26 29 88 30 27 31 28 32
REMARK SMILES IDX 29 33 82 34 30 35 87 36 81 37 83 38 31 39 86 40 80 41 79 42
REMARK SMILES IDX 32 44 66 45 45 46 65 47 46 48 49 49 64 50 84 51 47 52 48 53
REMARK SMILES IDX 63 55 85 56 50 57 33 58 34 59 43 60 35 61 36 62 42 63 44 64
REMARK SMILES IDX 37 65 38 66 39 67 40 68 41 69 67 70 68 71 77 72 69 73 70 74
REMARK SMILES IDX 76 75 78 76 71 77 72 78 73 79 74 80 75 81 51 82 52 83 61 84
REMARK SMILES IDX 53 85 54 86 60 87 62 88 55 89 56 90 57 91 58 92 59 93
REMARK H PARENT 83 43 49 54
REMARK Flexibility Score: inf
ROOT
ATOM      1  C   UNL     1      -2.524   0.376   4.079  1.00  0.00     0.202 C 
ENDROOT
BRANCH   1   2
ATOM      2  O   UNL     1      -3.045  -0.585   3.201  1.00  0.00    -0.374 OA
BRANCH   2   3
ATOM      3  C   UNL     1      -2.164  -1.608   2.756  1.00  0.00     0.202 C 
BRANCH   3   4
ATOM      4  C   UNL     1      -2.901  -2.260   1.632  1.00  0.00     0.261 C 
BRANCH   4   5
ATOM      5  O   UNL     1      -2.760  -1.506   0.438  1.00  0.00    -0.463 OA
BRANCH   5   6
ATOM      6  C   UNL     1      -3.498  -0.365   0.278  1.00  0.00     0.313 C 
ATOM      7  O   UNL     1      -4.493  -0.031   0.886  1.00  0.00    -0.252 OA
BRANCH   6   8
ATOM      8  C   UNL     1      -2.852   0.433  -0.854  1.00  0.00     0.129 C 
BRANCH   8   9
ATOM      9  C   UNL     1      -3.181  -0.288  -2.167  1.00  0.00    -0.034 A 
ATOM     10  C   UNL     1      -4.732  -2.680  -5.420  1.00  0.00     0.044 C 
ATOM     11  C   UNL     1      -4.170  -1.836  -4.317  1.00  0.00    -0.051 A 
ATOM     12  C   UNL     1      -4.614  -0.523  -4.119  1.00  0.00     0.004 A 
ATOM     13  C   UNL     1      -3.181  -2.347  -3.477  1.00  0.00     0.004 A 
ATOM     14  C   UNL     1      -4.138   0.239  -3.045  1.00  0.00     0.005 A 
ATOM     15  C   UNL     1      -2.676  -1.575  -2.431  1.00  0.00     0.005 A 
ENDBRANCH   8   9
BRANCH   8  16
ATOM     16  C   UNL     1      -1.325   0.600  -0.581  1.00  0.00     0.023 C 
BRANCH  16  17
ATOM     17  C   UNL     1      -0.889   1.940   0.060  1.00  0.00    -0.010 C 
ATOM     18  C   UNL     1      -0.488   1.882   1.537  1.00  0.00     0.003 C 
ATOM     19  C   UNL     1       0.405   2.436  -0.580  1.00  0.00     0.003 C 
ATOM     20  C   UNL     1       0.548   2.977   1.776  1.00  0.00     0.000 C 
ATOM     21  C   UNL     1       0.988   3.440   0.400  1.00  0.00     0.000 C 
ENDBRANCH  16  17
ENDBRANCH   8  16
ENDBRANCH   6   8
ENDBRANCH   5   6
ENDBRANCH   4   5
ENDBRANCH   3   4
ENDBRANCH   2   3
ENDBRANCH   1   2
BRANCH   1  22
ATOM     22  C   UNL     1      -1.640  -0.166   5.191  1.00  0.00     0.261 C 
BRANCH  22  23
ATOM     23  O   UNL     1      -2.416  -0.570   6.341  1.00  0.00    -0.460 OA
BRANCH  23  24
ATOM     24  C   UNL     1      -2.653  -1.906   6.509  1.00  0.00     0.338 C 
ATOM     25  O   UNL     1      -2.061  -2.581   7.337  1.00  0.00    -0.246 OA
BRANCH  24  26
ATOM     26  C   UNL     1      -3.828  -2.387   5.727  1.00  0.00     0.060 A 
ATOM     27  C   UNL     1      -3.976  -3.733   5.359  1.00  0.00     0.016 A 
ATOM     28  C   UNL     1      -4.727  -1.453   5.239  1.00  0.00     0.016 A 
ATOM     29  C   UNL     1      -4.904  -4.105   4.365  1.00  0.00     0.010 A 
ATOM     30  C   UNL     1      -5.509  -1.792   4.154  1.00  0.00     0.010 A 
ATOM     31  C   UNL     1      -5.613  -3.116   3.694  1.00  0.00    -0.014 A 
BRANCH  31  32
ATOM     32  C   UNL     1      -6.500  -3.267   2.529  1.00  0.00     0.031 A 
ATOM     33  C   UNL     1      -7.900  -2.788   2.699  1.00  0.00     0.074 A 
ATOM     34  C   UNL     1      -6.063  -3.572   1.276  1.00  0.00     0.049 A 
ATOM     35  N   UNL     1      -8.808  -2.907   1.801  1.00  0.00    -0.248 NA
ATOM     36  C   UNL     1      -8.417  -2.146   3.907  1.00  0.00     0.031 C 
ATOM     37  C   UNL     1      -6.722  -3.274  -0.002  1.00  0.00     0.029 A 
ATOM     38  N   UNL     1      -4.924  -4.279   0.857  1.00  0.00    -0.354 N 
ATOM     39  C   UNL     1      -9.892  -2.138   2.152  1.00  0.00     0.074 A 
ATOM     40  C   UNL     1      -9.622  -1.735   3.505  1.00  0.00     0.031 C 
ATOM     41  C   UNL     1      -6.204  -4.050  -0.968  1.00  0.00     0.029 A 
ATOM     42  C   UNL     1      -5.266  -4.949  -0.329  1.00  0.00     0.049 A 
ATOM     43  H   UNL     1      -4.050  -4.300   1.310  1.00  0.00     0.167 HD
ATOM     44  C   UNL     1     -10.825  -1.899   1.187  1.00  0.00     0.037 A 
ATOM     45  C   UNL     1      -5.210  -6.303  -0.407  1.00  0.00     0.037 A 
ATOM     46  C   UNL     1     -10.542  -2.744   0.013  1.00  0.00     0.049 A 
ATOM     47  C   UNL     1      -6.578  -6.842  -0.703  1.00  0.00     0.074 A 
ATOM     48  C   UNL     1     -10.025  -2.517  -1.251  1.00  0.00     0.029 A 
ATOM     49  N   UNL     1     -10.508  -4.127   0.195  1.00  0.00    -0.354 N 
ATOM     50  N   UNL     1      -7.666  -6.144  -0.515  1.00  0.00    -0.248 NA
ATOM     51  C   UNL     1      -6.848  -8.128  -1.323  1.00  0.00     0.031 C 
ATOM     52  C   UNL     1      -9.685  -3.781  -1.821  1.00  0.00     0.029 A 
ATOM     53  C   UNL     1     -10.015  -4.779  -0.915  1.00  0.00     0.049 A 
ATOM     54  H   UNL     1     -10.802  -4.582   1.018  1.00  0.00     0.167 HD
ATOM     55  C   UNL     1      -8.751  -6.807  -1.012  1.00  0.00     0.074 A 
ATOM     56  C   UNL     1      -8.181  -8.051  -1.502  1.00  0.00     0.031 C 
ATOM     57  C   UNL     1     -10.000  -6.246  -0.968  1.00  0.00     0.037 A 
BRANCH  44  58
ATOM     58  C   UNL     1     -11.932  -0.856   1.217  1.00  0.00     0.058 A 
ATOM     59  C   UNL     1     -12.709  -0.615   0.059  1.00  0.00     0.135 A 
ATOM     60  C   UNL     1     -12.267  -0.024   2.308  1.00  0.00     0.135 A 
ATOM     61  F   UNL     1     -12.515  -1.309  -1.072  1.00  0.00    -0.206 F 
ATOM     62  C   UNL     1     -13.712   0.359  -0.009  1.00  0.00     0.059 A 
ATOM     63  C   UNL     1     -13.267   0.952   2.267  1.00  0.00     0.059 A 
ATOM     64  F   UNL     1     -11.648  -0.095   3.486  1.00  0.00    -0.206 F 
ATOM     65  C   UNL     1     -13.987   1.140   1.103  1.00  0.00     0.060 A 
BRANCH  65  66
ATOM     66  S   UNL     1     -15.284   2.386   1.012  1.00  0.00     0.124 S 
ATOM     67  O   UNL     1     -14.790   3.264  -0.044  1.00  0.00    -0.237 OA
ATOM     68  O   UNL     1     -16.456   1.585   0.679  1.00  0.00    -0.237 OA
ATOM     69  O   UNL     1     -15.291   2.971   2.351  1.00  0.00    -0.744 OA
ENDBRANCH  65  66
ENDBRANCH  44  58
BRANCH  45  70
ATOM     70  C   UNL     1      -4.071  -6.855   0.395  1.00  0.00     0.058 A 
ATOM     71  C   UNL     1      -2.780  -6.591  -0.123  1.00  0.00     0.135 A 
ATOM     72  C   UNL     1      -4.170  -7.002   1.788  1.00  0.00     0.135 A 
ATOM     73  F   UNL     1      -2.609  -6.457  -1.449  1.00  0.00    -0.206 F 
ATOM     74  C   UNL     1      -1.700  -6.272   0.701  1.00  0.00     0.059 A 
ATOM     75  C   UNL     1      -3.091  -6.692   2.633  1.00  0.00     0.059 A 
ATOM     76  F   UNL     1      -5.360  -7.255   2.353  1.00  0.00    -0.206 F 
ATOM     77  C   UNL     1      -1.886  -6.253   2.080  1.00  0.00     0.060 A 
BRANCH  77  78
ATOM     78  S   UNL     1      -0.638  -5.413   3.100  1.00  0.00     0.124 S 
ATOM     79  O   UNL     1       0.420  -6.412   3.173  1.00  0.00    -0.237 OA
ATOM     80  O   UNL     1      -0.331  -4.222   2.309  1.00  0.00    -0.237 OA
ATOM     81  O   UNL     1      -1.345  -5.142   4.345  1.00  0.00    -0.744 OA
ENDBRANCH  77  78
ENDBRANCH  45  70
BRANCH  57  82
ATOM     82  C   UNL     1     -11.333  -6.987  -1.003  1.00  0.00     0.058 A 
ATOM     83  C   UNL     1     -11.482  -8.382  -1.050  1.00  0.00     0.135 A 
ATOM     84  C   UNL     1     -12.558  -6.277  -0.839  1.00  0.00     0.135 A 
ATOM     85  F   UNL     1     -10.441  -9.215  -1.117  1.00  0.00    -0.206 F 
ATOM     86  C   UNL     1     -12.725  -9.014  -0.985  1.00  0.00     0.059 A 
ATOM     87  C   UNL     1     -13.798  -6.890  -0.698  1.00  0.00     0.059 A 
ATOM     88  F   UNL     1     -12.615  -4.940  -0.782  1.00  0.00    -0.206 F 
ATOM     89  C   UNL     1     -13.876  -8.263  -0.797  1.00  0.00     0.060 A 
BRANCH  89  90
ATOM     90  S   UNL     1     -15.452  -9.109  -0.666  1.00  0.00     0.124 S 
ATOM     91  O   UNL     1     -15.638  -9.585  -2.033  1.00  0.00    -0.237 OA
ATOM     92  O   UNL     1     -15.165 -10.139   0.328  1.00  0.00    -0.237 OA
ATOM     93  O   UNL     1     -16.371  -8.063  -0.232  1.00  0.00    -0.744 OA
ENDBRANCH  89  90
ENDBRANCH  57  82
ENDBRANCH  31  32
ENDBRANCH  24  26
ENDBRANCH  23  24
ENDBRANCH  22  23
ENDBRANCH   1  22
TORSDOF 20
