REMARK SMILES O=C(CCN/C(=[NH+]\S(=O)(=O)c1ccccc1)c1ccccc1)OCCOCCOC(=O)c1ccc(-c2c3nc(c(-c4c(F)cc(S(=O)(=O)[O-])cc4F)c4ccc([nH]4)c(-c4c(F)cc(S(=O)(=O)[O-])cc4F)c4nc(c(-c5c(F)cc(S(=O)(=O)[O-])cc5F)c5ccc2[nH]5)C=C4)C=C3)cc1
REMARK SMILES IDX 25 1 24 2 23 3 2 4 1 5 3 6 4 7 5 8 6 9 7 11 17 13 18 14
REMARK SMILES IDX 22 15 19 16 21 17 20 18 8 19 9 20 10 21 11 22 12 23 16 24
REMARK SMILES IDX 13 25 15 26 14 27 26 28 27 29 28 30 29 31 30 32 31 33 32 34
REMARK SMILES IDX 33 35 97 36 34 37 96 38 35 39 36 40 37 41 90 42 38 43 95 44
REMARK SMILES IDX 89 45 91 46 39 47 94 48 88 49 87 50 40 52 74 53 53 54 73 55
REMARK SMILES IDX 54 56 57 57 72 58 92 59 55 60 56 61 71 63 93 64 58 65 41 66
REMARK SMILES IDX 42 67 51 68 43 69 44 70 50 71 52 72 45 73 46 74 47 75 48 76
REMARK SMILES IDX 49 77 75 78 76 79 85 80 77 81 78 82 84 83 86 84 79 85 80 86
REMARK SMILES IDX 81 87 82 88 83 89 59 90 60 91 69 92 61 93 62 94 68 95 70 96
REMARK SMILES IDX 63 97 64 98 65 99 66 100 67 101
REMARK H PARENT 5 10 7 12 91 51 57 62
REMARK Flexibility Score: inf
ROOT
ATOM      1  C   UNL     1       4.441   0.787   0.711  1.00  0.00     0.202 C 
ENDROOT
BRANCH   1   2
ATOM      2  C   UNL     1       3.475   0.892  -0.478  1.00  0.00     0.261 C 
BRANCH   2   3
ATOM      3  O   UNL     1       2.236   0.170  -0.382  1.00  0.00    -0.463 OA
BRANCH   3   4
ATOM      4  C   UNL     1       2.151  -1.159  -0.577  1.00  0.00     0.309 C 
ATOM      5  O   UNL     1       1.167  -1.649  -1.127  1.00  0.00    -0.252 OA
BRANCH   4   6
ATOM      6  C   UNL     1       3.203  -2.037   0.032  1.00  0.00     0.168 C 
BRANCH   6   7
ATOM      7  C   UNL     1       4.075  -2.728  -0.996  1.00  0.00     0.245 C 
BRANCH   7   8
ATOM      8  N   UNL     1       5.142  -1.900  -1.546  1.00  0.00    -0.273 N 
ATOM      9  C   UNL     1       6.486  -1.778  -1.206  1.00  0.00     0.290 C 
ATOM     10  H   UNL     1       4.860  -1.323  -2.293  1.00  0.00     0.305 HD
ATOM     11  N   UNL     1       7.302  -0.872  -1.668  1.00  0.00    -0.162 N 
ATOM     12  H   UNL     1       8.255  -0.920  -1.426  1.00  0.00     0.327 HD
BRANCH   9  13
ATOM     13  C   UNL     1       7.128  -2.730  -0.228  1.00  0.00     0.064 A 
ATOM     14  C   UNL     1       8.037  -2.228   0.714  1.00  0.00     0.016 A 
ATOM     15  C   UNL     1       6.882  -4.106  -0.269  1.00  0.00     0.016 A 
ATOM     16  C   UNL     1       8.645  -3.084   1.635  1.00  0.00     0.001 A 
ATOM     17  C   UNL     1       7.460  -4.956   0.679  1.00  0.00     0.001 A 
ATOM     18  C   UNL     1       8.340  -4.444   1.631  1.00  0.00     0.000 A 
ENDBRANCH   9  13
BRANCH  11  19
ATOM     19  S   UNL     1       6.793   0.330  -2.627  1.00  0.00     0.328 S 
ATOM     20  O   UNL     1       6.090  -0.235  -3.762  1.00  0.00    -0.179 OA
ATOM     21  O   UNL     1       6.133   1.304  -1.776  1.00  0.00    -0.179 OA
BRANCH  19  22
ATOM     22  C   UNL     1       8.218   1.180  -3.260  1.00  0.00     0.109 A 
ATOM     23  C   UNL     1       9.444   0.538  -3.424  1.00  0.00     0.024 A 
ATOM     24  C   UNL     1       8.087   2.552  -3.527  1.00  0.00     0.024 A 
ATOM     25  C   UNL     1      10.544   1.284  -3.863  1.00  0.00     0.001 A 
ATOM     26  C   UNL     1       9.189   3.289  -3.953  1.00  0.00     0.001 A 
ATOM     27  C   UNL     1      10.417   2.654  -4.119  1.00  0.00     0.000 A 
ENDBRANCH  19  22
ENDBRANCH  11  19
ENDBRANCH   7   8
ENDBRANCH   6   7
ENDBRANCH   4   6
ENDBRANCH   3   4
ENDBRANCH   2   3
ENDBRANCH   1   2
BRANCH   1  28
ATOM     28  O   UNL     1       3.913   0.465   1.996  1.00  0.00    -0.374 OA
BRANCH  28  29
ATOM     29  C   UNL     1       2.714   1.092   2.429  1.00  0.00     0.202 C 
BRANCH  29  30
ATOM     30  C   UNL     1       2.848   2.532   2.909  1.00  0.00     0.261 C 
BRANCH  30  31
ATOM     31  O   UNL     1       3.227   3.408   1.843  1.00  0.00    -0.460 OA
BRANCH  31  32
ATOM     32  C   UNL     1       4.515   3.825   1.869  1.00  0.00     0.338 C 
ATOM     33  O   UNL     1       5.368   3.544   2.694  1.00  0.00    -0.246 OA
BRANCH  32  34
ATOM     34  C   UNL     1       4.787   4.587   0.637  1.00  0.00     0.060 A 
ATOM     35  C   UNL     1       6.000   4.373  -0.030  1.00  0.00     0.016 A 
ATOM     36  C   UNL     1       3.872   5.534   0.172  1.00  0.00     0.016 A 
ATOM     37  C   UNL     1       6.323   5.143  -1.145  1.00  0.00     0.010 A 
ATOM     38  C   UNL     1       4.197   6.304  -0.939  1.00  0.00     0.010 A 
ATOM     39  C   UNL     1       5.436   6.134  -1.579  1.00  0.00    -0.014 A 
BRANCH  39  40
ATOM     40  C   UNL     1       5.853   7.141  -2.575  1.00  0.00     0.031 A 
ATOM     41  C   UNL     1       6.379   8.451  -2.067  1.00  0.00     0.074 A 
ATOM     42  C   UNL     1       5.676   6.925  -3.887  1.00  0.00     0.049 A 
ATOM     43  N   UNL     1       6.624   9.555  -2.719  1.00  0.00    -0.248 NA
ATOM     44  C   UNL     1       6.645   8.526  -0.622  1.00  0.00     0.031 C 
ATOM     45  C   UNL     1       5.196   5.679  -4.480  1.00  0.00     0.029 A 
ATOM     46  N   UNL     1       5.838   7.771  -4.954  1.00  0.00    -0.354 N 
ATOM     47  C   UNL     1       7.053  10.466  -1.761  1.00  0.00     0.074 A 
ATOM     48  C   UNL     1       7.018   9.789  -0.483  1.00  0.00     0.031 C 
ATOM     49  C   UNL     1       5.061   5.855  -5.805  1.00  0.00     0.029 A 
ATOM     50  C   UNL     1       5.399   7.238  -6.141  1.00  0.00     0.049 A 
ATOM     51  H   UNL     1       6.230   8.671  -4.876  1.00  0.00     0.167 HD
ATOM     52  C   UNL     1       7.430  11.754  -1.935  1.00  0.00     0.037 A 
ATOM     53  C   UNL     1       5.242   7.819  -7.347  1.00  0.00     0.037 A 
ATOM     54  C   UNL     1       7.423  12.418  -3.211  1.00  0.00     0.049 A 
ATOM     55  C   UNL     1       5.608   9.271  -7.515  1.00  0.00     0.074 A 
ATOM     56  C   UNL     1       7.798  13.714  -3.510  1.00  0.00     0.029 A 
ATOM     57  N   UNL     1       6.996  11.838  -4.399  1.00  0.00    -0.354 N 
ATOM     58  N   UNL     1       6.045  10.120  -6.614  1.00  0.00    -0.248 NA
ATOM     59  C   UNL     1       5.462   9.846  -8.859  1.00  0.00     0.031 C 
ATOM     60  C   UNL     1       7.543  13.937  -4.867  1.00  0.00     0.029 A 
ATOM     61  C   UNL     1       7.073  12.759  -5.429  1.00  0.00     0.049 A 
ATOM     62  H   UNL     1       6.684  10.910  -4.494  1.00  0.00     0.167 HD
ATOM     63  C   UNL     1       6.258  11.319  -7.287  1.00  0.00     0.074 A 
ATOM     64  C   UNL     1       5.896  11.086  -8.671  1.00  0.00     0.031 C 
ATOM     65  C   UNL     1       6.719  12.501  -6.806  1.00  0.00     0.037 A 
BRANCH  52  66
ATOM     66  C   UNL     1       7.814  12.527  -0.704  1.00  0.00     0.058 A 
ATOM     67  C   UNL     1       8.979  12.234   0.025  1.00  0.00     0.135 A 
ATOM     68  C   UNL     1       6.984  13.552  -0.223  1.00  0.00     0.135 A 
ATOM     69  F   UNL     1       9.800  11.251  -0.378  1.00  0.00    -0.206 F 
ATOM     70  C   UNL     1       9.278  12.893   1.214  1.00  0.00     0.059 A 
ATOM     71  C   UNL     1       7.280  14.246   0.946  1.00  0.00     0.059 A 
ATOM     72  F   UNL     1       5.857  13.874  -0.878  1.00  0.00    -0.206 F 
ATOM     73  C   UNL     1       8.416  13.890   1.671  1.00  0.00     0.060 A 
BRANCH  73  74
ATOM     74  S   UNL     1       8.788  14.701   3.240  1.00  0.00     0.124 S 
ATOM     75  O   UNL     1       8.444  13.654   4.197  1.00  0.00    -0.237 OA
ATOM     76  O   UNL     1      10.211  14.997   3.110  1.00  0.00    -0.237 OA
ATOM     77  O   UNL     1       7.907  15.865   3.239  1.00  0.00    -0.744 OA
ENDBRANCH  73  74
ENDBRANCH  52  66
BRANCH  53  78
ATOM     78  C   UNL     1       4.696   7.019  -8.475  1.00  0.00     0.058 A 
ATOM     79  C   UNL     1       5.519   6.602  -9.530  1.00  0.00     0.135 A 
ATOM     80  C   UNL     1       3.355   6.601  -8.486  1.00  0.00     0.135 A 
ATOM     81  F   UNL     1       6.803   6.986  -9.570  1.00  0.00    -0.206 F 
ATOM     82  C   UNL     1       5.036   5.792 -10.553  1.00  0.00     0.059 A 
ATOM     83  C   UNL     1       2.855   5.772  -9.485  1.00  0.00     0.059 A 
ATOM     84  F   UNL     1       2.529   6.967  -7.493  1.00  0.00    -0.206 F 
ATOM     85  C   UNL     1       3.705   5.371 -10.514  1.00  0.00     0.060 A 
BRANCH  85  86
ATOM     86  S   UNL     1       3.118   4.242 -11.797  1.00  0.00     0.124 S 
ATOM     87  O   UNL     1       3.075   5.117 -12.963  1.00  0.00    -0.237 OA
ATOM     88  O   UNL     1       4.162   3.221 -11.804  1.00  0.00    -0.237 OA
ATOM     89  O   UNL     1       1.823   3.800 -11.291  1.00  0.00    -0.744 OA
ENDBRANCH  85  86
ENDBRANCH  53  78
BRANCH  65  90
ATOM     90  C   UNL     1       6.919  13.629  -7.782  1.00  0.00     0.058 A 
ATOM     91  C   UNL     1       5.843  14.354  -8.313  1.00  0.00     0.135 A 
ATOM     92  C   UNL     1       8.220  14.053  -8.104  1.00  0.00     0.135 A 
ATOM     93  F   UNL     1       4.580  13.986  -8.042  1.00  0.00    -0.206 F 
ATOM     94  C   UNL     1       6.048  15.460  -9.133  1.00  0.00     0.059 A 
ATOM     95  C   UNL     1       8.448  15.171  -8.899  1.00  0.00     0.059 A 
ATOM     96  F   UNL     1       9.285  13.400  -7.614  1.00  0.00    -0.206 F 
ATOM     97  C   UNL     1       7.355  15.867  -9.412  1.00  0.00     0.060 A 
BRANCH  97  98
ATOM     98  S   UNL     1       7.607  17.345 -10.418  1.00  0.00     0.124 S 
ATOM     99  O   UNL     1       7.235  16.866 -11.745  1.00  0.00    -0.237 OA
ATOM    100  O   UNL     1       6.687  18.299  -9.807  1.00  0.00    -0.237 OA
ATOM    101  O   UNL     1       9.024  17.644 -10.234  1.00  0.00    -0.744 OA
ENDBRANCH  97  98
ENDBRANCH  65  90
ENDBRANCH  39  40
ENDBRANCH  32  34
ENDBRANCH  31  32
ENDBRANCH  30  31
ENDBRANCH  29  30
ENDBRANCH  28  29
ENDBRANCH   1  28
TORSDOF 22
