REMARK SMILES COc1cnc(SCC(=O)OCCOCCOC(=O)c2ccc(-c3c4nc(c(-c5c(F)cc(S(=O)(=O)[O-])cc5F)c5ccc([nH]5)c(-c5c(F)cc(S(=O)(=O)[O-])cc5F)c5nc(c(-c6c(F)cc(S(=O)(=O)[O-])cc6F)c6ccc3[nH]6)C=C5)C=C4)cc2)[nH]c1=O
REMARK SMILES IDX 14 1 13 2 12 3 11 4 9 5 10 6 8 7 7 8 6 9 3 10 4 11 87 12
REMARK SMILES IDX 5 13 86 14 88 15 2 17 1 18 15 19 16 20 17 21 18 22 19 23
REMARK SMILES IDX 20 24 21 25 85 26 22 27 84 28 23 29 24 30 25 31 78 32 26 33
REMARK SMILES IDX 83 34 77 35 79 36 27 37 82 38 76 39 75 40 28 42 62 43 41 44
REMARK SMILES IDX 61 45 42 46 45 47 60 48 80 49 43 50 44 51 59 53 81 54 46 55
REMARK SMILES IDX 29 56 30 57 39 58 31 59 32 60 38 61 40 62 33 63 34 64 35 65
REMARK SMILES IDX 36 66 37 67 63 68 64 69 73 70 65 71 66 72 72 73 74 74 67 75
REMARK SMILES IDX 68 76 69 77 70 78 71 79 47 80 48 81 57 82 49 83 50 84 56 85
REMARK SMILES IDX 58 86 51 87 52 88 53 89 54 90 55 91
REMARK H PARENT 86 16 79 41 45 52
REMARK Flexibility Score: inf
ROOT
ATOM      1  O   UNL     1      -1.573  -1.972   6.996  1.00  0.00    -0.374 OA
ENDROOT
BRANCH   1   2
ATOM      2  C   UNL     1      -0.682  -2.222   8.082  1.00  0.00     0.202 C 
BRANCH   2   3
ATOM      3  C   UNL     1      -0.197  -3.666   8.259  1.00  0.00     0.261 C 
BRANCH   3   4
ATOM      4  O   UNL     1       0.513  -4.181   7.114  1.00  0.00    -0.463 OA
BRANCH   4   5
ATOM      5  C   UNL     1      -0.016  -5.294   6.537  1.00  0.00     0.316 C 
ATOM      6  O   UNL     1      -1.028  -5.864   6.941  1.00  0.00    -0.251 OA
BRANCH   5   7
ATOM      7  C   UNL     1       0.741  -5.835   5.343  1.00  0.00     0.200 C 
BRANCH   7   8
ATOM      8  S   UNL     1       2.215  -4.929   4.816  1.00  0.00    -0.076 SA
BRANCH   8   9
ATOM      9  C   UNL     1       1.587  -3.875   3.591  1.00  0.00     0.168 A 
ATOM     10  C   UNL     1       0.840  -2.006   1.728  1.00  0.00     0.202 A 
ATOM     11  C   UNL     1       0.023  -2.926   2.262  1.00  0.00     0.166 A 
ATOM     12  C   UNL     1       2.275  -2.098   2.146  1.00  0.00     0.293 A 
ATOM     13  N   UNL     1       0.364  -3.888   3.183  1.00  0.00    -0.229 NA
ATOM     14  N   UNL     1       2.538  -3.034   3.107  1.00  0.00    -0.298 N 
ATOM     15  O   UNL     1       3.171  -1.400   1.687  1.00  0.00    -0.265 OA
ATOM     16  H   UNL     1       3.453  -3.101   3.463  1.00  0.00     0.172 HD
BRANCH  10  17
ATOM     17  O   UNL     1       0.301  -0.979   0.975  1.00  0.00    -0.490 OA
ATOM     18  C   UNL     1       1.110  -0.431  -0.056  1.00  0.00     0.278 C 
ENDBRANCH  10  17
ENDBRANCH   8   9
ENDBRANCH   7   8
ENDBRANCH   5   7
ENDBRANCH   4   5
ENDBRANCH   3   4
ENDBRANCH   2   3
ENDBRANCH   1   2
BRANCH   1  19
ATOM     19  C   UNL     1      -1.026  -2.026   5.679  1.00  0.00     0.202 C 
BRANCH  19  20
ATOM     20  C   UNL     1      -0.073  -0.892   5.291  1.00  0.00     0.261 C 
BRANCH  20  21
ATOM     21  O   UNL     1       1.105  -0.844   6.112  1.00  0.00    -0.460 OA
BRANCH  21  22
ATOM     22  C   UNL     1       1.357   0.384   6.619  1.00  0.00     0.338 C 
ATOM     23  O   UNL     1       0.775   1.429   6.347  1.00  0.00    -0.246 OA
BRANCH  22  24
ATOM     24  C   UNL     1       2.348   0.314   7.700  1.00  0.00     0.060 A 
ATOM     25  C   UNL     1       1.954   0.795   8.954  1.00  0.00     0.016 A 
ATOM     26  C   UNL     1       3.670  -0.069   7.462  1.00  0.00     0.016 A 
ATOM     27  C   UNL     1       2.901   0.969   9.957  1.00  0.00     0.010 A 
ATOM     28  C   UNL     1       4.621   0.107   8.473  1.00  0.00     0.010 A 
ATOM     29  C   UNL     1       4.248   0.674   9.705  1.00  0.00    -0.014 A 
BRANCH  29  30
ATOM     30  C   UNL     1       5.267   1.119  10.686  1.00  0.00     0.031 A 
ATOM     31  C   UNL     1       6.009   2.406  10.433  1.00  0.00     0.074 A 
ATOM     32  C   UNL     1       5.472   0.418  11.816  1.00  0.00     0.049 A 
ATOM     33  N   UNL     1       6.892   3.012  11.182  1.00  0.00    -0.248 NA
ATOM     34  C   UNL     1       5.716   3.103   9.168  1.00  0.00     0.031 C 
ATOM     35  C   UNL     1       4.794  -0.830  12.169  1.00  0.00     0.029 A 
ATOM     36  N   UNL     1       6.303   0.661  12.879  1.00  0.00    -0.354 N 
ATOM     37  C   UNL     1       7.268   4.152  10.479  1.00  0.00     0.074 A 
ATOM     38  C   UNL     1       6.534   4.144   9.234  1.00  0.00     0.031 C 
ATOM     39  C   UNL     1       5.238  -1.244  13.368  1.00  0.00     0.029 A 
ATOM     40  C   UNL     1       6.241  -0.302  13.858  1.00  0.00     0.049 A 
ATOM     41  H   UNL     1       6.889   1.449  12.935  1.00  0.00     0.167 HD
ATOM     42  C   UNL     1       8.138   5.122  10.848  1.00  0.00     0.037 A 
ATOM     43  C   UNL     1       6.922  -0.408  15.016  1.00  0.00     0.037 A 
ATOM     44  C   UNL     1       8.843   5.134  12.102  1.00  0.00     0.049 A 
ATOM     45  C   UNL     1       7.894   0.680  15.393  1.00  0.00     0.074 A 
ATOM     46  C   UNL     1       9.713   6.092  12.592  1.00  0.00     0.029 A 
ATOM     47  N   UNL     1       8.759   4.139  13.065  1.00  0.00    -0.354 N 
ATOM     48  N   UNL     1       8.199   1.777  14.740  1.00  0.00    -0.248 NA
ATOM     49  C   UNL     1       8.607   0.522  16.669  1.00  0.00     0.031 C 
ATOM     50  C   UNL     1      10.187   5.656  13.834  1.00  0.00     0.029 A 
ATOM     51  C   UNL     1       9.578   4.448  14.136  1.00  0.00     0.049 A 
ATOM     52  H   UNL     1       8.200   3.332  12.996  1.00  0.00     0.167 HD
ATOM     53  C   UNL     1       9.112   2.455  15.541  1.00  0.00     0.074 A 
ATOM     54  C   UNL     1       9.304   1.649  16.729  1.00  0.00     0.031 C 
ATOM     55  C   UNL     1       9.737   3.638  15.316  1.00  0.00     0.037 A 
BRANCH  42  56
ATOM     56  C   UNL     1       8.394   6.246   9.883  1.00  0.00     0.058 A 
ATOM     57  C   UNL     1       7.458   7.270   9.673  1.00  0.00     0.135 A 
ATOM     58  C   UNL     1       9.624   6.334   9.210  1.00  0.00     0.135 A 
ATOM     59  F   UNL     1       6.260   7.224  10.277  1.00  0.00    -0.206 F 
ATOM     60  C   UNL     1       7.729   8.339   8.825  1.00  0.00     0.059 A 
ATOM     61  C   UNL     1       9.924   7.405   8.374  1.00  0.00     0.059 A 
ATOM     62  F   UNL     1      10.552   5.378   9.371  1.00  0.00    -0.206 F 
ATOM     63  C   UNL     1       8.967   8.400   8.183  1.00  0.00     0.060 A 
BRANCH  63  64
ATOM     64  S   UNL     1       9.321   9.814   7.116  1.00  0.00     0.124 S 
ATOM     65  O   UNL     1       8.501   9.511   5.947  1.00  0.00    -0.237 OA
ATOM     66  O   UNL     1       8.873  10.940   7.929  1.00  0.00    -0.237 OA
ATOM     67  O   UNL     1      10.764   9.731   6.909  1.00  0.00    -0.744 OA
ENDBRANCH  63  64
ENDBRANCH  42  56
BRANCH  43  68
ATOM     68  C   UNL     1       6.718  -1.583  15.904  1.00  0.00     0.058 A 
ATOM     69  C   UNL     1       6.102  -1.452  17.157  1.00  0.00     0.135 A 
ATOM     70  C   UNL     1       7.164  -2.859  15.526  1.00  0.00     0.135 A 
ATOM     71  F   UNL     1       5.662  -0.253  17.566  1.00  0.00    -0.206 F 
ATOM     72  C   UNL     1       5.965  -2.536  18.019  1.00  0.00     0.059 A 
ATOM     73  C   UNL     1       7.016  -3.963  16.359  1.00  0.00     0.059 A 
ATOM     74  F   UNL     1       7.745  -3.042  14.330  1.00  0.00    -0.206 F 
ATOM     75  C   UNL     1       6.432  -3.787  17.613  1.00  0.00     0.060 A 
BRANCH  75  76
ATOM     76  S   UNL     1       6.243  -5.194  18.730  1.00  0.00     0.124 S 
ATOM     77  O   UNL     1       7.314  -4.952  19.688  1.00  0.00    -0.237 OA
ATOM     78  O   UNL     1       4.884  -5.012  19.230  1.00  0.00    -0.237 OA
ATOM     79  O   UNL     1       6.428  -6.345  17.850  1.00  0.00    -0.744 OA
ENDBRANCH  75  76
ENDBRANCH  43  68
BRANCH  55  80
ATOM     80  C   UNL     1      10.646   4.151  16.396  1.00  0.00     0.058 A 
ATOM     81  C   UNL     1      11.909   3.585  16.627  1.00  0.00     0.135 A 
ATOM     82  C   UNL     1      10.263   5.250  17.181  1.00  0.00     0.135 A 
ATOM     83  F   UNL     1      12.319   2.530  15.906  1.00  0.00    -0.206 F 
ATOM     84  C   UNL     1      12.751   4.073  17.621  1.00  0.00     0.059 A 
ATOM     85  C   UNL     1      11.099   5.771  18.163  1.00  0.00     0.059 A 
ATOM     86  F   UNL     1       9.070   5.835  16.990  1.00  0.00    -0.206 F 
ATOM     87  C   UNL     1      12.335   5.165  18.386  1.00  0.00     0.060 A 
BRANCH  87  88
ATOM     88  S   UNL     1      13.442   5.805  19.660  1.00  0.00     0.124 S 
ATOM     89  O   UNL     1      13.260   4.824  20.725  1.00  0.00    -0.237 OA
ATOM     90  O   UNL     1      14.739   5.782  18.992  1.00  0.00    -0.237 OA
ATOM     91  O   UNL     1      12.909   7.136  19.934  1.00  0.00    -0.744 OA
ENDBRANCH  87  88
ENDBRANCH  55  80
ENDBRANCH  29  30
ENDBRANCH  22  24
ENDBRANCH  21  22
ENDBRANCH  20  21
ENDBRANCH  19  20
ENDBRANCH   1  19
TORSDOF 20
