REMARK SMILES O=C(OCCOCCOC(=O)[C@@H]1CCCN1S(=O)(=O)c1ccc2c3c(cccc13)C(=O)N2)c1ccc(-c2c3nc(c(-c4c(F)cc(S(=O)(=O)[O-])cc4F)c4ccc([nH]4)c(-c4c(F)cc(S(=O)(=O)[O-])cc4F)c4nc(c(-c5c(F)cc(S(=O)(=O)[O-])cc5F)c5ccc2[nH]5)C=C4)C=C3)cc1
REMARK SMILES IDX 5 1 4 2 3 3 2 4 1 5 33 6 34 7 98 8 35 9 97 10 36 11 37 12
REMARK SMILES IDX 38 13 91 14 39 15 96 16 90 17 92 18 40 19 95 20 89 21 88 22
REMARK SMILES IDX 41 24 75 25 54 26 74 27 55 28 58 29 73 30 93 31 56 32 57 33
REMARK SMILES IDX 72 35 94 36 59 37 42 38 43 39 52 40 44 41 45 42 51 43 53 44
REMARK SMILES IDX 46 45 47 46 48 47 49 48 50 49 76 50 77 51 86 52 78 53 79 54
REMARK SMILES IDX 85 55 87 56 80 57 81 58 82 59 83 60 84 61 60 62 61 63 70 64
REMARK SMILES IDX 62 65 63 66 69 67 71 68 64 69 65 70 66 71 67 72 68 73 6 74
REMARK SMILES IDX 7 75 8 76 9 77 10 78 11 79 12 80 13 81 16 82 14 83 15 84
REMARK SMILES IDX 17 85 18 86 19 87 20 88 21 89 29 90 22 91 24 92 28 93 23 94
REMARK SMILES IDX 25 95 27 96 32 97 26 98 30 99 31 101
REMARK H PARENT 92 23 58 34 32 100
REMARK Flexibility Score: inf
ROOT
ATOM      1  C   UNL     1       5.466  -0.422   2.027  1.00  0.00     0.202 C 
ENDROOT
BRANCH   1   2
ATOM      2  C   UNL     1       5.756   0.730   1.047  1.00  0.00     0.261 C 
BRANCH   2   3
ATOM      3  O   UNL     1       4.748   0.906   0.038  1.00  0.00    -0.460 OA
BRANCH   3   4
ATOM      4  C   UNL     1       4.997   0.475  -1.221  1.00  0.00     0.338 C 
ATOM      5  O   UNL     1       5.024   1.208  -2.196  1.00  0.00    -0.246 OA
BRANCH   4   6
ATOM      6  C   UNL     1       4.886  -0.990  -1.335  1.00  0.00     0.060 A 
ATOM      7  C   UNL     1       5.808  -1.827  -0.712  1.00  0.00     0.016 A 
ATOM      8  C   UNL     1       3.880  -1.534  -2.136  1.00  0.00     0.016 A 
ATOM      9  C   UNL     1       5.668  -3.200  -0.793  1.00  0.00     0.010 A 
ATOM     10  C   UNL     1       3.741  -2.915  -2.256  1.00  0.00     0.010 A 
ATOM     11  C   UNL     1       4.676  -3.740  -1.619  1.00  0.00    -0.014 A 
BRANCH  11  12
ATOM     12  C   UNL     1       4.981  -5.079  -2.152  1.00  0.00     0.031 A 
ATOM     13  C   UNL     1       5.864  -5.102  -3.371  1.00  0.00     0.074 A 
ATOM     14  C   UNL     1       4.676  -6.179  -1.449  1.00  0.00     0.049 A 
ATOM     15  N   UNL     1       6.495  -6.101  -3.922  1.00  0.00    -0.248 NA
ATOM     16  C   UNL     1       6.100  -3.806  -4.039  1.00  0.00     0.031 C 
ATOM     17  C   UNL     1       3.892  -6.203  -0.213  1.00  0.00     0.029 A 
ATOM     18  N   UNL     1       5.040  -7.482  -1.645  1.00  0.00    -0.354 N 
ATOM     19  C   UNL     1       7.218  -5.544  -4.972  1.00  0.00     0.074 A 
ATOM     20  C   UNL     1       6.904  -4.140  -5.029  1.00  0.00     0.031 C 
ATOM     21  C   UNL     1       3.860  -7.463   0.256  1.00  0.00     0.029 A 
ATOM     22  C   UNL     1       4.617  -8.326  -0.648  1.00  0.00     0.049 A 
ATOM     23  H   UNL     1       5.555  -7.787  -2.427  1.00  0.00     0.167 HD
ATOM     24  C   UNL     1       8.101  -6.148  -5.797  1.00  0.00     0.037 A 
ATOM     25  C   UNL     1       4.849  -9.643  -0.487  1.00  0.00     0.037 A 
ATOM     26  C   UNL     1       8.365  -7.554  -5.737  1.00  0.00     0.049 A 
ATOM     27  C   UNL     1       5.747 -10.325  -1.486  1.00  0.00     0.074 A 
ATOM     28  C   UNL     1       9.151  -8.327  -6.566  1.00  0.00     0.029 A 
ATOM     29  N   UNL     1       7.826  -8.401  -4.774  1.00  0.00    -0.354 N 
ATOM     30  N   UNL     1       6.395  -9.800  -2.503  1.00  0.00    -0.248 NA
ATOM     31  C   UNL     1       5.955 -11.767  -1.318  1.00  0.00     0.031 C 
ATOM     32  C   UNL     1       9.063  -9.651  -6.120  1.00  0.00     0.029 A 
ATOM     33  C   UNL     1       8.261  -9.692  -4.986  1.00  0.00     0.049 A 
ATOM     34  H   UNL     1       7.223  -8.119  -4.049  1.00  0.00     0.167 HD
ATOM     35  C   UNL     1       7.109 -10.842  -3.083  1.00  0.00     0.074 A 
ATOM     36  C   UNL     1       6.814 -12.026  -2.296  1.00  0.00     0.031 C 
ATOM     37  C   UNL     1       7.934 -10.831  -4.161  1.00  0.00     0.037 A 
BRANCH  24  38
ATOM     38  C   UNL     1       8.772  -5.275  -6.820  1.00  0.00     0.058 A 
ATOM     39  C   UNL     1       9.714  -4.299  -6.445  1.00  0.00     0.135 A 
ATOM     40  C   UNL     1       8.395  -5.333  -8.170  1.00  0.00     0.135 A 
ATOM     41  F   UNL     1      10.079  -4.171  -5.159  1.00  0.00    -0.206 F 
ATOM     42  C   UNL     1      10.219  -3.383  -7.362  1.00  0.00     0.059 A 
ATOM     43  C   UNL     1       8.910  -4.443  -9.110  1.00  0.00     0.059 A 
ATOM     44  F   UNL     1       7.487  -6.232  -8.580  1.00  0.00    -0.206 F 
ATOM     45  C   UNL     1       9.802  -3.456  -8.692  1.00  0.00     0.060 A 
BRANCH  45  46
ATOM     46  S   UNL     1      10.425  -2.228  -9.859  1.00  0.00     0.124 S 
ATOM     47  O   UNL     1       9.702  -1.032  -9.439  1.00  0.00    -0.237 OA
ATOM     48  O   UNL     1      11.858  -2.231  -9.579  1.00  0.00    -0.237 OA
ATOM     49  O   UNL     1      10.043  -2.769 -11.159  1.00  0.00    -0.744 OA
ENDBRANCH  45  46
ENDBRANCH  24  38
BRANCH  25  50
ATOM     50  C   UNL     1       4.268 -10.361   0.680  1.00  0.00     0.058 A 
ATOM     51  C   UNL     1       5.074 -10.797   1.741  1.00  0.00     0.135 A 
ATOM     52  C   UNL     1       2.883 -10.565   0.791  1.00  0.00     0.135 A 
ATOM     53  F   UNL     1       6.405 -10.632   1.685  1.00  0.00    -0.206 F 
ATOM     54  C   UNL     1       4.530 -11.398   2.874  1.00  0.00     0.059 A 
ATOM     55  C   UNL     1       2.313 -11.146   1.921  1.00  0.00     0.059 A 
ATOM     56  F   UNL     1       2.063 -10.157  -0.191  1.00  0.00    -0.206 F 
ATOM     57  C   UNL     1       3.145 -11.555   2.961  1.00  0.00     0.060 A 
BRANCH  57  58
ATOM     58  S   UNL     1       2.446 -12.242   4.479  1.00  0.00     0.124 S 
ATOM     59  O   UNL     1       2.913 -13.622   4.425  1.00  0.00    -0.237 OA
ATOM     60  O   UNL     1       3.059 -11.399   5.501  1.00  0.00    -0.237 OA
ATOM     61  O   UNL     1       1.009 -12.054   4.303  1.00  0.00    -0.744 OA
ENDBRANCH  57  58
ENDBRANCH  25  50
BRANCH  37  62
ATOM     62  C   UNL     1       8.591 -12.127  -4.533  1.00  0.00     0.058 A 
ATOM     63  C   UNL     1       7.881 -13.144  -5.185  1.00  0.00     0.135 A 
ATOM     64  C   UNL     1       9.969 -12.301  -4.329  1.00  0.00     0.135 A 
ATOM     65  F   UNL     1       6.562 -13.019  -5.400  1.00  0.00    -0.206 F 
ATOM     66  C   UNL     1       8.515 -14.303  -5.614  1.00  0.00     0.059 A 
ATOM     67  C   UNL     1      10.628 -13.439  -4.773  1.00  0.00     0.059 A 
ATOM     68  F   UNL     1      10.690 -11.344  -3.724  1.00  0.00    -0.206 F 
ATOM     69  C   UNL     1       9.891 -14.437  -5.409  1.00  0.00     0.060 A 
BRANCH  69  70
ATOM     70  S   UNL     1      10.709 -15.923  -6.021  1.00  0.00     0.124 S 
ATOM     71  O   UNL     1      10.240 -16.927  -5.072  1.00  0.00    -0.237 OA
ATOM     72  O   UNL     1      10.180 -16.035  -7.376  1.00  0.00    -0.237 OA
ATOM     73  O   UNL     1      12.128 -15.590  -5.933  1.00  0.00    -0.744 OA
ENDBRANCH  69  70
ENDBRANCH  37  62
ENDBRANCH  11  12
ENDBRANCH   4   6
ENDBRANCH   3   4
ENDBRANCH   2   3
ENDBRANCH   1   2
BRANCH   1  74
ATOM     74  O   UNL     1       4.088  -0.783   2.018  1.00  0.00    -0.374 OA
BRANCH  74  75
ATOM     75  C   UNL     1       3.767  -1.839   2.931  1.00  0.00     0.202 C 
BRANCH  75  76
ATOM     76  C   UNL     1       2.704  -1.378   3.944  1.00  0.00     0.261 C 
BRANCH  76  77
ATOM     77  O   UNL     1       2.556   0.055   3.927  1.00  0.00    -0.462 OA
BRANCH  77  78
ATOM     78  C   UNL     1       3.604   0.717   4.433  1.00  0.00     0.324 C 
ATOM     79  O   UNL     1       4.382   0.217   5.249  1.00  0.00    -0.250 OA
BRANCH  78  80
ATOM     80  C   UNL     1       3.833   2.083   3.876  1.00  0.00     0.183 C 
ATOM     81  C   UNL     1       3.624   3.105   4.990  1.00  0.00     0.034 C 
ATOM     82  N   UNL     1       3.447   2.833   2.628  1.00  0.00    -0.184 NA
ATOM     83  C   UNL     1       4.259   4.339   4.393  1.00  0.00     0.019 C 
ATOM     84  C   UNL     1       3.961   4.240   2.894  1.00  0.00     0.103 C 
BRANCH  82  85
ATOM     85  S   UNL     1       1.839   2.821   2.014  1.00  0.00     0.244 S 
ATOM     86  O   UNL     1       0.966   2.564   3.143  1.00  0.00    -0.207 OA
ATOM     87  O   UNL     1       1.662   4.054   1.270  1.00  0.00    -0.207 OA
BRANCH  85  88
ATOM     88  C   UNL     1       1.609   1.491   0.819  1.00  0.00     0.090 A 
ATOM     89  C   UNL     1       1.160   0.255   1.344  1.00  0.00     0.024 A 
ATOM     90  C   UNL     1       1.569   1.702  -0.610  1.00  0.00     0.005 A 
ATOM     91  C   UNL     1       0.831  -0.854   0.547  1.00  0.00     0.028 A 
ATOM     92  C   UNL     1       1.151   0.612  -1.333  1.00  0.00     0.019 A 
ATOM     93  C   UNL     1       1.848   2.828  -1.441  1.00  0.00     0.010 A 
ATOM     94  C   UNL     1       0.824  -0.618  -0.805  1.00  0.00     0.050 A 
ATOM     95  C   UNL     1       0.972   0.530  -2.710  1.00  0.00     0.050 A 
ATOM     96  C   UNL     1       1.675   2.788  -2.849  1.00  0.00     0.002 A 
ATOM     97  N   UNL     1       0.481  -1.456  -1.848  1.00  0.00    -0.321 N 
ATOM     98  C   UNL     1       1.233   1.634  -3.511  1.00  0.00     0.014 A 
ATOM     99  C   UNL     1       0.540  -0.806  -3.087  1.00  0.00     0.256 C 
ATOM    100  H   UNL     1       0.226  -2.400  -1.734  1.00  0.00     0.170 HD
ATOM    101  O   UNL     1       0.293  -1.329  -4.157  1.00  0.00    -0.269 OA
ENDBRANCH  85  88
ENDBRANCH  82  85
ENDBRANCH  78  80
ENDBRANCH  77  78
ENDBRANCH  76  77
ENDBRANCH  75  76
ENDBRANCH  74  75
ENDBRANCH   1  74
TORSDOF 19
