REMARK SMILES O=C(OCCOCCOC(=O)C1(Cc2ccccc2Cl)CCN(c2ncnc3[nH]ccc23)CC1)c1ccc(-c2c3nc(c(-c4c(F)cc(S(=O)(=O)[O-])cc4F)c4ccc([nH]4)c(-c4c(F)cc(S(=O)(=O)[O-])cc4F)c4nc(c(-c5c(F)cc(S(=O)(=O)[O-])cc5F)c5ccc2[nH]5)C=C4)C=C3)cc1
REMARK SMILES IDX 5 1 4 2 3 3 2 4 1 5 35 6 36 7 100 8 37 9 99 10 38 11 39 12
REMARK SMILES IDX 40 13 93 14 41 15 98 16 92 17 94 18 42 19 97 20 91 21 90 22
REMARK SMILES IDX 43 24 77 25 56 26 76 27 57 28 60 29 75 30 95 31 58 32 59 33
REMARK SMILES IDX 74 35 96 36 61 37 44 38 45 39 54 40 46 41 47 42 53 43 55 44
REMARK SMILES IDX 48 45 49 46 50 47 51 48 52 49 78 50 79 51 88 52 80 53 81 54
REMARK SMILES IDX 87 55 89 56 82 57 83 58 84 59 85 60 86 61 62 62 63 63 72 64
REMARK SMILES IDX 64 65 65 66 71 67 73 68 66 69 67 70 68 71 69 72 70 73 6 74
REMARK SMILES IDX 7 75 8 76 9 77 10 78 11 79 12 80 21 81 34 82 22 83 33 84
REMARK SMILES IDX 23 85 13 86 14 87 15 88 19 89 16 90 18 91 20 92 17 93 24 94
REMARK SMILES IDX 25 95 32 96 26 97 28 98 31 99 27 100 29 101 30 102
REMARK H PARENT 94 23 60 34 29 103
REMARK Flexibility Score: inf
ROOT
ATOM      1  C   UNL     1       4.179   0.322   0.491  1.00  0.00     0.202 C 
ENDROOT
BRANCH   1   2
ATOM      2  C   UNL     1       3.683   0.359  -0.960  1.00  0.00     0.261 C 
BRANCH   2   3
ATOM      3  O   UNL     1       2.242   0.280  -1.080  1.00  0.00    -0.460 OA
BRANCH   3   4
ATOM      4  C   UNL     1       1.542  -0.843  -1.427  1.00  0.00     0.338 C 
ATOM      5  O   UNL     1       0.338  -0.812  -1.622  1.00  0.00    -0.246 OA
BRANCH   4   6
ATOM      6  C   UNL     1       2.295  -2.106  -1.575  1.00  0.00     0.060 A 
ATOM      7  C   UNL     1       3.120  -2.511  -0.546  1.00  0.00     0.016 A 
ATOM      8  C   UNL     1       2.220  -2.901  -2.707  1.00  0.00     0.016 A 
ATOM      9  C   UNL     1       4.147  -3.382  -0.744  1.00  0.00     0.010 A 
ATOM     10  C   UNL     1       3.047  -4.029  -2.784  1.00  0.00     0.010 A 
ATOM     11  C   UNL     1       4.041  -4.245  -1.809  1.00  0.00    -0.014 A 
BRANCH  11  12
ATOM     12  C   UNL     1       5.008  -5.351  -1.836  1.00  0.00     0.031 A 
ATOM     13  C   UNL     1       5.901  -5.455  -3.022  1.00  0.00     0.074 A 
ATOM     14  C   UNL     1       5.136  -6.152  -0.755  1.00  0.00     0.049 A 
ATOM     15  N   UNL     1       6.642  -6.454  -3.395  1.00  0.00    -0.248 NA
ATOM     16  C   UNL     1       5.951  -4.287  -3.921  1.00  0.00     0.031 C 
ATOM     17  C   UNL     1       4.408  -6.005   0.519  1.00  0.00     0.029 A 
ATOM     18  N   UNL     1       5.946  -7.230  -0.527  1.00  0.00    -0.354 N 
ATOM     19  C   UNL     1       7.174  -6.076  -4.618  1.00  0.00     0.074 A 
ATOM     20  C   UNL     1       6.697  -4.746  -4.914  1.00  0.00     0.031 C 
ATOM     21  C   UNL     1       4.845  -6.915   1.398  1.00  0.00     0.029 A 
ATOM     22  C   UNL     1       5.753  -7.809   0.708  1.00  0.00     0.049 A 
ATOM     23  H   UNL     1       6.602  -7.560  -1.182  1.00  0.00     0.167 HD
ATOM     24  C   UNL     1       7.966  -6.817  -5.419  1.00  0.00     0.037 A 
ATOM     25  C   UNL     1       6.193  -8.985   1.188  1.00  0.00     0.037 A 
ATOM     26  C   UNL     1       8.433  -8.121  -5.035  1.00  0.00     0.049 A 
ATOM     27  C   UNL     1       7.013  -9.821   0.247  1.00  0.00     0.074 A 
ATOM     28  C   UNL     1       9.197  -9.015  -5.757  1.00  0.00     0.029 A 
ATOM     29  N   UNL     1       8.181  -8.707  -3.798  1.00  0.00    -0.354 N 
ATOM     30  N   UNL     1       7.418  -9.527  -0.969  1.00  0.00    -0.248 NA
ATOM     31  C   UNL     1       7.407 -11.152   0.713  1.00  0.00     0.031 C 
ATOM     32  C   UNL     1       9.369 -10.160  -4.971  1.00  0.00     0.029 A 
ATOM     33  C   UNL     1       8.763  -9.957  -3.738  1.00  0.00     0.049 A 
ATOM     34  H   UNL     1       7.664  -8.290  -3.071  1.00  0.00     0.167 HD
ATOM     35  C   UNL     1       8.129 -10.631  -1.410  1.00  0.00     0.074 A 
ATOM     36  C   UNL     1       8.117 -11.588  -0.318  1.00  0.00     0.031 C 
ATOM     37  C   UNL     1       8.729 -10.850  -2.606  1.00  0.00     0.037 A 
BRANCH  24  38
ATOM     38  C   UNL     1       8.278  -6.276  -6.780  1.00  0.00     0.058 A 
ATOM     39  C   UNL     1       9.147  -5.194  -6.981  1.00  0.00     0.135 A 
ATOM     40  C   UNL     1       7.671  -6.848  -7.910  1.00  0.00     0.135 A 
ATOM     41  F   UNL     1       9.714  -4.577  -5.932  1.00  0.00    -0.206 F 
ATOM     42  C   UNL     1       9.402  -4.695  -8.255  1.00  0.00     0.059 A 
ATOM     43  C   UNL     1       7.931  -6.383  -9.195  1.00  0.00     0.059 A 
ATOM     44  F   UNL     1       6.805  -7.864  -7.771  1.00  0.00    -0.206 F 
ATOM     45  C   UNL     1       8.795  -5.303  -9.357  1.00  0.00     0.060 A 
BRANCH  45  46
ATOM     46  S   UNL     1       9.168  -4.670 -11.005  1.00  0.00     0.124 S 
ATOM     47  O   UNL     1       8.465  -3.391 -10.994  1.00  0.00    -0.237 OA
ATOM     48  O   UNL     1      10.625  -4.593 -10.985  1.00  0.00    -0.237 OA
ATOM     49  O   UNL     1       8.609  -5.685 -11.894  1.00  0.00    -0.744 OA
ENDBRANCH  45  46
ENDBRANCH  24  38
BRANCH  25  50
ATOM     50  C   UNL     1       5.779  -9.478   2.533  1.00  0.00     0.058 A 
ATOM     51  C   UNL     1       6.724  -9.730   3.538  1.00  0.00     0.135 A 
ATOM     52  C   UNL     1       4.429  -9.731   2.840  1.00  0.00     0.135 A 
ATOM     53  F   UNL     1       8.026  -9.507   3.305  1.00  0.00    -0.206 F 
ATOM     54  C   UNL     1       6.355 -10.249   4.778  1.00  0.00     0.059 A 
ATOM     55  C   UNL     1       4.032 -10.214   4.084  1.00  0.00     0.059 A 
ATOM     56  F   UNL     1       3.473  -9.497   1.928  1.00  0.00    -0.206 F 
ATOM     57  C   UNL     1       5.006 -10.493   5.039  1.00  0.00     0.060 A 
BRANCH  57  58
ATOM     58  S   UNL     1       4.538 -11.184   6.641  1.00  0.00     0.124 S 
ATOM     59  O   UNL     1       5.007 -12.559   6.514  1.00  0.00    -0.237 OA
ATOM     60  O   UNL     1       5.281 -10.339   7.570  1.00  0.00    -0.237 OA
ATOM     61  O   UNL     1       3.088 -11.013   6.671  1.00  0.00    -0.744 OA
ENDBRANCH  57  58
ENDBRANCH  25  50
BRANCH  37  62
ATOM     62  C   UNL     1       9.459 -12.148  -2.754  1.00  0.00     0.058 A 
ATOM     63  C   UNL     1       8.775 -13.360  -2.921  1.00  0.00     0.135 A 
ATOM     64  C   UNL     1      10.861 -12.159  -2.795  1.00  0.00     0.135 A 
ATOM     65  F   UNL     1       7.434 -13.393  -2.876  1.00  0.00    -0.206 F 
ATOM     66  C   UNL     1       9.463 -14.551  -3.105  1.00  0.00     0.059 A 
ATOM     67  C   UNL     1      11.568 -13.332  -3.012  1.00  0.00     0.059 A 
ATOM     68  F   UNL     1      11.553 -11.017  -2.649  1.00  0.00    -0.206 F 
ATOM     69  C   UNL     1      10.859 -14.524  -3.156  1.00  0.00     0.060 A 
BRANCH  69  70
ATOM     70  S   UNL     1      11.738 -16.070  -3.449  1.00  0.00     0.124 S 
ATOM     71  O   UNL     1      11.593 -16.738  -2.160  1.00  0.00    -0.237 OA
ATOM     72  O   UNL     1      10.983 -16.652  -4.555  1.00  0.00    -0.237 OA
ATOM     73  O   UNL     1      13.090 -15.633  -3.782  1.00  0.00    -0.744 OA
ENDBRANCH  69  70
ENDBRANCH  37  62
ENDBRANCH  11  12
ENDBRANCH   4   6
ENDBRANCH   3   4
ENDBRANCH   2   3
ENDBRANCH   1   2
BRANCH   1  74
ATOM     74  O   UNL     1       3.571  -0.585   1.394  1.00  0.00    -0.374 OA
BRANCH  74  75
ATOM     75  C   UNL     1       2.234  -0.289   1.806  1.00  0.00     0.202 C 
BRANCH  75  76
ATOM     76  C   UNL     1       2.261   0.042   3.274  1.00  0.00     0.261 C 
BRANCH  76  77
ATOM     77  O   UNL     1       2.941   1.296   3.378  1.00  0.00    -0.463 OA
BRANCH  77  78
ATOM     78  C   UNL     1       4.276   1.236   3.620  1.00  0.00     0.312 C 
ATOM     79  O   UNL     1       4.924   0.212   3.791  1.00  0.00    -0.252 OA
BRANCH  78  80
ATOM     80  C   UNL     1       4.846   2.638   3.788  1.00  0.00     0.075 C 
ATOM     81  C   UNL     1       4.233   3.702   2.829  1.00  0.00     0.040 C 
ATOM     82  C   UNL     1       6.376   2.557   3.544  1.00  0.00     0.040 C 
ATOM     83  C   UNL     1       4.721   3.755   1.388  1.00  0.00     0.119 C 
ATOM     84  C   UNL     1       6.730   2.379   2.063  1.00  0.00     0.119 C 
ATOM     85  N   UNL     1       6.127   3.459   1.315  1.00  0.00    -0.356 N 
BRANCH  80  86
ATOM     86  C   UNL     1       4.542   3.005   5.293  1.00  0.00     0.056 C 
BRANCH  86  87
ATOM     87  C   UNL     1       3.049   3.146   5.609  1.00  0.00    -0.028 A 
ATOM     88  C   UNL     1       2.393   4.325   5.212  1.00  0.00     0.005 A 
ATOM     89  C   UNL     1       2.255   2.082   6.077  1.00  0.00     0.044 A 
ATOM     90  C   UNL     1       1.003   4.373   5.095  1.00  0.00     0.000 A 
ATOM     91  C   UNL     1       0.860   2.131   5.955  1.00  0.00     0.021 A 
ATOM     92  Cl  UNL     1       2.937   0.641   6.742  1.00  0.00    -0.084 Cl
ATOM     93  C   UNL     1       0.238   3.261   5.427  1.00  0.00     0.002 A 
ENDBRANCH  86  87
ENDBRANCH  80  86
BRANCH  85  94
ATOM     94  C   UNL     1       6.815   3.969   0.238  1.00  0.00     0.141 A 
ATOM     95  N   UNL     1       6.995   3.262  -0.900  1.00  0.00    -0.219 NA
ATOM     96  C   UNL     1       7.383   5.244   0.331  1.00  0.00     0.061 A 
ATOM     97  C   UNL     1       7.726   3.829  -1.887  1.00  0.00     0.226 A 
ATOM     98  C   UNL     1       8.125   5.688  -0.746  1.00  0.00     0.142 A 
ATOM     99  C   UNL     1       7.424   6.262   1.323  1.00  0.00     0.033 A 
ATOM    100  N   UNL     1       8.334   5.035  -1.898  1.00  0.00    -0.218 NA
ATOM    101  N   UNL     1       8.636   6.915  -0.420  1.00  0.00    -0.346 N 
ATOM    102  C   UNL     1       8.213   7.279   0.837  1.00  0.00     0.085 A 
ATOM    103  H   UNL     1       9.219   7.457  -0.999  1.00  0.00     0.167 HD
ENDBRANCH  85  94
ENDBRANCH  78  80
ENDBRANCH  77  78
ENDBRANCH  76  77
ENDBRANCH  75  76
ENDBRANCH  74  75
ENDBRANCH   1  74
TORSDOF 20
