REMARK SMILES O=C(OCCOCCOC(=O)c1cc(-c2ccccc2)nc(Nc2nc3ccccc3s2)n1)c1ccc(-c2c3nc(c(-c4c(F)cc(S(=O)(=O)[O-])cc4F)c4ccc([nH]4)c(-c4c(F)cc(S(=O)(=O)[O-])cc4F)c4nc(c(-c5c(F)cc(S(=O)(=O)[O-])cc5F)c5ccc2[nH]5)C=C4)C=C3)cc1
REMARK SMILES IDX 5 1 4 2 3 3 2 4 1 5 34 6 35 7 99 8 36 9 98 10 37 11 38 12
REMARK SMILES IDX 39 13 92 14 40 15 97 16 91 17 93 18 41 19 96 20 90 21 89 22
REMARK SMILES IDX 42 24 76 25 55 26 75 27 56 28 59 29 74 30 94 31 57 32 58 33
REMARK SMILES IDX 73 35 95 36 60 37 43 38 44 39 53 40 45 41 46 42 52 43 54 44
REMARK SMILES IDX 47 45 48 46 49 47 50 48 51 49 77 50 78 51 87 52 79 53 80 54
REMARK SMILES IDX 86 55 88 56 81 57 82 58 83 59 84 60 85 61 61 62 62 63 71 64
REMARK SMILES IDX 63 65 64 66 70 67 72 68 65 69 66 70 67 71 68 72 69 73 6 74
REMARK SMILES IDX 7 75 8 76 9 77 10 78 11 79 12 80 13 81 33 82 14 83 22 84
REMARK SMILES IDX 21 85 15 86 16 87 20 88 17 89 19 90 18 91 23 92 24 94 25 95
REMARK SMILES IDX 32 96 26 97 31 98 27 99 30 100 28 101 29 102
REMARK H PARENT 93 23 59 34 23 93
REMARK Flexibility Score: inf
ROOT
ATOM      1  C   UNL     1       4.193  -1.700   0.106  1.00  0.00     0.202 C 
ENDROOT
BRANCH   1   2
ATOM      2  C   UNL     1       3.895  -0.660   1.182  1.00  0.00     0.261 C 
BRANCH   2   3
ATOM      3  O   UNL     1       2.515  -0.278   1.135  1.00  0.00    -0.460 OA
BRANCH   3   4
ATOM      4  C   UNL     1       1.988   0.791   0.494  1.00  0.00     0.338 C 
ATOM      5  O   UNL     1       0.766   0.939   0.539  1.00  0.00    -0.246 OA
BRANCH   4   6
ATOM      6  C   UNL     1       2.786   1.819  -0.253  1.00  0.00     0.060 A 
ATOM      7  C   UNL     1       4.022   1.618  -0.878  1.00  0.00     0.016 A 
ATOM      8  C   UNL     1       2.175   3.075  -0.413  1.00  0.00     0.016 A 
ATOM      9  C   UNL     1       4.636   2.607  -1.633  1.00  0.00     0.010 A 
ATOM     10  C   UNL     1       2.780   4.078  -1.173  1.00  0.00     0.010 A 
ATOM     11  C   UNL     1       4.016   3.840  -1.781  1.00  0.00    -0.014 A 
BRANCH  11  12
ATOM     12  C   UNL     1       4.744   4.911  -2.474  1.00  0.00     0.031 A 
ATOM     13  C   UNL     1       5.446   5.928  -1.637  1.00  0.00     0.074 A 
ATOM     14  C   UNL     1       4.815   4.911  -3.815  1.00  0.00     0.049 A 
ATOM     15  N   UNL     1       6.036   7.031  -1.998  1.00  0.00    -0.248 NA
ATOM     16  C   UNL     1       5.491   5.659  -0.188  1.00  0.00     0.031 C 
ATOM     17  C   UNL     1       4.262   3.873  -4.688  1.00  0.00     0.029 A 
ATOM     18  N   UNL     1       5.381   5.809  -4.677  1.00  0.00    -0.354 N 
ATOM     19  C   UNL     1       6.489   7.611  -0.821  1.00  0.00     0.074 A 
ATOM     20  C   UNL     1       6.113   6.735   0.266  1.00  0.00     0.031 C 
ATOM     21  C   UNL     1       4.503   4.205  -5.967  1.00  0.00     0.029 A 
ATOM     22  C   UNL     1       5.167   5.503  -5.999  1.00  0.00     0.049 A 
ATOM     23  H   UNL     1       5.891   6.597  -4.379  1.00  0.00     0.167 HD
ATOM     24  C   UNL     1       7.144   8.785  -0.675  1.00  0.00     0.037 A 
ATOM     25  C   UNL     1       5.439   6.227  -7.102  1.00  0.00     0.037 A 
ATOM     26  C   UNL     1       7.477   9.631  -1.788  1.00  0.00     0.049 A 
ATOM     27  C   UNL     1       6.095   7.568  -6.916  1.00  0.00     0.074 A 
ATOM     28  C   UNL     1       8.077  10.874  -1.784  1.00  0.00     0.029 A 
ATOM     29  N   UNL     1       7.224   9.308  -3.118  1.00  0.00    -0.354 N 
ATOM     30  N   UNL     1       6.463   8.154  -5.798  1.00  0.00    -0.248 NA
ATOM     31  C   UNL     1       6.366   8.354  -8.124  1.00  0.00     0.031 C 
ATOM     32  C   UNL     1       8.149  11.322  -3.108  1.00  0.00     0.029 A 
ATOM     33  C   UNL     1       7.644  10.333  -3.944  1.00  0.00     0.049 A 
ATOM     34  H   UNL     1       6.806   8.472  -3.426  1.00  0.00     0.167 HD
ATOM     35  C   UNL     1       7.030   9.366  -6.167  1.00  0.00     0.074 A 
ATOM     36  C   UNL     1       6.957   9.429  -7.615  1.00  0.00     0.031 C 
ATOM     37  C   UNL     1       7.565  10.338  -5.386  1.00  0.00     0.037 A 
BRANCH  24  38
ATOM     38  C   UNL     1       7.434   9.231   0.730  1.00  0.00     0.058 A 
ATOM     39  C   UNL     1       8.381   8.584   1.540  1.00  0.00     0.135 A 
ATOM     40  C   UNL     1       6.691  10.277   1.302  1.00  0.00     0.135 A 
ATOM     41  F   UNL     1       9.096   7.556   1.056  1.00  0.00    -0.206 F 
ATOM     42  C   UNL     1       8.546   8.924   2.880  1.00  0.00     0.059 A 
ATOM     43  C   UNL     1       6.859  10.652   2.632  1.00  0.00     0.059 A 
ATOM     44  F   UNL     1       5.764  10.924   0.578  1.00  0.00    -0.206 F 
ATOM     45  C   UNL     1       7.770   9.951   3.420  1.00  0.00     0.060 A 
BRANCH  45  46
ATOM     46  S   UNL     1       7.945  10.339   5.174  1.00  0.00     0.124 S 
ATOM     47  O   UNL     1       7.254   9.210   5.791  1.00  0.00    -0.237 OA
ATOM     48  O   UNL     1       9.394  10.363   5.347  1.00  0.00    -0.237 OA
ATOM     49  O   UNL     1       7.278  11.630   5.305  1.00  0.00    -0.744 OA
ENDBRANCH  45  46
ENDBRANCH  24  38
BRANCH  25  50
ATOM     50  C   UNL     1       5.049   5.709  -8.441  1.00  0.00     0.058 A 
ATOM     51  C   UNL     1       6.010   5.294  -9.373  1.00  0.00     0.135 A 
ATOM     52  C   UNL     1       3.696   5.563  -8.794  1.00  0.00     0.135 A 
ATOM     53  F   UNL     1       7.316   5.420  -9.090  1.00  0.00    -0.206 F 
ATOM     54  C   UNL     1       5.648   4.748 -10.602  1.00  0.00     0.059 A 
ATOM     55  C   UNL     1       3.309   4.998 -10.006  1.00  0.00     0.059 A 
ATOM     56  F   UNL     1       2.733   5.935  -7.937  1.00  0.00    -0.206 F 
ATOM     57  C   UNL     1       4.293   4.596 -10.906  1.00  0.00     0.060 A 
BRANCH  57  58
ATOM     58  S   UNL     1       3.835   3.818 -12.471  1.00  0.00     0.124 S 
ATOM     59  O   UNL     1       4.172   4.863 -13.430  1.00  0.00    -0.237 OA
ATOM     60  O   UNL     1       4.690   2.635 -12.489  1.00  0.00    -0.237 OA
ATOM     61  O   UNL     1       2.409   3.547 -12.308  1.00  0.00    -0.744 OA
ENDBRANCH  57  58
ENDBRANCH  25  50
BRANCH  37  62
ATOM     62  C   UNL     1       8.161  11.527  -6.082  1.00  0.00     0.058 A 
ATOM     63  C   UNL     1       7.360  12.545  -6.617  1.00  0.00     0.135 A 
ATOM     64  C   UNL     1       9.555  11.694  -6.107  1.00  0.00     0.135 A 
ATOM     65  F   UNL     1       6.023  12.424  -6.621  1.00  0.00    -0.206 F 
ATOM     66  C   UNL     1       7.923  13.695  -7.157  1.00  0.00     0.059 A 
ATOM     67  C   UNL     1      10.138  12.846  -6.619  1.00  0.00     0.059 A 
ATOM     68  F   UNL     1      10.359  10.748  -5.596  1.00  0.00    -0.206 F 
ATOM     69  C   UNL     1       9.313  13.841  -7.143  1.00  0.00     0.060 A 
BRANCH  69  70
ATOM     70  S   UNL     1      10.028  15.375  -7.768  1.00  0.00     0.124 S 
ATOM     71  O   UNL     1       9.876  15.205  -9.209  1.00  0.00    -0.237 OA
ATOM     72  O   UNL     1       9.175  16.390  -7.155  1.00  0.00    -0.237 OA
ATOM     73  O   UNL     1      11.400  15.337  -7.272  1.00  0.00    -0.744 OA
ENDBRANCH  69  70
ENDBRANCH  37  62
ENDBRANCH  11  12
ENDBRANCH   4   6
ENDBRANCH   3   4
ENDBRANCH   2   3
ENDBRANCH   1   2
BRANCH   1  74
ATOM     74  O   UNL     1       3.866  -1.261  -1.213  1.00  0.00    -0.374 OA
BRANCH  74  75
ATOM     75  C   UNL     1       2.574  -1.610  -1.703  1.00  0.00     0.202 C 
BRANCH  75  76
ATOM     76  C   UNL     1       2.743  -2.490  -2.942  1.00  0.00     0.261 C 
BRANCH  76  77
ATOM     77  O   UNL     1       3.416  -3.693  -2.541  1.00  0.00    -0.459 OA
BRANCH  77  78
ATOM     78  C   UNL     1       4.776  -3.601  -2.524  1.00  0.00     0.357 C 
ATOM     79  O   UNL     1       5.473  -2.855  -3.188  1.00  0.00    -0.244 OA
BRANCH  78  80
ATOM     80  C   UNL     1       5.261  -4.506  -1.454  1.00  0.00     0.154 A 
ATOM     81  C   UNL     1       4.673  -5.727  -1.306  1.00  0.00     0.065 A 
ATOM     82  N   UNL     1       6.256  -4.060  -0.666  1.00  0.00    -0.206 NA
ATOM     83  C   UNL     1       5.233  -6.543  -0.355  1.00  0.00     0.077 A 
ATOM     84  C   UNL     1       6.677  -4.863   0.314  1.00  0.00     0.230 A 
ATOM     85  N   UNL     1       6.226  -6.127   0.467  1.00  0.00    -0.213 NA
BRANCH  83  86
ATOM     86  C   UNL     1       4.779  -7.941  -0.288  1.00  0.00     0.000 A 
ATOM     87  C   UNL     1       4.389  -8.558   0.906  1.00  0.00     0.010 A 
ATOM     88  C   UNL     1       4.629  -8.670  -1.489  1.00  0.00     0.010 A 
ATOM     89  C   UNL     1       3.826  -9.841   0.889  1.00  0.00     0.001 A 
ATOM     90  C   UNL     1       4.062  -9.941  -1.508  1.00  0.00     0.001 A 
ATOM     91  C   UNL     1       3.652 -10.524  -0.316  1.00  0.00     0.000 A 
ENDBRANCH  83  86
BRANCH  84  92
ATOM     92  N   UNL     1       7.695  -4.436   1.164  1.00  0.00    -0.300 N 
ATOM     93  H   UNL     1       8.155  -5.120   1.701  1.00  0.00     0.172 HD
BRANCH  92  94
ATOM     94  C   UNL     1       8.100  -3.154   1.307  1.00  0.00     0.190 A 
ATOM     95  N   UNL     1       7.317  -2.121   1.538  1.00  0.00    -0.220 NA
ATOM     96  S   UNL     1       9.785  -2.773   1.290  1.00  0.00    -0.097 S 
ATOM     97  C   UNL     1       8.053  -0.944   1.598  1.00  0.00     0.084 A 
ATOM     98  C   UNL     1       9.427  -1.093   1.423  1.00  0.00     0.056 A 
ATOM     99  C   UNL     1       7.541   0.355   1.808  1.00  0.00     0.030 A 
ATOM    100  C   UNL     1      10.295   0.015   1.393  1.00  0.00     0.021 A 
ATOM    101  C   UNL     1       8.390   1.465   1.770  1.00  0.00     0.002 A 
ATOM    102  C   UNL     1       9.751   1.294   1.552  1.00  0.00     0.002 A 
ENDBRANCH  92  94
ENDBRANCH  84  92
ENDBRANCH  78  80
ENDBRANCH  77  78
ENDBRANCH  76  77
ENDBRANCH  75  76
ENDBRANCH  74  75
ENDBRANCH   1  74
TORSDOF 20
