REMARK SMILES Nc1ncccc1C[N@@H+]1CC2(CC[NH2+]CC2)C[C@H]1C(=O)OCCOCCOC(=O)c1ccc(-c2c3nc(c(-c4c(F)cc(S(=O)(=O)[O-])cc4F)c4ccc([nH]4)c(-c4c(F)cc(S(=O)(=O)[O-])cc4F)c4nc(c(-c5c(F)cc(S(=O)(=O)[O-])cc5F)c5ccc2[nH]5)C=C4)C=C3)cc1
REMARK SMILES IDX 24 1 23 2 22 3 21 4 19 5 20 6 18 7 9 8 10 9 11 11 17 12
REMARK SMILES IDX 12 13 16 14 13 15 15 16 14 17 8 20 7 21 2 22 3 23 4 24 6 25
REMARK SMILES IDX 5 26 1 27 25 30 26 31 27 32 28 33 29 34 30 35 31 36 95 37
REMARK SMILES IDX 32 38 94 39 33 40 34 41 35 42 88 43 36 44 93 45 87 46 89 47
REMARK SMILES IDX 37 48 92 49 86 50 85 51 38 53 72 54 51 55 71 56 52 57 55 58
REMARK SMILES IDX 70 59 90 60 53 61 54 62 69 64 91 65 56 66 39 67 40 68 49 69
REMARK SMILES IDX 41 70 42 71 48 72 50 73 43 74 44 75 45 76 46 77 47 78 73 79
REMARK SMILES IDX 74 80 83 81 75 82 76 83 82 84 84 85 77 86 78 87 79 88 80 89
REMARK SMILES IDX 81 90 57 91 58 92 67 93 59 94 60 95 66 96 68 97 61 98 62 99
REMARK SMILES IDX 63 100 64 101 65 102
REMARK H PARENT 9 10 14 18 14 19 1 28 1 29 89 52 55 63
REMARK Flexibility Score: inf
ROOT
ATOM      1  O   UNL     1       2.229  -4.505   5.391  1.00  0.00    -0.374 OA
ENDROOT
BRANCH   1   2
ATOM      2  C   UNL     1       0.918  -4.718   5.910  1.00  0.00     0.202 C 
BRANCH   2   3
ATOM      3  C   UNL     1      -0.073  -3.562   5.770  1.00  0.00     0.261 C 
BRANCH   3   4
ATOM      4  O   UNL     1      -0.260  -3.162   4.404  1.00  0.00    -0.459 OA
BRANCH   4   5
ATOM      5  C   UNL     1       0.131  -1.893   4.109  1.00  0.00     0.365 C 
ATOM      6  O   UNL     1       0.564  -1.092   4.935  1.00  0.00    -0.245 OA
BRANCH   5   7
ATOM      7  C   UNL     1      -0.075  -1.496   2.645  1.00  0.00     0.296 C 
ATOM      8  N   UNL     1       0.034  -2.603   1.668  1.00  0.00    -0.319 N 
ATOM      9  C   UNL     1      -1.325  -3.047   1.328  1.00  0.00     0.270 C 
ATOM     10  H   UNL     1       0.532  -3.379   2.104  1.00  0.00     0.349 HD
ATOM     11  C   UNL     1      -2.337  -2.009   1.866  1.00  0.00     0.036 C 
ATOM     12  C   UNL     1      -1.456  -0.890   2.447  1.00  0.00     0.091 C 
ATOM     13  C   UNL     1      -3.259  -2.618   2.952  1.00  0.00     0.074 C 
ATOM     14  C   UNL     1      -3.258  -1.440   0.764  1.00  0.00     0.074 C 
ATOM     15  C   UNL     1      -4.288  -3.595   2.371  1.00  0.00     0.261 C 
ATOM     16  C   UNL     1      -4.248  -2.472   0.234  1.00  0.00     0.261 C 
ATOM     17  N   UNL     1      -5.087  -2.990   1.306  1.00  0.00    -0.346 N 
ATOM     18  H   UNL     1      -5.635  -2.224   1.697  1.00  0.00     0.346 HD
ATOM     19  H   UNL     1      -5.694  -3.710   0.915  1.00  0.00     0.346 HD
BRANCH   8  20
ATOM     20  C   UNL     1       0.910  -2.326   0.506  1.00  0.00     0.303 C 
BRANCH  20  21
ATOM     21  C   UNL     1       0.753  -0.982  -0.177  1.00  0.00     0.048 A 
ATOM     22  C   UNL     1       1.577   0.112   0.110  1.00  0.00     0.132 A 
ATOM     23  N   UNL     1       1.287   1.369  -0.279  1.00  0.00    -0.239 NA
ATOM     24  C   UNL     1       0.182   1.557  -1.027  1.00  0.00     0.113 A 
ATOM     25  C   UNL     1      -0.309  -0.763  -1.062  1.00  0.00     0.015 A 
ATOM     26  C   UNL     1      -0.620   0.527  -1.474  1.00  0.00     0.021 A 
BRANCH  22  27
ATOM     27  N   UNL     1       2.730  -0.001   0.861  1.00  0.00    -0.383 N 
ATOM     28  H   UNL     1       3.281   0.796   1.039  1.00  0.00     0.158 HD
ATOM     29  H   UNL     1       3.002  -0.877   1.218  1.00  0.00     0.158 HD
ENDBRANCH  22  27
ENDBRANCH  20  21
ENDBRANCH   8  20
ENDBRANCH   5   7
ENDBRANCH   4   5
ENDBRANCH   3   4
ENDBRANCH   2   3
ENDBRANCH   1   2
BRANCH   1  30
ATOM     30  C   UNL     1       2.389  -4.560   3.972  1.00  0.00     0.202 C 
BRANCH  30  31
ATOM     31  C   UNL     1       2.316  -5.946   3.320  1.00  0.00     0.261 C 
BRANCH  31  32
ATOM     32  O   UNL     1       1.006  -6.538   3.397  1.00  0.00    -0.460 OA
BRANCH  32  33
ATOM     33  C   UNL     1       0.932  -7.657   4.162  1.00  0.00     0.338 C 
ATOM     34  O   UNL     1       1.851  -8.220   4.731  1.00  0.00    -0.246 OA
BRANCH  33  35
ATOM     35  C   UNL     1      -0.478  -8.043   4.368  1.00  0.00     0.060 A 
ATOM     36  C   UNL     1      -0.914  -8.228   5.686  1.00  0.00     0.016 A 
ATOM     37  C   UNL     1      -1.329  -8.318   3.295  1.00  0.00     0.016 A 
ATOM     38  C   UNL     1      -2.187  -8.737   5.936  1.00  0.00     0.010 A 
ATOM     39  C   UNL     1      -2.603  -8.838   3.549  1.00  0.00     0.010 A 
ATOM     40  C   UNL     1      -3.025  -9.084   4.868  1.00  0.00    -0.014 A 
BRANCH  40  41
ATOM     41  C   UNL     1      -4.278  -9.833   5.133  1.00  0.00     0.031 A 
ATOM     42  C   UNL     1      -4.282 -11.330   4.972  1.00  0.00     0.074 A 
ATOM     43  C   UNL     1      -5.388  -9.194   5.542  1.00  0.00     0.049 A 
ATOM     44  N   UNL     1      -5.266 -12.178   5.124  1.00  0.00    -0.248 NA
ATOM     45  C   UNL     1      -3.005 -11.954   4.590  1.00  0.00     0.031 C 
ATOM     46  C   UNL     1      -5.497  -7.754   5.772  1.00  0.00     0.029 A 
ATOM     47  N   UNL     1      -6.639  -9.677   5.833  1.00  0.00    -0.354 N 
ATOM     48  C   UNL     1      -4.731 -13.432   4.857  1.00  0.00     0.074 A 
ATOM     49  C   UNL     1      -3.342 -13.233   4.504  1.00  0.00     0.031 C 
ATOM     50  C   UNL     1      -6.752  -7.469   6.160  1.00  0.00     0.029 A 
ATOM     51  C   UNL     1      -7.541  -8.700   6.180  1.00  0.00     0.049 A 
ATOM     52  H   UNL     1      -6.869 -10.634   5.797  1.00  0.00     0.167 HD
ATOM     53  C   UNL     1      -5.339 -14.642   4.910  1.00  0.00     0.037 A 
ATOM     54  C   UNL     1      -8.856  -8.788   6.462  1.00  0.00     0.037 A 
ATOM     55  C   UNL     1      -6.722 -14.838   5.258  1.00  0.00     0.049 A 
ATOM     56  C   UNL     1      -9.527 -10.137   6.447  1.00  0.00     0.074 A 
ATOM     57  C   UNL     1      -7.429 -16.024   5.344  1.00  0.00     0.029 A 
ATOM     58  N   UNL     1      -7.610 -13.820   5.574  1.00  0.00    -0.354 N 
ATOM     59  N   UNL     1      -9.005 -11.316   6.205  1.00  0.00    -0.248 NA
ATOM     60  C   UNL     1     -10.966 -10.167   6.746  1.00  0.00     0.031 C 
ATOM     61  C   UNL     1      -8.755 -15.721   5.675  1.00  0.00     0.029 A 
ATOM     62  C   UNL     1      -8.863 -14.349   5.837  1.00  0.00     0.049 A 
ATOM     63  H   UNL     1      -7.383 -12.863   5.606  1.00  0.00     0.167 HD
ATOM     64  C   UNL     1     -10.045 -12.229   6.349  1.00  0.00     0.074 A 
ATOM     65  C   UNL     1     -11.224 -11.468   6.706  1.00  0.00     0.031 C 
ATOM     66  C   UNL     1     -10.025 -13.578   6.201  1.00  0.00     0.037 A 
BRANCH  53  67
ATOM     67  C   UNL     1      -4.512 -15.849   4.564  1.00  0.00     0.058 A 
ATOM     68  C   UNL     1      -3.530 -16.343   5.437  1.00  0.00     0.135 A 
ATOM     69  C   UNL     1      -4.722 -16.535   3.357  1.00  0.00     0.135 A 
ATOM     70  F   UNL     1      -3.278 -15.714   6.596  1.00  0.00    -0.206 F 
ATOM     71  C   UNL     1      -2.767 -17.461   5.115  1.00  0.00     0.059 A 
ATOM     72  C   UNL     1      -3.986 -17.669   3.025  1.00  0.00     0.059 A 
ATOM     73  F   UNL     1      -5.647 -16.103   2.486  1.00  0.00    -0.206 F 
ATOM     74  C   UNL     1      -3.001 -18.115   3.904  1.00  0.00     0.060 A 
BRANCH  74  75
ATOM     75  S   UNL     1      -2.002 -19.564   3.497  1.00  0.00     0.124 S 
ATOM     76  O   UNL     1      -0.727 -18.947   3.143  1.00  0.00    -0.237 OA
ATOM     77  O   UNL     1      -2.016 -20.316   4.747  1.00  0.00    -0.237 OA
ATOM     78  O   UNL     1      -2.730 -20.178   2.391  1.00  0.00    -0.744 OA
ENDBRANCH  74  75
ENDBRANCH  53  67
BRANCH  54  79
ATOM     79  C   UNL     1      -9.633  -7.559   6.774  1.00  0.00     0.058 A 
ATOM     80  C   UNL     1     -10.110  -7.313   8.069  1.00  0.00     0.135 A 
ATOM     81  C   UNL     1      -9.918  -6.611   5.779  1.00  0.00     0.135 A 
ATOM     82  F   UNL     1      -9.873  -8.197   9.050  1.00  0.00    -0.206 F 
ATOM     83  C   UNL     1     -10.855  -6.176   8.367  1.00  0.00     0.059 A 
ATOM     84  C   UNL     1     -10.641  -5.455   6.057  1.00  0.00     0.059 A 
ATOM     85  F   UNL     1      -9.476  -6.796   4.526  1.00  0.00    -0.206 F 
ATOM     86  C   UNL     1     -11.115  -5.252   7.353  1.00  0.00     0.060 A 
BRANCH  86  87
ATOM     87  S   UNL     1     -12.043  -3.756   7.757  1.00  0.00     0.124 S 
ATOM     88  O   UNL     1     -13.402  -4.273   7.859  1.00  0.00    -0.237 OA
ATOM     89  O   UNL     1     -11.423  -3.338   9.011  1.00  0.00    -0.237 OA
ATOM     90  O   UNL     1     -11.781  -2.883   6.617  1.00  0.00    -0.744 OA
ENDBRANCH  86  87
ENDBRANCH  54  79
BRANCH  66  91
ATOM     91  C   UNL     1     -11.305 -14.323   6.460  1.00  0.00     0.058 A 
ATOM     92  C   UNL     1     -12.369 -14.301   5.546  1.00  0.00     0.135 A 
ATOM     93  C   UNL     1     -11.446 -15.112   7.614  1.00  0.00     0.135 A 
ATOM     94  F   UNL     1     -12.286 -13.558   4.431  1.00  0.00    -0.206 F 
ATOM     95  C   UNL     1     -13.538 -15.019   5.776  1.00  0.00     0.059 A 
ATOM     96  C   UNL     1     -12.597 -15.856   7.852  1.00  0.00     0.059 A 
ATOM     97  F   UNL     1     -10.453 -15.175   8.515  1.00  0.00    -0.206 F 
ATOM     98  C   UNL     1     -13.643 -15.795   6.932  1.00  0.00     0.060 A 
BRANCH  98  99
ATOM     99  S   UNL     1     -15.150 -16.750   7.204  1.00  0.00     0.124 S 
ATOM    100  O   UNL     1     -16.084 -15.712   7.629  1.00  0.00    -0.237 OA
ATOM    101  O   UNL     1     -15.400 -17.326   5.886  1.00  0.00    -0.237 OA
ATOM    102  O   UNL     1     -14.764 -17.708   8.236  1.00  0.00    -0.744 OA
ENDBRANCH  98  99
ENDBRANCH  66  91
ENDBRANCH  40  41
ENDBRANCH  33  35
ENDBRANCH  32  33
ENDBRANCH  31  32
ENDBRANCH  30  31
ENDBRANCH   1  30
TORSDOF 20
