REMARK SMILES C[C@@H](C(=O)OCCOCCOC(=O)c1ccc(-c2c3nc(c(-c4c(F)cc(S(=O)(=O)[O-])cc4F)c4ccc([nH]4)c(-c4c(F)cc(S(=O)(=O)[O-])cc4F)c4nc(c(-c5c(F)cc(S(=O)(=O)[O-])cc5F)c5ccc2[nH]5)C=C4)C=C3)cc1)c1ccc(N[C@H]2CCC[C@@H]2O)cc1F
REMARK SMILES IDX 7 1 6 2 5 3 3 4 4 5 2 6 1 7 80 8 81 9 92 10 82 11 91 12
REMARK SMILES IDX 93 13 83 14 84 15 85 17 86 18 89 19 87 20 88 21 90 22 8 24
REMARK SMILES IDX 9 25 10 26 11 27 12 28 13 29 14 30 15 31 79 32 16 33 78 34
REMARK SMILES IDX 17 35 18 36 19 37 72 38 20 39 77 40 71 41 73 42 21 43 76 44
REMARK SMILES IDX 70 45 69 46 22 48 56 49 35 50 55 51 36 52 39 53 54 54 74 55
REMARK SMILES IDX 37 56 38 57 53 59 75 60 40 61 23 62 24 63 33 64 25 65 26 66
REMARK SMILES IDX 32 67 34 68 27 69 28 70 29 71 30 72 31 73 57 74 58 75 67 76
REMARK SMILES IDX 59 77 60 78 66 79 68 80 61 81 62 82 63 83 64 84 65 85 41 86
REMARK SMILES IDX 42 87 51 88 43 89 44 90 50 91 52 92 45 93 46 94 47 95 48 96
REMARK SMILES IDX 49 97
REMARK H PARENT 84 16 90 23 73 47 39 58
REMARK Flexibility Score: inf
ROOT
ATOM      1  C   UNL     1       1.939   3.488  -3.214  1.00  0.00     0.202 C 
ENDROOT
BRANCH   1   2
ATOM      2  C   UNL     1       2.257   3.752  -1.738  1.00  0.00     0.261 C 
BRANCH   2   3
ATOM      3  O   UNL     1       1.926   2.619  -0.921  1.00  0.00    -0.463 OA
BRANCH   3   4
ATOM      4  C   UNL     1       1.275   2.900   0.240  1.00  0.00     0.313 C 
ATOM      5  O   UNL     1       1.154   4.030   0.704  1.00  0.00    -0.252 OA
BRANCH   4   6
ATOM      6  C   UNL     1       0.625   1.659   0.875  1.00  0.00     0.129 C 
ATOM      7  C   UNL     1       1.381   0.380   0.491  1.00  0.00     0.025 C 
BRANCH   6   8
ATOM      8  C   UNL     1      -0.897   1.629   0.692  1.00  0.00     0.002 A 
ATOM      9  C   UNL     1      -1.645   2.800   0.886  1.00  0.00     0.010 A 
ATOM     10  C   UNL     1      -1.637   0.477   0.408  1.00  0.00     0.129 A 
ATOM     11  C   UNL     1      -3.043   2.818   0.763  1.00  0.00     0.026 A 
ATOM     12  C   UNL     1      -3.037   0.495   0.305  1.00  0.00     0.065 A 
ATOM     13  F   UNL     1      -1.032  -0.705   0.229  1.00  0.00    -0.207 F 
ATOM     14  C   UNL     1      -3.775   1.669   0.480  1.00  0.00     0.037 A 
BRANCH  14  15
ATOM     15  N   UNL     1      -5.148   1.629   0.355  1.00  0.00    -0.380 N 
ATOM     16  H   UNL     1      -5.531   0.736   0.197  1.00  0.00     0.160 HD
BRANCH  15  17
ATOM     17  C   UNL     1      -6.117   2.723   0.422  1.00  0.00     0.107 C 
ATOM     18  C   UNL     1      -6.134   3.495   1.747  1.00  0.00     0.027 C 
ATOM     19  C   UNL     1      -5.953   3.774  -0.690  1.00  0.00     0.136 C 
ATOM     20  C   UNL     1      -6.122   4.978   1.363  1.00  0.00     0.005 C 
ATOM     21  C   UNL     1      -6.588   5.017  -0.084  1.00  0.00     0.034 C 
BRANCH  19  22
ATOM     22  O   UNL     1      -6.627   3.391  -1.883  1.00  0.00    -0.391 OA
ATOM     23  H   UNL     1      -7.567   3.248  -1.691  1.00  0.00     0.211 HD
ENDBRANCH  19  22
ENDBRANCH  15  17
ENDBRANCH  14  15
ENDBRANCH   6   8
ENDBRANCH   4   6
ENDBRANCH   3   4
ENDBRANCH   2   3
ENDBRANCH   1   2
BRANCH   1  24
ATOM     24  O   UNL     1       0.619   3.038  -3.515  1.00  0.00    -0.374 OA
BRANCH  24  25
ATOM     25  C   UNL     1       0.265   1.706  -3.135  1.00  0.00     0.202 C 
BRANCH  25  26
ATOM     26  C   UNL     1       0.990   0.549  -3.838  1.00  0.00     0.261 C 
BRANCH  26  27
ATOM     27  O   UNL     1       2.398   0.496  -3.539  1.00  0.00    -0.460 OA
BRANCH  27  28
ATOM     28  C   UNL     1       3.212   0.600  -4.619  1.00  0.00     0.338 C 
ATOM     29  O   UNL     1       2.870   0.674  -5.794  1.00  0.00    -0.246 OA
BRANCH  28  30
ATOM     30  C   UNL     1       4.610   0.804  -4.201  1.00  0.00     0.060 A 
ATOM     31  C   UNL     1       5.257   1.966  -4.640  1.00  0.00     0.016 A 
ATOM     32  C   UNL     1       5.311  -0.172  -3.489  1.00  0.00     0.016 A 
ATOM     33  C   UNL     1       6.620   2.138  -4.408  1.00  0.00     0.010 A 
ATOM     34  C   UNL     1       6.683  -0.002  -3.267  1.00  0.00     0.010 A 
ATOM     35  C   UNL     1       7.351   1.137  -3.755  1.00  0.00    -0.014 A 
BRANCH  35  36
ATOM     36  C   UNL     1       8.833   1.222  -3.716  1.00  0.00     0.031 A 
ATOM     37  C   UNL     1       9.637   0.441  -4.720  1.00  0.00     0.074 A 
ATOM     38  C   UNL     1       9.454   2.017  -2.826  1.00  0.00     0.049 A 
ATOM     39  N   UNL     1      10.935   0.352  -4.854  1.00  0.00    -0.248 NA
ATOM     40  C   UNL     1       8.875  -0.345  -5.705  1.00  0.00     0.031 C 
ATOM     41  C   UNL     1       8.784   2.851  -1.829  1.00  0.00     0.029 A 
ATOM     42  N   UNL     1      10.790   2.246  -2.613  1.00  0.00    -0.354 N 
ATOM     43  C   UNL     1      11.148  -0.498  -5.934  1.00  0.00     0.074 A 
ATOM     44  C   UNL     1       9.845  -0.922  -6.400  1.00  0.00     0.031 C 
ATOM     45  C   UNL     1       9.715   3.491  -1.100  1.00  0.00     0.029 A 
ATOM     46  C   UNL     1      11.044   3.091  -1.560  1.00  0.00     0.049 A 
ATOM     47  H   UNL     1      11.500   1.842  -3.164  1.00  0.00     0.167 HD
ATOM     48  C   UNL     1      12.320  -0.881  -6.494  1.00  0.00     0.037 A 
ATOM     49  C   UNL     1      12.214   3.481  -1.016  1.00  0.00     0.037 A 
ATOM     50  C   UNL     1      13.615  -0.459  -6.026  1.00  0.00     0.049 A 
ATOM     51  C   UNL     1      13.508   2.993  -1.615  1.00  0.00     0.074 A 
ATOM     52  C   UNL     1      14.862  -0.787  -6.530  1.00  0.00     0.029 A 
ATOM     53  N   UNL     1      13.831   0.379  -4.942  1.00  0.00    -0.354 N 
ATOM     54  N   UNL     1      13.693   2.202  -2.646  1.00  0.00    -0.248 NA
ATOM     55  C   UNL     1      14.752   3.454  -0.981  1.00  0.00     0.031 C 
ATOM     56  C   UNL     1      15.833  -0.181  -5.725  1.00  0.00     0.029 A 
ATOM     57  C   UNL     1      15.191   0.563  -4.749  1.00  0.00     0.049 A 
ATOM     58  H   UNL     1      13.123   0.784  -4.391  1.00  0.00     0.167 HD
ATOM     59  C   UNL     1      15.071   2.090  -2.798  1.00  0.00     0.074 A 
ATOM     60  C   UNL     1      15.673   2.902  -1.760  1.00  0.00     0.031 C 
ATOM     61  C   UNL     1      15.775   1.380  -3.714  1.00  0.00     0.037 A 
BRANCH  48  62
ATOM     62  C   UNL     1      12.256  -1.823  -7.664  1.00  0.00     0.058 A 
ATOM     63  C   UNL     1      11.819  -1.399  -8.929  1.00  0.00     0.135 A 
ATOM     64  C   UNL     1      12.664  -3.160  -7.526  1.00  0.00     0.135 A 
ATOM     65  F   UNL     1      11.402  -0.136  -9.111  1.00  0.00    -0.206 F 
ATOM     66  C   UNL     1      11.764  -2.273 -10.010  1.00  0.00     0.059 A 
ATOM     67  C   UNL     1      12.640  -4.045  -8.600  1.00  0.00     0.059 A 
ATOM     68  F   UNL     1      13.088  -3.618  -6.338  1.00  0.00    -0.206 F 
ATOM     69  C   UNL     1      12.175  -3.596  -9.835  1.00  0.00     0.060 A 
BRANCH  69  70
ATOM     70  S   UNL     1      12.098  -4.719 -11.246  1.00  0.00     0.124 S 
ATOM     71  O   UNL     1      10.661  -4.952 -11.353  1.00  0.00    -0.237 OA
ATOM     72  O   UNL     1      12.690  -3.921 -12.315  1.00  0.00    -0.237 OA
ATOM     73  O   UNL     1      12.889  -5.866 -10.812  1.00  0.00    -0.744 OA
ENDBRANCH  69  70
ENDBRANCH  48  62
BRANCH  49  74
ATOM     74  C   UNL     1      12.216   4.370   0.176  1.00  0.00     0.058 A 
ATOM     75  C   UNL     1      12.647   5.702   0.092  1.00  0.00     0.135 A 
ATOM     76  C   UNL     1      11.780   3.902   1.426  1.00  0.00     0.135 A 
ATOM     77  F   UNL     1      13.084   6.192  -1.079  1.00  0.00    -0.206 F 
ATOM     78  C   UNL     1      12.658   6.536   1.205  1.00  0.00     0.059 A 
ATOM     79  C   UNL     1      11.759   4.724   2.548  1.00  0.00     0.059 A 
ATOM     80  F   UNL     1      11.349   2.638   1.558  1.00  0.00    -0.206 F 
ATOM     81  C   UNL     1      12.209   6.038   2.430  1.00  0.00     0.060 A 
BRANCH  81  82
ATOM     82  S   UNL     1      12.175   7.143   3.858  1.00  0.00     0.124 S 
ATOM     83  O   UNL     1      13.590   7.224   4.199  1.00  0.00    -0.237 OA
ATOM     84  O   UNL     1      11.582   8.352   3.296  1.00  0.00    -0.237 OA
ATOM     85  O   UNL     1      11.334   6.428   4.814  1.00  0.00    -0.744 OA
ENDBRANCH  81  82
ENDBRANCH  49  74
BRANCH  61  86
ATOM     86  C   UNL     1      17.276   1.472  -3.662  1.00  0.00     0.058 A 
ATOM     87  C   UNL     1      18.020   0.826  -2.662  1.00  0.00     0.135 A 
ATOM     88  C   UNL     1      17.980   2.169  -4.657  1.00  0.00     0.135 A 
ATOM     89  F   UNL     1      17.395   0.151  -1.685  1.00  0.00    -0.206 F 
ATOM     90  C   UNL     1      19.410   0.886  -2.639  1.00  0.00     0.059 A 
ATOM     91  C   UNL     1      19.371   2.221  -4.667  1.00  0.00     0.059 A 
ATOM     92  F   UNL     1      17.317   2.795  -5.642  1.00  0.00    -0.206 F 
ATOM     93  C   UNL     1      20.077   1.585  -3.647  1.00  0.00     0.060 A 
BRANCH  93  94
ATOM     94  S   UNL     1      21.882   1.628  -3.625  1.00  0.00     0.124 S 
ATOM     95  O   UNL     1      22.140   2.577  -2.547  1.00  0.00    -0.237 OA
ATOM     96  O   UNL     1      22.225   0.238  -3.340  1.00  0.00    -0.237 OA
ATOM     97  O   UNL     1      22.227   2.090  -4.966  1.00  0.00    -0.744 OA
ENDBRANCH  93  94
ENDBRANCH  61  86
ENDBRANCH  35  36
ENDBRANCH  28  30
ENDBRANCH  27  28
ENDBRANCH  26  27
ENDBRANCH  25  26
ENDBRANCH  24  25
ENDBRANCH   1  24
TORSDOF 21
