REMARK SMILES O=C1OC(c2ccc(Cl)cc2)=N/C1=C/Nc1ccc(O)c(C(=O)OCCOCCOC(=O)c2ccc(-c3c4nc(c(-c5c(F)cc(S(=O)(=O)[O-])cc5F)c5ccc([nH]5)c(-c5c(F)cc(S(=O)(=O)[O-])cc5F)c5nc(c(-c6c(F)cc(S(=O)(=O)[O-])cc6F)c6ccc3[nH]6)C=C5)C=C4)cc2)c1
REMARK SMILES IDX 27 1 26 2 25 3 24 4 22 5 23 6 21 7 16 8 17 9 99 10 18 11
REMARK SMILES IDX 19 12 15 13 14 15 1 16 2 17 3 18 13 19 4 20 12 21 5 22 6 23
REMARK SMILES IDX 11 24 7 25 10 26 8 27 9 28 20 29 28 31 29 32 30 33 31 34
REMARK SMILES IDX 32 35 33 36 34 37 98 38 35 39 97 40 36 41 37 42 38 43 91 44
REMARK SMILES IDX 39 45 96 46 90 47 92 48 40 49 95 50 89 51 88 52 41 54 75 55
REMARK SMILES IDX 54 56 74 57 55 58 58 59 73 60 93 61 56 62 57 63 72 65 94 66
REMARK SMILES IDX 59 67 42 68 43 69 52 70 44 71 45 72 51 73 53 74 46 75 47 76
REMARK SMILES IDX 48 77 49 78 50 79 76 80 77 81 86 82 78 83 79 84 85 85 87 86
REMARK SMILES IDX 80 87 81 88 82 89 83 90 84 91 60 92 61 93 70 94 62 95 63 96
REMARK SMILES IDX 69 97 71 98 64 99 65 100 66 101 67 102 68 103
REMARK H PARENT 15 14 20 30 92 53 58 64
REMARK Flexibility Score: inf
ROOT
ATOM      1  O   UNL     1      -5.343  -7.280  -2.517  1.00  0.00    -0.374 OA
ENDROOT
BRANCH   1   2
ATOM      2  C   UNL     1      -4.792  -8.566  -2.806  1.00  0.00     0.202 C 
BRANCH   2   3
ATOM      3  C   UNL     1      -3.308  -8.637  -3.171  1.00  0.00     0.261 C 
BRANCH   3   4
ATOM      4  O   UNL     1      -2.485  -8.150  -2.104  1.00  0.00    -0.460 OA
BRANCH   4   5
ATOM      5  C   UNL     1      -1.803  -7.012  -2.373  1.00  0.00     0.342 C 
ATOM      6  O   UNL     1      -1.769  -6.421  -3.443  1.00  0.00    -0.246 OA
BRANCH   5   7
ATOM      7  C   UNL     1      -1.253  -6.412  -1.137  1.00  0.00     0.103 A 
ATOM      8  C   UNL     1      -0.773  -4.323   0.024  1.00  0.00     0.039 A 
ATOM      9  C   UNL     1      -0.118  -5.056   1.019  1.00  0.00     0.030 A 
ATOM     10  C   UNL     1      -1.335  -5.012  -1.050  1.00  0.00     0.045 A 
ATOM     11  C   UNL     1      -0.085  -6.455   0.977  1.00  0.00     0.049 A 
ATOM     12  C   UNL     1      -0.657  -7.134  -0.100  1.00  0.00     0.130 A 
BRANCH   8  13
ATOM     13  N   UNL     1      -0.782  -2.923   0.024  1.00  0.00    -0.360 N 
ATOM     14  H   UNL     1      -1.657  -2.471  -0.012  1.00  0.00     0.166 HD
BRANCH  13  15
ATOM     15  C   UNL     1       0.341  -2.134   0.069  1.00  0.00     0.119 C 
ATOM     16  O   UNL     1      -1.902  -0.108   0.021  1.00  0.00    -0.244 OA
ATOM     17  C   UNL     1      -0.714   0.132   0.041  1.00  0.00     0.365 C 
ATOM     18  O   UNL     1      -0.113   1.357   0.077  1.00  0.00    -0.402 OA
ATOM     19  C   UNL     1       0.445  -0.802   0.036  1.00  0.00     0.168 C 
ATOM     20  C   UNL     1       1.218   1.119   0.040  1.00  0.00     0.231 C 
ATOM     21  N   UNL     1       1.624  -0.107   0.007  1.00  0.00    -0.204 NA
BRANCH  20  22
ATOM     22  C   UNL     1       2.053   2.312  -0.006  1.00  0.00     0.037 A 
ATOM     23  C   UNL     1       1.952   3.280   0.997  1.00  0.00     0.015 A 
ATOM     24  C   UNL     1       2.982   2.448  -1.043  1.00  0.00     0.015 A 
ATOM     25  C   UNL     1       2.796   4.392   0.963  1.00  0.00     0.021 A 
ATOM     26  C   UNL     1       3.809   3.571  -1.083  1.00  0.00     0.021 A 
ATOM     27  C   UNL     1       3.717   4.535  -0.078  1.00  0.00     0.041 A 
ATOM     28  Cl  UNL     1       4.753   5.908  -0.117  1.00  0.00    -0.084 Cl
ENDBRANCH  20  22
ENDBRANCH  13  15
ENDBRANCH   8  13
BRANCH  12  29
ATOM     29  O   UNL     1      -0.594  -8.495  -0.140  1.00  0.00    -0.507 OA
ATOM     30  H   UNL     1      -0.191  -8.966   0.563  1.00  0.00     0.293 HD
ENDBRANCH  12  29
ENDBRANCH   5   7
ENDBRANCH   4   5
ENDBRANCH   3   4
ENDBRANCH   2   3
ENDBRANCH   1   2
BRANCH   1  31
ATOM     31  C   UNL     1      -5.024  -6.686  -1.260  1.00  0.00     0.202 C 
BRANCH  31  32
ATOM     32  C   UNL     1      -5.700  -7.243   0.001  1.00  0.00     0.261 C 
BRANCH  32  33
ATOM     33  O   UNL     1      -5.383  -8.620   0.262  1.00  0.00    -0.460 OA
BRANCH  33  34
ATOM     34  C   UNL     1      -6.385  -9.488  -0.024  1.00  0.00     0.338 C 
ATOM     35  O   UNL     1      -7.503  -9.217  -0.430  1.00  0.00    -0.246 OA
BRANCH  34  36
ATOM     36  C   UNL     1      -5.885 -10.873   0.054  1.00  0.00     0.060 A 
ATOM     37  C   UNL     1      -6.037 -11.687  -1.076  1.00  0.00     0.016 A 
ATOM     38  C   UNL     1      -5.357 -11.390   1.238  1.00  0.00     0.016 A 
ATOM     39  C   UNL     1      -5.706 -13.039  -1.012  1.00  0.00     0.010 A 
ATOM     40  C   UNL     1      -5.032 -12.748   1.302  1.00  0.00     0.010 A 
ATOM     41  C   UNL     1      -5.240 -13.586   0.190  1.00  0.00    -0.014 A 
BRANCH  41  42
ATOM     42  C   UNL     1      -5.111 -15.057   0.333  1.00  0.00     0.031 A 
ATOM     43  C   UNL     1      -6.161 -15.808   1.106  1.00  0.00     0.074 A 
ATOM     44  C   UNL     1      -4.080 -15.715  -0.226  1.00  0.00     0.049 A 
ATOM     45  N   UNL     1      -6.209 -17.075   1.426  1.00  0.00    -0.248 NA
ATOM     46  C   UNL     1      -7.309 -15.022   1.589  1.00  0.00     0.031 C 
ATOM     47  C   UNL     1      -3.025 -15.103  -1.034  1.00  0.00     0.029 A 
ATOM     48  N   UNL     1      -3.744 -17.046  -0.187  1.00  0.00    -0.354 N 
ATOM     49  C   UNL     1      -7.380 -17.236   2.159  1.00  0.00     0.074 A 
ATOM     50  C   UNL     1      -7.996 -15.931   2.264  1.00  0.00     0.031 C 
ATOM     51  C   UNL     1      -2.151 -16.055  -1.403  1.00  0.00     0.029 A 
ATOM     52  C   UNL     1      -2.561 -17.333  -0.824  1.00  0.00     0.049 A 
ATOM     53  H   UNL     1      -4.298 -17.729   0.255  1.00  0.00     0.167 HD
ATOM     54  C   UNL     1      -7.896 -18.370   2.689  1.00  0.00     0.037 A 
ATOM     55  C   UNL     1      -1.873 -18.490  -0.905  1.00  0.00     0.037 A 
ATOM     56  C   UNL     1      -7.275 -19.665   2.575  1.00  0.00     0.049 A 
ATOM     57  C   UNL     1      -2.431 -19.727  -0.247  1.00  0.00     0.074 A 
ATOM     58  C   UNL     1      -7.726 -20.881   3.060  1.00  0.00     0.029 A 
ATOM     59  N   UNL     1      -6.067 -19.913   1.940  1.00  0.00    -0.354 N 
ATOM     60  N   UNL     1      -3.546 -19.870   0.429  1.00  0.00    -0.248 NA
ATOM     61  C   UNL     1      -1.639 -20.959  -0.366  1.00  0.00     0.031 C 
ATOM     62  C   UNL     1      -6.762 -21.851   2.771  1.00  0.00     0.029 A 
ATOM     63  C   UNL     1      -5.744 -21.256   2.044  1.00  0.00     0.049 A 
ATOM     64  H   UNL     1      -5.520 -19.235   1.482  1.00  0.00     0.167 HD
ATOM     65  C   UNL     1      -3.608 -21.215   0.783  1.00  0.00     0.074 A 
ATOM     66  C   UNL     1      -2.420 -21.842   0.241  1.00  0.00     0.031 C 
ATOM     67  C   UNL     1      -4.563 -21.872   1.488  1.00  0.00     0.037 A 
BRANCH  54  68
ATOM     68  C   UNL     1      -9.180 -18.260   3.468  1.00  0.00     0.058 A 
ATOM     69  C   UNL     1     -10.406 -17.977   2.845  1.00  0.00     0.135 A 
ATOM     70  C   UNL     1      -9.189 -18.481   4.855  1.00  0.00     0.135 A 
ATOM     71  F   UNL     1     -10.456 -17.740   1.525  1.00  0.00    -0.206 F 
ATOM     72  C   UNL     1     -11.589 -17.890   3.573  1.00  0.00     0.059 A 
ATOM     73  C   UNL     1     -10.364 -18.432   5.598  1.00  0.00     0.059 A 
ATOM     74  F   UNL     1      -8.045 -18.754   5.504  1.00  0.00    -0.206 F 
ATOM     75  C   UNL     1     -11.558 -18.122   4.949  1.00  0.00     0.060 A 
BRANCH  75  76
ATOM     76  S   UNL     1     -13.103 -18.014   5.877  1.00  0.00     0.124 S 
ATOM     77  O   UNL     1     -13.366 -16.578   5.840  1.00  0.00    -0.237 OA
ATOM     78  O   UNL     1     -14.002 -18.843   5.080  1.00  0.00    -0.237 OA
ATOM     79  O   UNL     1     -12.753 -18.553   7.187  1.00  0.00    -0.744 OA
ENDBRANCH  75  76
ENDBRANCH  54  68
BRANCH  55  80
ATOM     80  C   UNL     1      -0.571 -18.532  -1.626  1.00  0.00     0.058 A 
ATOM     81  C   UNL     1      -0.425 -19.251  -2.821  1.00  0.00     0.135 A 
ATOM     82  C   UNL     1       0.555 -17.853  -1.131  1.00  0.00     0.135 A 
ATOM     83  F   UNL     1      -1.467 -19.927  -3.328  1.00  0.00    -0.206 F 
ATOM     84  C   UNL     1       0.792 -19.311  -3.492  1.00  0.00     0.059 A 
ATOM     85  C   UNL     1       1.775 -17.873  -1.800  1.00  0.00     0.059 A 
ATOM     86  F   UNL     1       0.468 -17.141   0.003  1.00  0.00    -0.206 F 
ATOM     87  C   UNL     1       1.886 -18.614  -2.975  1.00  0.00     0.060 A 
BRANCH  87  88
ATOM     88  S   UNL     1       3.449 -18.663  -3.879  1.00  0.00     0.124 S 
ATOM     89  O   UNL     1       3.877 -20.038  -3.652  1.00  0.00    -0.237 OA
ATOM     90  O   UNL     1       3.024 -18.342  -5.238  1.00  0.00    -0.237 OA
ATOM     91  O   UNL     1       4.250 -17.635  -3.221  1.00  0.00    -0.744 OA
ENDBRANCH  87  88
ENDBRANCH  55  80
BRANCH  67  92
ATOM     92  C   UNL     1      -4.399 -23.358   1.673  1.00  0.00     0.058 A 
ATOM     93  C   UNL     1      -3.420 -23.901   2.519  1.00  0.00     0.135 A 
ATOM     94  C   UNL     1      -5.282 -24.250   1.039  1.00  0.00     0.135 A 
ATOM     95  F   UNL     1      -2.547 -23.097   3.146  1.00  0.00    -0.206 F 
ATOM     96  C   UNL     1      -3.305 -25.275   2.710  1.00  0.00     0.059 A 
ATOM     97  C   UNL     1      -5.206 -25.624   1.242  1.00  0.00     0.059 A 
ATOM     98  F   UNL     1      -6.245 -23.785   0.228  1.00  0.00    -0.206 F 
ATOM     99  C   UNL     1      -4.206 -26.128   2.071  1.00  0.00     0.060 A 
BRANCH  99 100
ATOM    100  S   UNL     1      -4.069 -27.905   2.360  1.00  0.00     0.124 S 
ATOM    101  O   UNL     1      -2.850 -28.230   1.627  1.00  0.00    -0.237 OA
ATOM    102  O   UNL     1      -3.973 -27.977   3.814  1.00  0.00    -0.237 OA
ATOM    103  O   UNL     1      -5.304 -28.439   1.792  1.00  0.00    -0.744 OA
ENDBRANCH  99 100
ENDBRANCH  67  92
ENDBRANCH  41  42
ENDBRANCH  34  36
ENDBRANCH  33  34
ENDBRANCH  32  33
ENDBRANCH  31  32
ENDBRANCH   1  31
TORSDOF 21
