REMARK SMILES C[C@@H](CC(=O)NC(=O)N(C)C[C@@H]1CCC[N@H+]1C)CC(=O)OCCOCCOC(=O)c1ccc(-c2c3nc(c(-c4c(F)cc(S(=O)(=O)[O-])cc4F)c4ccc([nH]4)c(-c4c(F)cc(S(=O)(=O)[O-])cc4F)c4nc(c(-c5c(F)cc(S(=O)(=O)[O-])cc5F)c5ccc2[nH]5)C=C4)C=C3)cc1
REMARK SMILES IDX 22 1 21 2 19 3 20 4 18 5 2 6 1 7 3 8 4 9 5 10 6 11 7 12 8 14
REMARK SMILES IDX 9 15 10 16 11 17 12 18 13 19 16 20 14 21 15 22 17 23 23 25
REMARK SMILES IDX 24 26 25 27 26 28 27 29 28 30 29 31 30 32 31 33 95 34 32 35
REMARK SMILES IDX 94 36 33 37 34 38 35 39 88 40 36 41 93 42 87 43 89 44 37 45
REMARK SMILES IDX 92 46 86 47 85 48 38 50 72 51 51 52 71 53 52 54 55 55 70 56
REMARK SMILES IDX 90 57 53 58 54 59 69 61 91 62 56 63 39 64 40 65 49 66 41 67
REMARK SMILES IDX 42 68 48 69 50 70 43 71 44 72 45 73 46 74 47 75 73 76 74 77
REMARK SMILES IDX 83 78 75 79 76 80 82 81 84 82 77 83 78 84 79 85 80 86 81 87
REMARK SMILES IDX 57 88 58 89 67 90 59 91 60 92 66 93 68 94 61 95 62 96 63 97
REMARK SMILES IDX 64 98 65 99
REMARK H PARENT 6 13 16 24 89 49 55 60
REMARK Flexibility Score: inf
ROOT
ATOM      1  C   UNL     1       5.715  -4.252  -0.214  1.00  0.00     0.261 C 
ENDROOT
BRANCH   1   2
ATOM      2  O   UNL     1       4.786  -3.568  -1.085  1.00  0.00    -0.463 OA
BRANCH   2   3
ATOM      3  C   UNL     1       4.085  -4.298  -1.995  1.00  0.00     0.306 C 
ATOM      4  O   UNL     1       4.226  -5.495  -2.205  1.00  0.00    -0.252 OA
BRANCH   3   5
ATOM      5  C   UNL     1       3.002  -3.445  -2.648  1.00  0.00     0.126 C 
BRANCH   5   6
ATOM      6  C   UNL     1       1.769  -3.321  -1.735  1.00  0.00     0.006 C 
ATOM      7  C   UNL     1       2.102  -2.541  -0.488  1.00  0.00     0.009 C 
BRANCH   6   8
ATOM      8  C   UNL     1       0.517  -2.710  -2.376  1.00  0.00     0.104 C 
BRANCH   8   9
ATOM      9  C   UNL     1       0.635  -1.294  -2.900  1.00  0.00     0.228 C 
ATOM     10  O   UNL     1       1.118  -1.107  -4.023  1.00  0.00    -0.275 OA
ATOM     11  N   UNL     1       0.177  -0.188  -2.202  1.00  0.00    -0.278 N 
ATOM     12  C   UNL     1       0.378   0.338  -0.943  1.00  0.00     0.323 C 
ATOM     13  H   UNL     1      -0.445   0.357  -2.737  1.00  0.00     0.174 HD
ATOM     14  O   UNL     1       0.851   1.474  -0.887  1.00  0.00    -0.248 OA
BRANCH  12  15
ATOM     15  N   UNL     1       0.037  -0.372   0.184  1.00  0.00    -0.322 N 
ATOM     16  C   UNL     1      -1.155  -1.206   0.216  1.00  0.00     0.149 C 
BRANCH  15  17
ATOM     17  C   UNL     1       0.483   0.139   1.506  1.00  0.00     0.185 C 
BRANCH  17  18
ATOM     18  C   UNL     1       1.995   0.484   1.667  1.00  0.00     0.203 C 
ATOM     19  C   UNL     1       2.828  -0.700   2.138  1.00  0.00     0.073 C 
ATOM     20  N   UNL     1       2.292   1.413   2.784  1.00  0.00    -0.333 N 
ATOM     21  C   UNL     1       4.143  -0.061   2.522  1.00  0.00     0.068 C 
ATOM     22  C   UNL     1       3.736   1.294   3.073  1.00  0.00     0.262 C 
ATOM     23  C   UNL     1       1.952   2.798   2.474  1.00  0.00     0.333 C 
ATOM     24  H   UNL     1       1.721   1.160   3.591  1.00  0.00     0.348 HD
ENDBRANCH  17  18
ENDBRANCH  15  17
ENDBRANCH  12  15
ENDBRANCH   8   9
ENDBRANCH   6   8
ENDBRANCH   5   6
ENDBRANCH   3   5
ENDBRANCH   2   3
ENDBRANCH   1   2
BRANCH   1  25
ATOM     25  C   UNL     1       5.125  -4.488   1.189  1.00  0.00     0.202 C 
BRANCH  25  26
ATOM     26  O   UNL     1       4.464  -5.753   1.316  1.00  0.00    -0.374 OA
BRANCH  26  27
ATOM     27  C   UNL     1       3.061  -5.731   1.078  1.00  0.00     0.202 C 
BRANCH  27  28
ATOM     28  C   UNL     1       2.197  -5.496   2.326  1.00  0.00     0.261 C 
BRANCH  28  29
ATOM     29  O   UNL     1       2.640  -4.382   3.116  1.00  0.00    -0.460 OA
BRANCH  29  30
ATOM     30  C   UNL     1       3.408  -4.723   4.184  1.00  0.00     0.338 C 
ATOM     31  O   UNL     1       3.709  -5.850   4.544  1.00  0.00    -0.246 OA
BRANCH  30  32
ATOM     32  C   UNL     1       3.942  -3.506   4.827  1.00  0.00     0.060 A 
ATOM     33  C   UNL     1       5.305  -3.458   5.128  1.00  0.00     0.016 A 
ATOM     34  C   UNL     1       3.116  -2.430   5.152  1.00  0.00     0.016 A 
ATOM     35  C   UNL     1       5.846  -2.328   5.750  1.00  0.00     0.010 A 
ATOM     36  C   UNL     1       3.669  -1.281   5.732  1.00  0.00     0.010 A 
ATOM     37  C   UNL     1       5.036  -1.224   6.060  1.00  0.00    -0.014 A 
BRANCH  37  38
ATOM     38  C   UNL     1       5.607  -0.056   6.794  1.00  0.00     0.031 A 
ATOM     39  C   UNL     1       5.133   0.247   8.194  1.00  0.00     0.074 A 
ATOM     40  C   UNL     1       6.550   0.731   6.236  1.00  0.00     0.049 A 
ATOM     41  N   UNL     1       5.572   1.145   9.041  1.00  0.00    -0.248 NA
ATOM     42  C   UNL     1       4.006  -0.550   8.703  1.00  0.00     0.031 C 
ATOM     43  C   UNL     1       7.071   0.608   4.873  1.00  0.00     0.029 A 
ATOM     44  N   UNL     1       7.243   1.801   6.753  1.00  0.00    -0.354 N 
ATOM     45  C   UNL     1       4.786   1.008  10.179  1.00  0.00     0.074 A 
ATOM     46  C   UNL     1       3.785   0.009   9.882  1.00  0.00     0.031 C 
ATOM     47  C   UNL     1       7.999   1.558   4.665  1.00  0.00     0.029 A 
ATOM     48  C   UNL     1       8.157   2.349   5.883  1.00  0.00     0.049 A 
ATOM     49  H   UNL     1       7.098   2.143   7.665  1.00  0.00     0.167 HD
ATOM     50  C   UNL     1       4.909   1.615  11.384  1.00  0.00     0.037 A 
ATOM     51  C   UNL     1       9.043   3.351   6.053  1.00  0.00     0.037 A 
ATOM     52  C   UNL     1       5.912   2.594  11.702  1.00  0.00     0.049 A 
ATOM     53  C   UNL     1       9.176   4.007   7.404  1.00  0.00     0.074 A 
ATOM     54  C   UNL     1       6.153   3.221  12.911  1.00  0.00     0.029 A 
ATOM     55  N   UNL     1       6.841   3.090  10.801  1.00  0.00    -0.354 N 
ATOM     56  N   UNL     1       8.501   3.777   8.505  1.00  0.00    -0.248 NA
ATOM     57  C   UNL     1      10.219   5.034   7.544  1.00  0.00     0.031 C 
ATOM     58  C   UNL     1       7.213   4.119  12.735  1.00  0.00     0.029 A 
ATOM     59  C   UNL     1       7.653   4.022  11.425  1.00  0.00     0.049 A 
ATOM     60  H   UNL     1       6.913   2.820   9.857  1.00  0.00     0.167 HD
ATOM     61  C   UNL     1       9.070   4.595   9.477  1.00  0.00     0.074 A 
ATOM     62  C   UNL     1      10.144   5.323   8.836  1.00  0.00     0.031 C 
ATOM     63  C   UNL     1       8.737   4.724  10.786  1.00  0.00     0.037 A 
BRANCH  50  64
ATOM     64  C   UNL     1       3.942   1.196  12.456  1.00  0.00     0.058 A 
ATOM     65  C   UNL     1       4.011  -0.081  13.039  1.00  0.00     0.135 A 
ATOM     66  C   UNL     1       2.928   2.062  12.892  1.00  0.00     0.135 A 
ATOM     67  F   UNL     1       4.953  -0.954  12.644  1.00  0.00    -0.206 F 
ATOM     68  C   UNL     1       3.079  -0.503  13.978  1.00  0.00     0.059 A 
ATOM     69  C   UNL     1       2.001   1.670  13.853  1.00  0.00     0.059 A 
ATOM     70  F   UNL     1       2.819   3.294  12.370  1.00  0.00    -0.206 F 
ATOM     71  C   UNL     1       2.071   0.377  14.372  1.00  0.00     0.060 A 
BRANCH  71  72
ATOM     72  S   UNL     1       0.846  -0.196  15.567  1.00  0.00     0.124 S 
ATOM     73  O   UNL     1       0.011  -1.056  14.734  1.00  0.00    -0.237 OA
ATOM     74  O   UNL     1       1.669  -0.882  16.558  1.00  0.00    -0.237 OA
ATOM     75  O   UNL     1       0.216   1.038  16.025  1.00  0.00    -0.744 OA
ENDBRANCH  71  72
ENDBRANCH  50  64
BRANCH  51  76
ATOM     76  C   UNL     1       9.938   3.761   4.937  1.00  0.00     0.058 A 
ATOM     77  C   UNL     1      11.306   3.451   4.958  1.00  0.00     0.135 A 
ATOM     78  C   UNL     1       9.453   4.503   3.850  1.00  0.00     0.135 A 
ATOM     79  F   UNL     1      11.818   2.749   5.980  1.00  0.00    -0.206 F 
ATOM     80  C   UNL     1      12.170   3.889   3.959  1.00  0.00     0.059 A 
ATOM     81  C   UNL     1      10.293   4.935   2.827  1.00  0.00     0.059 A 
ATOM     82  F   UNL     1       8.149   4.812   3.775  1.00  0.00    -0.206 F 
ATOM     83  C   UNL     1      11.654   4.636   2.899  1.00  0.00     0.060 A 
BRANCH  83  84
ATOM     84  S   UNL     1      12.782   5.188   1.600  1.00  0.00     0.124 S 
ATOM     85  O   UNL     1      13.505   6.259   2.275  1.00  0.00    -0.237 OA
ATOM     86  O   UNL     1      13.547   3.976   1.324  1.00  0.00    -0.237 OA
ATOM     87  O   UNL     1      11.880   5.608   0.531  1.00  0.00    -0.744 OA
ENDBRANCH  83  84
ENDBRANCH  51  76
BRANCH  63  88
ATOM     88  C   UNL     1       9.576   5.643  11.631  1.00  0.00     0.058 A 
ATOM     89  C   UNL     1       9.505   7.039  11.506  1.00  0.00     0.135 A 
ATOM     90  C   UNL     1      10.435   5.115  12.610  1.00  0.00     0.135 A 
ATOM     91  F   UNL     1       8.703   7.595  10.585  1.00  0.00    -0.206 F 
ATOM     92  C   UNL     1      10.280   7.880  12.300  1.00  0.00     0.059 A 
ATOM     93  C   UNL     1      11.198   5.938  13.432  1.00  0.00     0.059 A 
ATOM     94  F   UNL     1      10.530   3.787  12.781  1.00  0.00    -0.206 F 
ATOM     95  C   UNL     1      11.126   7.319  13.259  1.00  0.00     0.060 A 
BRANCH  95  96
ATOM     96  S   UNL     1      12.112   8.418  14.299  1.00  0.00     0.124 S 
ATOM     97  O   UNL     1      13.187   8.798  13.388  1.00  0.00    -0.237 OA
ATOM     98  O   UNL     1      11.161   9.473  14.633  1.00  0.00    -0.237 OA
ATOM     99  O   UNL     1      12.507   7.563  15.415  1.00  0.00    -0.744 OA
ENDBRANCH  95  96
ENDBRANCH  63  88
ENDBRANCH  37  38
ENDBRANCH  30  32
ENDBRANCH  29  30
ENDBRANCH  28  29
ENDBRANCH  27  28
ENDBRANCH  26  27
ENDBRANCH  25  26
ENDBRANCH   1  25
TORSDOF 23
