REMARK SMILES O=C(C[N@@H+]1CCC[C@@H]1c1nc2ccccc2s1)Nc1sc2c(c1C(=O)OCCOCCOC(=O)c1ccc(-c3c4nc(c(-c5c(F)cc(S(=O)(=O)[O-])cc5F)c5ccc([nH]5)c(-c5c(F)cc(S(=O)(=O)[O-])cc5F)c5nc(c(-c6c(F)cc(S(=O)(=O)[O-])cc6F)c6ccc3[nH]6)C=C5)C=C4)cc1)CCCC2
REMARK SMILES IDX 28 1 27 2 26 3 24 4 25 5 23 6 19 7 20 8 21 9 22 10 104 11
REMARK SMILES IDX 101 12 103 13 102 14 18 15 1 16 2 17 3 19 4 20 5 21 8 22
REMARK SMILES IDX 6 24 7 25 9 26 10 27 17 28 11 29 16 30 12 31 15 32 13 33
REMARK SMILES IDX 14 34 29 35 30 36 31 37 32 38 33 39 34 40 35 41 36 42 100 43
REMARK SMILES IDX 37 44 99 45 38 46 39 47 40 48 93 49 41 50 98 51 92 52 94 53
REMARK SMILES IDX 42 54 97 55 91 56 90 57 43 59 77 60 56 61 76 62 57 63 60 64
REMARK SMILES IDX 75 65 95 66 58 67 59 68 74 70 96 71 61 72 44 73 45 74 54 75
REMARK SMILES IDX 46 76 47 77 53 78 55 79 48 80 49 81 50 82 51 83 52 84 78 85
REMARK SMILES IDX 79 86 88 87 80 88 81 89 87 90 89 91 82 92 83 93 84 94 85 95
REMARK SMILES IDX 86 96 62 97 63 98 72 99 64 100 65 101 71 102 73 103 66 104
REMARK SMILES IDX 67 105 68 106 69 107 70 108
REMARK H PARENT 18 18 4 23 94 58 60 69
REMARK Flexibility Score: inf
ROOT
ATOM      1  C   UNL     1       5.860  -0.320  -5.021  1.00  0.00     0.202 C 
ENDROOT
BRANCH   1   2
ATOM      2  C   UNL     1       4.519  -1.031  -5.219  1.00  0.00     0.261 C 
BRANCH   2   3
ATOM      3  O   UNL     1       3.421  -0.155  -4.919  1.00  0.00    -0.460 OA
BRANCH   3   4
ATOM      4  C   UNL     1       2.821  -0.381  -3.718  1.00  0.00     0.341 C 
ATOM      5  O   UNL     1       3.049  -1.364  -3.016  1.00  0.00    -0.246 OA
BRANCH   4   6
ATOM      6  C   UNL     1       1.949   0.714  -3.275  1.00  0.00     0.098 A 
ATOM      7  C   UNL     1       1.587   0.827  -1.936  1.00  0.00     0.110 A 
ATOM      8  S   UNL     1       0.533   2.118  -1.643  1.00  0.00    -0.122 S 
ATOM      9  C   UNL     1       0.535   2.576  -3.277  1.00  0.00     0.011 A 
ATOM     10  C   UNL     1       1.369   1.792  -4.055  1.00  0.00    -0.017 A 
ATOM     11  C   UNL     1      -0.291   3.725  -3.769  1.00  0.00     0.047 C 
ATOM     12  C   UNL     1       1.524   2.049  -5.533  1.00  0.00     0.038 C 
ATOM     13  C   UNL     1      -0.461   3.635  -5.290  1.00  0.00     0.006 C 
ATOM     14  C   UNL     1       0.885   3.378  -5.978  1.00  0.00     0.005 C 
BRANCH   7  15
ATOM     15  N   UNL     1       2.030   0.012  -0.912  1.00  0.00    -0.312 N 
ATOM     16  O   UNL     1       0.736   0.618   0.941  1.00  0.00    -0.268 OA
ATOM     17  C   UNL     1       1.619  -0.046   0.405  1.00  0.00     0.280 C 
ATOM     18  H   UNL     1       2.744  -0.621  -1.158  1.00  0.00     0.170 HD
BRANCH  17  19
ATOM     19  C   UNL     1       2.291  -1.218   1.156  1.00  0.00     0.364 C 
BRANCH  19  20
ATOM     20  N   UNL     1       3.554  -1.644   0.476  1.00  0.00    -0.319 N 
ATOM     21  C   UNL     1       3.563  -3.103   0.272  1.00  0.00     0.263 C 
ATOM     22  C   UNL     1       4.798  -1.395   1.277  1.00  0.00     0.245 C 
ATOM     23  H   UNL     1       3.562  -1.097  -0.385  1.00  0.00     0.349 HD
ATOM     24  C   UNL     1       3.958  -3.664   1.623  1.00  0.00     0.068 C 
ATOM     25  C   UNL     1       4.963  -2.653   2.153  1.00  0.00     0.079 C 
BRANCH  22  26
ATOM     26  C   UNL     1       4.884  -0.091   2.048  1.00  0.00     0.151 A 
ATOM     27  N   UNL     1       4.067   0.928   1.886  1.00  0.00    -0.235 NA
ATOM     28  S   UNL     1       6.099   0.156   3.249  1.00  0.00    -0.113 S 
ATOM     29  C   UNL     1       4.249   1.859   2.887  1.00  0.00     0.082 A 
ATOM     30  C   UNL     1       5.306   1.598   3.757  1.00  0.00     0.055 A 
ATOM     31  C   UNL     1       3.448   2.995   3.104  1.00  0.00     0.030 A 
ATOM     32  C   UNL     1       5.587   2.433   4.851  1.00  0.00     0.021 A 
ATOM     33  C   UNL     1       3.705   3.824   4.200  1.00  0.00     0.002 A 
ATOM     34  C   UNL     1       4.761   3.542   5.063  1.00  0.00     0.002 A 
ENDBRANCH  22  26
ENDBRANCH  19  20
ENDBRANCH  17  19
ENDBRANCH   7  15
ENDBRANCH   4   6
ENDBRANCH   3   4
ENDBRANCH   2   3
ENDBRANCH   1   2
BRANCH   1  35
ATOM     35  O   UNL     1       6.135   0.124  -3.692  1.00  0.00    -0.374 OA
BRANCH  35  36
ATOM     36  C   UNL     1       5.617   1.405  -3.318  1.00  0.00     0.202 C 
BRANCH  36  37
ATOM     37  C   UNL     1       6.385   2.627  -3.835  1.00  0.00     0.261 C 
BRANCH  37  38
ATOM     38  O   UNL     1       6.203   2.804  -5.253  1.00  0.00    -0.460 OA
BRANCH  38  39
ATOM     39  C   UNL     1       7.307   2.572  -6.005  1.00  0.00     0.338 C 
ATOM     40  O   UNL     1       8.431   2.325  -5.603  1.00  0.00    -0.246 OA
BRANCH  39  41
ATOM     41  C   UNL     1       6.928   2.458  -7.429  1.00  0.00     0.060 A 
ATOM     42  C   UNL     1       7.400   1.341  -8.131  1.00  0.00     0.016 A 
ATOM     43  C   UNL     1       6.178   3.439  -8.081  1.00  0.00     0.016 A 
ATOM     44  C   UNL     1       7.169   1.227  -9.501  1.00  0.00     0.010 A 
ATOM     45  C   UNL     1       5.956   3.328  -9.458  1.00  0.00     0.010 A 
ATOM     46  C   UNL     1       6.481   2.240 -10.180  1.00  0.00    -0.014 A 
BRANCH  46  47
ATOM     47  C   UNL     1       6.440   2.228 -11.662  1.00  0.00     0.031 A 
ATOM     48  C   UNL     1       7.423   3.076 -12.424  1.00  0.00     0.074 A 
ATOM     49  C   UNL     1       5.563   1.450 -12.322  1.00  0.00     0.049 A 
ATOM     50  N   UNL     1       7.551   3.240 -13.715  1.00  0.00    -0.248 NA
ATOM     51  C   UNL     1       8.392   3.841 -11.621  1.00  0.00     0.031 C 
ATOM     52  C   UNL     1       4.589   0.558 -11.695  1.00  0.00     0.029 A 
ATOM     53  N   UNL     1       5.349   1.292 -13.668  1.00  0.00    -0.354 N 
ATOM     54  C   UNL     1       8.608   4.127 -13.881  1.00  0.00     0.074 A 
ATOM     55  C   UNL     1       9.069   4.489 -12.557  1.00  0.00     0.031 C 
ATOM     56  C   UNL     1       3.871  -0.047 -12.658  1.00  0.00     0.029 A 
ATOM     57  C   UNL     1       4.316   0.436 -13.964  1.00  0.00     0.049 A 
ATOM     58  H   UNL     1       5.885   1.748 -14.356  1.00  0.00     0.167 HD
ATOM     59  C   UNL     1       9.151   4.592 -15.031  1.00  0.00     0.037 A 
ATOM     60  C   UNL     1       3.779   0.096 -15.153  1.00  0.00     0.037 A 
ATOM     61  C   UNL     1       8.690   4.229 -16.346  1.00  0.00     0.049 A 
ATOM     62  C   UNL     1       4.359   0.674 -16.418  1.00  0.00     0.074 A 
ATOM     63  C   UNL     1       9.183   4.635 -17.573  1.00  0.00     0.029 A 
ATOM     64  N   UNL     1       7.624   3.381 -16.604  1.00  0.00    -0.354 N 
ATOM     65  N   UNL     1       5.370   1.498 -16.560  1.00  0.00    -0.248 NA
ATOM     66  C   UNL     1       3.726   0.275 -17.683  1.00  0.00     0.031 C 
ATOM     67  C   UNL     1       8.389   4.064 -18.574  1.00  0.00     0.029 A 
ATOM     68  C   UNL     1       7.429   3.267 -17.971  1.00  0.00     0.049 A 
ATOM     69  H   UNL     1       7.085   2.926 -15.918  1.00  0.00     0.167 HD
ATOM     70  C   UNL     1       5.511   1.695 -17.930  1.00  0.00     0.074 A 
ATOM     71  C   UNL     1       4.486   0.898 -18.574  1.00  0.00     0.031 C 
ATOM     72  C   UNL     1       6.408   2.464 -18.596  1.00  0.00     0.037 A 
BRANCH  59  73
ATOM     73  C   UNL     1      10.292   5.564 -14.917  1.00  0.00     0.058 A 
ATOM     74  C   UNL     1      11.573   5.153 -14.514  1.00  0.00     0.135 A 
ATOM     75  C   UNL     1      10.108   6.918 -15.239  1.00  0.00     0.135 A 
ATOM     76  F   UNL     1      11.798   3.873 -14.177  1.00  0.00    -0.206 F 
ATOM     77  C   UNL     1      12.626   6.056 -14.411  1.00  0.00     0.059 A 
ATOM     78  C   UNL     1      11.153   7.834 -15.166  1.00  0.00     0.059 A 
ATOM     79  F   UNL     1       8.903   7.363 -15.626  1.00  0.00    -0.206 F 
ATOM     80  C   UNL     1      12.405   7.396 -14.737  1.00  0.00     0.060 A 
BRANCH  80  81
ATOM     81  S   UNL     1      13.781   8.557 -14.598  1.00  0.00     0.124 S 
ATOM     82  O   UNL     1      13.883   8.714 -13.150  1.00  0.00    -0.237 OA
ATOM     83  O   UNL     1      14.873   7.827 -15.234  1.00  0.00    -0.237 OA
ATOM     84  O   UNL     1      13.309   9.732 -15.324  1.00  0.00    -0.744 OA
ENDBRANCH  80  81
ENDBRANCH  59  73
BRANCH  60  85
ATOM     85  C   UNL     1       2.618  -0.831 -15.204  1.00  0.00     0.058 A 
ATOM     86  C   UNL     1       2.752  -2.134 -15.706  1.00  0.00     0.135 A 
ATOM     87  C   UNL     1       1.352  -0.432 -14.749  1.00  0.00     0.135 A 
ATOM     88  F   UNL     1       3.940  -2.557 -16.163  1.00  0.00    -0.206 F 
ATOM     89  C   UNL     1       1.670  -3.006 -15.765  1.00  0.00     0.059 A 
ATOM     90  C   UNL     1       0.260  -1.293 -14.776  1.00  0.00     0.059 A 
ATOM     91  F   UNL     1       1.174   0.802 -14.251  1.00  0.00    -0.206 F 
ATOM     92  C   UNL     1       0.427  -2.576 -15.295  1.00  0.00     0.060 A 
BRANCH  92  93
ATOM     93  S   UNL     1      -0.960  -3.733 -15.324  1.00  0.00     0.124 S 
ATOM     94  O   UNL     1      -1.299  -3.748 -16.742  1.00  0.00    -0.237 OA
ATOM     95  O   UNL     1      -0.353  -4.953 -14.799  1.00  0.00    -0.237 OA
ATOM     96  O   UNL     1      -1.939  -3.102 -14.445  1.00  0.00    -0.744 OA
ENDBRANCH  92  93
ENDBRANCH  60  85
BRANCH  72  97
ATOM     97  C   UNL     1       6.347   2.459 -20.098  1.00  0.00     0.058 A 
ATOM     98  C   UNL     1       5.335   3.134 -20.797  1.00  0.00     0.135 A 
ATOM     99  C   UNL     1       7.346   1.817 -20.848  1.00  0.00     0.135 A 
ATOM    100  F   UNL     1       4.353   3.759 -20.128  1.00  0.00    -0.206 F 
ATOM    101  C   UNL     1       5.303   3.155 -22.188  1.00  0.00     0.059 A 
ATOM    102  C   UNL     1       7.348   1.846 -22.239  1.00  0.00     0.059 A 
ATOM    103  F   UNL     1       8.344   1.167 -20.227  1.00  0.00    -0.206 F 
ATOM    104  C   UNL     1       6.316   2.509 -22.901  1.00  0.00     0.060 A 
BRANCH 104 105
ATOM    105  S   UNL     1       6.284   2.572 -24.705  1.00  0.00     0.124 S 
ATOM    106  O   UNL     1       5.226   1.616 -25.014  1.00  0.00    -0.237 OA
ATOM    107  O   UNL     1       5.967   3.973 -24.965  1.00  0.00    -0.237 OA
ATOM    108  O   UNL     1       7.633   2.161 -25.082  1.00  0.00    -0.744 OA
ENDBRANCH 104 105
ENDBRANCH  72  97
ENDBRANCH  46  47
ENDBRANCH  39  41
ENDBRANCH  38  39
ENDBRANCH  37  38
ENDBRANCH  36  37
ENDBRANCH  35  36
ENDBRANCH   1  35
TORSDOF 21
