REMARK SMILES CSCC[C@H](NC(=O)Cc1c(C)c2ccc(O)cc2oc1=O)C(=O)OCCOCCOC(=O)c1ccc(-c2c3nc(c(-c4c(F)cc(S(=O)(=O)[O-])cc4F)c4ccc([nH]4)c(-c4c(F)cc(S(=O)(=O)[O-])cc4F)c4nc(c(-c5c(F)cc(S(=O)(=O)[O-])cc5F)c5ccc2[nH]5)C=C4)C=C3)cc1
REMARK SMILES IDX 27 1 26 2 25 3 23 4 24 5 5 6 4 7 3 8 2 9 1 10 6 11 7 12 8 14
REMARK SMILES IDX 9 15 10 16 11 17 21 18 12 19 13 20 20 21 22 22 14 23 19 24
REMARK SMILES IDX 15 25 18 26 16 27 17 28 28 30 29 31 30 32 31 33 32 34 33 35
REMARK SMILES IDX 34 36 35 37 99 38 36 39 98 40 37 41 38 42 39 43 92 44 40 45
REMARK SMILES IDX 97 46 91 47 93 48 41 49 96 50 90 51 89 52 42 54 76 55 55 56
REMARK SMILES IDX 75 57 56 58 59 59 74 60 94 61 57 62 58 63 73 65 95 66 60 67
REMARK SMILES IDX 43 68 44 69 53 70 45 71 46 72 52 73 54 74 47 75 48 76 49 77
REMARK SMILES IDX 50 78 51 79 77 80 78 81 87 82 79 83 80 84 86 85 88 86 81 87
REMARK SMILES IDX 82 88 83 89 84 90 85 91 61 92 62 93 71 94 63 95 64 96 70 97
REMARK SMILES IDX 72 98 65 99 66 100 67 101 68 102 69 103
REMARK H PARENT 6 13 17 29 93 53 59 64
REMARK Flexibility Score: inf
ROOT
ATOM      1  C   UNL     1      -1.411  -2.043   5.871  1.00  0.00     0.202 C 
ENDROOT
BRANCH   1   2
ATOM      2  C   UNL     1      -0.002  -2.394   5.396  1.00  0.00     0.261 C 
BRANCH   2   3
ATOM      3  O   UNL     1       0.595  -1.216   4.822  1.00  0.00    -0.462 OA
BRANCH   3   4
ATOM      4  C   UNL     1       1.397  -1.434   3.755  1.00  0.00     0.328 C 
ATOM      5  O   UNL     1       1.856  -2.527   3.440  1.00  0.00    -0.250 OA
BRANCH   4   6
ATOM      6  C   UNL     1       1.503  -0.192   2.845  1.00  0.00     0.193 C 
BRANCH   6   7
ATOM      7  C   UNL     1       2.879  -0.115   2.174  1.00  0.00     0.048 C 
BRANCH   7   8
ATOM      8  C   UNL     1       2.984  -0.968   0.907  1.00  0.00     0.072 C 
BRANCH   8   9
ATOM      9  S   UNL     1       2.580  -0.058  -0.629  1.00  0.00    -0.165 SA
ATOM     10  C   UNL     1       0.777   0.034  -0.515  1.00  0.00     0.085 C 
ENDBRANCH   8   9
ENDBRANCH   7   8
ENDBRANCH   6   7
BRANCH   6  11
ATOM     11  N   UNL     1       1.015   1.123   3.281  1.00  0.00    -0.342 N 
ATOM     12  C   UNL     1       1.585   2.158   3.952  1.00  0.00     0.225 C 
ATOM     13  H   UNL     1       0.076   1.289   3.036  1.00  0.00     0.164 HD
ATOM     14  O   UNL     1       1.063   3.265   3.793  1.00  0.00    -0.275 OA
BRANCH  12  15
ATOM     15  C   UNL     1       2.849   1.996   4.794  1.00  0.00     0.143 C 
BRANCH  15  16
ATOM     16  C   UNL     1       2.703   1.018   5.936  1.00  0.00     0.051 A 
ATOM     17  C   UNL     1       3.623   0.088   6.271  1.00  0.00    -0.029 A 
ATOM     18  C   UNL     1       1.455   1.184   6.723  1.00  0.00     0.340 A 
ATOM     19  C   UNL     1       4.995   0.075   5.650  1.00  0.00     0.046 C 
ATOM     20  C   UNL     1       3.268  -0.930   7.279  1.00  0.00     0.021 A 
ATOM     21  O   UNL     1       1.171   0.242   7.687  1.00  0.00    -0.422 OA
ATOM     22  O   UNL     1       0.708   2.133   6.522  1.00  0.00    -0.246 OA
ATOM     23  C   UNL     1       4.052  -2.055   7.572  1.00  0.00     0.016 A 
ATOM     24  C   UNL     1       2.042  -0.826   7.934  1.00  0.00     0.142 A 
ATOM     25  C   UNL     1       3.605  -3.038   8.468  1.00  0.00     0.047 A 
ATOM     26  C   UNL     1       1.580  -1.790   8.831  1.00  0.00     0.094 A 
ATOM     27  C   UNL     1       2.364  -2.903   9.077  1.00  0.00     0.119 A 
BRANCH  27  28
ATOM     28  O   UNL     1       1.866  -3.861   9.906  1.00  0.00    -0.508 OA
ATOM     29  H   UNL     1       2.372  -4.627  10.094  1.00  0.00     0.293 HD
ENDBRANCH  27  28
ENDBRANCH  15  16
ENDBRANCH  12  15
ENDBRANCH   6  11
ENDBRANCH   4   6
ENDBRANCH   3   4
ENDBRANCH   2   3
ENDBRANCH   1   2
BRANCH   1  30
ATOM     30  O   UNL     1      -2.350  -1.873   4.803  1.00  0.00    -0.374 OA
BRANCH  30  31
ATOM     31  C   UNL     1      -2.265  -0.663   4.051  1.00  0.00     0.202 C 
BRANCH  31  32
ATOM     32  C   UNL     1      -2.944   0.565   4.665  1.00  0.00     0.261 C 
BRANCH  32  33
ATOM     33  O   UNL     1      -2.275   1.046   5.841  1.00  0.00    -0.460 OA
BRANCH  33  34
ATOM     34  C   UNL     1      -2.886   0.739   7.013  1.00  0.00     0.338 C 
ATOM     35  O   UNL     1      -3.901   0.077   7.150  1.00  0.00    -0.246 OA
BRANCH  34  36
ATOM     36  C   UNL     1      -2.072   1.188   8.162  1.00  0.00     0.060 A 
ATOM     37  C   UNL     1      -1.871   0.283   9.211  1.00  0.00     0.016 A 
ATOM     38  C   UNL     1      -1.568   2.487   8.250  1.00  0.00     0.016 A 
ATOM     39  C   UNL     1      -1.210   0.691  10.370  1.00  0.00     0.010 A 
ATOM     40  C   UNL     1      -0.883   2.888   9.404  1.00  0.00     0.010 A 
ATOM     41  C   UNL     1      -0.746   2.008  10.492  1.00  0.00    -0.014 A 
BRANCH  41  42
ATOM     42  C   UNL     1      -0.318   2.505  11.826  1.00  0.00     0.031 A 
ATOM     43  C   UNL     1      -1.281   3.354  12.617  1.00  0.00     0.074 A 
ATOM     44  C   UNL     1       0.869   2.161  12.360  1.00  0.00     0.049 A 
ATOM     45  N   UNL     1      -1.163   3.838  13.827  1.00  0.00    -0.248 NA
ATOM     46  C   UNL     1      -2.548   3.704  11.953  1.00  0.00     0.031 C 
ATOM     47  C   UNL     1       1.886   1.338  11.708  1.00  0.00     0.029 A 
ATOM     48  N   UNL     1       1.415   2.460  13.586  1.00  0.00    -0.354 N 
ATOM     49  C   UNL     1      -2.337   4.542  14.068  1.00  0.00     0.074 A 
ATOM     50  C   UNL     1      -3.131   4.469  12.862  1.00  0.00     0.031 C 
ATOM     51  C   UNL     1       2.931   1.193  12.543  1.00  0.00     0.029 A 
ATOM     52  C   UNL     1       2.667   1.927  13.781  1.00  0.00     0.049 A 
ATOM     53  H   UNL     1       0.952   3.006  14.261  1.00  0.00     0.167 HD
ATOM     54  C   UNL     1      -2.734   5.175  15.198  1.00  0.00     0.037 A 
ATOM     55  C   UNL     1       3.503   2.022  14.836  1.00  0.00     0.037 A 
ATOM     56  C   UNL     1      -1.944   5.253  16.399  1.00  0.00     0.049 A 
ATOM     57  C   UNL     1       3.061   2.777  16.067  1.00  0.00     0.074 A 
ATOM     58  C   UNL     1      -2.268   5.854  17.602  1.00  0.00     0.029 A 
ATOM     59  N   UNL     1      -0.671   4.724  16.546  1.00  0.00    -0.354 N 
ATOM     60  N   UNL     1       1.926   3.394  16.299  1.00  0.00    -0.248 NA
ATOM     61  C   UNL     1       4.012   2.834  17.187  1.00  0.00     0.031 C 
ATOM     62  C   UNL     1      -1.167   5.739  18.458  1.00  0.00     0.029 A 
ATOM     63  C   UNL     1      -0.184   5.008  17.812  1.00  0.00     0.049 A 
ATOM     64  H   UNL     1      -0.184   4.222  15.853  1.00  0.00     0.167 HD
ATOM     65  C   UNL     1       2.013   3.880  17.601  1.00  0.00     0.074 A 
ATOM     66  C   UNL     1       3.306   3.473  18.110  1.00  0.00     0.031 C 
ATOM     67  C   UNL     1       1.104   4.594  18.313  1.00  0.00     0.037 A 
BRANCH  54  68
ATOM     68  C   UNL     1      -4.079   5.850  15.179  1.00  0.00     0.058 A 
ATOM     69  C   UNL     1      -5.276   5.115  15.140  1.00  0.00     0.135 A 
ATOM     70  C   UNL     1      -4.174   7.250  15.224  1.00  0.00     0.135 A 
ATOM     71  F   UNL     1      -5.245   3.774  15.076  1.00  0.00    -0.206 F 
ATOM     72  C   UNL     1      -6.516   5.744  15.118  1.00  0.00     0.059 A 
ATOM     73  C   UNL     1      -5.404   7.900  15.235  1.00  0.00     0.059 A 
ATOM     74  F   UNL     1      -3.062   8.002  15.259  1.00  0.00    -0.206 F 
ATOM     75  C   UNL     1      -6.570   7.138  15.168  1.00  0.00     0.060 A 
BRANCH  75  76
ATOM     76  S   UNL     1      -8.187   7.939  15.151  1.00  0.00     0.124 S 
ATOM     77  O   UNL     1      -8.614   7.707  13.774  1.00  0.00    -0.237 OA
ATOM     78  O   UNL     1      -8.914   7.194  16.174  1.00  0.00    -0.237 OA
ATOM     79  O   UNL     1      -7.885   9.327  15.487  1.00  0.00    -0.744 OA
ENDBRANCH  75  76
ENDBRANCH  54  68
BRANCH  55  80
ATOM     80  C   UNL     1       4.845   1.378  14.787  1.00  0.00     0.058 A 
ATOM     81  C   UNL     1       5.162   0.286  15.610  1.00  0.00     0.135 A 
ATOM     82  C   UNL     1       5.847   1.857  13.928  1.00  0.00     0.135 A 
ATOM     83  F   UNL     1       4.247  -0.200  16.461  1.00  0.00    -0.206 F 
ATOM     84  C   UNL     1       6.426  -0.297  15.596  1.00  0.00     0.059 A 
ATOM     85  C   UNL     1       7.109   1.272  13.875  1.00  0.00     0.059 A 
ATOM     86  F   UNL     1       5.597   2.895  13.114  1.00  0.00    -0.206 F 
ATOM     87  C   UNL     1       7.392   0.201  14.720  1.00  0.00     0.060 A 
BRANCH  87  88
ATOM     88  S   UNL     1       9.010  -0.600  14.668  1.00  0.00     0.124 S 
ATOM     89  O   UNL     1       9.589  -0.183  15.939  1.00  0.00    -0.237 OA
ATOM     90  O   UNL     1       8.649  -2.010  14.560  1.00  0.00    -0.237 OA
ATOM     91  O   UNL     1       9.629  -0.029  13.474  1.00  0.00    -0.744 OA
ENDBRANCH  87  88
ENDBRANCH  55  80
BRANCH  67  92
ATOM     92  C   UNL     1       1.451   4.944  19.738  1.00  0.00     0.058 A 
ATOM     93  C   UNL     1       2.455   5.872  20.055  1.00  0.00     0.135 A 
ATOM     94  C   UNL     1       0.741   4.364  20.803  1.00  0.00     0.135 A 
ATOM     95  F   UNL     1       3.166   6.460  19.079  1.00  0.00    -0.206 F 
ATOM     96  C   UNL     1       2.774   6.178  21.375  1.00  0.00     0.059 A 
ATOM     97  C   UNL     1       1.019   4.681  22.129  1.00  0.00     0.059 A 
ATOM     98  F   UNL     1      -0.242   3.483  20.561  1.00  0.00    -0.206 F 
ATOM     99  C   UNL     1       2.052   5.575  22.406  1.00  0.00     0.060 A 
BRANCH  99 100
ATOM    100  S   UNL     1       2.476   5.979  24.114  1.00  0.00     0.124 S 
ATOM    101  O   UNL     1       3.741   5.270  24.278  1.00  0.00    -0.237 OA
ATOM    102  O   UNL     1       2.565   7.435  24.078  1.00  0.00    -0.237 OA
ATOM    103  O   UNL     1       1.354   5.444  24.879  1.00  0.00    -0.744 OA
ENDBRANCH  99 100
ENDBRANCH  67  92
ENDBRANCH  41  42
ENDBRANCH  34  36
ENDBRANCH  33  34
ENDBRANCH  32  33
ENDBRANCH  31  32
ENDBRANCH  30  31
ENDBRANCH   1  30
TORSDOF 24
