REMARK SMILES Cc1ccc(C(=O)N2CCCC[C@@H]2C(=O)OCCOCCOC(=O)c2ccc(-c3c4nc(c(-c5c(F)cc(S(=O)(=O)[O-])cc5F)c5ccc([nH]5)c(-c5c(F)cc(S(=O)(=O)[O-])cc5F)c5nc(c(-c6c(F)cc(S(=O)(=O)[O-])cc6F)c6ccc3[nH]6)C=C5)C=C4)cc2)cc1S(=O)(=O)N1CCCCC1
REMARK SMILES IDX 18 1 17 2 16 3 14 4 15 5 13 6 8 7 9 8 10 9 12 10 11 11 6 12
REMARK SMILES IDX 7 13 5 14 1 15 2 16 3 17 92 18 4 19 91 20 93 21 94 22 95 23
REMARK SMILES IDX 96 24 97 25 101 26 98 27 100 28 99 29 19 30 20 31 21 32
REMARK SMILES IDX 22 33 23 34 24 35 25 36 26 37 90 38 27 39 89 40 28 41 29 42
REMARK SMILES IDX 30 43 83 44 31 45 88 46 82 47 84 48 32 49 87 50 81 51 80 52
REMARK SMILES IDX 33 54 67 55 46 56 66 57 47 58 50 59 65 60 85 61 48 62 49 63
REMARK SMILES IDX 64 65 86 66 51 67 34 68 35 69 44 70 36 71 37 72 43 73 45 74
REMARK SMILES IDX 38 75 39 76 40 77 41 78 42 79 68 80 69 81 78 82 70 83 71 84
REMARK SMILES IDX 77 85 79 86 72 87 73 88 74 89 75 90 76 91 52 92 53 93 62 94
REMARK SMILES IDX 54 95 55 96 61 97 63 98 56 99 57 100 58 101 59 102 60 103
REMARK H PARENT 84 53 50 64
REMARK Flexibility Score: inf
ROOT
ATOM      1  C   UNL     1      -4.294   1.578  -4.287  1.00  0.00     0.202 C 
ENDROOT
BRANCH   1   2
ATOM      2  C   UNL     1      -4.184   0.580  -3.130  1.00  0.00     0.261 C 
BRANCH   2   3
ATOM      3  O   UNL     1      -4.483   1.182  -1.842  1.00  0.00    -0.462 OA
BRANCH   3   4
ATOM      4  C   UNL     1      -3.600   2.072  -1.296  1.00  0.00     0.328 C 
ATOM      5  O   UNL     1      -2.413   2.170  -1.576  1.00  0.00    -0.250 OA
BRANCH   4   6
ATOM      6  C   UNL     1      -4.328   3.107  -0.398  1.00  0.00     0.195 C 
ATOM      7  N   UNL     1      -4.642   2.865   1.055  1.00  0.00    -0.325 N 
ATOM      8  C   UNL     1      -6.012   2.962   1.548  1.00  0.00     0.121 C 
ATOM      9  C   UNL     1      -7.102   3.104   0.514  1.00  0.00     0.022 C 
ATOM     10  C   UNL     1      -5.524   3.581  -1.269  1.00  0.00     0.037 C 
ATOM     11  C   UNL     1      -6.678   4.156  -0.490  1.00  0.00     0.005 C 
BRANCH   7  12
ATOM     12  C   UNL     1      -3.711   2.965   2.118  1.00  0.00     0.254 C 
ATOM     13  O   UNL     1      -4.048   3.143   3.292  1.00  0.00    -0.269 OA
BRANCH  12  14
ATOM     14  C   UNL     1      -2.322   2.565   1.915  1.00  0.00     0.041 A 
ATOM     15  C   UNL     1       0.382   0.653  -0.169  1.00  0.00     0.046 C 
ATOM     16  C   UNL     1      -0.179   1.331   0.994  1.00  0.00    -0.031 A 
ATOM     17  C   UNL     1      -1.067   0.598   1.789  1.00  0.00     0.005 A 
ATOM     18  C   UNL     1      -0.115   2.703   0.943  1.00  0.00     0.086 A 
ATOM     19  C   UNL     1      -2.148   1.236   2.298  1.00  0.00     0.014 A 
ATOM     20  C   UNL     1      -1.282   3.351   1.346  1.00  0.00     0.035 A 
BRANCH  18  21
ATOM     21  S   UNL     1       1.338   3.471   0.130  1.00  0.00     0.243 S 
ATOM     22  O   UNL     1       0.997   3.632  -1.270  1.00  0.00    -0.207 OA
ATOM     23  O   UNL     1       1.653   4.617   0.959  1.00  0.00    -0.207 OA
BRANCH  21  24
ATOM     24  N   UNL     1       2.734   2.375   0.219  1.00  0.00    -0.198 NA
ATOM     25  C   UNL     1       3.098   1.623   1.869  1.00  0.00     0.102 C 
ATOM     26  C   UNL     1       3.658   1.896  -1.334  1.00  0.00     0.102 C 
ATOM     27  C   UNL     1       4.526   0.187   2.022  1.00  0.00     0.017 C 
ATOM     28  C   UNL     1       5.156   0.561  -1.198  1.00  0.00     0.017 C 
ATOM     29  C   UNL     1       5.579  -0.271   0.476  1.00  0.00     0.003 C 
ENDBRANCH  21  24
ENDBRANCH  18  21
ENDBRANCH  12  14
ENDBRANCH   7  12
ENDBRANCH   4   6
ENDBRANCH   3   4
ENDBRANCH   2   3
ENDBRANCH   1   2
BRANCH   1  30
ATOM     30  O   UNL     1      -3.134   2.405  -4.233  1.00  0.00    -0.374 OA
BRANCH  30  31
ATOM     31  C   UNL     1      -3.145   3.606  -4.983  1.00  0.00     0.202 C 
BRANCH  31  32
ATOM     32  C   UNL     1      -3.208   3.417  -6.503  1.00  0.00     0.261 C 
BRANCH  32  33
ATOM     33  O   UNL     1      -1.992   2.819  -6.990  1.00  0.00    -0.460 OA
BRANCH  33  34
ATOM     34  C   UNL     1      -2.112   1.511  -7.348  1.00  0.00     0.338 C 
ATOM     35  O   UNL     1      -2.707   1.127  -8.339  1.00  0.00    -0.246 OA
BRANCH  34  36
ATOM     36  C   UNL     1      -1.451   0.641  -6.336  1.00  0.00     0.060 A 
ATOM     37  C   UNL     1      -1.716  -0.736  -6.290  1.00  0.00     0.016 A 
ATOM     38  C   UNL     1      -0.707   1.231  -5.317  1.00  0.00     0.016 A 
ATOM     39  C   UNL     1      -1.302  -1.506  -5.189  1.00  0.00     0.010 A 
ATOM     40  C   UNL     1      -0.393   0.495  -4.193  1.00  0.00     0.010 A 
ATOM     41  C   UNL     1      -0.662  -0.885  -4.114  1.00  0.00    -0.014 A 
BRANCH  41  42
ATOM     42  C   UNL     1      -0.302  -1.540  -2.815  1.00  0.00     0.031 A 
ATOM     43  C   UNL     1       1.155  -1.269  -2.337  1.00  0.00     0.074 A 
ATOM     44  C   UNL     1      -1.414  -1.651  -2.042  1.00  0.00     0.049 A 
ATOM     45  N   UNL     1       1.742  -1.337  -1.172  1.00  0.00    -0.248 NA
ATOM     46  C   UNL     1       2.115  -0.883  -3.358  1.00  0.00     0.031 C 
ATOM     47  C   UNL     1      -1.861  -0.787  -0.966  1.00  0.00     0.029 A 
ATOM     48  N   UNL     1      -2.592  -2.333  -2.283  1.00  0.00    -0.354 N 
ATOM     49  C   UNL     1       2.920  -0.512  -1.139  1.00  0.00     0.074 A 
ATOM     50  C   UNL     1       3.126  -0.423  -2.627  1.00  0.00     0.031 C 
ATOM     51  C   UNL     1      -2.983  -1.195  -0.380  1.00  0.00     0.029 A 
ATOM     52  C   UNL     1      -3.420  -2.310  -1.144  1.00  0.00     0.049 A 
ATOM     53  H   UNL     1      -2.821  -2.773  -3.133  1.00  0.00     0.167 HD
ATOM     54  C   UNL     1       3.456   0.213   0.151  1.00  0.00     0.037 A 
ATOM     55  C   UNL     1      -3.799  -3.454  -0.540  1.00  0.00     0.037 A 
ATOM     56  C   UNL     1       2.463  -0.747   1.287  1.00  0.00     0.049 A 
ATOM     57  C   UNL     1      -2.767  -3.874   0.500  1.00  0.00     0.074 A 
ATOM     58  C   UNL     1       1.961  -0.624   2.620  1.00  0.00     0.029 A 
ATOM     59  N   UNL     1       2.006  -2.115   1.047  1.00  0.00    -0.354 N 
ATOM     60  N   UNL     1      -1.543  -3.391   0.631  1.00  0.00    -0.248 NA
ATOM     61  C   UNL     1      -3.121  -4.792   1.577  1.00  0.00     0.031 C 
ATOM     62  C   UNL     1       0.940  -1.538   2.896  1.00  0.00     0.029 A 
ATOM     63  C   UNL     1       0.995  -2.517   1.938  1.00  0.00     0.049 A 
ATOM     64  H   UNL     1       2.368  -2.693   0.337  1.00  0.00     0.167 HD
ATOM     65  C   UNL     1      -0.924  -4.003   1.703  1.00  0.00     0.074 A 
ATOM     66  C   UNL     1      -1.984  -4.816   2.290  1.00  0.00     0.031 C 
ATOM     67  C   UNL     1       0.383  -3.838   2.106  1.00  0.00     0.037 A 
BRANCH  54  68
ATOM     68  C   UNL     1       4.816   1.755   0.578  1.00  0.00     0.058 A 
ATOM     69  C   UNL     1       5.370   2.371   1.979  1.00  0.00     0.135 A 
ATOM     70  C   UNL     1       5.752   2.707  -0.288  1.00  0.00     0.135 A 
ATOM     71  F   UNL     1       4.861   2.053   3.208  1.00  0.00    -0.206 F 
ATOM     72  C   UNL     1       6.375   3.321   2.320  1.00  0.00     0.059 A 
ATOM     73  C   UNL     1       6.781   3.666   0.074  1.00  0.00     0.059 A 
ATOM     74  F   UNL     1       5.763   2.745  -1.647  1.00  0.00    -0.206 F 
ATOM     75  C   UNL     1       7.100   3.953   1.369  1.00  0.00     0.060 A 
BRANCH  75  76
ATOM     76  S   UNL     1       8.408   5.071   1.873  1.00  0.00     0.124 S 
ATOM     77  O   UNL     1       7.658   6.182   2.448  1.00  0.00    -0.237 OA
ATOM     78  O   UNL     1       9.158   4.258   2.827  1.00  0.00    -0.237 OA
ATOM     79  O   UNL     1       9.106   5.361   0.625  1.00  0.00    -0.744 OA
ENDBRANCH  75  76
ENDBRANCH  54  68
BRANCH  55  80
ATOM     80  C   UNL     1      -4.708  -4.159  -1.510  1.00  0.00     0.058 A 
ATOM     81  C   UNL     1      -5.945  -3.475  -1.684  1.00  0.00     0.135 A 
ATOM     82  C   UNL     1      -4.133  -4.709  -2.670  1.00  0.00     0.135 A 
ATOM     83  F   UNL     1      -6.568  -2.950  -0.615  1.00  0.00    -0.206 F 
ATOM     84  C   UNL     1      -6.393  -3.069  -2.945  1.00  0.00     0.059 A 
ATOM     85  C   UNL     1      -4.560  -4.298  -3.943  1.00  0.00     0.059 A 
ATOM     86  F   UNL     1      -2.970  -5.371  -2.583  1.00  0.00    -0.206 F 
ATOM     87  C   UNL     1      -5.641  -3.416  -4.064  1.00  0.00     0.060 A 
BRANCH  87  88
ATOM     88  S   UNL     1      -5.867  -2.475  -5.606  1.00  0.00     0.124 S 
ATOM     89  O   UNL     1      -6.822  -3.303  -6.328  1.00  0.00    -0.237 OA
ATOM     90  O   UNL     1      -6.366  -1.185  -5.135  1.00  0.00    -0.237 OA
ATOM     91  O   UNL     1      -4.511  -2.434  -6.143  1.00  0.00    -0.744 OA
ENDBRANCH  87  88
ENDBRANCH  55  80
BRANCH  67  92
ATOM     92  C   UNL     1       1.051  -4.795   3.105  1.00  0.00     0.058 A 
ATOM     93  C   UNL     1       0.728  -6.163   3.172  1.00  0.00     0.135 A 
ATOM     94  C   UNL     1       2.126  -4.401   3.946  1.00  0.00     0.135 A 
ATOM     95  F   UNL     1      -0.189  -6.703   2.356  1.00  0.00    -0.206 F 
ATOM     96  C   UNL     1       1.360  -7.048   4.047  1.00  0.00     0.059 A 
ATOM     97  C   UNL     1       2.797  -5.275   4.797  1.00  0.00     0.059 A 
ATOM     98  F   UNL     1       2.609  -3.152   3.966  1.00  0.00    -0.206 F 
ATOM     99  C   UNL     1       2.403  -6.598   4.848  1.00  0.00     0.060 A 
BRANCH  99 100
ATOM    100  S   UNL     1       3.332  -7.776   5.842  1.00  0.00     0.124 S 
ATOM    101  O   UNL     1       2.506  -7.865   7.041  1.00  0.00    -0.237 OA
ATOM    102  O   UNL     1       3.345  -8.962   4.991  1.00  0.00    -0.237 OA
ATOM    103  O   UNL     1       4.627  -7.124   6.011  1.00  0.00    -0.744 OA
ENDBRANCH  99 100
ENDBRANCH  67  92
ENDBRANCH  41  42
ENDBRANCH  34  36
ENDBRANCH  33  34
ENDBRANCH  32  33
ENDBRANCH  31  32
ENDBRANCH  30  31
ENDBRANCH   1  30
TORSDOF 21
