REMARK SMILES CC(C)(C)[N@@H+](CCC(=O)OCCOCCOC(=O)c1ccc(-c2c3nc(c(-c4c(F)cc(S(=O)(=O)[O-])cc4F)c4ccc([nH]4)c(-c4c(F)cc(S(=O)(=O)[O-])cc4F)c4nc(c(-c5c(F)cc(S(=O)(=O)[O-])cc5F)c5ccc2[nH]5)C=C4)C=C3)cc1)C[C@H]1COc2ccccc21
REMARK SMILES IDX 12 1 11 2 10 3 8 4 9 5 7 6 6 7 5 8 2 10 1 11 3 12 4 13 85 14
REMARK SMILES IDX 86 15 87 16 94 17 88 18 89 19 93 20 90 21 92 22 91 23 13 24
REMARK SMILES IDX 14 25 15 26 16 27 17 28 18 29 19 30 20 31 84 32 21 33 83 34
REMARK SMILES IDX 22 35 23 36 24 37 77 38 25 39 82 40 76 41 78 42 26 43 81 44
REMARK SMILES IDX 75 45 74 46 27 48 61 49 40 50 60 51 41 52 44 53 59 54 79 55
REMARK SMILES IDX 42 56 43 57 58 59 80 60 45 61 28 62 29 63 38 64 30 65 31 66
REMARK SMILES IDX 37 67 39 68 32 69 33 70 34 71 35 72 36 73 62 74 63 75 72 76
REMARK SMILES IDX 64 77 65 78 71 79 73 80 66 81 67 82 68 83 69 84 70 85 46 86
REMARK SMILES IDX 47 87 56 88 48 89 49 90 55 91 57 92 50 93 51 94 52 95 53 96
REMARK SMILES IDX 54 97
REMARK H PARENT 5 9 78 47 44 58
REMARK Flexibility Score: inf
ROOT
ATOM      1  C   UNL     1       1.657  -0.805  -6.838  1.00  0.00     0.202 C 
ENDROOT
BRANCH   1   2
ATOM      2  C   UNL     1       0.496   0.193  -6.052  1.00  0.00     0.261 C 
BRANCH   2   3
ATOM      3  O   UNL     1      -0.762  -0.183  -4.457  1.00  0.00    -0.463 OA
BRANCH   3   4
ATOM      4  C   UNL     1      -1.262  -0.947  -3.301  1.00  0.00     0.311 C 
ATOM      5  O   UNL     1      -2.354  -0.657  -2.807  1.00  0.00    -0.252 OA
BRANCH   4   6
ATOM      6  C   UNL     1      -0.385  -2.183  -2.639  1.00  0.00     0.184 C 
BRANCH   6   7
ATOM      7  C   UNL     1       1.205  -2.349  -2.312  1.00  0.00     0.274 C 
BRANCH   7   8
ATOM      8  N   UNL     1       2.304  -1.317  -2.428  1.00  0.00    -0.330 N 
ATOM      9  H   UNL     1       3.178  -1.801  -2.221  1.00  0.00     0.348 HD
BRANCH   8  10
ATOM     10  C   UNL     1       2.382  -0.278  -1.350  1.00  0.00     0.089 C 
ATOM     11  C   UNL     1       3.267  -0.872  -0.232  1.00  0.00     0.078 C 
ATOM     12  C   UNL     1       1.027   0.112  -0.723  1.00  0.00     0.078 C 
ATOM     13  C   UNL     1       3.076   1.049  -1.772  1.00  0.00     0.078 C 
ENDBRANCH   8  10
BRANCH   8  14
ATOM     14  C   UNL     1       2.391  -0.827  -3.827  1.00  0.00     0.274 C 
BRANCH  14  15
ATOM     15  C   UNL     1       0.983  -0.529  -4.296  1.00  0.00     0.116 C 
ATOM     16  C   UNL     1       0.186   1.344  -4.331  1.00  0.00     0.244 C 
ATOM     17  C   UNL     1      -0.249  -1.627  -5.456  1.00  0.00     0.006 A 
ATOM     18  O   UNL     1      -1.248   1.190  -5.566  1.00  0.00    -0.492 OA
ATOM     19  C   UNL     1      -1.460  -0.512  -6.164  1.00  0.00     0.123 A 
ATOM     20  C   UNL     1      -0.411  -2.920  -5.833  1.00  0.00     0.008 A 
ATOM     21  C   UNL     1      -2.289  -0.706  -7.214  1.00  0.00     0.047 A 
ATOM     22  C   UNL     1      -1.299  -3.060  -6.965  1.00  0.00     0.001 A 
ATOM     23  C   UNL     1      -2.128  -2.022  -7.641  1.00  0.00     0.004 A 
ENDBRANCH  14  15
ENDBRANCH   8  14
ENDBRANCH   7   8
ENDBRANCH   6   7
ENDBRANCH   4   6
ENDBRANCH   3   4
ENDBRANCH   2   3
ENDBRANCH   1   2
BRANCH   1  24
ATOM     24  O   UNL     1       1.652  -2.171  -7.241  1.00  0.00    -0.374 OA
BRANCH  24  25
ATOM     25  C   UNL     1       2.464  -3.110  -6.518  1.00  0.00     0.202 C 
BRANCH  25  26
ATOM     26  C   UNL     1       3.973  -3.141  -6.783  1.00  0.00     0.261 C 
BRANCH  26  27
ATOM     27  O   UNL     1       4.543  -1.836  -6.832  1.00  0.00    -0.460 OA
BRANCH  27  28
ATOM     28  C   UNL     1       4.513  -1.279  -8.072  1.00  0.00     0.338 C 
ATOM     29  O   UNL     1       4.273  -1.842  -9.125  1.00  0.00    -0.246 OA
BRANCH  28  30
ATOM     30  C   UNL     1       4.543   0.189  -7.902  1.00  0.00     0.060 A 
ATOM     31  C   UNL     1       3.662   0.947  -8.688  1.00  0.00     0.016 A 
ATOM     32  C   UNL     1       5.321   0.801  -6.915  1.00  0.00     0.016 A 
ATOM     33  C   UNL     1       3.569   2.321  -8.507  1.00  0.00     0.010 A 
ATOM     34  C   UNL     1       5.271   2.186  -6.769  1.00  0.00     0.010 A 
ATOM     35  C   UNL     1       4.430   2.948  -7.600  1.00  0.00    -0.014 A 
BRANCH  35  36
ATOM     36  C   UNL     1       4.730   4.380  -7.801  1.00  0.00     0.031 A 
ATOM     37  C   UNL     1       5.860   4.697  -8.744  1.00  0.00     0.074 A 
ATOM     38  C   UNL     1       4.027   5.356  -7.204  1.00  0.00     0.049 A 
ATOM     39  N   UNL     1       6.384   5.850  -9.056  1.00  0.00    -0.248 NA
ATOM     40  C   UNL     1       6.486   3.547  -9.424  1.00  0.00     0.031 C 
ATOM     41  C   UNL     1       2.877   5.162  -6.323  1.00  0.00     0.029 A 
ATOM     42  N   UNL     1       4.194   6.715  -7.251  1.00  0.00    -0.354 N 
ATOM     43  C   UNL     1       7.398   5.563  -9.962  1.00  0.00     0.074 A 
ATOM     44  C   UNL     1       7.443   4.130 -10.125  1.00  0.00     0.031 C 
ATOM     45  C   UNL     1       2.456   6.365  -5.891  1.00  0.00     0.029 A 
ATOM     46  C   UNL     1       3.326   7.405  -6.441  1.00  0.00     0.049 A 
ATOM     47  H   UNL     1       4.873   7.155  -7.811  1.00  0.00     0.167 HD
ATOM     48  C   UNL     1       8.216   6.420 -10.611  1.00  0.00     0.037 A 
ATOM     49  C   UNL     1       3.267   8.723  -6.164  1.00  0.00     0.037 A 
ATOM     50  C   UNL     1       8.175   7.844 -10.431  1.00  0.00     0.049 A 
ATOM     51  C   UNL     1       4.247   9.657  -6.833  1.00  0.00     0.074 A 
ATOM     52  C   UNL     1       8.963   8.809 -11.029  1.00  0.00     0.029 A 
ATOM     53  N   UNL     1       7.300   8.504  -9.581  1.00  0.00    -0.354 N 
ATOM     54  N   UNL     1       5.199   9.380  -7.695  1.00  0.00    -0.248 NA
ATOM     55  C   UNL     1       4.145  11.084  -6.495  1.00  0.00     0.031 C 
ATOM     56  C   UNL     1       8.600  10.050 -10.499  1.00  0.00     0.029 A 
ATOM     57  C   UNL     1       7.544   9.865  -9.620  1.00  0.00     0.049 A 
ATOM     58  H   UNL     1       6.608   8.069  -9.032  1.00  0.00     0.167 HD
ATOM     59  C   UNL     1       5.785  10.599  -8.025  1.00  0.00     0.074 A 
ATOM     60  C   UNL     1       5.076  11.616  -7.276  1.00  0.00     0.031 C 
ATOM     61  C   UNL     1       6.814  10.858  -8.871  1.00  0.00     0.037 A 
BRANCH  48  62
ATOM     62  C   UNL     1       9.239   5.829 -11.538  1.00  0.00     0.058 A 
ATOM     63  C   UNL     1       8.878   5.229 -12.755  1.00  0.00     0.135 A 
ATOM     64  C   UNL     1      10.601   5.863 -11.202  1.00  0.00     0.135 A 
ATOM     65  F   UNL     1       7.585   5.139 -13.107  1.00  0.00    -0.206 F 
ATOM     66  C   UNL     1       9.829   4.663 -13.596  1.00  0.00     0.059 A 
ATOM     67  C   UNL     1      11.573   5.331 -12.043  1.00  0.00     0.059 A 
ATOM     68  F   UNL     1      10.999   6.409 -10.042  1.00  0.00    -0.206 F 
ATOM     69  C   UNL     1      11.175   4.722 -13.232  1.00  0.00     0.060 A 
BRANCH  69  70
ATOM     70  S   UNL     1      12.399   3.994 -14.340  1.00  0.00     0.124 S 
ATOM     71  O   UNL     1      12.144   2.568 -14.159  1.00  0.00    -0.237 OA
ATOM     72  O   UNL     1      12.015   4.548 -15.634  1.00  0.00    -0.237 OA
ATOM     73  O   UNL     1      13.670   4.476 -13.807  1.00  0.00    -0.744 OA
ENDBRANCH  69  70
ENDBRANCH  48  62
BRANCH  49  74
ATOM     74  C   UNL     1       2.264   9.239  -5.193  1.00  0.00     0.058 A 
ATOM     75  C   UNL     1       1.210  10.069  -5.603  1.00  0.00     0.135 A 
ATOM     76  C   UNL     1       2.348   8.921  -3.828  1.00  0.00     0.135 A 
ATOM     77  F   UNL     1       1.092  10.414  -6.894  1.00  0.00    -0.206 F 
ATOM     78  C   UNL     1       0.286  10.579  -4.696  1.00  0.00     0.059 A 
ATOM     79  C   UNL     1       1.422   9.396  -2.905  1.00  0.00     0.059 A 
ATOM     80  F   UNL     1       3.333   8.125  -3.382  1.00  0.00    -0.206 F 
ATOM     81  C   UNL     1       0.399  10.234  -3.347  1.00  0.00     0.060 A 
BRANCH  81  82
ATOM     82  S   UNL     1      -0.829  10.867  -2.184  1.00  0.00     0.124 S 
ATOM     83  O   UNL     1      -0.463  12.277  -2.109  1.00  0.00    -0.237 OA
ATOM     84  O   UNL     1      -2.081  10.567  -2.869  1.00  0.00    -0.237 OA
ATOM     85  O   UNL     1      -0.579  10.085  -0.976  1.00  0.00    -0.744 OA
ENDBRANCH  81  82
ENDBRANCH  49  74
BRANCH  61  86
ATOM     86  C   UNL     1       7.211  12.296  -9.071  1.00  0.00     0.058 A 
ATOM     87  C   UNL     1       7.882  13.024  -8.078  1.00  0.00     0.135 A 
ATOM     88  C   UNL     1       6.980  12.927 -10.305  1.00  0.00     0.135 A 
ATOM     89  F   UNL     1       8.127  12.469  -6.881  1.00  0.00    -0.206 F 
ATOM     90  C   UNL     1       8.290  14.337  -8.293  1.00  0.00     0.059 A 
ATOM     91  C   UNL     1       7.406  14.227 -10.552  1.00  0.00     0.059 A 
ATOM     92  F   UNL     1       6.356  12.268 -11.296  1.00  0.00    -0.206 F 
ATOM     93  C   UNL     1       8.050  14.929  -9.535  1.00  0.00     0.060 A 
BRANCH  93  94
ATOM     94  S   UNL     1       8.617  16.620  -9.811  1.00  0.00     0.124 S 
ATOM     95  O   UNL     1       7.670  17.383  -9.005  1.00  0.00    -0.237 OA
ATOM     96  O   UNL     1       9.987  16.575  -9.308  1.00  0.00    -0.237 OA
ATOM     97  O   UNL     1       8.491  16.790 -11.255  1.00  0.00    -0.744 OA
ENDBRANCH  93  94
ENDBRANCH  61  86
ENDBRANCH  35  36
ENDBRANCH  28  30
ENDBRANCH  27  28
ENDBRANCH  26  27
ENDBRANCH  25  26
ENDBRANCH  24  25
ENDBRANCH   1  24
TORSDOF 22
