REMARK SMILES CCC(=O)N1CCC[C@](C[C@H]2CC(c3ccc(C)cc3)=NO2)(C(=O)OCCOCCOC(=O)c2ccc(-c3c4nc(c(-c5c(F)cc(S(=O)(=O)[O-])cc5F)c5ccc([nH]5)c(-c5c(F)cc(S(=O)(=O)[O-])cc5F)c5nc(c(-c6c(F)cc(S(=O)(=O)[O-])cc6F)c6ccc3[nH]6)C=C5)C=C4)cc2)C1
REMARK SMILES IDX 28 1 27 2 26 3 25 4 23 5 24 6 9 7 5 8 6 9 100 10 7 11 8 12
REMARK SMILES IDX 3 13 4 14 2 15 1 16 10 17 11 18 12 19 22 20 13 21 21 22
REMARK SMILES IDX 14 23 15 24 20 25 16 26 19 27 17 28 18 29 29 30 30 31 31 32
REMARK SMILES IDX 32 33 33 34 34 35 35 36 99 37 36 38 98 39 37 40 38 41 39 42
REMARK SMILES IDX 92 43 40 44 97 45 91 46 93 47 41 48 96 49 90 50 89 51 42 53
REMARK SMILES IDX 76 54 55 55 75 56 56 57 59 58 74 59 94 60 57 61 58 62 73 64
REMARK SMILES IDX 95 65 60 66 43 67 44 68 53 69 45 70 46 71 52 72 54 73 47 74
REMARK SMILES IDX 48 75 49 76 50 77 51 78 77 79 78 80 87 81 79 82 80 83 86 84
REMARK SMILES IDX 88 85 81 86 82 87 83 88 84 89 85 90 61 91 62 92 71 93 63 94
REMARK SMILES IDX 64 95 70 96 72 97 65 98 66 99 67 100 68 101 69 102
REMARK H PARENT 93 52 59 63
REMARK Flexibility Score: inf
ROOT
ATOM      1  O   UNL     1       2.355  -0.801  -3.570  1.00  0.00    -0.374 OA
ENDROOT
BRANCH   1   2
ATOM      2  C   UNL     1       3.531  -1.258  -4.196  1.00  0.00     0.202 C 
BRANCH   2   3
ATOM      3  C   UNL     1       4.111  -0.014  -4.814  1.00  0.00     0.261 C 
BRANCH   3   4
ATOM      4  O   UNL     1       4.510   0.979  -3.822  1.00  0.00    -0.463 OA
BRANCH   4   5
ATOM      5  C   UNL     1       3.673   1.505  -2.874  1.00  0.00     0.314 C 
ATOM      6  O   UNL     1       2.480   1.690  -3.004  1.00  0.00    -0.252 OA
BRANCH   5   7
ATOM      7  C   UNL     1       4.458   1.887  -1.605  1.00  0.00     0.089 C 
ATOM      8  N   UNL     1       2.467   2.707  -0.233  1.00  0.00    -0.342 N 
ATOM      9  C   UNL     1       2.861   4.101  -0.368  1.00  0.00     0.119 C 
ATOM     10  C   UNL     1       3.533   1.701  -0.359  1.00  0.00     0.138 C 
ATOM     11  C   UNL     1       3.638   4.328  -1.646  1.00  0.00     0.023 C 
ATOM     12  C   UNL     1       4.833   3.372  -1.740  1.00  0.00     0.022 C 
BRANCH   8  13
ATOM     13  C   UNL     1       1.110   2.425  -0.138  1.00  0.00     0.222 C 
ATOM     14  O   UNL     1       0.249   3.103  -0.701  1.00  0.00    -0.275 OA
BRANCH  13  15
ATOM     15  C   UNL     1       0.686   1.425   0.928  1.00  0.00     0.097 C 
ATOM     16  C   UNL     1       0.696  -0.044   0.582  1.00  0.00     0.014 C 
ENDBRANCH  13  15
ENDBRANCH   8  13
BRANCH   7  17
ATOM     17  C   UNL     1       5.655   0.861  -1.553  1.00  0.00     0.069 C 
BRANCH  17  18
ATOM     18  C   UNL     1       6.885   1.004  -0.672  1.00  0.00     0.212 C 
ATOM     19  C   UNL     1       7.777   2.169  -1.024  1.00  0.00     0.108 C 
ATOM     20  O   UNL     1       6.559   1.106   0.708  1.00  0.00    -0.392 OA
ATOM     21  C   UNL     1       7.512   2.995   0.175  1.00  0.00     0.091 C 
ATOM     22  N   UNL     1       6.896   2.401   1.147  1.00  0.00    -0.090 NA
BRANCH  21  23
ATOM     23  C   UNL     1       7.945   4.393   0.245  1.00  0.00    -0.001 A 
ATOM     24  C   UNL     1       7.738   5.272  -0.822  1.00  0.00     0.010 A 
ATOM     25  C   UNL     1       8.514   4.837   1.435  1.00  0.00     0.010 A 
ATOM     26  C   UNL     1       8.097   6.611  -0.687  1.00  0.00     0.004 A 
ATOM     27  C   UNL     1       8.904   6.166   1.552  1.00  0.00     0.004 A 
ATOM     28  C   UNL     1       8.691   7.063   0.497  1.00  0.00    -0.051 A 
ATOM     29  C   UNL     1       9.130   8.489   0.635  1.00  0.00     0.044 C 
ENDBRANCH  21  23
ENDBRANCH  17  18
ENDBRANCH   7  17
ENDBRANCH   5   7
ENDBRANCH   4   5
ENDBRANCH   3   4
ENDBRANCH   2   3
ENDBRANCH   1   2
BRANCH   1  30
ATOM     30  C   UNL     1       1.859  -1.521  -2.478  1.00  0.00     0.202 C 
BRANCH  30  31
ATOM     31  C   UNL     1       1.149  -2.782  -2.941  1.00  0.00     0.261 C 
BRANCH  31  32
ATOM     32  O   UNL     1      -0.039  -2.448  -3.695  1.00  0.00    -0.460 OA
BRANCH  32  33
ATOM     33  C   UNL     1       0.139  -2.347  -5.047  1.00  0.00     0.338 C 
ATOM     34  O   UNL     1       0.276  -3.314  -5.782  1.00  0.00    -0.246 OA
BRANCH  33  35
ATOM     35  C   UNL     1       0.167  -0.917  -5.477  1.00  0.00     0.060 A 
ATOM     36  C   UNL     1       0.807  -0.529  -6.669  1.00  0.00     0.016 A 
ATOM     37  C   UNL     1      -0.222   0.054  -4.561  1.00  0.00     0.016 A 
ATOM     38  C   UNL     1       1.194   0.813  -6.871  1.00  0.00     0.010 A 
ATOM     39  C   UNL     1       0.254   1.341  -4.719  1.00  0.00     0.010 A 
ATOM     40  C   UNL     1       0.987   1.741  -5.854  1.00  0.00    -0.014 A 
BRANCH  40  41
ATOM     41  C   UNL     1       1.483   3.131  -5.794  1.00  0.00     0.031 A 
ATOM     42  C   UNL     1       0.471   4.210  -5.589  1.00  0.00     0.074 A 
ATOM     43  C   UNL     1       2.795   3.452  -5.628  1.00  0.00     0.049 A 
ATOM     44  N   UNL     1       0.739   5.469  -5.586  1.00  0.00    -0.248 NA
ATOM     45  C   UNL     1      -0.956   3.962  -5.401  1.00  0.00     0.031 C 
ATOM     46  C   UNL     1       3.317   4.649  -4.965  1.00  0.00     0.029 A 
ATOM     47  N   UNL     1       3.969   2.765  -5.959  1.00  0.00    -0.354 N 
ATOM     48  C   UNL     1      -0.330   6.138  -5.032  1.00  0.00     0.074 A 
ATOM     49  C   UNL     1      -1.397   5.173  -5.055  1.00  0.00     0.031 C 
ATOM     50  C   UNL     1       4.647   4.730  -5.114  1.00  0.00     0.029 A 
ATOM     51  C   UNL     1       5.024   3.691  -6.045  1.00  0.00     0.049 A 
ATOM     52  H   UNL     1       4.044   1.794  -6.107  1.00  0.00     0.167 HD
ATOM     53  C   UNL     1      -0.114   7.385  -4.518  1.00  0.00     0.037 A 
ATOM     54  C   UNL     1       5.745   3.868  -7.187  1.00  0.00     0.037 A 
ATOM     55  C   UNL     1       1.268   7.816  -4.797  1.00  0.00     0.049 A 
ATOM     56  C   UNL     1       5.547   5.271  -7.693  1.00  0.00     0.074 A 
ATOM     57  C   UNL     1       2.399   7.987  -4.015  1.00  0.00     0.029 A 
ATOM     58  N   UNL     1       1.703   7.872  -6.121  1.00  0.00    -0.354 N 
ATOM     59  N   UNL     1       4.524   5.996  -7.331  1.00  0.00    -0.248 NA
ATOM     60  C   UNL     1       6.474   6.016  -8.536  1.00  0.00     0.031 C 
ATOM     61  C   UNL     1       3.518   8.126  -4.884  1.00  0.00     0.029 A 
ATOM     62  C   UNL     1       3.069   8.051  -6.195  1.00  0.00     0.049 A 
ATOM     63  H   UNL     1       1.110   7.794  -6.903  1.00  0.00     0.167 HD
ATOM     64  C   UNL     1       4.652   7.264  -7.802  1.00  0.00     0.074 A 
ATOM     65  C   UNL     1       5.874   7.222  -8.585  1.00  0.00     0.031 C 
ATOM     66  C   UNL     1       3.735   8.224  -7.486  1.00  0.00     0.037 A 
BRANCH  53  67
ATOM     67  C   UNL     1      -1.052   8.181  -3.611  1.00  0.00     0.058 A 
ATOM     68  C   UNL     1      -0.601   9.368  -2.983  1.00  0.00     0.135 A 
ATOM     69  C   UNL     1      -2.384   7.844  -3.284  1.00  0.00     0.135 A 
ATOM     70  F   UNL     1       0.627   9.857  -3.203  1.00  0.00    -0.206 F 
ATOM     71  C   UNL     1      -1.381  10.121  -2.097  1.00  0.00     0.059 A 
ATOM     72  C   UNL     1      -3.181   8.576  -2.396  1.00  0.00     0.059 A 
ATOM     73  F   UNL     1      -3.017   6.802  -3.820  1.00  0.00    -0.206 F 
ATOM     74  C   UNL     1      -2.673   9.716  -1.804  1.00  0.00     0.060 A 
BRANCH  74  75
ATOM     75  S   UNL     1      -3.679  10.703  -0.685  1.00  0.00     0.124 S 
ATOM     76  O   UNL     1      -2.907  10.646   0.553  1.00  0.00    -0.237 OA
ATOM     77  O   UNL     1      -3.706  11.997  -1.357  1.00  0.00    -0.237 OA
ATOM     78  O   UNL     1      -4.956   9.993  -0.652  1.00  0.00    -0.744 OA
ENDBRANCH  74  75
ENDBRANCH  53  67
BRANCH  54  79
ATOM     79  C   UNL     1       5.921   2.597  -7.948  1.00  0.00     0.058 A 
ATOM     80  C   UNL     1       6.841   1.662  -7.424  1.00  0.00     0.135 A 
ATOM     81  C   UNL     1       4.887   2.094  -8.751  1.00  0.00     0.135 A 
ATOM     82  F   UNL     1       7.844   2.080  -6.633  1.00  0.00    -0.206 F 
ATOM     83  C   UNL     1       6.657   0.285  -7.560  1.00  0.00     0.059 A 
ATOM     84  C   UNL     1       4.667   0.716  -8.873  1.00  0.00     0.059 A 
ATOM     85  F   UNL     1       3.978   2.928  -9.276  1.00  0.00    -0.206 F 
ATOM     86  C   UNL     1       5.527  -0.179  -8.230  1.00  0.00     0.060 A 
BRANCH  86  87
ATOM     87  S   UNL     1       5.034  -1.917  -8.011  1.00  0.00     0.124 S 
ATOM     88  O   UNL     1       5.760  -2.576  -9.087  1.00  0.00    -0.237 OA
ATOM     89  O   UNL     1       5.500  -2.218  -6.658  1.00  0.00    -0.237 OA
ATOM     90  O   UNL     1       3.583  -1.860  -8.150  1.00  0.00    -0.744 OA
ENDBRANCH  86  87
ENDBRANCH  54  79
BRANCH  66  91
ATOM     91  C   UNL     1       3.441   9.453  -8.310  1.00  0.00     0.058 A 
ATOM     92  C   UNL     1       3.848   9.613  -9.645  1.00  0.00     0.135 A 
ATOM     93  C   UNL     1       2.568  10.459  -7.821  1.00  0.00     0.135 A 
ATOM     94  F   UNL     1       4.564   8.679 -10.285  1.00  0.00    -0.206 F 
ATOM     95  C   UNL     1       3.497  10.726 -10.405  1.00  0.00     0.059 A 
ATOM     96  C   UNL     1       2.146  11.539  -8.586  1.00  0.00     0.059 A 
ATOM     97  F   UNL     1       2.066  10.425  -6.578  1.00  0.00    -0.206 F 
ATOM     98  C   UNL     1       2.650  11.686  -9.865  1.00  0.00     0.060 A 
BRANCH  98  99
ATOM     99  S   UNL     1       2.208  13.117 -10.855  1.00  0.00     0.124 S 
ATOM    100  O   UNL     1       3.403  13.943 -10.710  1.00  0.00    -0.237 OA
ATOM    101  O   UNL     1       2.000  12.534 -12.178  1.00  0.00    -0.237 OA
ATOM    102  O   UNL     1       1.005  13.624 -10.205  1.00  0.00    -0.744 OA
ENDBRANCH  98  99
ENDBRANCH  66  91
ENDBRANCH  40  41
ENDBRANCH  33  35
ENDBRANCH  32  33
ENDBRANCH  31  32
ENDBRANCH  30  31
ENDBRANCH   1  30
TORSDOF 22
