REMARK SMILES C[C@H](CN(C)C(=O)CCc1nc2ccccc2o1)C(=O)OCCOCCOC(=O)c1ccc(-c2c3nc(c(-c4c(F)cc(S(=O)(=O)[O-])cc4F)c4ccc([nH]4)c(-c4c(F)cc(S(=O)(=O)[O-])cc4F)c4nc(c(-c5c(F)cc(S(=O)(=O)[O-])cc5F)c5ccc2[nH]5)C=C4)C=C3)cc1
REMARK SMILES IDX 22 1 21 2 19 3 20 4 2 5 1 6 3 7 4 8 5 9 6 10 7 11 8 12 9 13
REMARK SMILES IDX 10 14 11 15 18 16 12 17 17 18 13 19 16 20 14 21 15 22 23 23
REMARK SMILES IDX 24 24 25 25 26 26 27 27 28 28 29 29 30 30 31 31 95 32 32 33
REMARK SMILES IDX 94 34 33 35 34 36 35 37 88 38 36 39 93 40 87 41 89 42 37 43
REMARK SMILES IDX 92 44 86 45 85 46 38 48 72 49 51 50 71 51 52 52 55 53 70 54
REMARK SMILES IDX 90 55 53 56 54 57 69 59 91 60 56 61 39 62 40 63 49 64 41 65
REMARK SMILES IDX 42 66 48 67 50 68 43 69 44 70 45 71 46 72 47 73 73 74 74 75
REMARK SMILES IDX 83 76 75 77 76 78 82 79 84 80 77 81 78 82 79 83 80 84 81 85
REMARK SMILES IDX 57 86 58 87 67 88 59 89 60 90 66 91 68 92 61 93 62 94 63 95
REMARK SMILES IDX 64 96 65 97
REMARK H PARENT 89 47 55 58
REMARK Flexibility Score: inf
ROOT
ATOM      1  C   UNL     1      -3.073  -1.678  -1.433  1.00  0.00     0.261 C 
ENDROOT
BRANCH   1   2
ATOM      2  O   UNL     1      -1.713  -1.836  -0.972  1.00  0.00    -0.463 OA
BRANCH   2   3
ATOM      3  C   UNL     1      -0.719  -1.396  -1.773  1.00  0.00     0.310 C 
ATOM      4  O   UNL     1      -0.871  -1.021  -2.932  1.00  0.00    -0.252 OA
BRANCH   3   5
ATOM      5  C   UNL     1       0.648  -1.398  -1.099  1.00  0.00     0.115 C 
ATOM      6  C   UNL     1       1.145  -2.798  -0.783  1.00  0.00     0.022 C 
BRANCH   5   7
ATOM      7  C   UNL     1       0.865  -0.363   0.026  1.00  0.00     0.134 C 
BRANCH   7   8
ATOM      8  N   UNL     1       0.567  -0.726   1.424  1.00  0.00    -0.345 N 
ATOM      9  C   UNL     1       1.503  -0.181   2.397  1.00  0.00     0.146 C 
BRANCH   8  10
ATOM     10  C   UNL     1      -0.743  -0.936   1.816  1.00  0.00     0.222 C 
ATOM     11  O   UNL     1      -1.672  -0.503   1.142  1.00  0.00    -0.275 OA
BRANCH  10  12
ATOM     12  C   UNL     1      -1.082  -1.674   3.098  1.00  0.00     0.110 C 
BRANCH  12  13
ATOM     13  C   UNL     1      -0.682  -3.146   3.068  1.00  0.00     0.107 C 
BRANCH  13  14
ATOM     14  C   UNL     1       0.733  -3.278   3.480  1.00  0.00     0.195 A 
ATOM     15  N   UNL     1       1.281  -2.801   4.582  1.00  0.00    -0.214 NA
ATOM     16  O   UNL     1       1.619  -3.687   2.519  1.00  0.00    -0.441 OA
ATOM     17  C   UNL     1       2.612  -2.765   4.282  1.00  0.00     0.109 A 
ATOM     18  C   UNL     1       2.828  -3.316   3.029  1.00  0.00     0.154 A 
ATOM     19  C   UNL     1       3.680  -2.183   4.970  1.00  0.00     0.032 A 
ATOM     20  C   UNL     1       4.057  -3.355   2.385  1.00  0.00     0.049 A 
ATOM     21  C   UNL     1       4.927  -2.155   4.332  1.00  0.00     0.003 A 
ATOM     22  C   UNL     1       5.110  -2.733   3.067  1.00  0.00     0.004 A 
ENDBRANCH  13  14
ENDBRANCH  12  13
ENDBRANCH  10  12
ENDBRANCH   8  10
ENDBRANCH   7   8
ENDBRANCH   5   7
ENDBRANCH   3   5
ENDBRANCH   2   3
ENDBRANCH   1   2
BRANCH   1  23
ATOM     23  C   UNL     1      -3.781  -0.396  -0.938  1.00  0.00     0.202 C 
BRANCH  23  24
ATOM     24  O   UNL     1      -3.467   0.808  -1.648  1.00  0.00    -0.374 OA
BRANCH  24  25
ATOM     25  C   UNL     1      -2.270   1.471  -1.249  1.00  0.00     0.202 C 
BRANCH  25  26
ATOM     26  C   UNL     1      -2.420   2.576  -0.192  1.00  0.00     0.261 C 
BRANCH  26  27
ATOM     27  O   UNL     1      -2.642   2.054   1.131  1.00  0.00    -0.460 OA
BRANCH  27  28
ATOM     28  C   UNL     1      -3.938   1.991   1.507  1.00  0.00     0.338 C 
ATOM     29  O   UNL     1      -4.888   2.470   0.903  1.00  0.00    -0.246 OA
BRANCH  28  30
ATOM     30  C   UNL     1      -4.117   1.149   2.716  1.00  0.00     0.060 A 
ATOM     31  C   UNL     1      -5.292   0.391   2.781  1.00  0.00     0.016 A 
ATOM     32  C   UNL     1      -3.221   1.131   3.791  1.00  0.00     0.016 A 
ATOM     33  C   UNL     1      -5.614  -0.319   3.936  1.00  0.00     0.010 A 
ATOM     34  C   UNL     1      -3.539   0.400   4.949  1.00  0.00     0.010 A 
ATOM     35  C   UNL     1      -4.763  -0.287   5.049  1.00  0.00    -0.014 A 
BRANCH  35  36
ATOM     36  C   UNL     1      -5.269  -0.819   6.346  1.00  0.00     0.031 A 
ATOM     37  C   UNL     1      -5.720   0.155   7.408  1.00  0.00     0.074 A 
ATOM     38  C   UNL     1      -5.432  -2.141   6.548  1.00  0.00     0.049 A 
ATOM     39  N   UNL     1      -6.293  -0.079   8.562  1.00  0.00    -0.248 NA
ATOM     40  C   UNL     1      -5.497   1.583   7.131  1.00  0.00     0.031 C 
ATOM     41  C   UNL     1      -5.071  -3.194   5.600  1.00  0.00     0.029 A 
ATOM     42  N   UNL     1      -5.968  -2.823   7.615  1.00  0.00    -0.354 N 
ATOM     43  C   UNL     1      -6.492   1.167   9.148  1.00  0.00     0.074 A 
ATOM     44  C   UNL     1      -5.938   2.150   8.243  1.00  0.00     0.031 C 
ATOM     45  C   UNL     1      -5.414  -4.387   6.119  1.00  0.00     0.029 A 
ATOM     46  C   UNL     1      -6.002  -4.187   7.443  1.00  0.00     0.049 A 
ATOM     47  H   UNL     1      -6.297  -2.376   8.429  1.00  0.00     0.167 HD
ATOM     48  C   UNL     1      -7.099   1.473  10.319  1.00  0.00     0.037 A 
ATOM     49  C   UNL     1      -6.461  -5.163   8.254  1.00  0.00     0.037 A 
ATOM     50  C   UNL     1      -7.672   0.504  11.216  1.00  0.00     0.049 A 
ATOM     51  C   UNL     1      -7.090  -4.802   9.577  1.00  0.00     0.074 A 
ATOM     52  C   UNL     1      -8.340   0.724  12.408  1.00  0.00     0.029 A 
ATOM     53  N   UNL     1      -7.641  -0.869  11.024  1.00  0.00    -0.354 N 
ATOM     54  N   UNL     1      -7.310  -3.615  10.092  1.00  0.00    -0.248 NA
ATOM     55  C   UNL     1      -7.543  -5.915  10.424  1.00  0.00     0.031 C 
ATOM     56  C   UNL     1      -8.668  -0.517  12.963  1.00  0.00     0.029 A 
ATOM     57  C   UNL     1      -8.253  -1.510  12.090  1.00  0.00     0.049 A 
ATOM     58  H   UNL     1      -7.244  -1.322  10.246  1.00  0.00     0.167 HD
ATOM     59  C   UNL     1      -7.959  -3.840  11.304  1.00  0.00     0.074 A 
ATOM     60  C   UNL     1      -8.101  -5.274  11.442  1.00  0.00     0.031 C 
ATOM     61  C   UNL     1      -8.401  -2.938  12.216  1.00  0.00     0.037 A 
BRANCH  48  62
ATOM     62  C   UNL     1      -7.153   2.925  10.710  1.00  0.00     0.058 A 
ATOM     63  C   UNL     1      -7.976   3.845  10.041  1.00  0.00     0.135 A 
ATOM     64  C   UNL     1      -6.375   3.400  11.778  1.00  0.00     0.135 A 
ATOM     65  F   UNL     1      -8.729   3.448   9.002  1.00  0.00    -0.206 F 
ATOM     66  C   UNL     1      -7.997   5.191  10.392  1.00  0.00     0.059 A 
ATOM     67  C   UNL     1      -6.402   4.736  12.165  1.00  0.00     0.059 A 
ATOM     68  F   UNL     1      -5.570   2.564  12.453  1.00  0.00    -0.206 F 
ATOM     69  C   UNL     1      -7.202   5.628  11.452  1.00  0.00     0.060 A 
BRANCH  69  70
ATOM     70  S   UNL     1      -7.224   7.380  11.886  1.00  0.00     0.124 S 
ATOM     71  O   UNL     1      -6.454   7.960  10.790  1.00  0.00    -0.237 OA
ATOM     72  O   UNL     1      -8.652   7.684  11.887  1.00  0.00    -0.237 OA
ATOM     73  O   UNL     1      -6.578   7.415  13.194  1.00  0.00    -0.744 OA
ENDBRANCH  69  70
ENDBRANCH  48  62
BRANCH  49  74
ATOM     74  C   UNL     1      -6.364  -6.589   7.837  1.00  0.00     0.058 A 
ATOM     75  C   UNL     1      -7.511  -7.334   7.523  1.00  0.00     0.135 A 
ATOM     76  C   UNL     1      -5.123  -7.241   7.763  1.00  0.00     0.135 A 
ATOM     77  F   UNL     1      -8.722  -6.761   7.593  1.00  0.00    -0.206 F 
ATOM     78  C   UNL     1      -7.435  -8.677   7.167  1.00  0.00     0.059 A 
ATOM     79  C   UNL     1      -5.019  -8.576   7.385  1.00  0.00     0.059 A 
ATOM     80  F   UNL     1      -3.994  -6.573   8.047  1.00  0.00    -0.206 F 
ATOM     81  C   UNL     1      -6.182  -9.289   7.098  1.00  0.00     0.060 A 
BRANCH  81  82
ATOM     82  S   UNL     1      -6.088 -11.020   6.589  1.00  0.00     0.124 S 
ATOM     83  O   UNL     1      -6.598 -11.703   7.772  1.00  0.00    -0.237 OA
ATOM     84  O   UNL     1      -6.956 -11.041   5.415  1.00  0.00    -0.237 OA
ATOM     85  O   UNL     1      -4.668 -11.211   6.311  1.00  0.00    -0.744 OA
ENDBRANCH  81  82
ENDBRANCH  49  74
BRANCH  61  86
ATOM     86  C   UNL     1      -9.124  -3.466  13.428  1.00  0.00     0.058 A 
ATOM     87  C   UNL     1      -8.454  -4.147  14.456  1.00  0.00     0.135 A 
ATOM     88  C   UNL     1     -10.504  -3.246  13.582  1.00  0.00     0.135 A 
ATOM     89  F   UNL     1      -7.137  -4.386  14.361  1.00  0.00    -0.206 F 
ATOM     90  C   UNL     1      -9.130  -4.619  15.578  1.00  0.00     0.059 A 
ATOM     91  C   UNL     1     -11.194  -3.684  14.709  1.00  0.00     0.059 A 
ATOM     92  F   UNL     1     -11.194  -2.588  12.637  1.00  0.00    -0.206 F 
ATOM     93  C   UNL     1     -10.501  -4.383  15.695  1.00  0.00     0.060 A 
BRANCH  93  94
ATOM     94  S   UNL     1     -11.364  -4.983  17.164  1.00  0.00     0.124 S 
ATOM     95  O   UNL     1     -11.445  -6.415  16.893  1.00  0.00    -0.237 OA
ATOM     96  O   UNL     1     -10.459  -4.592  18.241  1.00  0.00    -0.237 OA
ATOM     97  O   UNL     1     -12.634  -4.264  17.130  1.00  0.00    -0.744 OA
ENDBRANCH  93  94
ENDBRANCH  61  86
ENDBRANCH  35  36
ENDBRANCH  28  30
ENDBRANCH  27  28
ENDBRANCH  26  27
ENDBRANCH  25  26
ENDBRANCH  24  25
ENDBRANCH  23  24
ENDBRANCH   1  23
TORSDOF 23
