REMARK SMILES CCc1ccc(C[NH+]2CCC(Oc3ccccc3OC)(C(=O)OCCOCCOC(=O)c3ccc(-c4c5nc(c(-c6c(F)cc(S(=O)(=O)[O-])cc6F)c6ccc([nH]6)c(-c6c(F)cc(S(=O)(=O)[O-])cc6F)c6nc(c(-c7c(F)cc(S(=O)(=O)[O-])cc7F)c7ccc4[nH]7)C=C6)C=C5)cc3)CC2)nc1
REMARK SMILES IDX 26 1 25 2 24 3 23 4 21 5 22 6 11 7 8 8 9 9 99 10 10 12 98 13
REMARK SMILES IDX 7 14 6 15 3 16 4 17 101 18 5 19 100 20 2 21 1 22 12 23 13 24
REMARK SMILES IDX 14 25 18 26 15 27 17 28 16 29 19 30 20 31 27 32 28 33 29 34
REMARK SMILES IDX 30 35 31 36 32 37 33 38 97 39 34 40 96 41 35 42 36 43 37 44
REMARK SMILES IDX 90 45 38 46 95 47 89 48 91 49 39 50 94 51 88 52 87 53 40 55
REMARK SMILES IDX 74 56 53 57 73 58 54 59 57 60 72 61 92 62 55 63 56 64 71 66
REMARK SMILES IDX 93 67 58 68 41 69 42 70 51 71 43 72 44 73 50 74 52 75 45 76
REMARK SMILES IDX 46 77 47 78 48 79 49 80 75 81 76 82 85 83 77 84 78 85 84 86
REMARK SMILES IDX 86 87 79 88 80 89 81 90 82 91 83 92 59 93 60 94 69 95 61 96
REMARK SMILES IDX 62 97 68 98 70 99 63 100 64 101 65 102 66 103 67 104
REMARK H PARENT 8 11 91 54 57 65
REMARK Flexibility Score: inf
ROOT
ATOM      1  O   UNL     1       4.928   1.265   1.071  1.00  0.00    -0.374 OA
ENDROOT
BRANCH   1   2
ATOM      2  C   UNL     1       6.092   1.898   1.598  1.00  0.00     0.202 C 
BRANCH   2   3
ATOM      3  C   UNL     1       6.986   2.690   0.639  1.00  0.00     0.261 C 
BRANCH   3   4
ATOM      4  O   UNL     1       6.405   3.940   0.195  1.00  0.00    -0.460 OA
BRANCH   4   5
ATOM      5  C   UNL     1       6.309   4.093  -1.159  1.00  0.00     0.351 C 
ATOM      6  O   UNL     1       6.481   3.166  -1.950  1.00  0.00    -0.247 OA
BRANCH   5   7
ATOM      7  C   UNL     1       6.116   5.554  -1.617  1.00  0.00     0.216 C 
ATOM      8  N   UNL     1       3.335   6.082  -2.525  1.00  0.00    -0.330 N 
ATOM      9  C   UNL     1       3.677   6.434  -1.153  1.00  0.00     0.267 C 
ATOM     10  C   UNL     1       4.181   5.062  -3.132  1.00  0.00     0.267 C 
ATOM     11  H   UNL     1       3.552   6.927  -3.053  1.00  0.00     0.348 HD
ATOM     12  C   UNL     1       5.167   6.428  -0.780  1.00  0.00     0.122 C 
ATOM     13  C   UNL     1       5.643   5.517  -3.078  1.00  0.00     0.122 C 
BRANCH   8  14
ATOM     14  C   UNL     1       1.885   5.832  -2.724  1.00  0.00     0.319 C 
BRANCH  14  15
ATOM     15  C   UNL     1       1.265   4.638  -2.003  1.00  0.00     0.095 A 
ATOM     16  C   UNL     1       0.317   2.422  -0.615  1.00  0.00    -0.030 A 
ATOM     17  C   UNL     1       0.015   3.714  -0.167  1.00  0.00     0.007 A 
ATOM     18  C   UNL     1       1.026   2.332  -1.806  1.00  0.00     0.115 A 
ATOM     19  C   UNL     1       0.496   4.829  -0.856  1.00  0.00     0.030 A 
ATOM     20  N   UNL     1       1.508   3.397  -2.497  1.00  0.00    -0.255 NA
BRANCH  16  21
ATOM     21  C   UNL     1      -0.055   1.241   0.250  1.00  0.00     0.034 C 
ATOM     22  C   UNL     1       0.558  -0.106  -0.117  1.00  0.00     0.009 C 
ENDBRANCH  16  21
ENDBRANCH  14  15
ENDBRANCH   8  14
BRANCH   7  23
ATOM     23  O   UNL     1       7.518   5.922  -1.428  1.00  0.00    -0.471 OA
BRANCH  23  24
ATOM     24  C   UNL     1       7.957   7.104  -1.940  1.00  0.00     0.162 A 
ATOM     25  C   UNL     1       8.570   7.064  -3.195  1.00  0.00     0.050 A 
ATOM     26  C   UNL     1       7.940   8.298  -1.209  1.00  0.00     0.160 A 
ATOM     27  C   UNL     1       9.073   8.231  -3.768  1.00  0.00     0.004 A 
ATOM     28  C   UNL     1       8.406   9.471  -1.806  1.00  0.00     0.050 A 
ATOM     29  C   UNL     1       8.973   9.439  -3.081  1.00  0.00     0.004 A 
BRANCH  26  30
ATOM     30  O   UNL     1       7.396   8.450   0.040  1.00  0.00    -0.493 OA
ATOM     31  C   UNL     1       7.957   7.598   1.037  1.00  0.00     0.278 C 
ENDBRANCH  26  30
ENDBRANCH  23  24
ENDBRANCH   7  23
ENDBRANCH   5   7
ENDBRANCH   4   5
ENDBRANCH   3   4
ENDBRANCH   2   3
ENDBRANCH   1   2
BRANCH   1  32
ATOM     32  C   UNL     1       4.081   2.032   0.238  1.00  0.00     0.202 C 
BRANCH  32  33
ATOM     33  C   UNL     1       3.388   3.254   0.838  1.00  0.00     0.261 C 
BRANCH  33  34
ATOM     34  O   UNL     1       3.920   3.744   2.063  1.00  0.00    -0.460 OA
BRANCH  34  35
ATOM     35  C   UNL     1       3.188   3.407   3.147  1.00  0.00     0.338 C 
ATOM     36  O   UNL     1       2.094   2.861   3.181  1.00  0.00    -0.246 OA
BRANCH  35  37
ATOM     37  C   UNL     1       3.988   3.676   4.340  1.00  0.00     0.060 A 
ATOM     38  C   UNL     1       4.473   2.574   5.048  1.00  0.00     0.016 A 
ATOM     39  C   UNL     1       4.210   4.983   4.780  1.00  0.00     0.016 A 
ATOM     40  C   UNL     1       5.155   2.777   6.240  1.00  0.00     0.010 A 
ATOM     41  C   UNL     1       4.894   5.183   5.979  1.00  0.00     0.010 A 
ATOM     42  C   UNL     1       5.338   4.079   6.727  1.00  0.00    -0.014 A 
BRANCH  42  43
ATOM     43  C   UNL     1       5.884   4.260   8.088  1.00  0.00     0.031 A 
ATOM     44  C   UNL     1       4.932   4.481   9.228  1.00  0.00     0.074 A 
ATOM     45  C   UNL     1       7.209   4.169   8.297  1.00  0.00     0.049 A 
ATOM     46  N   UNL     1       5.187   4.612  10.503  1.00  0.00    -0.248 NA
ATOM     47  C   UNL     1       3.502   4.564   8.886  1.00  0.00     0.031 C 
ATOM     48  C   UNL     1       8.212   3.935   7.258  1.00  0.00     0.029 A 
ATOM     49  N   UNL     1       7.936   4.256   9.454  1.00  0.00    -0.354 N 
ATOM     50  C   UNL     1       3.953   4.787  11.117  1.00  0.00     0.074 A 
ATOM     51  C   UNL     1       2.952   4.782  10.072  1.00  0.00     0.031 C 
ATOM     52  C   UNL     1       9.428   3.896   7.827  1.00  0.00     0.029 A 
ATOM     53  C   UNL     1       9.290   4.121   9.264  1.00  0.00     0.049 A 
ATOM     54  H   UNL     1       7.527   4.401  10.338  1.00  0.00     0.167 HD
ATOM     55  C   UNL     1       3.681   4.926  12.436  1.00  0.00     0.037 A 
ATOM     56  C   UNL     1      10.299   4.179  10.154  1.00  0.00     0.037 A 
ATOM     57  C   UNL     1       4.688   4.934  13.463  1.00  0.00     0.049 A 
ATOM     58  C   UNL     1       9.975   4.378  11.610  1.00  0.00     0.074 A 
ATOM     59  C   UNL     1       4.524   5.057  14.831  1.00  0.00     0.029 A 
ATOM     60  N   UNL     1       6.052   4.821  13.232  1.00  0.00    -0.354 N 
ATOM     61  N   UNL     1       8.801   4.510  12.182  1.00  0.00    -0.248 NA
ATOM     62  C   UNL     1      11.109   4.428  12.543  1.00  0.00     0.031 C 
ATOM     63  C   UNL     1       5.792   5.058  15.423  1.00  0.00     0.029 A 
ATOM     64  C   UNL     1       6.744   4.892  14.429  1.00  0.00     0.049 A 
ATOM     65  H   UNL     1       6.467   4.707  12.346  1.00  0.00     0.167 HD
ATOM     66  C   UNL     1       9.053   4.637  13.543  1.00  0.00     0.074 A 
ATOM     67  C   UNL     1      10.490   4.554  13.709  1.00  0.00     0.031 C 
ATOM     68  C   UNL     1       8.177   4.805  14.565  1.00  0.00     0.037 A 
BRANCH  55  69
ATOM     69  C   UNL     1       2.242   5.101  12.832  1.00  0.00     0.058 A 
ATOM     70  C   UNL     1       1.328   4.036  12.779  1.00  0.00     0.135 A 
ATOM     71  C   UNL     1       1.773   6.344  13.286  1.00  0.00     0.135 A 
ATOM     72  F   UNL     1       1.719   2.831  12.333  1.00  0.00    -0.206 F 
ATOM     73  C   UNL     1      -0.006   4.204  13.137  1.00  0.00     0.059 A 
ATOM     74  C   UNL     1       0.449   6.529  13.671  1.00  0.00     0.059 A 
ATOM     75  F   UNL     1       2.604   7.396  13.351  1.00  0.00    -0.206 F 
ATOM     76  C   UNL     1      -0.437   5.456  13.579  1.00  0.00     0.060 A 
BRANCH  76  77
ATOM     77  S   UNL     1      -2.172   5.661  14.036  1.00  0.00     0.124 S 
ATOM     78  O   UNL     1      -2.817   5.676  12.727  1.00  0.00    -0.237 OA
ATOM     79  O   UNL     1      -2.424   4.478  14.852  1.00  0.00    -0.237 OA
ATOM     80  O   UNL     1      -2.185   6.931  14.757  1.00  0.00    -0.744 OA
ENDBRANCH  76  77
ENDBRANCH  55  69
BRANCH  56  81
ATOM     81  C   UNL     1      11.704   4.043   9.688  1.00  0.00     0.058 A 
ATOM     82  C   UNL     1      12.459   2.899   9.979  1.00  0.00     0.135 A 
ATOM     83  C   UNL     1      12.312   5.053   8.925  1.00  0.00     0.135 A 
ATOM     84  F   UNL     1      11.924   1.910  10.710  1.00  0.00    -0.206 F 
ATOM     85  C   UNL     1      13.773   2.762   9.539  1.00  0.00     0.059 A 
ATOM     86  C   UNL     1      13.616   4.929   8.455  1.00  0.00     0.059 A 
ATOM     87  F   UNL     1      11.626   6.162   8.607  1.00  0.00    -0.206 F 
ATOM     88  C   UNL     1      14.341   3.783   8.775  1.00  0.00     0.060 A 
BRANCH  88  89
ATOM     89  S   UNL     1      16.027   3.574   8.162  1.00  0.00     0.124 S 
ATOM     90  O   UNL     1      16.809   3.801   9.371  1.00  0.00    -0.237 OA
ATOM     91  O   UNL     1      16.005   2.202   7.663  1.00  0.00    -0.237 OA
ATOM     92  O   UNL     1      16.138   4.603   7.133  1.00  0.00    -0.744 OA
ENDBRANCH  88  89
ENDBRANCH  56  81
BRANCH  68  93
ATOM     93  C   UNL     1       8.747   4.886  15.953  1.00  0.00     0.058 A 
ATOM     94  C   UNL     1       9.415   6.033  16.406  1.00  0.00     0.135 A 
ATOM     95  C   UNL     1       8.578   3.823  16.854  1.00  0.00     0.135 A 
ATOM     96  F   UNL     1       9.607   7.074  15.581  1.00  0.00    -0.206 F 
ATOM     97  C   UNL     1       9.917   6.115  17.701  1.00  0.00     0.059 A 
ATOM     98  C   UNL     1       9.050   3.893  18.160  1.00  0.00     0.059 A 
ATOM     99  F   UNL     1       7.935   2.708  16.471  1.00  0.00    -0.206 F 
ATOM    100  C   UNL     1       9.729   5.039  18.570  1.00  0.00     0.060 A 
BRANCH 100 101
ATOM    101  S   UNL     1      10.357   5.168  20.258  1.00  0.00     0.124 S 
ATOM    102  O   UNL     1      11.786   4.956  20.055  1.00  0.00    -0.237 OA
ATOM    103  O   UNL     1       9.964   6.522  20.637  1.00  0.00    -0.237 OA
ATOM    104  O   UNL     1       9.656   4.099  20.963  1.00  0.00    -0.744 OA
ENDBRANCH 100 101
ENDBRANCH  68  93
ENDBRANCH  42  43
ENDBRANCH  35  37
ENDBRANCH  34  35
ENDBRANCH  33  34
ENDBRANCH  32  33
ENDBRANCH   1  32
TORSDOF 23
