REMARK SMILES CC1=C(CC(=O)OCCOCCOC(=O)c2ccc(-c3c4nc(c(-c5c(F)cc(S(=O)(=O)[O-])cc5F)c5ccc([nH]5)c(-c5c(F)cc(S(=O)(=O)[O-])cc5F)c5nc(c(-c6c(F)cc(S(=O)(=O)[O-])cc6F)c6ccc3[nH]6)C=C5)C=C4)cc2)c2cc(F)ccc2/C1=C\c1cccc(OCc2ccccc2)c1
REMARK SMILES IDX 9 1 8 2 7 3 5 4 6 5 4 6 3 7 1 8 2 9 89 10 82 11 88 12 90 13
REMARK SMILES IDX 83 14 87 15 84 16 86 17 85 18 91 19 92 20 104 21 93 22 95 23
REMARK SMILES IDX 94 24 96 25 97 26 98 27 99 28 103 29 100 30 102 31 101 32
REMARK SMILES IDX 10 33 11 34 12 35 13 36 14 37 15 38 16 39 17 40 81 41 18 42
REMARK SMILES IDX 80 43 19 44 20 45 21 46 74 47 22 48 79 49 73 50 75 51 23 52
REMARK SMILES IDX 78 53 72 54 71 55 24 57 58 58 37 59 57 60 38 61 41 62 56 63
REMARK SMILES IDX 76 64 39 65 40 66 55 68 77 69 42 70 25 71 26 72 35 73 27 74
REMARK SMILES IDX 28 75 34 76 36 77 29 78 30 79 31 80 32 81 33 82 59 83 60 84
REMARK SMILES IDX 69 85 61 86 62 87 68 88 70 89 63 90 64 91 65 92 66 93 67 94
REMARK SMILES IDX 43 95 44 96 53 97 45 98 46 99 52 100 54 101 47 102 48 103
REMARK SMILES IDX 49 104 50 105 51 106
REMARK H PARENT 75 56 41 67
REMARK Flexibility Score: inf
ROOT
ATOM      1  C   UNL     1       4.292  -4.311   3.310  1.00  0.00     0.202 C 
ENDROOT
BRANCH   1   2
ATOM      2  C   UNL     1       4.025  -3.782   1.893  1.00  0.00     0.261 C 
BRANCH   2   3
ATOM      3  O   UNL     1       2.780  -3.070   1.740  1.00  0.00    -0.463 OA
BRANCH   3   4
ATOM      4  C   UNL     1       1.879  -3.647   0.898  1.00  0.00     0.310 C 
ATOM      5  O   UNL     1       2.075  -4.693   0.284  1.00  0.00    -0.252 OA
BRANCH   4   6
ATOM      6  C   UNL     1       0.549  -2.910   0.762  1.00  0.00     0.159 C 
BRANCH   6   7
ATOM      7  C   UNL     1       0.267  -1.714   1.615  1.00  0.00    -0.025 C 
ATOM      8  C   UNL     1       1.089   0.147   0.084  1.00  0.00     0.045 C 
ATOM      9  C   UNL     1       0.499  -0.408   1.340  1.00  0.00    -0.039 C 
ATOM     10  C   UNL     1       0.002   0.430   2.446  1.00  0.00    -0.014 C 
ATOM     11  C   UNL     1      -0.463  -1.774   2.897  1.00  0.00    -0.011 A 
ATOM     12  C   UNL     1      -0.585  -0.482   3.443  1.00  0.00    -0.010 A 
ATOM     13  C   UNL     1       0.043   1.774   2.471  1.00  0.00     0.017 C 
ATOM     14  C   UNL     1      -1.003  -2.866   3.563  1.00  0.00     0.048 A 
ATOM     15  C   UNL     1      -1.164  -0.284   4.691  1.00  0.00     0.012 A 
ATOM     16  C   UNL     1      -1.584  -2.658   4.815  1.00  0.00     0.123 A 
ATOM     17  C   UNL     1      -1.650  -1.389   5.390  1.00  0.00     0.040 A 
ATOM     18  F   UNL     1      -2.038  -3.711   5.507  1.00  0.00    -0.207 F 
BRANCH  13  19
ATOM     19  C   UNL     1      -0.557   2.647   3.484  1.00  0.00    -0.021 A 
ATOM     20  C   UNL     1       0.130   2.983   4.651  1.00  0.00     0.008 A 
ATOM     21  C   UNL     1      -1.853   3.141   3.272  1.00  0.00     0.054 A 
ATOM     22  C   UNL     1      -0.487   3.788   5.608  1.00  0.00     0.004 A 
ATOM     23  C   UNL     1      -2.451   4.001   4.192  1.00  0.00     0.120 A 
ATOM     24  C   UNL     1      -1.769   4.297   5.375  1.00  0.00     0.046 A 
BRANCH  23  25
ATOM     25  O   UNL     1      -3.667   4.613   4.055  1.00  0.00    -0.489 OA
BRANCH  25  26
ATOM     26  C   UNL     1      -4.369   4.493   2.812  1.00  0.00     0.265 C 
BRANCH  26  27
ATOM     27  C   UNL     1      -3.769   5.319   1.694  1.00  0.00    -0.011 A 
ATOM     28  C   UNL     1      -3.711   6.716   1.792  1.00  0.00     0.007 A 
ATOM     29  C   UNL     1      -3.240   4.701   0.550  1.00  0.00     0.007 A 
ATOM     30  C   UNL     1      -3.112   7.472   0.781  1.00  0.00     0.000 A 
ATOM     31  C   UNL     1      -2.619   5.455  -0.445  1.00  0.00     0.000 A 
ATOM     32  C   UNL     1      -2.555   6.841  -0.329  1.00  0.00     0.000 A 
ENDBRANCH  26  27
ENDBRANCH  25  26
ENDBRANCH  23  25
ENDBRANCH  13  19
ENDBRANCH   6   7
ENDBRANCH   4   6
ENDBRANCH   3   4
ENDBRANCH   2   3
ENDBRANCH   1   2
BRANCH   1  33
ATOM     33  O   UNL     1       3.294  -5.112   3.938  1.00  0.00    -0.374 OA
BRANCH  33  34
ATOM     34  C   UNL     1       2.047  -4.500   4.249  1.00  0.00     0.202 C 
BRANCH  34  35
ATOM     35  C   UNL     1       2.021  -3.395   5.311  1.00  0.00     0.261 C 
BRANCH  35  36
ATOM     36  O   UNL     1       2.922  -2.317   5.056  1.00  0.00    -0.460 OA
BRANCH  36  37
ATOM     37  C   UNL     1       3.882  -2.163   5.998  1.00  0.00     0.338 C 
ATOM     38  O   UNL     1       4.039  -2.813   7.021  1.00  0.00    -0.246 OA
BRANCH  37  39
ATOM     39  C   UNL     1       4.851  -1.172   5.520  1.00  0.00     0.060 A 
ATOM     40  C   UNL     1       4.454   0.136   5.234  1.00  0.00     0.016 A 
ATOM     41  C   UNL     1       6.186  -1.570   5.394  1.00  0.00     0.016 A 
ATOM     42  C   UNL     1       5.418   1.062   4.840  1.00  0.00     0.010 A 
ATOM     43  C   UNL     1       7.145  -0.643   5.005  1.00  0.00     0.010 A 
ATOM     44  C   UNL     1       6.769   0.683   4.745  1.00  0.00    -0.014 A 
BRANCH  44  45
ATOM     45  C   UNL     1       7.815   1.697   4.491  1.00  0.00     0.031 A 
ATOM     46  C   UNL     1       8.544   1.745   3.185  1.00  0.00     0.074 A 
ATOM     47  C   UNL     1       8.130   2.545   5.488  1.00  0.00     0.049 A 
ATOM     48  N   UNL     1       9.484   2.566   2.800  1.00  0.00    -0.248 NA
ATOM     49  C   UNL     1       8.178   0.731   2.185  1.00  0.00     0.031 C 
ATOM     50  C   UNL     1       7.503   2.549   6.812  1.00  0.00     0.029 A 
ATOM     51  N   UNL     1       9.049   3.559   5.550  1.00  0.00    -0.354 N 
ATOM     52  C   UNL     1       9.819   2.181   1.508  1.00  0.00     0.074 A 
ATOM     53  C   UNL     1       9.016   1.016   1.196  1.00  0.00     0.031 C 
ATOM     54  C   UNL     1       8.034   3.539   7.545  1.00  0.00     0.029 A 
ATOM     55  C   UNL     1       9.065   4.210   6.759  1.00  0.00     0.049 A 
ATOM     56  H   UNL     1       9.641   3.797   4.800  1.00  0.00     0.167 HD
ATOM     57  C   UNL     1      10.702   2.761   0.661  1.00  0.00     0.037 A 
ATOM     58  C   UNL     1       9.828   5.233   7.189  1.00  0.00     0.037 A 
ATOM     59  C   UNL     1      11.507   3.907   1.004  1.00  0.00     0.049 A 
ATOM     60  C   UNL     1      10.834   5.830   6.247  1.00  0.00     0.074 A 
ATOM     61  C   UNL     1      12.410   4.593   0.210  1.00  0.00     0.029 A 
ATOM     62  N   UNL     1      11.521   4.527   2.248  1.00  0.00    -0.354 N 
ATOM     63  N   UNL     1      11.094   5.500   5.004  1.00  0.00    -0.248 NA
ATOM     64  C   UNL     1      11.648   6.938   6.761  1.00  0.00     0.031 C 
ATOM     65  C   UNL     1      13.011   5.587   0.990  1.00  0.00     0.029 A 
ATOM     66  C   UNL     1      12.440   5.564   2.253  1.00  0.00     0.049 A 
ATOM     67  H   UNL     1      10.959   4.266   3.013  1.00  0.00     0.167 HD
ATOM     68  C   UNL     1      12.094   6.367   4.581  1.00  0.00     0.074 A 
ATOM     69  C   UNL     1      12.376   7.249   5.696  1.00  0.00     0.031 C 
ATOM     70  C   UNL     1      12.721   6.424   3.379  1.00  0.00     0.037 A 
BRANCH  57  71
ATOM     71  C   UNL     1      10.848   2.161  -0.712  1.00  0.00     0.058 A 
ATOM     72  C   UNL     1       9.814   2.235  -1.660  1.00  0.00     0.135 A 
ATOM     73  C   UNL     1      12.042   1.530  -1.099  1.00  0.00     0.135 A 
ATOM     74  F   UNL     1       8.645   2.815  -1.344  1.00  0.00    -0.206 F 
ATOM     75  C   UNL     1       9.944   1.673  -2.926  1.00  0.00     0.059 A 
ATOM     76  C   UNL     1      12.206   0.989  -2.371  1.00  0.00     0.059 A 
ATOM     77  F   UNL     1      13.065   1.432  -0.235  1.00  0.00    -0.206 F 
ATOM     78  C   UNL     1      11.144   1.050  -3.272  1.00  0.00     0.060 A 
BRANCH  78  79
ATOM     79  S   UNL     1      11.284   0.312  -4.913  1.00  0.00     0.124 S 
ATOM     80  O   UNL     1      10.352  -0.807  -4.808  1.00  0.00    -0.237 OA
ATOM     81  O   UNL     1      10.864   1.406  -5.782  1.00  0.00    -0.237 OA
ATOM     82  O   UNL     1      12.694  -0.054  -5.005  1.00  0.00    -0.744 OA
ENDBRANCH  78  79
ENDBRANCH  57  71
BRANCH  58  83
ATOM     83  C   UNL     1       9.623   5.765   8.560  1.00  0.00     0.058 A 
ATOM     84  C   UNL     1       9.011   7.010   8.761  1.00  0.00     0.135 A 
ATOM     85  C   UNL     1       9.953   5.007   9.695  1.00  0.00     0.135 A 
ATOM     86  F   UNL     1       8.681   7.773   7.708  1.00  0.00    -0.206 F 
ATOM     87  C   UNL     1       8.723   7.482  10.038  1.00  0.00     0.059 A 
ATOM     88  C   UNL     1       9.653   5.446  10.981  1.00  0.00     0.059 A 
ATOM     89  F   UNL     1      10.525   3.801   9.555  1.00  0.00    -0.206 F 
ATOM     90  C   UNL     1       9.036   6.685  11.141  1.00  0.00     0.060 A 
BRANCH  90  91
ATOM     91  S   UNL     1       8.570   7.272  12.784  1.00  0.00     0.124 S 
ATOM     92  O   UNL     1       9.452   8.421  12.949  1.00  0.00    -0.237 OA
ATOM     93  O   UNL     1       7.153   7.574  12.606  1.00  0.00    -0.237 OA
ATOM     94  O   UNL     1       8.857   6.128  13.645  1.00  0.00    -0.744 OA
ENDBRANCH  90  91
ENDBRANCH  58  83
BRANCH  70  95
ATOM     95  C   UNL     1      13.781   7.478   3.202  1.00  0.00     0.058 A 
ATOM     96  C   UNL     1      15.026   7.382   3.843  1.00  0.00     0.135 A 
ATOM     97  C   UNL     1      13.575   8.559   2.329  1.00  0.00     0.135 A 
ATOM     98  F   UNL     1      15.272   6.374   4.695  1.00  0.00    -0.206 F 
ATOM     99  C   UNL     1      16.024   8.329   3.637  1.00  0.00     0.059 A 
ATOM    100  C   UNL     1      14.570   9.500   2.083  1.00  0.00     0.059 A 
ATOM    101  F   UNL     1      12.406   8.694   1.683  1.00  0.00    -0.206 F 
ATOM    102  C   UNL     1      15.789   9.380   2.749  1.00  0.00     0.060 A 
BRANCH 102 103
ATOM    103  S   UNL     1      17.112  10.575   2.462  1.00  0.00     0.124 S 
ATOM    104  O   UNL     1      17.170  11.266   3.746  1.00  0.00    -0.237 OA
ATOM    105  O   UNL     1      18.247   9.711   2.155  1.00  0.00    -0.237 OA
ATOM    106  O   UNL     1      16.616  11.371   1.343  1.00  0.00    -0.744 OA
ENDBRANCH 102 103
ENDBRANCH  70  95
ENDBRANCH  44  45
ENDBRANCH  37  39
ENDBRANCH  36  37
ENDBRANCH  35  36
ENDBRANCH  34  35
ENDBRANCH  33  34
ENDBRANCH   1  33
TORSDOF 22
