REMARK SMILES C=CCN1C[C@@]2(C(=O)OCCOCCOC(=O)c3ccc(-c4c5nc(c(-c6c(F)cc(S(=O)(=O)[O-])cc6F)c6ccc([nH]6)c(-c6c(F)cc(S(=O)(=O)[O-])cc6F)c6nc(c(-c7c(F)cc(S(=O)(=O)[O-])cc7F)c7ccc4[nH]7)C=C6)C=C5)cc3)CN(C(=O)c3cccc(C#N)c3)C[C@H]2C1=O
REMARK SMILES IDX 12 1 11 2 10 3 9 4 7 5 8 6 6 7 4 8 5 9 98 10 97 11 99 12
REMARK SMILES IDX 84 13 96 14 85 15 3 16 2 17 1 18 86 19 87 20 88 21 89 22
REMARK SMILES IDX 95 23 90 24 92 25 91 26 93 27 94 28 13 29 14 30 15 31 16 32
REMARK SMILES IDX 17 33 18 34 19 35 83 36 20 37 82 38 21 39 22 40 23 41 76 42
REMARK SMILES IDX 24 43 81 44 75 45 77 46 25 47 80 48 74 49 73 50 26 52 60 53
REMARK SMILES IDX 39 54 59 55 40 56 43 57 58 58 78 59 41 60 42 61 57 63 79 64
REMARK SMILES IDX 44 65 27 66 28 67 37 68 29 69 30 70 36 71 38 72 31 73 32 74
REMARK SMILES IDX 33 75 34 76 35 77 61 78 62 79 71 80 63 81 64 82 70 83 72 84
REMARK SMILES IDX 65 85 66 86 67 87 68 88 69 89 45 90 46 91 55 92 47 93 48 94
REMARK SMILES IDX 54 95 56 96 49 97 50 98 51 99 52 100 53 101
REMARK H PARENT 77 51 43 62
REMARK Flexibility Score: inf
ROOT
ATOM      1  O   UNL     1      -4.092   3.583   4.759  1.00  0.00    -0.374 OA
ENDROOT
BRANCH   1   2
ATOM      2  C   UNL     1      -2.708   3.718   5.077  1.00  0.00     0.202 C 
BRANCH   2   3
ATOM      3  C   UNL     1      -1.770   2.784   4.326  1.00  0.00     0.261 C 
BRANCH   3   4
ATOM      4  O   UNL     1      -1.599   3.210   2.970  1.00  0.00    -0.463 OA
BRANCH   4   5
ATOM      5  C   UNL     1      -2.602   3.115   2.034  1.00  0.00     0.316 C 
ATOM      6  O   UNL     1      -3.634   2.476   2.167  1.00  0.00    -0.251 OA
BRANCH   5   7
ATOM      7  C   UNL     1      -2.048   3.682   0.733  1.00  0.00     0.116 C 
ATOM      8  N   UNL     1      -1.281   2.265  -1.032  1.00  0.00    -0.337 N 
ATOM      9  C   UNL     1      -1.661   2.259   0.320  1.00  0.00     0.141 C 
ATOM     10  C   UNL     1      -1.794   3.365  -1.669  1.00  0.00     0.229 C 
ATOM     11  C   UNL     1      -2.598   4.168  -0.632  1.00  0.00     0.119 C 
ATOM     12  O   UNL     1      -1.653   3.638  -2.849  1.00  0.00    -0.274 OA
ATOM     13  C   UNL     1      -1.215   4.910   1.179  1.00  0.00     0.141 C 
ATOM     14  C   UNL     1      -2.213   5.631  -0.844  1.00  0.00     0.134 C 
ATOM     15  N   UNL     1      -1.675   6.071   0.411  1.00  0.00    -0.337 N 
BRANCH   8  16
ATOM     16  C   UNL     1      -0.779   1.042  -1.616  1.00  0.00     0.146 C 
BRANCH  16  17
ATOM     17  C   UNL     1       0.632   0.885  -1.151  1.00  0.00    -0.014 C 
ATOM     18  C   UNL     1       1.036   0.101  -0.140  1.00  0.00     0.006 C 
ENDBRANCH  16  17
ENDBRANCH   8  16
BRANCH  15  19
ATOM     19  C   UNL     1      -1.645   7.445   0.684  1.00  0.00     0.253 C 
ATOM     20  O   UNL     1      -2.150   8.264  -0.087  1.00  0.00    -0.269 OA
BRANCH  19  21
ATOM     21  C   UNL     1      -1.009   7.996   1.914  1.00  0.00     0.041 A 
ATOM     22  C   UNL     1      -1.430   9.233   2.433  1.00  0.00     0.014 A 
ATOM     23  C   UNL     1       0.064   7.357   2.522  1.00  0.00     0.033 A 
ATOM     24  C   UNL     1      -0.776   9.803   3.533  1.00  0.00     0.002 A 
ATOM     25  C   UNL     1       0.663   7.874   3.670  1.00  0.00     0.053 A 
ATOM     26  C   UNL     1       0.280   9.123   4.148  1.00  0.00     0.019 A 
BRANCH  25  27
ATOM     27  C   UNL     1       1.609   7.033   4.321  1.00  0.00     0.099 C 
ATOM     28  N   UNL     1       2.291   6.191   4.757  1.00  0.00    -0.192 NA
ENDBRANCH  25  27
ENDBRANCH  19  21
ENDBRANCH  15  19
ENDBRANCH   5   7
ENDBRANCH   4   5
ENDBRANCH   3   4
ENDBRANCH   2   3
ENDBRANCH   1   2
BRANCH   1  29
ATOM     29  C   UNL     1      -4.617   4.461   3.760  1.00  0.00     0.202 C 
BRANCH  29  30
ATOM     30  C   UNL     1      -5.067   5.846   4.199  1.00  0.00     0.261 C 
BRANCH  30  31
ATOM     31  O   UNL     1      -3.999   6.569   4.817  1.00  0.00    -0.460 OA
BRANCH  31  32
ATOM     32  C   UNL     1      -3.909   6.363   6.155  1.00  0.00     0.338 C 
ATOM     33  O   UNL     1      -4.657   5.706   6.856  1.00  0.00    -0.246 OA
BRANCH  32  34
ATOM     34  C   UNL     1      -2.644   6.942   6.633  1.00  0.00     0.060 A 
ATOM     35  C   UNL     1      -1.792   6.171   7.432  1.00  0.00     0.016 A 
ATOM     36  C   UNL     1      -2.333   8.261   6.337  1.00  0.00     0.016 A 
ATOM     37  C   UNL     1      -0.644   6.740   7.989  1.00  0.00     0.010 A 
ATOM     38  C   UNL     1      -1.183   8.819   6.890  1.00  0.00     0.010 A 
ATOM     39  C   UNL     1      -0.344   8.085   7.754  1.00  0.00    -0.014 A 
BRANCH  39  40
ATOM     40  C   UNL     1       0.723   8.805   8.514  1.00  0.00     0.031 A 
ATOM     41  C   UNL     1       0.321  10.004   9.340  1.00  0.00     0.074 A 
ATOM     42  C   UNL     1       2.024   8.453   8.460  1.00  0.00     0.049 A 
ATOM     43  N   UNL     1       1.072  10.874   9.962  1.00  0.00    -0.248 NA
ATOM     44  C   UNL     1      -1.123  10.283   9.441  1.00  0.00     0.031 C 
ATOM     45  C   UNL     1       2.564   7.301   7.746  1.00  0.00     0.029 A 
ATOM     46  N   UNL     1       3.140   9.045   9.005  1.00  0.00    -0.354 N 
ATOM     47  C   UNL     1       0.192  11.801  10.507  1.00  0.00     0.074 A 
ATOM     48  C   UNL     1      -1.129  11.466  10.030  1.00  0.00     0.031 C 
ATOM     49  C   UNL     1       3.903   7.291   7.852  1.00  0.00     0.029 A 
ATOM     50  C   UNL     1       4.324   8.427   8.664  1.00  0.00     0.049 A 
ATOM     51  H   UNL     1       3.097   9.839   9.585  1.00  0.00     0.167 HD
ATOM     52  C   UNL     1       0.440  12.800  11.385  1.00  0.00     0.037 A 
ATOM     53  C   UNL     1       5.600   8.725   8.982  1.00  0.00     0.037 A 
ATOM     54  C   UNL     1       1.743  13.097  11.910  1.00  0.00     0.049 A 
ATOM     55  C   UNL     1       5.867   9.876   9.918  1.00  0.00     0.074 A 
ATOM     56  C   UNL     1       2.095  14.054  12.845  1.00  0.00     0.029 A 
ATOM     57  N   UNL     1       2.909  12.436  11.554  1.00  0.00    -0.354 N 
ATOM     58  N   UNL     1       5.015  10.710  10.465  1.00  0.00    -0.248 NA
ATOM     59  C   UNL     1       7.264  10.100  10.314  1.00  0.00     0.031 C 
ATOM     60  C   UNL     1       3.482  14.012  13.008  1.00  0.00     0.029 A 
ATOM     61  C   UNL     1       3.986  12.979  12.234  1.00  0.00     0.049 A 
ATOM     62  H   UNL     1       2.963  11.690  10.913  1.00  0.00     0.167 HD
ATOM     63  C   UNL     1       5.764  11.513  11.319  1.00  0.00     0.074 A 
ATOM     64  C   UNL     1       7.137  11.068  11.210  1.00  0.00     0.031 C 
ATOM     65  C   UNL     1       5.348  12.517  12.132  1.00  0.00     0.037 A 
BRANCH  52  66
ATOM     66  C   UNL     1      -0.736  13.621  11.842  1.00  0.00     0.058 A 
ATOM     67  C   UNL     1      -1.777  13.064  12.606  1.00  0.00     0.135 A 
ATOM     68  C   UNL     1      -0.832  14.979  11.501  1.00  0.00     0.135 A 
ATOM     69  F   UNL     1      -1.750  11.764  12.944  1.00  0.00    -0.206 F 
ATOM     70  C   UNL     1      -2.893  13.808  12.968  1.00  0.00     0.059 A 
ATOM     71  C   UNL     1      -1.919  15.754  11.891  1.00  0.00     0.059 A 
ATOM     72  F   UNL     1       0.132  15.564  10.772  1.00  0.00    -0.206 F 
ATOM     73  C   UNL     1      -2.954  15.153  12.606  1.00  0.00     0.060 A 
BRANCH  73  74
ATOM     74  S   UNL     1      -4.414  16.102  13.079  1.00  0.00     0.124 S 
ATOM     75  O   UNL     1      -5.431  15.525  12.204  1.00  0.00    -0.237 OA
ATOM     76  O   UNL     1      -4.543  15.783  14.497  1.00  0.00    -0.237 OA
ATOM     77  O   UNL     1      -4.036  17.479  12.779  1.00  0.00    -0.744 OA
ENDBRANCH  73  74
ENDBRANCH  52  66
BRANCH  53  78
ATOM     78  C   UNL     1       6.723   7.880   8.480  1.00  0.00     0.058 A 
ATOM     79  C   UNL     1       7.451   7.057   9.353  1.00  0.00     0.135 A 
ATOM     80  C   UNL     1       7.103   7.888   7.129  1.00  0.00     0.135 A 
ATOM     81  F   UNL     1       7.136   7.019  10.657  1.00  0.00    -0.206 F 
ATOM     82  C   UNL     1       8.530   6.295   8.914  1.00  0.00     0.059 A 
ATOM     83  C   UNL     1       8.161   7.112   6.659  1.00  0.00     0.059 A 
ATOM     84  F   UNL     1       6.436   8.649   6.247  1.00  0.00    -0.206 F 
ATOM     85  C   UNL     1       8.876   6.327   7.563  1.00  0.00     0.060 A 
BRANCH  85  86
ATOM     86  S   UNL     1      10.257   5.303   7.004  1.00  0.00     0.124 S 
ATOM     87  O   UNL     1      11.392   5.964   7.640  1.00  0.00    -0.237 OA
ATOM     88  O   UNL     1       9.900   3.993   7.539  1.00  0.00    -0.237 OA
ATOM     89  O   UNL     1      10.196   5.418   5.550  1.00  0.00    -0.744 OA
ENDBRANCH  85  86
ENDBRANCH  53  78
BRANCH  65  90
ATOM     90  C   UNL     1       6.371  13.163  13.028  1.00  0.00     0.058 A 
ATOM     91  C   UNL     1       7.404  13.970  12.527  1.00  0.00     0.135 A 
ATOM     92  C   UNL     1       6.279  13.010  14.422  1.00  0.00     0.135 A 
ATOM     93  F   UNL     1       7.540  14.150  11.203  1.00  0.00    -0.206 F 
ATOM     94  C   UNL     1       8.330  14.571  13.372  1.00  0.00     0.059 A 
ATOM     95  C   UNL     1       7.169  13.635  15.288  1.00  0.00     0.059 A 
ATOM     96  F   UNL     1       5.302  12.261  14.959  1.00  0.00    -0.206 F 
ATOM     97  C   UNL     1       8.202  14.400  14.752  1.00  0.00     0.060 A 
BRANCH  97  98
ATOM     98  S   UNL     1       9.396  15.208  15.837  1.00  0.00     0.124 S 
ATOM     99  O   UNL     1      10.602  14.428  15.580  1.00  0.00    -0.237 OA
ATOM    100  O   UNL     1       9.405  16.575  15.326  1.00  0.00    -0.237 OA
ATOM    101  O   UNL     1       8.815  15.045  17.166  1.00  0.00    -0.744 OA
ENDBRANCH  97  98
ENDBRANCH  65  90
ENDBRANCH  39  40
ENDBRANCH  32  34
ENDBRANCH  31  32
ENDBRANCH  30  31
ENDBRANCH  29  30
ENDBRANCH   1  29
TORSDOF 22
