REMARK SMILES O=C(N[C@@H](Cc1ccc(O)cc1)C(=O)N[C@@H](Cc1c[nH]c2ccccc12)C(=O)N[C@@H](CO)C(=O)OCCOCCOC(=O)c1ccc(-c2c3nc(c(-c4c(F)cc(S(=O)(=O)[O-])cc4F)c4ccc([nH]4)c(-c4c(F)cc(S(=O)(=O)[O-])cc4F)c4nc(c(-c5c(F)cc(S(=O)(=O)[O-])cc5F)c5ccc2[nH]5)C=C4)C=C3)cc1)c1ccc(F)cc1
REMARK SMILES IDX 36 1 35 2 33 3 34 4 30 5 29 6 27 7 28 8 16 10 15 11 13 12
REMARK SMILES IDX 14 13 4 15 3 16 1 17 2 18 110 20 111 21 116 22 112 23 115 24
REMARK SMILES IDX 113 25 114 26 5 27 6 28 7 29 12 30 8 31 11 32 9 33 10 34
REMARK SMILES IDX 17 36 18 37 19 38 26 39 20 40 21 41 25 42 22 44 24 45 23 46
REMARK SMILES IDX 31 47 32 48 37 50 38 51 39 52 40 53 41 54 42 55 43 56 44 57
REMARK SMILES IDX 45 58 109 59 46 60 108 61 47 62 48 63 49 64 102 65 50 66
REMARK SMILES IDX 107 67 101 68 103 69 51 70 106 71 100 72 99 73 52 75 86 76
REMARK SMILES IDX 65 77 85 78 66 79 69 80 84 81 104 82 67 83 68 84 83 86
REMARK SMILES IDX 105 87 70 88 53 89 54 90 63 91 55 92 56 93 62 94 64 95 57 96
REMARK SMILES IDX 58 97 59 98 60 99 61 100 87 101 88 102 97 103 89 104 90 105
REMARK SMILES IDX 96 106 98 107 91 108 92 109 93 110 94 111 95 112 71 113
REMARK SMILES IDX 72 114 81 115 73 116 74 117 80 118 82 119 75 120 76 121
REMARK SMILES IDX 77 122 78 123 79 124
REMARK H PARENT 29 9 15 14 3 19 10 35 20 43 32 49 103 74 69 85
REMARK Flexibility Score: inf
ROOT
ATOM      1  C   UNL     1       3.267   8.420  -6.580  1.00  0.00     0.261 C 
ENDROOT
BRANCH   1   2
ATOM      2  O   UNL     1       4.074   7.513  -5.815  1.00  0.00    -0.462 OA
BRANCH   2   3
ATOM      3  C   UNL     1       3.936   7.755  -4.476  1.00  0.00     0.331 C 
ATOM      4  O   UNL     1       3.073   8.517  -4.029  1.00  0.00    -0.250 OA
BRANCH   3   5
ATOM      5  C   UNL     1       5.026   6.841  -3.479  1.00  0.00     0.218 C 
BRANCH   5   6
ATOM      6  N   UNL     1       4.938   5.433  -4.293  1.00  0.00    -0.339 N 
ATOM      7  C   UNL     1       4.706   4.139  -3.939  1.00  0.00     0.243 C 
ATOM      8  O   UNL     1       5.261   3.384  -4.752  1.00  0.00    -0.273 OA
ATOM      9  H   UNL     1       5.086   5.542  -5.260  1.00  0.00     0.164 HD
BRANCH   7  10
ATOM     10  C   UNL     1       4.024   3.518  -2.589  1.00  0.00     0.175 C 
BRANCH  10  11
ATOM     11  N   UNL     1       4.971   2.726  -1.746  1.00  0.00    -0.342 N 
ATOM     12  C   UNL     1       5.214   1.440  -1.394  1.00  0.00     0.243 C 
ATOM     13  O   UNL     1       6.295   1.286  -0.799  1.00  0.00    -0.273 OA
ATOM     14  H   UNL     1       5.620   3.325  -1.311  1.00  0.00     0.164 HD
BRANCH  12  15
ATOM     15  C   UNL     1       4.327   0.175  -1.613  1.00  0.00     0.176 C 
BRANCH  15  16
ATOM     16  N   UNL     1       2.918   0.353  -1.265  1.00  0.00    -0.340 N 
ATOM     17  O   UNL     1       1.060   0.079   0.002  1.00  0.00    -0.269 OA
ATOM     18  C   UNL     1       2.267  -0.092  -0.132  1.00  0.00     0.251 C 
ATOM     19  H   UNL     1       2.369   0.847  -1.916  1.00  0.00     0.164 HD
BRANCH  18  20
ATOM     20  C   UNL     1       3.006  -0.847   0.915  1.00  0.00     0.040 A 
ATOM     21  C   UNL     1       4.060  -0.264   1.633  1.00  0.00     0.017 A 
ATOM     22  C   UNL     1       2.632  -2.174   1.173  1.00  0.00     0.017 A 
ATOM     23  C   UNL     1       4.782  -1.032   2.553  1.00  0.00     0.040 A 
ATOM     24  C   UNL     1       3.351  -2.933   2.101  1.00  0.00     0.040 A 
ATOM     25  C   UNL     1       4.426  -2.359   2.772  1.00  0.00     0.123 A 
ATOM     26  F   UNL     1       5.130  -3.097   3.642  1.00  0.00    -0.207 F 
ENDBRANCH  18  20
ENDBRANCH  15  16
BRANCH  15  27
ATOM     27  C   UNL     1       4.605  -0.788  -2.801  1.00  0.00     0.070 C 
BRANCH  27  28
ATOM     28  C   UNL     1       4.027  -0.477  -4.155  1.00  0.00    -0.045 A 
ATOM     29  C   UNL     1       4.246   0.778  -4.690  1.00  0.00     0.007 A 
ATOM     30  C   UNL     1       3.401  -1.421  -4.974  1.00  0.00     0.007 A 
ATOM     31  C   UNL     1       3.755   1.167  -5.935  1.00  0.00     0.046 A 
ATOM     32  C   UNL     1       2.943  -1.063  -6.254  1.00  0.00     0.046 A 
ATOM     33  C   UNL     1       3.101   0.237  -6.714  1.00  0.00     0.115 A 
BRANCH  33  34
ATOM     34  O   UNL     1       2.636   0.567  -7.949  1.00  0.00    -0.508 OA
ATOM     35  H   UNL     1       2.737   1.442  -8.270  1.00  0.00     0.293 HD
ENDBRANCH  33  34
ENDBRANCH  27  28
ENDBRANCH  15  27
ENDBRANCH  12  15
ENDBRANCH  10  11
BRANCH  10  36
ATOM     36  C   UNL     1       3.162   4.417  -1.682  1.00  0.00     0.072 C 
BRANCH  36  37
ATOM     37  C   UNL     1       3.782   5.668  -1.077  1.00  0.00    -0.020 A 
ATOM     38  C   UNL     1       2.992   6.724  -0.598  1.00  0.00     0.087 A 
ATOM     39  C   UNL     1       5.076   6.210  -1.434  1.00  0.00     0.003 A 
ATOM     40  N   UNL     1       3.489   7.998  -0.888  1.00  0.00    -0.361 N 
ATOM     41  C   UNL     1       4.595   7.894  -1.692  1.00  0.00     0.046 A 
ATOM     42  C   UNL     1       6.407   5.537  -2.474  1.00  0.00     0.010 A 
ATOM     43  H   UNL     1       3.103   8.844  -0.564  1.00  0.00     0.166 HD
ATOM     44  C   UNL     1       5.364   8.893  -3.000  1.00  0.00     0.026 A 
ATOM     45  C   UNL     1       7.083   6.476  -3.843  1.00  0.00     0.001 A 
ATOM     46  C   UNL     1       6.547   8.138  -4.112  1.00  0.00     0.002 A 
ENDBRANCH  36  37
ENDBRANCH  10  36
ENDBRANCH   7  10
ENDBRANCH   5   6
BRANCH   5  47
ATOM     47  C   UNL     1       6.598   7.529  -2.101  1.00  0.00     0.193 C 
BRANCH  47  48
ATOM     48  O   UNL     1       8.082   7.938  -2.390  1.00  0.00    -0.394 OA
ATOM     49  H   UNL     1       8.606   7.144  -2.578  1.00  0.00     0.210 HD
ENDBRANCH  47  48
ENDBRANCH   5  47
ENDBRANCH   3   5
ENDBRANCH   2   3
ENDBRANCH   1   2
BRANCH   1  50
ATOM     50  C   UNL     1       1.765   8.089  -6.742  1.00  0.00     0.202 C 
BRANCH  50  51
ATOM     51  O   UNL     1       1.091   7.293  -5.778  1.00  0.00    -0.374 OA
BRANCH  51  52
ATOM     52  C   UNL     1       1.465   5.927  -5.626  1.00  0.00     0.202 C 
BRANCH  52  53
ATOM     53  C   UNL     1       1.492   5.036  -6.871  1.00  0.00     0.261 C 
BRANCH  53  54
ATOM     54  O   UNL     1       2.544   5.415  -7.777  1.00  0.00    -0.460 OA
BRANCH  54  55
ATOM     55  C   UNL     1       2.132   5.686  -9.041  1.00  0.00     0.338 C 
ATOM     56  O   UNL     1       1.007   5.567  -9.494  1.00  0.00    -0.246 OA
BRANCH  55  57
ATOM     57  C   UNL     1       3.216   6.357  -9.775  1.00  0.00     0.060 A 
ATOM     58  C   UNL     1       3.012   7.681 -10.187  1.00  0.00     0.016 A 
ATOM     59  C   UNL     1       4.373   5.665 -10.133  1.00  0.00     0.016 A 
ATOM     60  C   UNL     1       3.960   8.316 -10.982  1.00  0.00     0.010 A 
ATOM     61  C   UNL     1       5.306   6.291 -10.961  1.00  0.00     0.010 A 
ATOM     62  C   UNL     1       5.086   7.605 -11.412  1.00  0.00    -0.014 A 
BRANCH  62  63
ATOM     63  C   UNL     1       5.923   8.166 -12.495  1.00  0.00     0.031 A 
ATOM     64  C   UNL     1       5.601   7.779 -13.911  1.00  0.00     0.074 A 
ATOM     65  C   UNL     1       6.935   9.007 -12.219  1.00  0.00     0.049 A 
ATOM     66  N   UNL     1       6.233   8.077 -15.014  1.00  0.00    -0.248 NA
ATOM     67  C   UNL     1       4.405   6.940 -14.109  1.00  0.00     0.031 C 
ATOM     68  C   UNL     1       7.299   9.481 -10.884  1.00  0.00     0.029 A 
ATOM     69  N   UNL     1       7.853   9.596 -13.049  1.00  0.00    -0.354 N 
ATOM     70  C   UNL     1       5.524   7.453 -16.034  1.00  0.00     0.074 A 
ATOM     71  C   UNL     1       4.418   6.752 -15.421  1.00  0.00     0.031 C 
ATOM     72  C   UNL     1       8.387  10.264 -10.983  1.00  0.00     0.029 A 
ATOM     73  C   UNL     1       8.811  10.320 -12.380  1.00  0.00     0.049 A 
ATOM     74  H   UNL     1       7.828   9.510 -14.029  1.00  0.00     0.167 HD
ATOM     75  C   UNL     1       5.777   7.467 -17.363  1.00  0.00     0.037 A 
ATOM     76  C   UNL     1       9.922  10.925 -12.846  1.00  0.00     0.037 A 
ATOM     77  C   UNL     1       6.879   8.172 -17.958  1.00  0.00     0.049 A 
ATOM     78  C   UNL     1      10.212  10.879 -14.325  1.00  0.00     0.074 A 
ATOM     79  C   UNL     1       7.214   8.271 -19.297  1.00  0.00     0.029 A 
ATOM     80  N   UNL     1       7.831   8.891 -17.251  1.00  0.00    -0.354 N 
ATOM     81  N   UNL     1       9.518  10.311 -15.284  1.00  0.00    -0.248 NA
ATOM     82  C   UNL     1      11.432  11.556 -14.788  1.00  0.00     0.031 C 
ATOM     83  C   UNL     1       8.396   9.011 -19.394  1.00  0.00     0.029 A 
ATOM     84  C   UNL     1       8.768   9.417 -18.122  1.00  0.00     0.049 A 
ATOM     85  H   UNL     1       7.838   9.010 -16.273  1.00  0.00     0.167 HD
ATOM     86  C   UNL     1      10.202  10.586 -16.464  1.00  0.00     0.074 A 
ATOM     87  C   UNL     1      11.359  11.378 -16.101  1.00  0.00     0.031 C 
ATOM     88  C   UNL     1       9.901  10.219 -17.734  1.00  0.00     0.037 A 
BRANCH  75  89
ATOM     89  C   UNL     1       4.870   6.674 -18.260  1.00  0.00     0.058 A 
ATOM     90  C   UNL     1       3.569   7.103 -18.563  1.00  0.00     0.135 A 
ATOM     91  C   UNL     1       5.331   5.495 -18.868  1.00  0.00     0.135 A 
ATOM     92  F   UNL     1       3.070   8.210 -17.989  1.00  0.00    -0.206 F 
ATOM     93  C   UNL     1       2.753   6.387 -19.434  1.00  0.00     0.059 A 
ATOM     94  C   UNL     1       4.542   4.776 -19.759  1.00  0.00     0.059 A 
ATOM     95  F   UNL     1       6.565   5.037 -18.602  1.00  0.00    -0.206 F 
ATOM     96  C   UNL     1       3.252   5.227 -20.032  1.00  0.00     0.060 A 
BRANCH  96  97
ATOM     97  S   UNL     1       2.195   4.330 -21.189  1.00  0.00     0.124 S 
ATOM     98  O   UNL     1       1.220   3.727 -20.285  1.00  0.00    -0.237 OA
ATOM     99  O   UNL     1       1.690   5.400 -22.043  1.00  0.00    -0.237 OA
ATOM    100  O   UNL     1       3.113   3.397 -21.834  1.00  0.00    -0.744 OA
ENDBRANCH  96  97
ENDBRANCH  75  89
BRANCH  76 101
ATOM    101  C   UNL     1      10.863  11.589 -11.905  1.00  0.00     0.058 A 
ATOM    102  C   UNL     1      11.034  12.980 -11.903  1.00  0.00     0.135 A 
ATOM    103  C   UNL     1      11.625  10.837 -10.996  1.00  0.00     0.135 A 
ATOM    104  F   UNL     1      10.336  13.743 -12.758  1.00  0.00    -0.206 F 
ATOM    105  C   UNL     1      11.944  13.602 -11.053  1.00  0.00     0.059 A 
ATOM    106  C   UNL     1      12.521  11.438 -10.117  1.00  0.00     0.059 A 
ATOM    107  F   UNL     1      11.490   9.502 -10.947  1.00  0.00    -0.206 F 
ATOM    108  C   UNL     1      12.684  12.821 -10.164  1.00  0.00     0.060 A 
BRANCH 108 109
ATOM    109  S   UNL     1      13.841  13.638  -9.044  1.00  0.00     0.124 S 
ATOM    110  O   UNL     1      14.932  13.980  -9.949  1.00  0.00    -0.237 OA
ATOM    111  O   UNL     1      13.048  14.758  -8.546  1.00  0.00    -0.237 OA
ATOM    112  O   UNL     1      14.139  12.603  -8.058  1.00  0.00    -0.744 OA
ENDBRANCH 108 109
ENDBRANCH  76 101
BRANCH  88 113
ATOM    113  C   UNL     1      10.806  10.703 -18.832  1.00  0.00     0.058 A 
ATOM    114  C   UNL     1      12.074  10.141 -19.043  1.00  0.00     0.135 A 
ATOM    115  C   UNL     1      10.362  11.684 -19.733  1.00  0.00     0.135 A 
ATOM    116  F   UNL     1      12.546   9.203 -18.207  1.00  0.00    -0.206 F 
ATOM    117  C   UNL     1      12.878  10.546 -20.104  1.00  0.00     0.059 A 
ATOM    118  C   UNL     1      11.137  12.085 -20.815  1.00  0.00     0.059 A 
ATOM    119  F   UNL     1       9.151  12.243 -19.580  1.00  0.00    -0.206 F 
ATOM    120  C   UNL     1      12.398  11.516 -20.987  1.00  0.00     0.060 A 
BRANCH 120 121
ATOM    121  S   UNL     1      13.429  11.996 -22.389  1.00  0.00     0.124 S 
ATOM    122  O   UNL     1      14.443  12.820 -21.740  1.00  0.00    -0.237 OA
ATOM    123  O   UNL     1      13.889  10.706 -22.895  1.00  0.00    -0.237 OA
ATOM    124  O   UNL     1      12.503  12.711 -23.263  1.00  0.00    -0.744 OA
ENDBRANCH 120 121
ENDBRANCH  88 113
ENDBRANCH  62  63
ENDBRANCH  55  57
ENDBRANCH  54  55
ENDBRANCH  53  54
ENDBRANCH  52  53
ENDBRANCH  51  52
ENDBRANCH  50  51
ENDBRANCH   1  50
TORSDOF 30
