REMARK SMILES O=C(Cn1cnc(-c2ccccc2)c1-c1ccccc1)OCCOCCOC(=O)c1ccc(-c2c3nc(c(-c4c(F)cc(S(=O)(=O)[O-])cc4F)c4ccc([nH]4)c(-c4c(F)cc(S(=O)(=O)[O-])cc4F)c4nc(c(-c5c(F)cc(S(=O)(=O)[O-])cc5F)c5ccc2[nH]5)C=C4)C=C3)cc1
REMARK SMILES IDX 25 1 24 2 23 3 22 4 21 5 2 6 1 7 3 8 4 9 5 10 14 11 6 12
REMARK SMILES IDX 7 13 15 14 16 15 20 16 17 17 19 18 18 19 8 20 9 21 13 22
REMARK SMILES IDX 10 23 12 24 11 25 26 26 27 27 28 28 29 29 30 30 31 31 95 32
REMARK SMILES IDX 32 33 94 34 33 35 34 36 35 37 88 38 36 39 93 40 87 41 89 42
REMARK SMILES IDX 37 43 92 44 86 45 85 46 38 48 72 49 51 50 71 51 52 52 55 53
REMARK SMILES IDX 70 54 90 55 53 56 54 57 69 59 91 60 56 61 39 62 40 63 49 64
REMARK SMILES IDX 41 65 42 66 48 67 50 68 43 69 44 70 45 71 46 72 47 73 73 74
REMARK SMILES IDX 74 75 83 76 75 77 76 78 82 79 84 80 77 81 78 82 79 83 80 84
REMARK SMILES IDX 81 85 57 86 58 87 67 88 59 89 60 90 66 91 68 92 61 93 62 94
REMARK SMILES IDX 63 95 64 96 65 97
REMARK H PARENT 89 47 55 58
REMARK Flexibility Score: inf
ROOT
ATOM      1  C   UNL     1       2.880  -2.321  -0.491  1.00  0.00     0.202 C 
ENDROOT
BRANCH   1   2
ATOM      2  O   UNL     1       4.115  -1.594  -0.514  1.00  0.00    -0.374 OA
BRANCH   2   3
ATOM      3  C   UNL     1       4.499  -0.909   0.677  1.00  0.00     0.202 C 
BRANCH   3   4
ATOM      4  C   UNL     1       4.172   0.571   0.719  1.00  0.00     0.261 C 
BRANCH   4   5
ATOM      5  O   UNL     1       2.760   0.816   0.584  1.00  0.00    -0.462 OA
BRANCH   5   6
ATOM      6  C   UNL     1       2.061   0.809  -0.570  1.00  0.00     0.326 C 
ATOM      7  O   UNL     1       0.832   0.901  -0.519  1.00  0.00    -0.250 OA
BRANCH   6   8
ATOM      8  C   UNL     1       2.741   0.654  -1.908  1.00  0.00     0.246 C 
BRANCH   8   9
ATOM      9  N   UNL     1       3.832   1.567  -2.152  1.00  0.00    -0.319 N 
ATOM     10  C   UNL     1       3.698   2.921  -1.986  1.00  0.00     0.201 A 
ATOM     11  C   UNL     1       5.142   1.292  -2.509  1.00  0.00     0.076 A 
ATOM     12  N   UNL     1       4.822   3.547  -2.215  1.00  0.00    -0.236 NA
ATOM     13  C   UNL     1       5.707   2.563  -2.576  1.00  0.00     0.096 A 
BRANCH  11  14
ATOM     14  C   UNL     1       5.794  -0.025  -2.647  1.00  0.00     0.000 A 
ATOM     15  C   UNL     1       6.982  -0.286  -1.935  1.00  0.00     0.010 A 
ATOM     16  C   UNL     1       5.323  -1.011  -3.521  1.00  0.00     0.010 A 
ATOM     17  C   UNL     1       7.687  -1.480  -2.105  1.00  0.00     0.001 A 
ATOM     18  C   UNL     1       6.024  -2.216  -3.682  1.00  0.00     0.001 A 
ATOM     19  C   UNL     1       7.209  -2.445  -2.983  1.00  0.00     0.000 A 
ENDBRANCH  11  14
BRANCH  13  20
ATOM     20  C   UNL     1       7.066   2.858  -2.965  1.00  0.00     0.002 A 
ATOM     21  C   UNL     1       7.876   3.639  -2.136  1.00  0.00     0.010 A 
ATOM     22  C   UNL     1       7.569   2.372  -4.178  1.00  0.00     0.010 A 
ATOM     23  C   UNL     1       9.184   3.930  -2.521  1.00  0.00     0.001 A 
ATOM     24  C   UNL     1       8.873   2.668  -4.562  1.00  0.00     0.001 A 
ATOM     25  C   UNL     1       9.678   3.449  -3.735  1.00  0.00     0.000 A 
ENDBRANCH  13  20
ENDBRANCH   8   9
ENDBRANCH   6   8
ENDBRANCH   5   6
ENDBRANCH   4   5
ENDBRANCH   3   4
ENDBRANCH   2   3
ENDBRANCH   1   2
BRANCH   1  26
ATOM     26  C   UNL     1       2.951  -3.742   0.050  1.00  0.00     0.261 C 
BRANCH  26  27
ATOM     27  O   UNL     1       3.228  -3.682   1.434  1.00  0.00    -0.460 OA
BRANCH  27  28
ATOM     28  C   UNL     1       4.535  -3.600   1.769  1.00  0.00     0.338 C 
ATOM     29  O   UNL     1       5.508  -3.801   1.057  1.00  0.00    -0.246 OA
BRANCH  28  30
ATOM     30  C   UNL     1       4.579  -3.227   3.197  1.00  0.00     0.060 A 
ATOM     31  C   UNL     1       5.581  -3.901   3.880  1.00  0.00     0.016 A 
ATOM     32  C   UNL     1       3.358  -2.863   3.794  1.00  0.00     0.016 A 
ATOM     33  C   UNL     1       5.167  -4.662   4.938  1.00  0.00     0.010 A 
ATOM     34  C   UNL     1       2.930  -3.655   4.818  1.00  0.00     0.010 A 
ATOM     35  C   UNL     1       3.811  -4.628   5.278  1.00  0.00    -0.014 A 
BRANCH  35  36
ATOM     36  C   UNL     1       3.329  -5.625   6.192  1.00  0.00     0.031 A 
ATOM     37  C   UNL     1       3.596  -5.232   7.583  1.00  0.00     0.074 A 
ATOM     38  C   UNL     1       2.627  -6.693   5.779  1.00  0.00     0.049 A 
ATOM     39  N   UNL     1       4.527  -5.670   8.362  1.00  0.00    -0.248 NA
ATOM     40  C   UNL     1       2.930  -4.006   8.058  1.00  0.00     0.031 C 
ATOM     41  C   UNL     1       2.075  -6.976   4.450  1.00  0.00     0.029 A 
ATOM     42  N   UNL     1       2.160  -7.720   6.530  1.00  0.00    -0.354 N 
ATOM     43  C   UNL     1       4.368  -4.935   9.527  1.00  0.00     0.074 A 
ATOM     44  C   UNL     1       3.614  -3.763   9.174  1.00  0.00     0.031 C 
ATOM     45  C   UNL     1       1.163  -7.972   4.556  1.00  0.00     0.029 A 
ATOM     46  C   UNL     1       1.157  -8.463   5.923  1.00  0.00     0.049 A 
ATOM     47  H   UNL     1       2.504  -7.921   7.431  1.00  0.00     0.167 HD
ATOM     48  C   UNL     1       4.541  -5.505  10.748  1.00  0.00     0.037 A 
ATOM     49  C   UNL     1       0.318  -9.298   6.588  1.00  0.00     0.037 A 
ATOM     50  C   UNL     1       5.278  -6.739  10.660  1.00  0.00     0.049 A 
ATOM     51  C   UNL     1       0.980  -9.621   7.890  1.00  0.00     0.074 A 
ATOM     52  C   UNL     1       6.526  -7.084  10.177  1.00  0.00     0.029 A 
ATOM     53  N   UNL     1       4.566  -7.914  10.732  1.00  0.00    -0.354 N 
ATOM     54  N   UNL     1       2.100 -10.291   7.987  1.00  0.00    -0.248 NA
ATOM     55  C   UNL     1       0.670  -8.774   9.035  1.00  0.00     0.031 C 
ATOM     56  C   UNL     1       6.348  -8.351   9.550  1.00  0.00     0.029 A 
ATOM     57  C   UNL     1       5.018  -8.737   9.729  1.00  0.00     0.049 A 
ATOM     58  H   UNL     1       3.860  -8.127  11.384  1.00  0.00     0.167 HD
ATOM     59  C   UNL     1       2.820  -9.659   8.995  1.00  0.00     0.074 A 
ATOM     60  C   UNL     1       1.860  -8.771   9.646  1.00  0.00     0.031 C 
ATOM     61  C   UNL     1       4.187  -9.693   9.025  1.00  0.00     0.037 A 
BRANCH  48  62
ATOM     62  C   UNL     1       3.691  -5.129  11.931  1.00  0.00     0.058 A 
ATOM     63  C   UNL     1       4.103  -5.500  13.220  1.00  0.00     0.135 A 
ATOM     64  C   UNL     1       2.370  -4.628  11.827  1.00  0.00     0.135 A 
ATOM     65  F   UNL     1       5.325  -6.017  13.421  1.00  0.00    -0.206 F 
ATOM     66  C   UNL     1       3.249  -5.418  14.320  1.00  0.00     0.059 A 
ATOM     67  C   UNL     1       1.532  -4.467  12.917  1.00  0.00     0.059 A 
ATOM     68  F   UNL     1       1.786  -4.366  10.652  1.00  0.00    -0.206 F 
ATOM     69  C   UNL     1       1.963  -4.907  14.154  1.00  0.00     0.060 A 
BRANCH  69  70
ATOM     70  S   UNL     1       0.819  -4.899  15.540  1.00  0.00     0.124 S 
ATOM     71  O   UNL     1       0.556  -6.325  15.702  1.00  0.00    -0.237 OA
ATOM     72  O   UNL     1       1.617  -4.270  16.587  1.00  0.00    -0.237 OA
ATOM     73  O   UNL     1      -0.300  -4.101  15.048  1.00  0.00    -0.744 OA
ENDBRANCH  69  70
ENDBRANCH  48  62
BRANCH  49  74
ATOM     74  C   UNL     1      -1.149  -9.433   6.365  1.00  0.00     0.058 A 
ATOM     75  C   UNL     1      -1.886 -10.478   6.949  1.00  0.00     0.135 A 
ATOM     76  C   UNL     1      -1.907  -8.393   5.785  1.00  0.00     0.135 A 
ATOM     77  F   UNL     1      -1.251 -11.494   7.553  1.00  0.00    -0.206 F 
ATOM     78  C   UNL     1      -3.288 -10.476   6.983  1.00  0.00     0.059 A 
ATOM     79  C   UNL     1      -3.299  -8.376   5.795  1.00  0.00     0.059 A 
ATOM     80  F   UNL     1      -1.316  -7.307   5.266  1.00  0.00    -0.206 F 
ATOM     81  C   UNL     1      -3.985  -9.410   6.415  1.00  0.00     0.060 A 
BRANCH  81  82
ATOM     82  S   UNL     1      -5.784  -9.320   6.585  1.00  0.00     0.124 S 
ATOM     83  O   UNL     1      -6.223 -10.421   5.735  1.00  0.00    -0.237 OA
ATOM     84  O   UNL     1      -5.967  -9.508   8.020  1.00  0.00    -0.237 OA
ATOM     85  O   UNL     1      -6.105  -7.984   6.089  1.00  0.00    -0.744 OA
ENDBRANCH  81  82
ENDBRANCH  49  74
BRANCH  61  86
ATOM     86  C   UNL     1       4.894 -10.634   8.078  1.00  0.00     0.058 A 
ATOM     87  C   UNL     1       4.877 -10.501   6.677  1.00  0.00     0.135 A 
ATOM     88  C   UNL     1       5.756 -11.602   8.614  1.00  0.00     0.135 A 
ATOM     89  F   UNL     1       4.166  -9.529   6.090  1.00  0.00    -0.206 F 
ATOM     90  C   UNL     1       5.645 -11.319   5.846  1.00  0.00     0.059 A 
ATOM     91  C   UNL     1       6.555 -12.409   7.807  1.00  0.00     0.059 A 
ATOM     92  F   UNL     1       5.872 -11.734   9.945  1.00  0.00    -0.206 F 
ATOM     93  C   UNL     1       6.485 -12.271   6.422  1.00  0.00     0.060 A 
BRANCH  93  94
ATOM     94  S   UNL     1       7.540 -13.275   5.352  1.00  0.00     0.124 S 
ATOM     95  O   UNL     1       6.574 -14.159   4.710  1.00  0.00    -0.237 OA
ATOM     96  O   UNL     1       8.156 -12.274   4.485  1.00  0.00    -0.237 OA
ATOM     97  O   UNL     1       8.456 -13.925   6.287  1.00  0.00    -0.744 OA
ENDBRANCH  93  94
ENDBRANCH  61  86
ENDBRANCH  35  36
ENDBRANCH  28  30
ENDBRANCH  27  28
ENDBRANCH  26  27
ENDBRANCH   1  26
TORSDOF 20
