REMARK SMILES CC1=C(C(=O)OCCOCCOC(=O)c2ccc(-c3c4nc(c(-c5c(F)cc(S(=O)(=O)[O-])cc5F)c5ccc([nH]5)c(-c5c(F)cc(S(=O)(=O)[O-])cc5F)c5nc(c(-c6c(F)cc(S(=O)(=O)[O-])cc6F)c6ccc3[nH]6)C=C5)C=C4)cc2)[C@H](c2ccc(Cl)cc2)n2ncnc2N1
REMARK SMILES IDX 10 1 9 2 8 3 7 4 6 5 4 6 5 7 3 8 1 9 2 10 94 11 81 12 93 13
REMARK SMILES IDX 89 15 92 16 90 17 91 18 82 19 83 20 88 21 84 22 87 23 85 24
REMARK SMILES IDX 86 25 11 26 12 27 13 28 14 29 15 30 16 31 80 32 17 33 79 34
REMARK SMILES IDX 18 35 19 36 20 37 73 38 21 39 78 40 72 41 74 42 22 43 77 44
REMARK SMILES IDX 71 45 70 46 23 48 57 49 36 50 56 51 37 52 40 53 55 54 75 55
REMARK SMILES IDX 38 56 39 57 54 59 76 60 41 61 24 62 25 63 34 64 26 65 27 66
REMARK SMILES IDX 33 67 35 68 28 69 29 70 30 71 31 72 32 73 58 74 59 75 68 76
REMARK SMILES IDX 60 77 61 78 67 79 69 80 62 81 63 82 64 83 65 84 66 85 42 86
REMARK SMILES IDX 43 87 52 88 44 89 45 90 51 91 53 92 46 93 47 94 48 95 49 96
REMARK SMILES IDX 50 97
REMARK H PARENT 94 14 74 47 40 58
REMARK Flexibility Score: inf
ROOT
ATOM      1  C   UNL     1       1.277   0.477  -4.919  1.00  0.00     0.202 C 
ENDROOT
BRANCH   1   2
ATOM      2  O   UNL     1       0.854   1.821  -5.128  1.00  0.00    -0.374 OA
BRANCH   2   3
ATOM      3  C   UNL     1       0.878   2.753  -4.046  1.00  0.00     0.202 C 
BRANCH   3   4
ATOM      4  C   UNL     1       0.001   2.459  -2.828  1.00  0.00     0.261 C 
BRANCH   4   5
ATOM      5  O   UNL     1       0.307   1.189  -2.230  1.00  0.00    -0.460 OA
BRANCH   5   6
ATOM      6  C   UNL     1      -0.771   0.425  -1.930  1.00  0.00     0.338 C 
ATOM      7  O   UNL     1      -1.943   0.767  -2.013  1.00  0.00    -0.246 OA
BRANCH   6   8
ATOM      8  C   UNL     1      -0.346  -0.931  -1.546  1.00  0.00     0.085 C 
ATOM      9  C   UNL     1       0.652  -0.071   0.619  1.00  0.00     0.065 C 
ATOM     10  C   UNL     1       0.306  -1.148  -0.378  1.00  0.00     0.028 C 
ATOM     11  N   UNL     1       0.702  -2.435  -0.039  1.00  0.00    -0.328 N 
ATOM     12  C   UNL     1      -0.638  -2.059  -2.535  1.00  0.00     0.181 C 
ATOM     13  C   UNL     1       0.537  -3.498  -0.847  1.00  0.00     0.226 A 
ATOM     14  H   UNL     1       1.127  -2.576   0.838  1.00  0.00     0.169 HD
ATOM     15  N   UNL     1      -0.069  -3.332  -2.062  1.00  0.00    -0.219 N 
ATOM     16  N   UNL     1       0.873  -4.753  -0.696  1.00  0.00    -0.200 NA
ATOM     17  N   UNL     1      -0.060  -4.481  -2.775  1.00  0.00    -0.157 NA
ATOM     18  C   UNL     1       0.503  -5.313  -1.891  1.00  0.00     0.248 A 
BRANCH  12  19
ATOM     19  C   UNL     1      -2.118  -2.206  -2.904  1.00  0.00    -0.018 A 
ATOM     20  C   UNL     1      -2.987  -3.067  -2.210  1.00  0.00     0.008 A 
ATOM     21  C   UNL     1      -2.650  -1.423  -3.947  1.00  0.00     0.008 A 
ATOM     22  C   UNL     1      -4.343  -3.136  -2.545  1.00  0.00     0.021 A 
ATOM     23  C   UNL     1      -4.011  -1.469  -4.259  1.00  0.00     0.021 A 
ATOM     24  C   UNL     1      -4.852  -2.325  -3.555  1.00  0.00     0.041 A 
ATOM     25  Cl  UNL     1      -6.532  -2.374  -3.927  1.00  0.00    -0.084 Cl
ENDBRANCH  12  19
ENDBRANCH   6   8
ENDBRANCH   5   6
ENDBRANCH   4   5
ENDBRANCH   3   4
ENDBRANCH   2   3
ENDBRANCH   1   2
BRANCH   1  26
ATOM     26  C   UNL     1       2.748   0.200  -4.631  1.00  0.00     0.261 C 
BRANCH  26  27
ATOM     27  O   UNL     1       3.174   0.827  -3.432  1.00  0.00    -0.460 OA
BRANCH  27  28
ATOM     28  C   UNL     1       3.893   1.950  -3.625  1.00  0.00     0.338 C 
ATOM     29  O   UNL     1       4.042   2.557  -4.686  1.00  0.00    -0.246 OA
BRANCH  28  30
ATOM     30  C   UNL     1       4.583   2.297  -2.385  1.00  0.00     0.060 A 
ATOM     31  C   UNL     1       5.575   3.270  -2.510  1.00  0.00     0.016 A 
ATOM     32  C   UNL     1       4.503   1.442  -1.273  1.00  0.00     0.016 A 
ATOM     33  C   UNL     1       6.663   3.177  -1.683  1.00  0.00     0.010 A 
ATOM     34  C   UNL     1       5.596   1.349  -0.447  1.00  0.00     0.010 A 
ATOM     35  C   UNL     1       6.701   2.140  -0.746  1.00  0.00    -0.014 A 
BRANCH  35  36
ATOM     36  C   UNL     1       7.973   1.902  -0.107  1.00  0.00     0.031 A 
ATOM     37  C   UNL     1       8.316   2.912   0.908  1.00  0.00     0.074 A 
ATOM     38  C   UNL     1       8.733   0.835  -0.409  1.00  0.00     0.049 A 
ATOM     39  N   UNL     1       9.245   3.805   0.864  1.00  0.00    -0.248 NA
ATOM     40  C   UNL     1       7.384   3.049   2.037  1.00  0.00     0.031 C 
ATOM     41  C   UNL     1       8.357  -0.360  -1.172  1.00  0.00     0.029 A 
ATOM     42  N   UNL     1       9.992   0.553   0.010  1.00  0.00    -0.354 N 
ATOM     43  C   UNL     1       9.152   4.479   2.074  1.00  0.00     0.074 A 
ATOM     44  C   UNL     1       7.886   4.116   2.655  1.00  0.00     0.031 C 
ATOM     45  C   UNL     1       9.282  -1.323  -0.958  1.00  0.00     0.029 A 
ATOM     46  C   UNL     1      10.360  -0.771  -0.153  1.00  0.00     0.049 A 
ATOM     47  H   UNL     1      10.592   1.232   0.397  1.00  0.00     0.167 HD
ATOM     48  C   UNL     1      10.232   5.079   2.638  1.00  0.00     0.037 A 
ATOM     49  C   UNL     1      11.420  -1.379   0.433  1.00  0.00     0.037 A 
ATOM     50  C   UNL     1      11.280   5.311   1.680  1.00  0.00     0.049 A 
ATOM     51  C   UNL     1      12.362  -0.314   0.876  1.00  0.00     0.074 A 
ATOM     52  C   UNL     1      11.370   6.030   0.504  1.00  0.00     0.029 A 
ATOM     53  N   UNL     1      12.359   4.460   1.685  1.00  0.00    -0.354 N 
ATOM     54  N   UNL     1      13.034   0.457   0.063  1.00  0.00    -0.248 NA
ATOM     55  C   UNL     1      12.226   0.197   2.233  1.00  0.00     0.031 C 
ATOM     56  C   UNL     1      12.230   5.267  -0.338  1.00  0.00     0.029 A 
ATOM     57  C   UNL     1      12.643   4.143   0.380  1.00  0.00     0.049 A 
ATOM     58  H   UNL     1      12.841   4.135   2.480  1.00  0.00     0.167 HD
ATOM     59  C   UNL     1      13.051   1.704   0.674  1.00  0.00     0.074 A 
ATOM     60  C   UNL     1      12.629   1.457   2.049  1.00  0.00     0.031 C 
ATOM     61  C   UNL     1      13.137   2.854  -0.059  1.00  0.00     0.037 A 
BRANCH  48  62
ATOM     62  C   UNL     1      10.454   5.111   4.126  1.00  0.00     0.058 A 
ATOM     63  C   UNL     1      11.440   5.955   4.665  1.00  0.00     0.135 A 
ATOM     64  C   UNL     1       9.916   4.147   5.012  1.00  0.00     0.135 A 
ATOM     65  F   UNL     1      12.029   6.889   3.903  1.00  0.00    -0.206 F 
ATOM     66  C   UNL     1      11.901   5.812   5.974  1.00  0.00     0.059 A 
ATOM     67  C   UNL     1      10.313   4.031   6.335  1.00  0.00     0.059 A 
ATOM     68  F   UNL     1       9.057   3.201   4.609  1.00  0.00    -0.206 F 
ATOM     69  C   UNL     1      11.341   4.835   6.793  1.00  0.00     0.060 A 
BRANCH  69  70
ATOM     70  S   UNL     1      12.019   4.551   8.435  1.00  0.00     0.124 S 
ATOM     71  O   UNL     1      13.291   3.915   8.112  1.00  0.00    -0.237 OA
ATOM     72  O   UNL     1      12.096   5.906   8.972  1.00  0.00    -0.237 OA
ATOM     73  O   UNL     1      11.022   3.690   9.064  1.00  0.00    -0.744 OA
ENDBRANCH  69  70
ENDBRANCH  48  62
BRANCH  49  74
ATOM     74  C   UNL     1      11.467  -2.773   0.941  1.00  0.00     0.058 A 
ATOM     75  C   UNL     1      12.683  -3.414   1.225  1.00  0.00     0.135 A 
ATOM     76  C   UNL     1      10.298  -3.428   1.386  1.00  0.00     0.135 A 
ATOM     77  F   UNL     1      13.844  -2.842   0.875  1.00  0.00    -0.206 F 
ATOM     78  C   UNL     1      12.738  -4.627   1.923  1.00  0.00     0.059 A 
ATOM     79  C   UNL     1      10.327  -4.642   2.067  1.00  0.00     0.059 A 
ATOM     80  F   UNL     1       9.090  -2.862   1.249  1.00  0.00    -0.206 F 
ATOM     81  C   UNL     1      11.553  -5.229   2.348  1.00  0.00     0.060 A 
BRANCH  81  82
ATOM     82  S   UNL     1      11.624  -6.724   3.361  1.00  0.00     0.124 S 
ATOM     83  O   UNL     1      12.132  -7.707   2.411  1.00  0.00    -0.237 OA
ATOM     84  O   UNL     1      12.540  -6.331   4.426  1.00  0.00    -0.237 OA
ATOM     85  O   UNL     1      10.237  -6.918   3.777  1.00  0.00    -0.744 OA
ENDBRANCH  81  82
ENDBRANCH  49  74
BRANCH  61  86
ATOM     86  C   UNL     1      13.531   2.742  -1.510  1.00  0.00     0.058 A 
ATOM     87  C   UNL     1      12.750   2.104  -2.489  1.00  0.00     0.135 A 
ATOM     88  C   UNL     1      14.663   3.444  -1.951  1.00  0.00     0.135 A 
ATOM     89  F   UNL     1      11.596   1.504  -2.165  1.00  0.00    -0.206 F 
ATOM     90  C   UNL     1      13.101   2.128  -3.840  1.00  0.00     0.059 A 
ATOM     91  C   UNL     1      15.015   3.508  -3.297  1.00  0.00     0.059 A 
ATOM     92  F   UNL     1      15.414   4.130  -1.073  1.00  0.00    -0.206 F 
ATOM     93  C   UNL     1      14.235   2.836  -4.236  1.00  0.00     0.060 A 
BRANCH  93  94
ATOM     94  S   UNL     1      14.634   2.945  -5.995  1.00  0.00     0.124 S 
ATOM     95  O   UNL     1      15.139   1.606  -6.278  1.00  0.00    -0.237 OA
ATOM     96  O   UNL     1      13.344   3.276  -6.594  1.00  0.00    -0.237 OA
ATOM     97  O   UNL     1      15.629   4.013  -6.053  1.00  0.00    -0.744 OA
ENDBRANCH  93  94
ENDBRANCH  61  86
ENDBRANCH  35  36
ENDBRANCH  28  30
ENDBRANCH  27  28
ENDBRANCH  26  27
ENDBRANCH   1  26
TORSDOF 18
