REMARK SMILES N#Cc1ccnc(Oc2cccc(C(=O)OCCOCCOC(=O)c3ccc(-c4c5nc(c(-c6c(F)cc(S(=O)(=O)[O-])cc6F)c6ccc([nH]6)c(-c6c(F)cc(S(=O)(=O)[O-])cc6F)c6nc(c(-c7c(F)cc(S(=O)(=O)[O-])cc7F)c7ccc4[nH]7)C=C6)C=C5)cc3)c2)c1
REMARK SMILES IDX 19 1 18 2 17 3 16 4 14 5 15 6 13 7 9 8 10 9 91 10 11 11
REMARK SMILES IDX 12 12 8 13 7 14 3 15 4 16 92 17 5 18 6 19 2 20 1 21 20 22
REMARK SMILES IDX 21 23 22 24 23 25 24 26 25 27 26 28 90 29 27 30 89 31 28 32
REMARK SMILES IDX 29 33 30 34 83 35 31 36 88 37 82 38 84 39 32 40 87 41 81 42
REMARK SMILES IDX 80 43 33 45 67 46 46 47 66 48 47 49 50 50 65 51 85 52 48 53
REMARK SMILES IDX 49 54 64 56 86 57 51 58 34 59 35 60 44 61 36 62 37 63 43 64
REMARK SMILES IDX 45 65 38 66 39 67 40 68 41 69 42 70 68 71 69 72 78 73 70 74
REMARK SMILES IDX 71 75 77 76 79 77 72 78 73 79 74 80 75 81 76 82 52 83 53 84
REMARK SMILES IDX 62 85 54 86 55 87 61 88 63 89 56 90 57 91 58 92 59 93 60 94
REMARK H PARENT 84 44 50 55
REMARK Flexibility Score: inf
ROOT
ATOM      1  O   UNL     1       0.990   7.313  -4.227  1.00  0.00    -0.374 OA
ENDROOT
BRANCH   1   2
ATOM      2  C   UNL     1       1.607   6.132  -4.731  1.00  0.00     0.202 C 
BRANCH   2   3
ATOM      3  C   UNL     1       2.230   5.138  -3.745  1.00  0.00     0.261 C 
BRANCH   3   4
ATOM      4  O   UNL     1       1.279   4.672  -2.781  1.00  0.00    -0.460 OA
BRANCH   4   5
ATOM      5  C   UNL     1       1.403   5.234  -1.554  1.00  0.00     0.338 C 
ATOM      6  O   UNL     1       2.291   5.979  -1.173  1.00  0.00    -0.246 OA
BRANCH   5   7
ATOM      7  C   UNL     1       0.194   4.955  -0.747  1.00  0.00     0.063 A 
ATOM      8  C   UNL     1      -1.558   3.496   0.019  1.00  0.00     0.130 A 
ATOM      9  C   UNL     1      -1.952   4.453   0.959  1.00  0.00     0.047 A 
ATOM     10  C   UNL     1      -0.554   3.787  -0.907  1.00  0.00     0.062 A 
ATOM     11  C   UNL     1      -1.275   5.668   1.042  1.00  0.00     0.005 A 
ATOM     12  C   UNL     1      -0.180   5.904   0.214  1.00  0.00     0.016 A 
BRANCH   8  13
ATOM     13  O   UNL     1      -2.204   2.283   0.062  1.00  0.00    -0.439 OA
BRANCH  13  14
ATOM     14  C   UNL     1      -1.461   1.118   0.093  1.00  0.00     0.220 A 
ATOM     15  C   UNL     1       0.559  -0.174   0.152  1.00  0.00     0.059 A 
ATOM     16  C   UNL     1      -0.192  -1.327  -0.022  1.00  0.00     0.040 A 
ATOM     17  C   UNL     1      -0.083   1.058   0.259  1.00  0.00     0.088 A 
ATOM     18  C   UNL     1      -1.565  -1.189  -0.096  1.00  0.00     0.116 A 
ATOM     19  N   UNL     1      -2.207   0.001  -0.052  1.00  0.00    -0.222 NA
BRANCH  15  20
ATOM     20  C   UNL     1       1.991  -0.218   0.200  1.00  0.00     0.099 C 
ATOM     21  N   UNL     1       3.147  -0.195   0.242  1.00  0.00    -0.192 NA
ENDBRANCH  15  20
ENDBRANCH  13  14
ENDBRANCH   8  13
ENDBRANCH   5   7
ENDBRANCH   4   5
ENDBRANCH   3   4
ENDBRANCH   2   3
ENDBRANCH   1   2
BRANCH   1  22
ATOM     22  C   UNL     1      -0.278   7.206  -3.584  1.00  0.00     0.202 C 
BRANCH  22  23
ATOM     23  C   UNL     1      -1.527   6.849  -4.404  1.00  0.00     0.261 C 
BRANCH  23  24
ATOM     24  O   UNL     1      -1.424   5.613  -5.125  1.00  0.00    -0.460 OA
BRANCH  24  25
ATOM     25  C   UNL     1      -1.209   5.766  -6.457  1.00  0.00     0.338 C 
ATOM     26  O   UNL     1      -1.116   6.815  -7.072  1.00  0.00    -0.246 OA
BRANCH  25  27
ATOM     27  C   UNL     1      -0.905   4.459  -7.064  1.00  0.00     0.060 A 
ATOM     28  C   UNL     1       0.338   4.296  -7.690  1.00  0.00     0.016 A 
ATOM     29  C   UNL     1      -1.853   3.436  -7.084  1.00  0.00     0.016 A 
ATOM     30  C   UNL     1       0.628   3.115  -8.368  1.00  0.00     0.010 A 
ATOM     31  C   UNL     1      -1.564   2.257  -7.775  1.00  0.00     0.010 A 
ATOM     32  C   UNL     1      -0.334   2.100  -8.442  1.00  0.00    -0.014 A 
BRANCH  32  33
ATOM     33  C   UNL     1      -0.103   0.913  -9.300  1.00  0.00     0.031 A 
ATOM     34  C   UNL     1      -0.839   0.797 -10.607  1.00  0.00     0.074 A 
ATOM     35  C   UNL     1       0.752  -0.052  -8.912  1.00  0.00     0.049 A 
ATOM     36  N   UNL     1      -0.874  -0.200 -11.451  1.00  0.00    -0.248 NA
ATOM     37  C   UNL     1      -1.648   1.959 -11.012  1.00  0.00     0.031 C 
ATOM     38  C   UNL     1       1.557  -0.025  -7.691  1.00  0.00     0.029 A 
ATOM     39  N   UNL     1       1.072  -1.250  -9.500  1.00  0.00    -0.354 N 
ATOM     40  C   UNL     1      -1.713   0.206 -12.483  1.00  0.00     0.074 A 
ATOM     41  C   UNL     1      -2.192   1.528 -12.142  1.00  0.00     0.031 C 
ATOM     42  C   UNL     1       2.267  -1.163  -7.612  1.00  0.00     0.029 A 
ATOM     43  C   UNL     1       1.930  -2.018  -8.749  1.00  0.00     0.049 A 
ATOM     44  H   UNL     1       0.721  -1.532 -10.375  1.00  0.00     0.167 HD
ATOM     45  C   UNL     1      -2.044  -0.461 -13.614  1.00  0.00     0.037 A 
ATOM     46  C   UNL     1       2.364  -3.280  -8.938  1.00  0.00     0.037 A 
ATOM     47  C   UNL     1      -1.560  -1.779 -13.941  1.00  0.00     0.049 A 
ATOM     48  C   UNL     1       1.902  -4.038 -10.158  1.00  0.00     0.074 A 
ATOM     49  C   UNL     1      -1.829  -2.538 -15.067  1.00  0.00     0.029 A 
ATOM     50  N   UNL     1      -0.717  -2.538 -13.142  1.00  0.00    -0.354 N 
ATOM     51  N   UNL     1       1.123  -3.638 -11.135  1.00  0.00    -0.248 NA
ATOM     52  C   UNL     1       2.379  -5.421 -10.300  1.00  0.00     0.031 C 
ATOM     53  C   UNL     1      -1.202  -3.778 -14.919  1.00  0.00     0.029 A 
ATOM     54  C   UNL     1      -0.482  -3.768 -13.735  1.00  0.00     0.049 A 
ATOM     55  H   UNL     1      -0.340  -2.245 -12.281  1.00  0.00     0.167 HD
ATOM     56  C   UNL     1       1.047  -4.707 -12.024  1.00  0.00     0.074 A 
ATOM     57  C   UNL     1       1.873  -5.762 -11.477  1.00  0.00     0.031 C 
ATOM     58  C   UNL     1       0.354  -4.808 -13.186  1.00  0.00     0.037 A 
BRANCH  45  59
ATOM     59  C   UNL     1      -2.987   0.206 -14.579  1.00  0.00     0.058 A 
ATOM     60  C   UNL     1      -2.602   1.322 -15.340  1.00  0.00     0.135 A 
ATOM     61  C   UNL     1      -4.272  -0.319 -14.797  1.00  0.00     0.135 A 
ATOM     62  F   UNL     1      -1.392   1.877 -15.162  1.00  0.00    -0.206 F 
ATOM     63  C   UNL     1      -3.460   1.901 -16.270  1.00  0.00     0.059 A 
ATOM     64  C   UNL     1      -5.135   0.224 -15.744  1.00  0.00     0.059 A 
ATOM     65  F   UNL     1      -4.696  -1.382 -14.095  1.00  0.00    -0.206 F 
ATOM     66  C   UNL     1      -4.722   1.339 -16.471  1.00  0.00     0.060 A 
BRANCH  66  67
ATOM     67  S   UNL     1      -5.808   2.084 -17.706  1.00  0.00     0.124 S 
ATOM     68  O   UNL     1      -6.123   3.366 -17.083  1.00  0.00    -0.237 OA
ATOM     69  O   UNL     1      -4.943   2.146 -18.880  1.00  0.00    -0.237 OA
ATOM     70  O   UNL     1      -6.919   1.143 -17.797  1.00  0.00    -0.744 OA
ENDBRANCH  66  67
ENDBRANCH  45  59
BRANCH  46  71
ATOM     71  C   UNL     1       3.262  -3.926  -7.941  1.00  0.00     0.058 A 
ATOM     72  C   UNL     1       4.571  -4.300  -8.281  1.00  0.00     0.135 A 
ATOM     73  C   UNL     1       2.820  -4.213  -6.639  1.00  0.00     0.135 A 
ATOM     74  F   UNL     1       5.038  -4.058  -9.515  1.00  0.00    -0.206 F 
ATOM     75  C   UNL     1       5.397  -4.964  -7.380  1.00  0.00     0.059 A 
ATOM     76  C   UNL     1       3.640  -4.843  -5.709  1.00  0.00     0.059 A 
ATOM     77  F   UNL     1       1.581  -3.867  -6.255  1.00  0.00    -0.206 F 
ATOM     78  C   UNL     1       4.922  -5.231  -6.095  1.00  0.00     0.060 A 
BRANCH  78  79
ATOM     79  S   UNL     1       6.008  -6.080  -4.930  1.00  0.00     0.124 S 
ATOM     80  O   UNL     1       6.067  -7.418  -5.506  1.00  0.00    -0.237 OA
ATOM     81  O   UNL     1       7.231  -5.289  -5.025  1.00  0.00    -0.237 OA
ATOM     82  O   UNL     1       5.292  -5.969  -3.663  1.00  0.00    -0.744 OA
ENDBRANCH  78  79
ENDBRANCH  46  71
BRANCH  58  83
ATOM     83  C   UNL     1       0.490  -6.087 -13.971  1.00  0.00     0.058 A 
ATOM     84  C   UNL     1      -0.056  -7.298 -13.518  1.00  0.00     0.135 A 
ATOM     85  C   UNL     1       1.133  -6.088 -15.221  1.00  0.00     0.135 A 
ATOM     86  F   UNL     1      -0.675  -7.358 -12.328  1.00  0.00    -0.206 F 
ATOM     87  C   UNL     1       0.056  -8.470 -14.260  1.00  0.00     0.059 A 
ATOM     88  C   UNL     1       1.223  -7.239 -15.997  1.00  0.00     0.059 A 
ATOM     89  F   UNL     1       1.665  -4.956 -15.710  1.00  0.00    -0.206 F 
ATOM     90  C   UNL     1       0.692  -8.429 -15.502  1.00  0.00     0.060 A 
BRANCH  90  91
ATOM     91  S   UNL     1       0.794  -9.950 -16.469  1.00  0.00     0.124 S 
ATOM     92  O   UNL     1       1.742 -10.735 -15.685  1.00  0.00    -0.237 OA
ATOM     93  O   UNL     1      -0.587 -10.421 -16.451  1.00  0.00    -0.237 OA
ATOM     94  O   UNL     1       1.280  -9.496 -17.769  1.00  0.00    -0.744 OA
ENDBRANCH  90  91
ENDBRANCH  58  83
ENDBRANCH  32  33
ENDBRANCH  25  27
ENDBRANCH  24  25
ENDBRANCH  23  24
ENDBRANCH  22  23
ENDBRANCH   1  22
TORSDOF 20
