REMARK SMILES Cc1c(NCc2ccccn2)cccc1C(=O)N1CCOC[C@@H]1CC(=O)OCCOCCOC(=O)c1ccc(-c2c3nc(c(-c4c(F)cc(S(=O)(=O)[O-])cc4F)c4ccc([nH]4)c(-c4c(F)cc(S(=O)(=O)[O-])cc4F)c4nc(c(-c5c(F)cc(S(=O)(=O)[O-])cc5F)c5ccc2[nH]5)C=C4)C=C3)cc1
REMARK SMILES IDX 28 1 27 2 25 3 26 4 24 5 23 6 18 7 19 8 20 9 22 10 21 11
REMARK SMILES IDX 16 12 17 13 15 14 1 15 2 16 3 17 12 18 14 19 13 20 4 21 5 23
REMARK SMILES IDX 6 24 7 25 11 26 8 27 10 28 9 29 29 30 30 31 31 32 32 33
REMARK SMILES IDX 33 34 34 35 35 36 36 37 37 38 101 39 38 40 100 41 39 42
REMARK SMILES IDX 40 43 41 44 94 45 42 46 99 47 93 48 95 49 43 50 98 51 92 52
REMARK SMILES IDX 91 53 44 55 78 56 57 57 77 58 58 59 61 60 76 61 96 62 59 63
REMARK SMILES IDX 60 64 75 66 97 67 62 68 45 69 46 70 55 71 47 72 48 73 54 74
REMARK SMILES IDX 56 75 49 76 50 77 51 78 52 79 53 80 79 81 80 82 89 83 81 84
REMARK SMILES IDX 82 85 88 86 90 87 83 88 84 89 85 90 86 91 87 92 63 93 64 94
REMARK SMILES IDX 73 95 65 96 66 97 72 98 74 99 67 100 68 101 69 102 70 103
REMARK SMILES IDX 71 104
REMARK H PARENT 4 22 95 54 61 65
REMARK Flexibility Score: inf
ROOT
ATOM      1  C   UNL     1       1.200   1.654   2.243  1.00  0.00     0.261 C 
ENDROOT
BRANCH   1   2
ATOM      2  O   UNL     1       1.414   2.680   1.292  1.00  0.00    -0.463 OA
BRANCH   2   3
ATOM      3  C   UNL     1       2.143   3.732   1.715  1.00  0.00     0.308 C 
ATOM      4  O   UNL     1       2.446   4.013   2.867  1.00  0.00    -0.252 OA
BRANCH   3   5
ATOM      5  C   UNL     1       2.676   4.447   0.521  1.00  0.00     0.150 C 
BRANCH   5   6
ATOM      6  C   UNL     1       3.635   3.578  -0.312  1.00  0.00     0.122 C 
ATOM      7  N   UNL     1       3.153   2.386  -1.095  1.00  0.00    -0.330 N 
ATOM      8  C   UNL     1       4.223   1.812  -1.905  1.00  0.00     0.148 C 
ATOM      9  C   UNL     1       5.456   1.480  -1.058  1.00  0.00     0.181 C 
ATOM     10  C   UNL     1       4.847   3.119   0.546  1.00  0.00     0.185 C 
ATOM     11  O   UNL     1       5.902   2.612  -0.296  1.00  0.00    -0.377 OA
BRANCH   7  12
ATOM     12  C   UNL     1       1.821   2.159  -1.458  1.00  0.00     0.254 C 
ATOM     13  O   UNL     1       1.019   3.095  -1.470  1.00  0.00    -0.269 OA
BRANCH  12  14
ATOM     14  C   UNL     1       1.295   0.772  -1.845  1.00  0.00     0.045 A 
ATOM     15  C   UNL     1       2.980  -0.731  -0.607  1.00  0.00     0.047 C 
ATOM     16  C   UNL     1       1.668  -0.483  -1.286  1.00  0.00    -0.015 A 
ATOM     17  C   UNL     1       0.822  -1.625  -1.437  1.00  0.00     0.038 A 
ATOM     18  C   UNL     1      -0.273  -1.547  -2.295  1.00  0.00     0.026 A 
ATOM     19  C   UNL     1       0.175   0.793  -2.698  1.00  0.00     0.014 A 
ATOM     20  C   UNL     1      -0.576  -0.359  -2.952  1.00  0.00     0.003 A 
BRANCH  17  21
ATOM     21  N   UNL     1       1.075  -2.745  -0.631  1.00  0.00    -0.379 N 
ATOM     22  H   UNL     1       1.816  -2.664   0.013  1.00  0.00     0.160 HD
BRANCH  21  23
ATOM     23  C   UNL     1       0.355  -4.022  -0.645  1.00  0.00     0.169 C 
BRANCH  23  24
ATOM     24  C   UNL     1       0.665  -4.965  -1.795  1.00  0.00     0.059 A 
ATOM     25  C   UNL     1       1.234  -4.529  -2.989  1.00  0.00     0.026 A 
ATOM     26  N   UNL     1       0.279  -6.263  -1.632  1.00  0.00    -0.259 NA
ATOM     27  C   UNL     1       1.353  -5.412  -4.058  1.00  0.00     0.004 A 
ATOM     28  C   UNL     1       0.420  -7.103  -2.679  1.00  0.00     0.111 A 
ATOM     29  C   UNL     1       0.930  -6.723  -3.906  1.00  0.00     0.020 A 
ENDBRANCH  23  24
ENDBRANCH  21  23
ENDBRANCH  17  21
ENDBRANCH  12  14
ENDBRANCH   7  12
ENDBRANCH   5   6
ENDBRANCH   3   5
ENDBRANCH   2   3
ENDBRANCH   1   2
BRANCH   1  30
ATOM     30  C   UNL     1       2.439   0.814   2.424  1.00  0.00     0.202 C 
BRANCH  30  31
ATOM     31  O   UNL     1       3.069   1.154   3.650  1.00  0.00    -0.374 OA
BRANCH  31  32
ATOM     32  C   UNL     1       4.273   0.466   3.946  1.00  0.00     0.202 C 
BRANCH  32  33
ATOM     33  C   UNL     1       4.288  -1.047   3.648  1.00  0.00     0.261 C 
BRANCH  33  34
ATOM     34  O   UNL     1       3.497  -1.806   4.597  1.00  0.00    -0.460 OA
BRANCH  34  35
ATOM     35  C   UNL     1       2.283  -2.299   4.185  1.00  0.00     0.338 C 
ATOM     36  O   UNL     1       2.146  -3.322   3.562  1.00  0.00    -0.246 OA
BRANCH  35  37
ATOM     37  C   UNL     1       1.171  -1.396   4.629  1.00  0.00     0.060 A 
ATOM     38  C   UNL     1      -0.114  -1.468   4.066  1.00  0.00     0.016 A 
ATOM     39  C   UNL     1       1.489  -0.324   5.449  1.00  0.00     0.016 A 
ATOM     40  C   UNL     1      -1.011  -0.385   4.190  1.00  0.00     0.010 A 
ATOM     41  C   UNL     1       0.668   0.785   5.443  1.00  0.00     0.010 A 
ATOM     42  C   UNL     1      -0.586   0.782   4.801  1.00  0.00    -0.014 A 
BRANCH  42  43
ATOM     43  C   UNL     1      -1.300   2.065   4.902  1.00  0.00     0.031 A 
ATOM     44  C   UNL     1      -1.532   2.565   6.285  1.00  0.00     0.074 A 
ATOM     45  C   UNL     1      -1.345   2.981   3.897  1.00  0.00     0.049 A 
ATOM     46  N   UNL     1      -2.022   3.719   6.571  1.00  0.00    -0.248 NA
ATOM     47  C   UNL     1      -1.254   1.768   7.481  1.00  0.00     0.031 C 
ATOM     48  C   UNL     1      -1.063   4.415   4.047  1.00  0.00     0.029 A 
ATOM     49  N   UNL     1      -1.622   2.876   2.546  1.00  0.00    -0.354 N 
ATOM     50  C   UNL     1      -1.755   3.963   7.897  1.00  0.00     0.074 A 
ATOM     51  C   UNL     1      -1.426   2.674   8.445  1.00  0.00     0.031 C 
ATOM     52  C   UNL     1      -1.357   5.065   2.911  1.00  0.00     0.029 A 
ATOM     53  C   UNL     1      -2.005   4.124   2.026  1.00  0.00     0.049 A 
ATOM     54  H   UNL     1      -1.560   2.044   2.022  1.00  0.00     0.167 HD
ATOM     55  C   UNL     1      -1.719   5.260   8.314  1.00  0.00     0.037 A 
ATOM     56  C   UNL     1      -3.170   4.326   1.335  1.00  0.00     0.037 A 
ATOM     57  C   UNL     1      -2.189   6.155   7.250  1.00  0.00     0.049 A 
ATOM     58  C   UNL     1      -4.069   5.357   1.967  1.00  0.00     0.074 A 
ATOM     59  C   UNL     1      -1.570   7.068   6.415  1.00  0.00     0.029 A 
ATOM     60  N   UNL     1      -3.478   5.990   6.759  1.00  0.00    -0.354 N 
ATOM     61  N   UNL     1      -3.771   5.984   3.067  1.00  0.00    -0.248 NA
ATOM     62  C   UNL     1      -5.417   5.681   1.502  1.00  0.00     0.031 C 
ATOM     63  C   UNL     1      -2.505   7.444   5.412  1.00  0.00     0.029 A 
ATOM     64  C   UNL     1      -3.694   6.769   5.641  1.00  0.00     0.049 A 
ATOM     65  H   UNL     1      -4.152   5.393   7.158  1.00  0.00     0.167 HD
ATOM     66  C   UNL     1      -4.923   6.467   3.621  1.00  0.00     0.074 A 
ATOM     67  C   UNL     1      -5.883   6.401   2.538  1.00  0.00     0.031 C 
ATOM     68  C   UNL     1      -4.989   6.729   4.960  1.00  0.00     0.037 A 
BRANCH  55  69
ATOM     69  C   UNL     1      -1.148   5.790   9.618  1.00  0.00     0.058 A 
ATOM     70  C   UNL     1      -1.156   7.183   9.870  1.00  0.00     0.135 A 
ATOM     71  C   UNL     1      -0.535   5.027  10.635  1.00  0.00     0.135 A 
ATOM     72  F   UNL     1      -1.677   8.054   8.994  1.00  0.00    -0.206 F 
ATOM     73  C   UNL     1      -0.621   7.760  11.024  1.00  0.00     0.059 A 
ATOM     74  C   UNL     1      -0.025   5.578  11.814  1.00  0.00     0.059 A 
ATOM     75  F   UNL     1      -0.356   3.708  10.542  1.00  0.00    -0.206 F 
ATOM     76  C   UNL     1      -0.069   6.948  12.001  1.00  0.00     0.060 A 
BRANCH  76  77
ATOM     77  S   UNL     1       0.576   7.697  13.502  1.00  0.00     0.124 S 
ATOM     78  O   UNL     1       1.662   8.525  12.987  1.00  0.00    -0.237 OA
ATOM     79  O   UNL     1      -0.587   8.416  14.011  1.00  0.00    -0.237 OA
ATOM     80  O   UNL     1       0.997   6.550  14.303  1.00  0.00    -0.744 OA
ENDBRANCH  76  77
ENDBRANCH  55  69
BRANCH  56  81
ATOM     81  C   UNL     1      -3.660   3.066   0.699  1.00  0.00     0.058 A 
ATOM     82  C   UNL     1      -2.839   2.547  -0.311  1.00  0.00     0.135 A 
ATOM     83  C   UNL     1      -4.383   2.159   1.494  1.00  0.00     0.135 A 
ATOM     84  F   UNL     1      -2.177   3.376  -1.135  1.00  0.00    -0.206 F 
ATOM     85  C   UNL     1      -2.506   1.201  -0.312  1.00  0.00     0.059 A 
ATOM     86  C   UNL     1      -4.082   0.798   1.480  1.00  0.00     0.059 A 
ATOM     87  F   UNL     1      -5.235   2.611   2.425  1.00  0.00    -0.206 F 
ATOM     88  C   UNL     1      -3.082   0.344   0.624  1.00  0.00     0.060 A 
BRANCH  88  89
ATOM     89  S   UNL     1      -2.370  -1.304   0.820  1.00  0.00     0.124 S 
ATOM     90  O   UNL     1      -2.727  -1.944  -0.439  1.00  0.00    -0.237 OA
ATOM     91  O   UNL     1      -0.953  -1.008   1.018  1.00  0.00    -0.237 OA
ATOM     92  O   UNL     1      -3.042  -1.839   1.999  1.00  0.00    -0.744 OA
ENDBRANCH  88  89
ENDBRANCH  56  81
BRANCH  68  93
ATOM     93  C   UNL     1      -6.264   6.969   5.740  1.00  0.00     0.058 A 
ATOM     94  C   UNL     1      -7.543   6.551   5.332  1.00  0.00     0.135 A 
ATOM     95  C   UNL     1      -6.214   7.589   7.013  1.00  0.00     0.135 A 
ATOM     96  F   UNL     1      -7.726   5.788   4.246  1.00  0.00    -0.206 F 
ATOM     97  C   UNL     1      -8.698   6.871   6.045  1.00  0.00     0.059 A 
ATOM     98  C   UNL     1      -7.346   7.844   7.781  1.00  0.00     0.059 A 
ATOM     99  F   UNL     1      -5.054   7.979   7.562  1.00  0.00    -0.206 F 
ATOM    100  C   UNL     1      -8.591   7.543   7.256  1.00  0.00     0.060 A 
BRANCH 100 101
ATOM    101  S   UNL     1     -10.083   8.036   8.129  1.00  0.00     0.124 S 
ATOM    102  O   UNL     1     -10.438   9.260   7.418  1.00  0.00    -0.237 OA
ATOM    103  O   UNL     1     -10.974   6.900   7.910  1.00  0.00    -0.237 OA
ATOM    104  O   UNL     1      -9.630   8.213   9.505  1.00  0.00    -0.744 OA
ENDBRANCH 100 101
ENDBRANCH  68  93
ENDBRANCH  42  43
ENDBRANCH  35  37
ENDBRANCH  34  35
ENDBRANCH  33  34
ENDBRANCH  32  33
ENDBRANCH  31  32
ENDBRANCH  30  31
ENDBRANCH   1  30
TORSDOF 23
