REMARK SMILES CC(=O)Nc1cnc(N2CC=C(c3ccccc3C)CC2)c(C(=O)OCCOCCOC(=O)c2ccc(-c3c4nc(c(-c5c(F)cc(S(=O)(=O)[O-])cc5F)c5ccc([nH]5)c(-c5c(F)cc(S(=O)(=O)[O-])cc5F)c5nc(c(-c6c(F)cc(S(=O)(=O)[O-])cc6F)c6ccc3[nH]6)C=C5)C=C4)cc2)c1
REMARK SMILES IDX 29 1 28 2 27 3 26 4 25 5 23 6 24 7 22 8 5 9 6 10 100 11 7 12
REMARK SMILES IDX 8 13 4 14 1 15 2 16 3 17 9 19 10 20 21 21 11 22 20 23 12 24
REMARK SMILES IDX 13 25 14 26 18 27 15 28 17 29 19 30 16 31 30 32 31 33 32 34
REMARK SMILES IDX 33 35 34 36 35 37 99 38 36 39 98 40 37 41 38 42 39 43 92 44
REMARK SMILES IDX 40 45 97 46 91 47 93 48 41 49 96 50 90 51 89 52 42 54 76 55
REMARK SMILES IDX 55 56 75 57 56 58 59 59 74 60 94 61 57 62 58 63 73 65 95 66
REMARK SMILES IDX 60 67 43 68 44 69 53 70 45 71 46 72 52 73 54 74 47 75 48 76
REMARK SMILES IDX 49 77 50 78 51 79 77 80 78 81 87 82 79 83 80 84 86 85 88 86
REMARK SMILES IDX 81 87 82 88 83 89 84 90 85 91 61 92 62 93 71 94 63 95 64 96
REMARK SMILES IDX 70 97 72 98 65 99 66 100 67 101 68 102 69 103
REMARK H PARENT 4 18 93 53 59 64
REMARK Flexibility Score: inf
ROOT
ATOM      1  C   UNL     1       6.198  -2.443  -2.196  1.00  0.00     0.202 C 
ENDROOT
BRANCH   1   2
ATOM      2  O   UNL     1       6.049  -1.578  -3.430  1.00  0.00    -0.374 OA
BRANCH   2   3
ATOM      3  C   UNL     1       6.490  -0.220  -3.602  1.00  0.00     0.202 C 
BRANCH   3   4
ATOM      4  C   UNL     1       5.677   1.065  -3.550  1.00  0.00     0.261 C 
BRANCH   4   5
ATOM      5  O   UNL     1       4.460   0.719  -2.938  1.00  0.00    -0.460 OA
BRANCH   5   6
ATOM      6  C   UNL     1       3.408   1.238  -3.607  1.00  0.00     0.342 C 
ATOM      7  O   UNL     1       3.274   2.330  -4.068  1.00  0.00    -0.246 OA
BRANCH   6   8
ATOM      8  C   UNL     1       2.547   0.089  -3.821  1.00  0.00     0.104 A 
ATOM      9  C   UNL     1       1.222  -1.644  -2.846  1.00  0.00     0.060 A 
ATOM     10  C   UNL     1       1.096  -2.127  -4.145  1.00  0.00     0.139 A 
ATOM     11  C   UNL     1       2.012  -0.529  -2.688  1.00  0.00     0.047 A 
ATOM     12  N   UNL     1       1.668  -1.572  -5.250  1.00  0.00    -0.236 NA
ATOM     13  C   UNL     1       2.416  -0.454  -5.099  1.00  0.00     0.143 A 
BRANCH   9  14
ATOM     14  N   UNL     1       0.597  -2.303  -1.776  1.00  0.00    -0.325 N 
ATOM     15  C   UNL     1       0.280  -0.365  -0.224  1.00  0.00     0.114 C 
ATOM     16  C   UNL     1       0.231  -1.840  -0.540  1.00  0.00     0.221 C 
ATOM     17  O   UNL     1      -0.207  -2.645   0.286  1.00  0.00    -0.275 OA
ATOM     18  H   UNL     1       0.388  -3.251  -1.940  1.00  0.00     0.169 HD
ENDBRANCH   9  14
BRANCH  13  19
ATOM     19  N   UNL     1       3.176  -0.070  -6.200  1.00  0.00    -0.352 N 
ATOM     20  C   UNL     1       2.951   1.242  -6.810  1.00  0.00     0.146 C 
ATOM     21  C   UNL     1       4.584  -0.445  -6.089  1.00  0.00     0.123 C 
ATOM     22  C   UNL     1       3.768   1.347  -8.070  1.00  0.00    -0.002 C 
ATOM     23  C   UNL     1       5.282  -0.532  -7.424  1.00  0.00     0.057 C 
ATOM     24  C   UNL     1       4.812   0.547  -8.363  1.00  0.00    -0.041 C 
BRANCH  24  25
ATOM     25  C   UNL     1       5.503   0.663  -9.653  1.00  0.00    -0.020 A 
ATOM     26  C   UNL     1       6.141   1.870  -9.984  1.00  0.00     0.008 A 
ATOM     27  C   UNL     1       5.513  -0.407 -10.571  1.00  0.00    -0.044 A 
ATOM     28  C   UNL     1       6.774   2.020 -11.217  1.00  0.00     0.001 A 
ATOM     29  C   UNL     1       6.171  -0.245 -11.796  1.00  0.00     0.004 A 
ATOM     30  C   UNL     1       4.867  -1.735 -10.275  1.00  0.00     0.045 C 
ATOM     31  C   UNL     1       6.785   0.963 -12.122  1.00  0.00     0.000 A 
ENDBRANCH  24  25
ENDBRANCH  13  19
ENDBRANCH   6   8
ENDBRANCH   5   6
ENDBRANCH   4   5
ENDBRANCH   3   4
ENDBRANCH   2   3
ENDBRANCH   1   2
BRANCH   1  32
ATOM     32  C   UNL     1       7.436  -2.853  -0.801  1.00  0.00     0.261 C 
BRANCH  32  33
ATOM     33  O   UNL     1       8.284  -1.883   0.479  1.00  0.00    -0.460 OA
BRANCH  33  34
ATOM     34  C   UNL     1       9.082  -0.684   1.125  1.00  0.00     0.338 C 
ATOM     35  O   UNL     1       9.332  -0.886   2.328  1.00  0.00    -0.246 OA
BRANCH  34  36
ATOM     36  C   UNL     1       9.509   1.014   0.660  1.00  0.00     0.060 A 
ATOM     37  C   UNL     1       9.034   2.091   1.452  1.00  0.00     0.016 A 
ATOM     38  C   UNL     1       9.841   1.577  -0.596  1.00  0.00     0.016 A 
ATOM     39  C   UNL     1       8.342   3.286   0.851  1.00  0.00     0.010 A 
ATOM     40  C   UNL     1       9.075   2.686  -1.230  1.00  0.00     0.010 A 
ATOM     41  C   UNL     1       8.102   3.408  -0.539  1.00  0.00    -0.014 A 
BRANCH  41  42
ATOM     42  C   UNL     1       6.730   3.864  -1.189  1.00  0.00     0.031 A 
ATOM     43  C   UNL     1       6.674   4.977  -2.159  1.00  0.00     0.074 A 
ATOM     44  C   UNL     1       5.473   3.277  -1.168  1.00  0.00     0.049 A 
ATOM     45  N   UNL     1       5.962   6.047  -2.018  1.00  0.00    -0.248 NA
ATOM     46  C   UNL     1       7.277   4.836  -3.479  1.00  0.00     0.031 C 
ATOM     47  C   UNL     1       4.135   3.679  -1.663  1.00  0.00     0.029 A 
ATOM     48  N   UNL     1       5.094   2.064  -0.651  1.00  0.00    -0.354 N 
ATOM     49  C   UNL     1       5.790   6.574  -3.290  1.00  0.00     0.074 A 
ATOM     50  C   UNL     1       6.777   5.903  -4.116  1.00  0.00     0.031 C 
ATOM     51  C   UNL     1       3.154   2.965  -1.044  1.00  0.00     0.029 A 
ATOM     52  C   UNL     1       3.800   2.056  -0.130  1.00  0.00     0.049 A 
ATOM     53  H   UNL     1       5.680   1.273  -0.649  1.00  0.00     0.167 HD
ATOM     54  C   UNL     1       4.658   7.262  -3.650  1.00  0.00     0.037 A 
ATOM     55  C   UNL     1       3.731   1.894   1.225  1.00  0.00     0.037 A 
ATOM     56  C   UNL     1       3.543   6.979  -2.715  1.00  0.00     0.049 A 
ATOM     57  C   UNL     1       3.503   3.337   1.781  1.00  0.00     0.074 A 
ATOM     58  C   UNL     1       2.296   6.379  -2.849  1.00  0.00     0.029 A 
ATOM     59  N   UNL     1       3.750   7.052  -1.344  1.00  0.00    -0.354 N 
ATOM     60  N   UNL     1       3.340   4.351   0.964  1.00  0.00    -0.248 NA
ATOM     61  C   UNL     1       3.361   3.808   3.160  1.00  0.00     0.031 C 
ATOM     62  C   UNL     1       1.772   6.113  -1.542  1.00  0.00     0.029 A 
ATOM     63  C   UNL     1       2.696   6.545  -0.606  1.00  0.00     0.049 A 
ATOM     64  H   UNL     1       4.565   7.426  -0.938  1.00  0.00     0.167 HD
ATOM     65  C   UNL     1       3.046   5.516   1.584  1.00  0.00     0.074 A 
ATOM     66  C   UNL     1       3.130   5.135   2.989  1.00  0.00     0.031 C 
ATOM     67  C   UNL     1       2.741   6.645   0.858  1.00  0.00     0.037 A 
BRANCH  54  68
ATOM     68  C   UNL     1       4.465   8.000  -4.987  1.00  0.00     0.058 A 
ATOM     69  C   UNL     1       3.207   8.518  -5.377  1.00  0.00     0.135 A 
ATOM     70  C   UNL     1       5.515   8.348  -5.873  1.00  0.00     0.135 A 
ATOM     71  F   UNL     1       2.126   8.395  -4.595  1.00  0.00    -0.206 F 
ATOM     72  C   UNL     1       2.995   9.236  -6.564  1.00  0.00     0.059 A 
ATOM     73  C   UNL     1       5.321   9.025  -7.088  1.00  0.00     0.059 A 
ATOM     74  F   UNL     1       6.798   8.115  -5.564  1.00  0.00    -0.206 F 
ATOM     75  C   UNL     1       4.054   9.473  -7.426  1.00  0.00     0.060 A 
BRANCH  75  76
ATOM     76  S   UNL     1       3.769  10.430  -8.932  1.00  0.00     0.124 S 
ATOM     77  O   UNL     1       2.757   9.632  -9.618  1.00  0.00    -0.237 OA
ATOM     78  O   UNL     1       3.315  11.711  -8.402  1.00  0.00    -0.237 OA
ATOM     79  O   UNL     1       5.079  10.453  -9.578  1.00  0.00    -0.744 OA
ENDBRANCH  75  76
ENDBRANCH  54  68
BRANCH  55  80
ATOM     80  C   UNL     1       4.787   0.768   1.563  1.00  0.00     0.058 A 
ATOM     81  C   UNL     1       4.677  -0.483   0.936  1.00  0.00     0.135 A 
ATOM     82  C   UNL     1       6.093   1.159   1.482  1.00  0.00     0.135 A 
ATOM     83  F   UNL     1       3.543  -1.187   1.094  1.00  0.00    -0.206 F 
ATOM     84  C   UNL     1       5.695  -1.060   0.021  1.00  0.00     0.059 A 
ATOM     85  C   UNL     1       6.918   0.700   0.337  1.00  0.00     0.059 A 
ATOM     86  F   UNL     1       6.403   2.285   2.135  1.00  0.00    -0.206 F 
ATOM     87  C   UNL     1       6.852  -0.380  -0.492  1.00  0.00     0.060 A 
BRANCH  87  88
ATOM     88  S   UNL     1       8.661  -0.779  -1.844  1.00  0.00     0.124 S 
ATOM     89  O   UNL     1       9.846  -1.063  -1.041  1.00  0.00    -0.237 OA
ATOM     90  O   UNL     1       8.420  -1.921  -2.721  1.00  0.00    -0.237 OA
ATOM     91  O   UNL     1       8.778   0.442  -2.637  1.00  0.00    -0.744 OA
ENDBRANCH  87  88
ENDBRANCH  55  80
BRANCH  67  92
ATOM     92  C   UNL     1       2.455   8.004   1.446  1.00  0.00     0.058 A 
ATOM     93  C   UNL     1       1.804   8.188   2.669  1.00  0.00     0.135 A 
ATOM     94  C   UNL     1       2.786   9.196   0.748  1.00  0.00     0.135 A 
ATOM     95  F   UNL     1       1.252   7.155   3.321  1.00  0.00    -0.206 F 
ATOM     96  C   UNL     1       1.667   9.451   3.246  1.00  0.00     0.059 A 
ATOM     97  C   UNL     1       2.613  10.463   1.277  1.00  0.00     0.059 A 
ATOM     98  F   UNL     1       3.316   9.200  -0.480  1.00  0.00    -0.206 F 
ATOM     99  C   UNL     1       2.109  10.577   2.555  1.00  0.00     0.060 A 
BRANCH  99 100
ATOM    100  S   UNL     1       2.019  12.193   3.330  1.00  0.00     0.124 S 
ATOM    101  O   UNL     1       0.678  12.184   3.906  1.00  0.00    -0.237 OA
ATOM    102  O   UNL     1       3.120  12.114   4.285  1.00  0.00    -0.237 OA
ATOM    103  O   UNL     1       2.215  13.120   2.221  1.00  0.00    -0.744 OA
ENDBRANCH  99 100
ENDBRANCH  67  92
ENDBRANCH  41  42
ENDBRANCH  34  36
ENDBRANCH  33  34
ENDBRANCH  32  33
ENDBRANCH   1  32
TORSDOF 20
