REMARK SMILES CCc1ccsc1CNC(=O)N1[C@H]2CC[C@@H]1[C@H](C(=O)OCCOCCOC(=O)c1ccc(-c3c4nc(c(-c5c(F)cc(S(=O)(=O)[O-])cc5F)c5ccc([nH]5)c(-c5c(F)cc(S(=O)(=O)[O-])cc5F)c5nc(c(-c6c(F)cc(S(=O)(=O)[O-])cc6F)c6ccc3[nH]6)C=C5)C=C4)cc1)C2
REMARK SMILES IDX 22 1 21 2 20 3 18 4 19 5 17 6 12 7 13 8 16 9 14 10 95 11
REMARK SMILES IDX 15 12 10 13 9 14 11 16 8 17 7 18 3 19 4 20 5 21 6 22 2 23
REMARK SMILES IDX 1 24 23 25 24 26 25 27 26 28 27 29 28 30 29 31 30 32 94 33
REMARK SMILES IDX 31 34 93 35 32 36 33 37 34 38 87 39 35 40 92 41 86 42 88 43
REMARK SMILES IDX 36 44 91 45 85 46 84 47 37 49 71 50 50 51 70 52 51 53 54 54
REMARK SMILES IDX 69 55 89 56 52 57 53 58 68 60 90 61 55 62 38 63 39 64 48 65
REMARK SMILES IDX 40 66 41 67 47 68 49 69 42 70 43 71 44 72 45 73 46 74 72 75
REMARK SMILES IDX 73 76 82 77 74 78 75 79 81 80 83 81 76 82 77 83 78 84 79 85
REMARK SMILES IDX 80 86 56 87 57 88 66 89 58 90 59 91 65 92 67 93 60 94 61 95
REMARK SMILES IDX 62 96 63 97 64 98
REMARK H PARENT 9 15 88 48 54 59
REMARK Flexibility Score: inf
ROOT
ATOM      1  C   UNL     1       0.629   0.745 -12.341  1.00  0.00     0.202 C 
ENDROOT
BRANCH   1   2
ATOM      2  C   UNL     1      -0.331   1.219 -11.248  1.00  0.00     0.261 C 
BRANCH   2   3
ATOM      3  O   UNL     1       0.382   1.522 -10.037  1.00  0.00    -0.463 OA
BRANCH   3   4
ATOM      4  C   UNL     1       0.169   0.681  -9.001  1.00  0.00     0.311 C 
ATOM      5  O   UNL     1      -0.661  -0.221  -8.989  1.00  0.00    -0.252 OA
BRANCH   4   6
ATOM      6  C   UNL     1       1.039   0.971  -7.811  1.00  0.00     0.124 C 
ATOM      7  N   UNL     1       2.746   1.748  -6.587  1.00  0.00    -0.318 N 
ATOM      8  C   UNL     1       1.768   2.812  -6.466  1.00  0.00     0.088 C 
ATOM      9  C   UNL     1       2.524   1.360  -7.968  1.00  0.00     0.101 C 
ATOM     10  C   UNL     1       2.195   3.721  -7.636  1.00  0.00     0.027 C 
ATOM     11  C   UNL     1       0.480   2.081  -6.891  1.00  0.00     0.042 C 
ATOM     12  C   UNL     1       2.763   2.712  -8.655  1.00  0.00     0.028 C 
BRANCH   7  13
ATOM     13  C   UNL     1       3.662   1.196  -5.771  1.00  0.00     0.318 C 
ATOM     14  N   UNL     1       3.452   1.170  -4.436  1.00  0.00    -0.333 N 
ATOM     15  H   UNL     1       4.263   1.154  -3.878  1.00  0.00     0.165 HD
ATOM     16  O   UNL     1       4.677   0.650  -6.206  1.00  0.00    -0.249 OA
BRANCH  14  17
ATOM     17  C   UNL     1       2.198   1.161  -3.715  1.00  0.00     0.165 C 
BRANCH  17  18
ATOM     18  C   UNL     1       1.726  -0.241  -3.390  1.00  0.00     0.027 A 
ATOM     19  C   UNL     1       0.926  -0.640  -2.322  1.00  0.00    -0.033 A 
ATOM     20  C   UNL     1       0.642  -2.048  -2.378  1.00  0.00     0.016 A 
ATOM     21  C   UNL     1       1.207  -2.663  -3.468  1.00  0.00     0.065 A 
ATOM     22  S   UNL     1       2.065  -1.563  -4.440  1.00  0.00    -0.147 S 
BRANCH  19  23
ATOM     23  C   UNL     1       0.381   0.257  -1.244  1.00  0.00     0.033 C 
ATOM     24  C   UNL     1       1.005  -0.019   0.115  1.00  0.00     0.009 C 
ENDBRANCH  19  23
ENDBRANCH  17  18
ENDBRANCH  14  17
ENDBRANCH   7  13
ENDBRANCH   4   6
ENDBRANCH   3   4
ENDBRANCH   2   3
ENDBRANCH   1   2
BRANCH   1  25
ATOM     25  O   UNL     1       1.261  -0.515 -12.113  1.00  0.00    -0.374 OA
BRANCH  25  26
ATOM     26  C   UNL     1       2.399  -0.529 -11.251  1.00  0.00     0.202 C 
BRANCH  26  27
ATOM     27  C   UNL     1       3.723  -0.050 -11.857  1.00  0.00     0.261 C 
BRANCH  27  28
ATOM     28  O   UNL     1       3.707   1.362 -12.138  1.00  0.00    -0.460 OA
BRANCH  28  29
ATOM     29  C   UNL     1       3.676   1.678 -13.454  1.00  0.00     0.338 C 
ATOM     30  O   UNL     1       3.733   0.900 -14.399  1.00  0.00    -0.246 OA
BRANCH  29  31
ATOM     31  C   UNL     1       3.361   3.108 -13.629  1.00  0.00     0.060 A 
ATOM     32  C   UNL     1       2.318   3.434 -14.505  1.00  0.00     0.016 A 
ATOM     33  C   UNL     1       4.106   4.114 -13.008  1.00  0.00     0.016 A 
ATOM     34  C   UNL     1       2.050   4.767 -14.808  1.00  0.00     0.010 A 
ATOM     35  C   UNL     1       3.841   5.452 -13.322  1.00  0.00     0.010 A 
ATOM     36  C   UNL     1       2.837   5.782 -14.251  1.00  0.00    -0.014 A 
BRANCH  36  37
ATOM     37  C   UNL     1       2.703   7.170 -14.759  1.00  0.00     0.031 A 
ATOM     38  C   UNL     1       3.690   7.670 -15.780  1.00  0.00     0.074 A 
ATOM     39  C   UNL     1       1.694   7.959 -14.350  1.00  0.00     0.049 A 
ATOM     40  N   UNL     1       3.778   8.849 -16.339  1.00  0.00    -0.248 NA
ATOM     41  C   UNL     1       4.713   6.713 -16.230  1.00  0.00     0.031 C 
ATOM     42  C   UNL     1       0.652   7.573 -13.400  1.00  0.00     0.029 A 
ATOM     43  N   UNL     1       1.385   9.255 -14.680  1.00  0.00    -0.354 N 
ATOM     44  C   UNL     1       4.866   8.779 -17.201  1.00  0.00     0.074 A 
ATOM     45  C   UNL     1       5.424   7.450 -17.071  1.00  0.00     0.031 C 
ATOM     46  C   UNL     1      -0.177   8.616 -13.214  1.00  0.00     0.029 A 
ATOM     47  C   UNL     1       0.293   9.750 -14.007  1.00  0.00     0.049 A 
ATOM     48  H   UNL     1       1.896   9.780 -15.337  1.00  0.00     0.167 HD
ATOM     49  C   UNL     1       5.350   9.732 -18.033  1.00  0.00     0.037 A 
ATOM     50  C   UNL     1      -0.249  10.984 -14.014  1.00  0.00     0.037 A 
ATOM     51  C   UNL     1       4.790  11.052 -18.162  1.00  0.00     0.049 A 
ATOM     52  C   UNL     1       0.349  12.050 -14.896  1.00  0.00     0.074 A 
ATOM     53  C   UNL     1       5.199  12.083 -18.989  1.00  0.00     0.029 A 
ATOM     54  N   UNL     1       3.706  11.527 -17.439  1.00  0.00    -0.354 N 
ATOM     55  N   UNL     1       1.367  11.964 -15.720  1.00  0.00    -0.248 NA
ATOM     56  C   UNL     1      -0.276  13.380 -14.851  1.00  0.00     0.031 C 
ATOM     57  C   UNL     1       4.391  13.196 -18.733  1.00  0.00     0.029 A 
ATOM     58  C   UNL     1       3.447  12.843 -17.782  1.00  0.00     0.049 A 
ATOM     59  H   UNL     1       3.195  11.004 -16.779  1.00  0.00     0.167 HD
ATOM     60  C   UNL     1       1.489  13.219 -16.308  1.00  0.00     0.074 A 
ATOM     61  C   UNL     1       0.434  14.043 -15.754  1.00  0.00     0.031 C 
ATOM     62  C   UNL     1       2.391  13.650 -17.224  1.00  0.00     0.037 A 
BRANCH  49  63
ATOM     63  C   UNL     1       6.562   9.389 -18.853  1.00  0.00     0.058 A 
ATOM     64  C   UNL     1       6.490   8.512 -19.947  1.00  0.00     0.135 A 
ATOM     65  C   UNL     1       7.806   9.972 -18.562  1.00  0.00     0.135 A 
ATOM     66  F   UNL     1       5.330   7.912 -20.258  1.00  0.00    -0.206 F 
ATOM     67  C   UNL     1       7.614   8.208 -20.710  1.00  0.00     0.059 A 
ATOM     68  C   UNL     1       8.937   9.702 -19.327  1.00  0.00     0.059 A 
ATOM     69  F   UNL     1       7.931  10.815 -17.525  1.00  0.00    -0.206 F 
ATOM     70  C   UNL     1       8.833   8.808 -20.391  1.00  0.00     0.060 A 
BRANCH  70  71
ATOM     71  S   UNL     1      10.280   8.410 -21.395  1.00  0.00     0.124 S 
ATOM     72  O   UNL     1      10.578   7.052 -20.950  1.00  0.00    -0.237 OA
ATOM     73  O   UNL     1       9.762   8.531 -22.753  1.00  0.00    -0.237 OA
ATOM     74  O   UNL     1      11.254   9.425 -21.006  1.00  0.00    -0.744 OA
ENDBRANCH  70  71
ENDBRANCH  49  63
BRANCH  50  75
ATOM     75  C   UNL     1      -1.415  11.287 -13.142  1.00  0.00     0.058 A 
ATOM     76  C   UNL     1      -2.686  11.528 -13.684  1.00  0.00     0.135 A 
ATOM     77  C   UNL     1      -1.278  11.344 -11.746  1.00  0.00     0.135 A 
ATOM     78  F   UNL     1      -2.864  11.498 -15.014  1.00  0.00    -0.206 F 
ATOM     79  C   UNL     1      -3.778  11.826 -12.876  1.00  0.00     0.059 A 
ATOM     80  C   UNL     1      -2.360  11.616 -10.915  1.00  0.00     0.059 A 
ATOM     81  F   UNL     1      -0.085  11.112 -11.177  1.00  0.00    -0.206 F 
ATOM     82  C   UNL     1      -3.605  11.865 -11.491  1.00  0.00     0.060 A 
BRANCH  82  83
ATOM     83  S   UNL     1      -5.039  12.200 -10.444  1.00  0.00     0.124 S 
ATOM     84  O   UNL     1      -5.226  13.631 -10.651  1.00  0.00    -0.237 OA
ATOM     85  O   UNL     1      -6.055  11.330 -11.030  1.00  0.00    -0.237 OA
ATOM     86  O   UNL     1      -4.581  11.807  -9.115  1.00  0.00    -0.744 OA
ENDBRANCH  82  83
ENDBRANCH  50  75
BRANCH  62  87
ATOM     87  C   UNL     1       2.264  15.068 -17.710  1.00  0.00     0.058 A 
ATOM     88  C   UNL     1       2.623  16.159 -16.904  1.00  0.00     0.135 A 
ATOM     89  C   UNL     1       1.826  15.335 -19.018  1.00  0.00     0.135 A 
ATOM     90  F   UNL     1       3.041  15.960 -15.645  1.00  0.00    -0.206 F 
ATOM     91  C   UNL     1       2.531  17.468 -17.369  1.00  0.00     0.059 A 
ATOM     92  C   UNL     1       1.752  16.634 -19.513  1.00  0.00     0.059 A 
ATOM     93  F   UNL     1       1.481  14.327 -19.835  1.00  0.00    -0.206 F 
ATOM     94  C   UNL     1       2.095  17.695 -18.677  1.00  0.00     0.060 A 
BRANCH  94  95
ATOM     95  S   UNL     1       2.010  19.395 -19.279  1.00  0.00     0.124 S 
ATOM     96  O   UNL     1       0.818  19.889 -18.598  1.00  0.00    -0.237 OA
ATOM     97  O   UNL     1       3.279  19.953 -18.822  1.00  0.00    -0.237 OA
ATOM     98  O   UNL     1       1.888  19.237 -20.725  1.00  0.00    -0.744 OA
ENDBRANCH  94  95
ENDBRANCH  62  87
ENDBRANCH  36  37
ENDBRANCH  29  31
ENDBRANCH  28  29
ENDBRANCH  27  28
ENDBRANCH  26  27
ENDBRANCH  25  26
ENDBRANCH   1  25
TORSDOF 21
