REMARK SMILES Cc1cc(C(=O)OCCOCCOC(=O)c2ccc(-c3c4nc(c(-c5c(F)cc(S(=O)(=O)[O-])cc5F)c5ccc([nH]5)c(-c5c(F)cc(S(=O)(=O)[O-])cc5F)c5nc(c(-c6c(F)cc(S(=O)(=O)[O-])cc6F)c6ccc3[nH]6)C=C5)C=C4)cc2)ccc1NC(=O)c1ccc(=O)n(CCOc2ccccc2)n1
REMARK SMILES IDX 8 1 7 2 5 3 6 4 4 5 1 6 2 7 3 8 84 9 83 10 82 11 85 12 86 13
REMARK SMILES IDX 87 15 88 16 89 17 103 18 90 19 93 20 91 21 92 22 94 23 95 24
REMARK SMILES IDX 96 25 97 26 98 27 102 28 99 29 101 30 100 31 9 32 10 33
REMARK SMILES IDX 11 34 12 35 13 36 14 37 15 38 16 39 17 40 81 41 18 42 80 43
REMARK SMILES IDX 19 44 20 45 21 46 74 47 22 48 79 49 73 50 75 51 23 52 78 53
REMARK SMILES IDX 72 54 71 55 24 57 58 58 37 59 57 60 38 61 41 62 56 63 76 64
REMARK SMILES IDX 39 65 40 66 55 68 77 69 42 70 25 71 26 72 35 73 27 74 28 75
REMARK SMILES IDX 34 76 36 77 29 78 30 79 31 80 32 81 33 82 59 83 60 84 69 85
REMARK SMILES IDX 61 86 62 87 68 88 70 89 63 90 64 91 65 92 66 93 67 94 43 95
REMARK SMILES IDX 44 96 53 97 45 98 46 99 52 100 54 101 47 102 48 103 49 104
REMARK SMILES IDX 50 105 51 106
REMARK H PARENT 85 14 75 56 41 67
REMARK Flexibility Score: inf
ROOT
ATOM      1  C   UNL     1      -3.457  -2.359  -0.882  1.00  0.00     0.261 C 
ENDROOT
BRANCH   1   2
ATOM      2  O   UNL     1      -2.597  -1.686   0.070  1.00  0.00    -0.460 OA
BRANCH   2   3
ATOM      3  C   UNL     1      -1.325  -2.099   0.344  1.00  0.00     0.338 C 
ATOM      4  O   UNL     1      -0.910  -3.196   0.617  1.00  0.00    -0.246 OA
BRANCH   3   5
ATOM      5  C   UNL     1      -0.475  -0.897   0.203  1.00  0.00     0.060 A 
ATOM      6  C   UNL     1       3.144   0.204   0.339  1.00  0.00     0.046 C 
ATOM      7  C   UNL     1       1.646   0.310   0.302  1.00  0.00    -0.027 A 
ATOM      8  C   UNL     1       0.893  -0.880   0.489  1.00  0.00     0.021 A 
ATOM      9  C   UNL     1       0.974   1.471  -0.102  1.00  0.00     0.044 A 
ATOM     10  C   UNL     1      -0.257   1.296  -0.683  1.00  0.00     0.027 A 
ATOM     11  C   UNL     1      -1.028   0.194  -0.437  1.00  0.00     0.018 A 
BRANCH   9  12
ATOM     12  N   UNL     1       1.459   2.785   0.088  1.00  0.00    -0.320 N 
ATOM     13  C   UNL     1       0.718   3.974   0.204  1.00  0.00     0.276 C 
ATOM     14  H   UNL     1       2.437   2.879   0.146  1.00  0.00     0.170 HD
ATOM     15  O   UNL     1       1.271   5.059   0.357  1.00  0.00    -0.267 OA
BRANCH  13  16
ATOM     16  C   UNL     1      -0.814   3.954   0.084  1.00  0.00     0.149 A 
ATOM     17  C   UNL     1      -1.323   4.256  -1.278  1.00  0.00     0.042 A 
ATOM     18  N   UNL     1      -1.572   3.605   1.088  1.00  0.00    -0.164 NA
ATOM     19  C   UNL     1      -2.458   3.630  -1.599  1.00  0.00     0.076 A 
ATOM     20  N   UNL     1      -2.887   3.231   0.743  1.00  0.00    -0.226 N 
ATOM     21  C   UNL     1      -3.179   2.849  -0.566  1.00  0.00     0.266 A 
ATOM     22  O   UNL     1      -4.000   2.011  -0.918  1.00  0.00    -0.268 OA
BRANCH  20  23
ATOM     23  C   UNL     1      -3.825   2.874   1.816  1.00  0.00     0.190 C 
BRANCH  23  24
ATOM     24  C   UNL     1      -4.675   4.058   2.337  1.00  0.00     0.253 C 
BRANCH  24  25
ATOM     25  O   UNL     1      -5.913   4.305   1.626  1.00  0.00    -0.492 OA
BRANCH  25  26
ATOM     26  C   UNL     1      -5.788   5.231   0.631  1.00  0.00     0.119 A 
ATOM     27  C   UNL     1      -6.088   6.574   0.827  1.00  0.00     0.046 A 
ATOM     28  C   UNL     1      -5.474   4.795  -0.646  1.00  0.00     0.046 A 
ATOM     29  C   UNL     1      -5.903   7.484  -0.223  1.00  0.00     0.004 A 
ATOM     30  C   UNL     1      -5.195   5.699  -1.668  1.00  0.00     0.004 A 
ATOM     31  C   UNL     1      -5.395   7.055  -1.451  1.00  0.00     0.000 A 
ENDBRANCH  25  26
ENDBRANCH  24  25
ENDBRANCH  23  24
ENDBRANCH  20  23
ENDBRANCH  13  16
ENDBRANCH   9  12
ENDBRANCH   3   5
ENDBRANCH   2   3
ENDBRANCH   1   2
BRANCH   1  32
ATOM     32  C   UNL     1      -2.883  -2.461  -2.251  1.00  0.00     0.202 C 
BRANCH  32  33
ATOM     33  O   UNL     1      -1.700  -3.231  -2.107  1.00  0.00    -0.374 OA
BRANCH  33  34
ATOM     34  C   UNL     1      -0.967  -3.428  -3.289  1.00  0.00     0.202 C 
BRANCH  34  35
ATOM     35  C   UNL     1      -1.788  -4.116  -4.384  1.00  0.00     0.261 C 
BRANCH  35  36
ATOM     36  O   UNL     1      -2.058  -5.492  -4.030  1.00  0.00    -0.460 OA
BRANCH  36  37
ATOM     37  C   UNL     1      -3.342  -5.798  -3.664  1.00  0.00     0.338 C 
ATOM     38  O   UNL     1      -4.238  -6.003  -4.463  1.00  0.00    -0.246 OA
BRANCH  37  39
ATOM     39  C   UNL     1      -3.453  -5.948  -2.181  1.00  0.00     0.060 A 
ATOM     40  C   UNL     1      -4.686  -5.862  -1.505  1.00  0.00     0.016 A 
ATOM     41  C   UNL     1      -2.278  -6.018  -1.444  1.00  0.00     0.016 A 
ATOM     42  C   UNL     1      -4.727  -5.683  -0.105  1.00  0.00     0.010 A 
ATOM     43  C   UNL     1      -2.318  -5.765  -0.091  1.00  0.00     0.010 A 
ATOM     44  C   UNL     1      -3.530  -5.554   0.594  1.00  0.00    -0.014 A 
BRANCH  44  45
ATOM     45  C   UNL     1      -3.337  -5.113   1.987  1.00  0.00     0.031 A 
ATOM     46  C   UNL     1      -2.560  -6.019   2.868  1.00  0.00     0.074 A 
ATOM     47  C   UNL     1      -3.481  -3.805   2.335  1.00  0.00     0.049 A 
ATOM     48  N   UNL     1      -2.223  -5.726   4.069  1.00  0.00    -0.248 NA
ATOM     49  C   UNL     1      -2.094  -7.352   2.479  1.00  0.00     0.031 C 
ATOM     50  C   UNL     1      -2.743  -3.033   3.344  1.00  0.00     0.029 A 
ATOM     51  N   UNL     1      -4.308  -2.823   1.784  1.00  0.00    -0.354 N 
ATOM     52  C   UNL     1      -1.254  -6.609   4.476  1.00  0.00     0.074 A 
ATOM     53  C   UNL     1      -1.297  -7.670   3.506  1.00  0.00     0.031 C 
ATOM     54  C   UNL     1      -3.334  -1.837   3.537  1.00  0.00     0.029 A 
ATOM     55  C   UNL     1      -4.548  -1.826   2.737  1.00  0.00     0.049 A 
ATOM     56  H   UNL     1      -4.668  -2.832   0.868  1.00  0.00     0.167 HD
ATOM     57  C   UNL     1      -0.478  -6.240   5.533  1.00  0.00     0.037 A 
ATOM     58  C   UNL     1      -5.822  -1.559   3.123  1.00  0.00     0.037 A 
ATOM     59  C   UNL     1      -1.039  -5.029   6.159  1.00  0.00     0.049 A 
ATOM     60  C   UNL     1      -5.904  -2.017   4.548  1.00  0.00     0.074 A 
ATOM     61  C   UNL     1      -0.652  -3.702   6.217  1.00  0.00     0.029 A 
ATOM     62  N   UNL     1      -2.374  -5.060   6.577  1.00  0.00    -0.354 N 
ATOM     63  N   UNL     1      -5.138  -2.969   5.019  1.00  0.00    -0.248 NA
ATOM     64  C   UNL     1      -6.638  -1.311   5.592  1.00  0.00     0.031 C 
ATOM     65  C   UNL     1      -1.811  -2.930   6.556  1.00  0.00     0.029 A 
ATOM     66  C   UNL     1      -2.892  -3.788   6.732  1.00  0.00     0.049 A 
ATOM     67  H   UNL     1      -2.882  -5.887   6.739  1.00  0.00     0.167 HD
ATOM     68  C   UNL     1      -5.129  -2.896   6.374  1.00  0.00     0.074 A 
ATOM     69  C   UNL     1      -6.138  -1.896   6.695  1.00  0.00     0.031 C 
ATOM     70  C   UNL     1      -4.275  -3.600   7.168  1.00  0.00     0.037 A 
BRANCH  57  71
ATOM     71  C   UNL     1       0.841  -6.870   5.944  1.00  0.00     0.058 A 
ATOM     72  C   UNL     1       1.487  -6.442   7.125  1.00  0.00     0.135 A 
ATOM     73  C   UNL     1       1.568  -7.831   5.203  1.00  0.00     0.135 A 
ATOM     74  F   UNL     1       0.937  -5.508   7.915  1.00  0.00    -0.206 F 
ATOM     75  C   UNL     1       2.730  -6.932   7.543  1.00  0.00     0.059 A 
ATOM     76  C   UNL     1       2.792  -8.368   5.622  1.00  0.00     0.059 A 
ATOM     77  F   UNL     1       1.164  -8.265   4.005  1.00  0.00    -0.206 F 
ATOM     78  C   UNL     1       3.373  -7.905   6.791  1.00  0.00     0.060 A 
BRANCH  78  79
ATOM     79  S   UNL     1       4.967  -8.539   7.346  1.00  0.00     0.124 S 
ATOM     80  O   UNL     1       5.819  -7.360   7.228  1.00  0.00    -0.237 OA
ATOM     81  O   UNL     1       4.670  -8.975   8.707  1.00  0.00    -0.237 OA
ATOM     82  O   UNL     1       5.258  -9.613   6.401  1.00  0.00    -0.744 OA
ENDBRANCH  78  79
ENDBRANCH  57  71
BRANCH  58  83
ATOM     83  C   UNL     1      -6.777  -1.653   1.966  1.00  0.00     0.058 A 
ATOM     84  C   UNL     1      -6.724  -0.584   1.037  1.00  0.00     0.135 A 
ATOM     85  C   UNL     1      -7.234  -2.883   1.465  1.00  0.00     0.135 A 
ATOM     86  F   UNL     1      -6.316   0.627   1.450  1.00  0.00    -0.206 F 
ATOM     87  C   UNL     1      -6.930  -0.761  -0.335  1.00  0.00     0.059 A 
ATOM     88  C   UNL     1      -7.443  -3.085   0.088  1.00  0.00     0.059 A 
ATOM     89  F   UNL     1      -7.314  -3.950   2.273  1.00  0.00    -0.206 F 
ATOM     90  C   UNL     1      -7.230  -2.035  -0.810  1.00  0.00     0.060 A 
BRANCH  90  91
ATOM     91  S   UNL     1      -7.085  -2.356  -2.596  1.00  0.00     0.124 S 
ATOM     92  O   UNL     1      -8.335  -1.815  -3.112  1.00  0.00    -0.237 OA
ATOM     93  O   UNL     1      -5.877  -1.617  -2.961  1.00  0.00    -0.237 OA
ATOM     94  O   UNL     1      -6.946  -3.806  -2.662  1.00  0.00    -0.744 OA
ENDBRANCH  90  91
ENDBRANCH  58  83
BRANCH  70  95
ATOM     95  C   UNL     1      -4.746  -4.146   8.483  1.00  0.00     0.058 A 
ATOM     96  C   UNL     1      -6.112  -4.305   8.787  1.00  0.00     0.135 A 
ATOM     97  C   UNL     1      -3.838  -4.699   9.410  1.00  0.00     0.135 A 
ATOM     98  F   UNL     1      -7.080  -3.966   7.922  1.00  0.00    -0.206 F 
ATOM     99  C   UNL     1      -6.545  -4.851   9.984  1.00  0.00     0.059 A 
ATOM    100  C   UNL     1      -4.253  -5.324  10.577  1.00  0.00     0.059 A 
ATOM    101  F   UNL     1      -2.513  -4.670   9.208  1.00  0.00    -0.206 F 
ATOM    102  C   UNL     1      -5.607  -5.345  10.878  1.00  0.00     0.060 A 
BRANCH 102 103
ATOM    103  S   UNL     1      -6.177  -6.009  12.442  1.00  0.00     0.124 S 
ATOM    104  O   UNL     1      -6.364  -4.785  13.214  1.00  0.00    -0.237 OA
ATOM    105  O   UNL     1      -7.400  -6.711  12.063  1.00  0.00    -0.237 OA
ATOM    106  O   UNL     1      -5.075  -6.865  12.868  1.00  0.00    -0.744 OA
ENDBRANCH 102 103
ENDBRANCH  70  95
ENDBRANCH  44  45
ENDBRANCH  37  39
ENDBRANCH  36  37
ENDBRANCH  35  36
ENDBRANCH  34  35
ENDBRANCH  33  34
ENDBRANCH  32  33
ENDBRANCH   1  32
TORSDOF 23
