REMARK SMILES N#CCC[NH2+]C1(C(=O)OCCOCCOC(=O)c2ccc(-c3c4nc(c(-c5c(F)cc(S(=O)(=O)[O-])cc5F)c5ccc([nH]5)c(-c5c(F)cc(S(=O)(=O)[O-])cc5F)c5nc(c(-c6c(F)cc(S(=O)(=O)[O-])cc6F)c6ccc3[nH]6)C=C5)C=C4)cc2)CC1
REMARK SMILES IDX 11 1 10 2 9 3 7 4 8 5 6 6 84 7 85 8 5 9 4 12 3 13 2 14 1 15
REMARK SMILES IDX 12 16 13 17 14 18 15 19 16 20 17 21 18 22 19 23 83 24 20 25
REMARK SMILES IDX 82 26 21 27 22 28 23 29 76 30 24 31 81 32 75 33 77 34 25 35
REMARK SMILES IDX 80 36 74 37 73 38 26 40 60 41 39 42 59 43 40 44 43 45 58 46
REMARK SMILES IDX 78 47 41 48 42 49 57 51 79 52 44 53 27 54 28 55 37 56 29 57
REMARK SMILES IDX 30 58 36 59 38 60 31 61 32 62 33 63 34 64 35 65 61 66 62 67
REMARK SMILES IDX 71 68 63 69 64 70 70 71 72 72 65 73 66 74 67 75 68 76 69 77
REMARK SMILES IDX 45 78 46 79 55 80 47 81 48 82 54 83 56 84 49 85 50 86 51 87
REMARK SMILES IDX 52 88 53 89
REMARK H PARENT 5 10 5 11 77 39 43 50
REMARK Flexibility Score: inf
ROOT
ATOM      1  C   UNL     1       3.921  -1.163   5.273  1.00  0.00     0.202 C 
ENDROOT
BRANCH   1   2
ATOM      2  C   UNL     1       2.994  -2.228   4.656  1.00  0.00     0.261 C 
BRANCH   2   3
ATOM      3  O   UNL     1       3.708  -3.001   3.675  1.00  0.00    -0.459 OA
BRANCH   3   4
ATOM      4  C   UNL     1       2.999  -3.381   2.579  1.00  0.00     0.368 C 
ATOM      5  O   UNL     1       1.782  -3.348   2.457  1.00  0.00    -0.245 OA
BRANCH   4   6
ATOM      6  C   UNL     1       3.904  -3.671   1.389  1.00  0.00     0.194 C 
ATOM      7  C   UNL     1       4.151  -5.126   1.058  1.00  0.00     0.088 C 
ATOM      8  C   UNL     1       5.278  -4.283   1.576  1.00  0.00     0.088 C 
BRANCH   6   9
ATOM      9  N   UNL     1       3.753  -2.675   0.245  1.00  0.00    -0.331 N 
ATOM     10  H   UNL     1       4.322  -2.977  -0.546  1.00  0.00     0.347 HD
ATOM     11  H   UNL     1       2.774  -2.629  -0.038  1.00  0.00     0.347 HD
BRANCH   9  12
ATOM     12  C   UNL     1       4.199  -1.341   0.692  1.00  0.00     0.276 C 
BRANCH  12  13
ATOM     13  C   UNL     1       3.806  -0.070  -0.067  1.00  0.00     0.181 C 
BRANCH  13  14
ATOM     14  C   UNL     1       2.286  -0.070  -0.067  1.00  0.00     0.068 C 
ATOM     15  N   UNL     1       1.025  -0.070  -0.067  1.00  0.00    -0.198 NA
ENDBRANCH  13  14
ENDBRANCH  12  13
ENDBRANCH   9  12
ENDBRANCH   6   9
ENDBRANCH   4   6
ENDBRANCH   3   4
ENDBRANCH   2   3
ENDBRANCH   1   2
BRANCH   1  16
ATOM     16  O   UNL     1       4.347  -0.083   4.428  1.00  0.00    -0.374 OA
BRANCH  16  17
ATOM     17  C   UNL     1       5.246  -0.405   3.378  1.00  0.00     0.202 C 
BRANCH  17  18
ATOM     18  C   UNL     1       6.752  -0.295   3.567  1.00  0.00     0.261 C 
BRANCH  18  19
ATOM     19  O   UNL     1       7.166  -1.073   4.677  1.00  0.00    -0.460 OA
BRANCH  19  20
ATOM     20  C   UNL     1       7.155  -0.350   5.817  1.00  0.00     0.338 C 
ATOM     21  O   UNL     1       7.011   0.856   5.929  1.00  0.00    -0.246 OA
BRANCH  20  22
ATOM     22  C   UNL     1       7.153  -1.274   6.949  1.00  0.00     0.060 A 
ATOM     23  C   UNL     1       6.284  -0.965   7.998  1.00  0.00     0.016 A 
ATOM     24  C   UNL     1       7.994  -2.391   6.994  1.00  0.00     0.016 A 
ATOM     25  C   UNL     1       6.333  -1.713   9.157  1.00  0.00     0.010 A 
ATOM     26  C   UNL     1       8.041  -3.144   8.160  1.00  0.00     0.010 A 
ATOM     27  C   UNL     1       7.258  -2.760   9.260  1.00  0.00    -0.014 A 
BRANCH  27  28
ATOM     28  C   UNL     1       7.535  -3.300  10.600  1.00  0.00     0.031 A 
ATOM     29  C   UNL     1       8.750  -2.801  11.329  1.00  0.00     0.074 A 
ATOM     30  C   UNL     1       6.655  -4.135  11.171  1.00  0.00     0.049 A 
ATOM     31  N   UNL     1       9.159  -3.080  12.536  1.00  0.00    -0.248 NA
ATOM     32  C   UNL     1       9.621  -1.861  10.601  1.00  0.00     0.031 C 
ATOM     33  C   UNL     1       5.431  -4.630  10.540  1.00  0.00     0.029 A 
ATOM     34  N   UNL     1       6.649  -4.698  12.416  1.00  0.00    -0.354 N 
ATOM     35  C   UNL     1      10.332  -2.355  12.712  1.00  0.00     0.074 A 
ATOM     36  C   UNL     1      10.595  -1.657  11.474  1.00  0.00     0.031 C 
ATOM     37  C   UNL     1       4.785  -5.422  11.410  1.00  0.00     0.029 A 
ATOM     38  C   UNL     1       5.565  -5.510  12.641  1.00  0.00     0.049 A 
ATOM     39  H   UNL     1       7.352  -4.538  13.086  1.00  0.00     0.167 HD
ATOM     40  C   UNL     1      11.107  -2.273  13.817  1.00  0.00     0.037 A 
ATOM     41  C   UNL     1       5.255  -6.246  13.723  1.00  0.00     0.037 A 
ATOM     42  C   UNL     1      10.819  -2.979  15.037  1.00  0.00     0.049 A 
ATOM     43  C   UNL     1       6.162  -6.177  14.921  1.00  0.00     0.074 A 
ATOM     44  C   UNL     1      11.525  -2.971  16.226  1.00  0.00     0.029 A 
ATOM     45  N   UNL     1       9.733  -3.826  15.221  1.00  0.00    -0.354 N 
ATOM     46  N   UNL     1       7.261  -5.477  15.085  1.00  0.00    -0.248 NA
ATOM     47  C   UNL     1       5.781  -6.984  16.084  1.00  0.00     0.031 C 
ATOM     48  C   UNL     1      10.899  -3.858  17.108  1.00  0.00     0.029 A 
ATOM     49  C   UNL     1       9.764  -4.367  16.494  1.00  0.00     0.049 A 
ATOM     50  H   UNL     1       9.043  -4.015  14.544  1.00  0.00     0.167 HD
ATOM     51  C   UNL     1       7.689  -5.738  16.382  1.00  0.00     0.074 A 
ATOM     52  C   UNL     1       6.716  -6.646  16.960  1.00  0.00     0.031 C 
ATOM     53  C   UNL     1       8.781  -5.272  17.039  1.00  0.00     0.037 A 
BRANCH  40  54
ATOM     54  C   UNL     1      12.346  -1.422  13.742  1.00  0.00     0.058 A 
ATOM     55  C   UNL     1      12.285  -0.021  13.657  1.00  0.00     0.135 A 
ATOM     56  C   UNL     1      13.617  -2.017  13.777  1.00  0.00     0.135 A 
ATOM     57  F   UNL     1      11.097   0.602  13.594  1.00  0.00    -0.206 F 
ATOM     58  C   UNL     1      13.437   0.756  13.588  1.00  0.00     0.059 A 
ATOM     59  C   UNL     1      14.783  -1.258  13.739  1.00  0.00     0.059 A 
ATOM     60  F   UNL     1      13.736  -3.353  13.846  1.00  0.00    -0.206 F 
ATOM     61  C   UNL     1      14.683   0.127  13.633  1.00  0.00     0.060 A 
BRANCH  61  62
ATOM     62  S   UNL     1      16.169   1.150  13.557  1.00  0.00     0.124 S 
ATOM     63  O   UNL     1      16.141   1.602  12.169  1.00  0.00    -0.237 OA
ATOM     64  O   UNL     1      15.894   2.172  14.562  1.00  0.00    -0.237 OA
ATOM     65  O   UNL     1      17.241   0.218  13.890  1.00  0.00    -0.744 OA
ENDBRANCH  61  62
ENDBRANCH  40  54
BRANCH  41  66
ATOM     66  C   UNL     1       4.038  -7.098  13.712  1.00  0.00     0.058 A 
ATOM     67  C   UNL     1       2.939  -6.811  14.533  1.00  0.00     0.135 A 
ATOM     68  C   UNL     1       3.946  -8.212  12.861  1.00  0.00     0.135 A 
ATOM     69  F   UNL     1       2.980  -5.759  15.364  1.00  0.00    -0.206 F 
ATOM     70  C   UNL     1       1.799  -7.608  14.528  1.00  0.00     0.059 A 
ATOM     71  C   UNL     1       2.805  -9.005  12.816  1.00  0.00     0.059 A 
ATOM     72  F   UNL     1       4.962  -8.518  12.040  1.00  0.00    -0.206 F 
ATOM     73  C   UNL     1       1.741  -8.702  13.663  1.00  0.00     0.060 A 
BRANCH  73  74
ATOM     74  S   UNL     1       0.241  -9.705  13.635  1.00  0.00     0.124 S 
ATOM     75  O   UNL     1       0.327 -10.397  14.915  1.00  0.00    -0.237 OA
ATOM     76  O   UNL     1      -0.802  -8.690  13.524  1.00  0.00    -0.237 OA
ATOM     77  O   UNL     1       0.419 -10.542  12.452  1.00  0.00    -0.744 OA
ENDBRANCH  73  74
ENDBRANCH  41  66
BRANCH  53  78
ATOM     78  C   UNL     1       8.954  -5.710  18.468  1.00  0.00     0.058 A 
ATOM     79  C   UNL     1       9.283  -7.033  18.804  1.00  0.00     0.135 A 
ATOM     80  C   UNL     1       8.809  -4.784  19.514  1.00  0.00     0.135 A 
ATOM     81  F   UNL     1       9.431  -7.958  17.842  1.00  0.00    -0.206 F 
ATOM     82  C   UNL     1       9.412  -7.434  20.129  1.00  0.00     0.059 A 
ATOM     83  C   UNL     1       8.971  -5.154  20.844  1.00  0.00     0.059 A 
ATOM     84  F   UNL     1       8.513  -3.502  19.248  1.00  0.00    -0.206 F 
ATOM     85  C   UNL     1       9.251  -6.487  21.142  1.00  0.00     0.060 A 
BRANCH  85  86
ATOM     86  S   UNL     1       9.420  -7.020  22.858  1.00  0.00     0.124 S 
ATOM     87  O   UNL     1       8.184  -7.772  23.053  1.00  0.00    -0.237 OA
ATOM     88  O   UNL     1      10.645  -7.812  22.819  1.00  0.00    -0.237 OA
ATOM     89  O   UNL     1       9.514  -5.764  23.596  1.00  0.00    -0.744 OA
ENDBRANCH  85  86
ENDBRANCH  53  78
ENDBRANCH  27  28
ENDBRANCH  20  22
ENDBRANCH  19  20
ENDBRANCH  18  19
ENDBRANCH  17  18
ENDBRANCH  16  17
ENDBRANCH   1  16
TORSDOF 21
