REMARK SMILES CC(C)c1nc(OCC(=O)OCCOCCOC(=O)c2ccc(-c3c4nc(c(-c5c(F)cc(S(=O)(=O)[O-])cc5F)c5ccc([nH]5)c(-c5c(F)cc(S(=O)(=O)[O-])cc5F)c5nc(c(-c6c(F)cc(S(=O)(=O)[O-])cc6F)c6ccc3[nH]6)C=C5)C=C4)cc2)cc(-c2ccccn2)n1
REMARK SMILES IDX 14 1 13 2 12 3 11 4 9 5 10 6 8 7 7 8 6 9 4 10 5 11 94 12
REMARK SMILES IDX 87 13 86 14 2 15 1 16 3 17 88 18 89 19 93 20 90 21 92 22
REMARK SMILES IDX 91 23 15 24 16 25 17 26 18 27 19 28 20 29 21 30 85 31 22 32
REMARK SMILES IDX 84 33 23 34 24 35 25 36 78 37 26 38 83 39 77 40 79 41 27 42
REMARK SMILES IDX 82 43 76 44 75 45 28 47 62 48 41 49 61 50 42 51 45 52 60 53
REMARK SMILES IDX 80 54 43 55 44 56 59 58 81 59 46 60 29 61 30 62 39 63 31 64
REMARK SMILES IDX 32 65 38 66 40 67 33 68 34 69 35 70 36 71 37 72 63 73 64 74
REMARK SMILES IDX 73 75 65 76 66 77 72 78 74 79 67 80 68 81 69 82 70 83 71 84
REMARK SMILES IDX 47 85 48 86 57 87 49 88 50 89 56 90 58 91 51 92 52 93 53 94
REMARK SMILES IDX 54 95 55 96
REMARK H PARENT 79 46 45 57
REMARK Flexibility Score: inf
ROOT
ATOM      1  O   UNL     1      -6.057   0.479   2.020  1.00  0.00    -0.374 OA
ENDROOT
BRANCH   1   2
ATOM      2  C   UNL     1      -6.043  -0.820   2.608  1.00  0.00     0.202 C 
BRANCH   2   3
ATOM      3  C   UNL     1      -6.440  -2.000   1.713  1.00  0.00     0.261 C 
BRANCH   3   4
ATOM      4  O   UNL     1      -5.565  -2.166   0.571  1.00  0.00    -0.461 OA
BRANCH   4   5
ATOM      5  C   UNL     1      -6.182  -2.229  -0.642  1.00  0.00     0.344 C 
ATOM      6  O   UNL     1      -7.398  -2.208  -0.809  1.00  0.00    -0.248 OA
BRANCH   5   7
ATOM      7  C   UNL     1      -5.218  -2.330  -1.831  1.00  0.00     0.353 C 
BRANCH   7   8
ATOM      8  O   UNL     1      -3.843  -2.076  -1.670  1.00  0.00    -0.466 OA
BRANCH   8   9
ATOM      9  C   UNL     1      -3.276  -0.886  -2.012  1.00  0.00     0.217 A 
ATOM     10  C   UNL     1      -1.250   0.212  -1.900  1.00  0.00     0.135 A 
ATOM     11  N   UNL     1      -1.943  -0.936  -1.847  1.00  0.00    -0.198 NA
ATOM     12  N   UNL     1      -1.816   1.418  -2.065  1.00  0.00    -0.231 NA
ATOM     13  C   UNL     1      -3.153   1.453  -2.270  1.00  0.00     0.096 A 
ATOM     14  C   UNL     1      -3.931   0.297  -2.289  1.00  0.00     0.099 A 
BRANCH  10  15
ATOM     15  C   UNL     1       0.239   0.159  -1.629  1.00  0.00     0.051 C 
ATOM     16  C   UNL     1       0.507   0.024  -0.129  1.00  0.00     0.016 C 
ATOM     17  C   UNL     1       0.917  -0.976  -2.399  1.00  0.00     0.016 C 
ENDBRANCH  10  15
BRANCH  13  18
ATOM     18  C   UNL     1      -3.758   2.804  -2.280  1.00  0.00     0.089 A 
ATOM     19  C   UNL     1      -4.031   3.491  -1.093  1.00  0.00     0.030 A 
ATOM     20  N   UNL     1      -4.047   3.349  -3.486  1.00  0.00    -0.255 NA
ATOM     21  C   UNL     1      -4.667   4.727  -1.122  1.00  0.00     0.004 A 
ATOM     22  C   UNL     1      -4.594   4.591  -3.487  1.00  0.00     0.112 A 
ATOM     23  C   UNL     1      -4.944   5.300  -2.348  1.00  0.00     0.020 A 
ENDBRANCH  13  18
ENDBRANCH   8   9
ENDBRANCH   7   8
ENDBRANCH   5   7
ENDBRANCH   4   5
ENDBRANCH   3   4
ENDBRANCH   2   3
ENDBRANCH   1   2
BRANCH   1  24
ATOM     24  C   UNL     1      -5.224   0.706   0.897  1.00  0.00     0.202 C 
BRANCH  24  25
ATOM     25  C   UNL     1      -3.703   0.598   1.057  1.00  0.00     0.261 C 
BRANCH  25  26
ATOM     26  O   UNL     1      -3.245  -0.036   2.222  1.00  0.00    -0.460 OA
BRANCH  26  27
ATOM     27  C   UNL     1      -2.958   0.822   3.215  1.00  0.00     0.338 C 
ATOM     28  O   UNL     1      -3.091   2.034   3.246  1.00  0.00    -0.246 OA
BRANCH  27  29
ATOM     29  C   UNL     1      -2.546  -0.029   4.317  1.00  0.00     0.060 A 
ATOM     30  C   UNL     1      -3.250   0.091   5.510  1.00  0.00     0.016 A 
ATOM     31  C   UNL     1      -1.521  -0.968   4.132  1.00  0.00     0.016 A 
ATOM     32  C   UNL     1      -2.878  -0.708   6.571  1.00  0.00     0.010 A 
ATOM     33  C   UNL     1      -1.162  -1.781   5.192  1.00  0.00     0.010 A 
ATOM     34  C   UNL     1      -1.814  -1.613   6.420  1.00  0.00    -0.014 A 
BRANCH  34  35
ATOM     35  C   UNL     1      -1.303  -2.269   7.627  1.00  0.00     0.031 A 
ATOM     36  C   UNL     1      -0.099  -1.680   8.291  1.00  0.00     0.074 A 
ATOM     37  C   UNL     1      -1.998  -3.292   8.145  1.00  0.00     0.049 A 
ATOM     38  N   UNL     1       0.432  -1.980   9.443  1.00  0.00    -0.248 NA
ATOM     39  C   UNL     1       0.600  -0.602   7.566  1.00  0.00     0.031 C 
ATOM     40  C   UNL     1      -3.185  -3.898   7.537  1.00  0.00     0.029 A 
ATOM     41  N   UNL     1      -1.827  -3.978   9.312  1.00  0.00    -0.354 N 
ATOM     42  C   UNL     1       1.516  -1.124   9.588  1.00  0.00     0.074 A 
ATOM     43  C   UNL     1       1.600  -0.325   8.388  1.00  0.00     0.031 C 
ATOM     44  C   UNL     1      -3.655  -4.851   8.357  1.00  0.00     0.029 A 
ATOM     45  C   UNL     1      -2.792  -4.929   9.531  1.00  0.00     0.049 A 
ATOM     46  H   UNL     1      -1.085  -3.807   9.936  1.00  0.00     0.167 HD
ATOM     47  C   UNL     1       2.348  -1.010  10.647  1.00  0.00     0.037 A 
ATOM     48  C   UNL     1      -2.953  -5.756  10.578  1.00  0.00     0.037 A 
ATOM     49  C   UNL     1       2.232  -1.829  11.822  1.00  0.00     0.049 A 
ATOM     50  C   UNL     1      -1.998  -5.624  11.732  1.00  0.00     0.074 A 
ATOM     51  C   UNL     1       3.010  -1.820  12.964  1.00  0.00     0.029 A 
ATOM     52  N   UNL     1       1.268  -2.816  11.999  1.00  0.00    -0.354 N 
ATOM     53  N   UNL     1      -0.991  -4.792  11.876  1.00  0.00    -0.248 NA
ATOM     54  C   UNL     1      -2.207  -6.525  12.868  1.00  0.00     0.031 C 
ATOM     55  C   UNL     1       2.543  -2.830  13.812  1.00  0.00     0.029 A 
ATOM     56  C   UNL     1       1.442  -3.435  13.223  1.00  0.00     0.049 A 
ATOM     57  H   UNL     1       0.565  -3.040  11.348  1.00  0.00     0.167 HD
ATOM     58  C   UNL     1      -0.454  -5.058  13.129  1.00  0.00     0.074 A 
ATOM     59  C   UNL     1      -1.266  -6.112  13.707  1.00  0.00     0.031 C 
ATOM     60  C   UNL     1       0.612  -4.490  13.750  1.00  0.00     0.037 A 
BRANCH  47  61
ATOM     61  C   UNL     1       3.450   0.007  10.557  1.00  0.00     0.058 A 
ATOM     62  C   UNL     1       3.191   1.388  10.601  1.00  0.00     0.135 A 
ATOM     63  C   UNL     1       4.786  -0.402  10.425  1.00  0.00     0.135 A 
ATOM     64  F   UNL     1       1.929   1.837  10.696  1.00  0.00    -0.206 F 
ATOM     65  C   UNL     1       4.215   2.325  10.498  1.00  0.00     0.059 A 
ATOM     66  C   UNL     1       5.829   0.517  10.346  1.00  0.00     0.059 A 
ATOM     67  F   UNL     1       5.090  -1.708  10.362  1.00  0.00    -0.206 F 
ATOM     68  C   UNL     1       5.532   1.879  10.372  1.00  0.00     0.060 A 
BRANCH  68  69
ATOM     69  S   UNL     1       6.851   3.106  10.251  1.00  0.00     0.124 S 
ATOM     70  O   UNL     1       6.649   3.620   8.900  1.00  0.00    -0.237 OA
ATOM     71  O   UNL     1       6.522   4.026  11.335  1.00  0.00    -0.237 OA
ATOM     72  O   UNL     1       8.065   2.320  10.447  1.00  0.00    -0.744 OA
ENDBRANCH  68  69
ENDBRANCH  47  61
BRANCH  48  73
ATOM     73  C   UNL     1      -4.061  -6.745  10.576  1.00  0.00     0.058 A 
ATOM     74  C   UNL     1      -5.153  -6.623  11.447  1.00  0.00     0.135 A 
ATOM     75  C   UNL     1      -4.064  -7.819   9.671  1.00  0.00     0.135 A 
ATOM     76  F   UNL     1      -5.199  -5.611  12.327  1.00  0.00    -0.206 F 
ATOM     77  C   UNL     1      -6.200  -7.538  11.434  1.00  0.00     0.059 A 
ATOM     78  C   UNL     1      -5.111  -8.732   9.622  1.00  0.00     0.059 A 
ATOM     79  F   UNL     1      -3.053  -7.968   8.801  1.00  0.00    -0.206 F 
ATOM     80  C   UNL     1      -6.171  -8.590  10.515  1.00  0.00     0.060 A 
BRANCH  80  81
ATOM     81  S   UNL     1      -7.557  -9.746  10.473  1.00  0.00     0.124 S 
ATOM     82  O   UNL     1      -7.327 -10.524  11.684  1.00  0.00    -0.237 OA
ATOM     83  O   UNL     1      -8.707  -8.848  10.498  1.00  0.00    -0.237 OA
ATOM     84  O   UNL     1      -7.358 -10.461   9.215  1.00  0.00    -0.744 OA
ENDBRANCH  80  81
ENDBRANCH  48  73
BRANCH  60  85
ATOM     85  C   UNL     1       0.933  -4.998  15.126  1.00  0.00     0.058 A 
ATOM     86  C   UNL     1       1.490  -6.270  15.327  1.00  0.00     0.135 A 
ATOM     87  C   UNL     1       0.698  -4.193  16.251  1.00  0.00     0.135 A 
ATOM     88  F   UNL     1       1.730  -7.077  14.281  1.00  0.00    -0.206 F 
ATOM     89  C   UNL     1       1.761  -6.746  16.604  1.00  0.00     0.059 A 
ATOM     90  C   UNL     1       0.991  -4.637  17.535  1.00  0.00     0.059 A 
ATOM     91  F   UNL     1       0.182  -2.962  16.108  1.00  0.00    -0.206 F 
ATOM     92  C   UNL     1       1.503  -5.923  17.702  1.00  0.00     0.060 A 
BRANCH  92  93
ATOM     93  S   UNL     1       1.853  -6.553  19.355  1.00  0.00     0.124 S 
ATOM     94  O   UNL     1       0.735  -7.466  19.562  1.00  0.00    -0.237 OA
ATOM     95  O   UNL     1       3.160  -7.179  19.182  1.00  0.00    -0.237 OA
ATOM     96  O   UNL     1       1.846  -5.351  20.183  1.00  0.00    -0.744 OA
ENDBRANCH  92  93
ENDBRANCH  60  85
ENDBRANCH  34  35
ENDBRANCH  27  29
ENDBRANCH  26  27
ENDBRANCH  25  26
ENDBRANCH  24  25
ENDBRANCH   1  24
TORSDOF 21
