REMARK SMILES CC1=C(C#N)C(=O)N(C)C(=O)/C1=C\Nc1ccc(C(=O)OCCOCCOCCOC(=O)c2ccc(-c3c4nc(c(-c5c(F)cc(S(=O)(=O)[O-])cc5F)c5ccc([nH]5)c(-c5c(F)cc(S(=O)(=O)[O-])cc5F)c5nc(c(-c6c(F)cc(S(=O)(=O)[O-])cc6F)c6ccc3[nH]6)C=C5)C=C4)cc2)c(O)c1
REMARK SMILES IDX 25 1 24 2 23 3 22 4 21 5 19 6 20 7 18 8 15 9 16 10 101 11
REMARK SMILES IDX 17 12 99 13 14 14 13 16 1 17 2 18 3 19 12 20 6 21 10 22 7 23
REMARK SMILES IDX 8 24 11 25 9 26 4 27 5 28 100 29 26 31 27 32 28 33 29 34
REMARK SMILES IDX 30 35 31 36 32 37 33 38 34 39 98 40 35 41 97 42 36 43 37 44
REMARK SMILES IDX 38 45 91 46 39 47 96 48 90 49 92 50 40 51 95 52 89 53 88 54
REMARK SMILES IDX 41 56 75 57 54 58 74 59 55 60 58 61 73 62 93 63 56 64 57 65
REMARK SMILES IDX 72 67 94 68 59 69 42 70 43 71 52 72 44 73 45 74 51 75 53 76
REMARK SMILES IDX 46 77 47 78 48 79 49 80 50 81 76 82 77 83 86 84 78 85 79 86
REMARK SMILES IDX 85 87 87 88 80 89 81 90 82 91 83 92 84 93 60 94 61 95 70 96
REMARK SMILES IDX 62 97 63 98 69 99 71 100 64 101 65 102 66 103 67 104 68 105
REMARK H PARENT 14 15 100 30 92 55 58 66
REMARK Flexibility Score: inf
ROOT
ATOM      1  C   UNL     1       0.148   8.964   1.580  1.00  0.00     0.188 C 
ENDROOT
BRANCH   1   2
ATOM      2  O   UNL     1       0.196  10.371   1.759  1.00  0.00    -0.376 OA
BRANCH   2   3
ATOM      3  C   UNL     1      -0.529  11.230   0.892  1.00  0.00     0.202 C 
BRANCH   3   4
ATOM      4  C   UNL     1      -0.548  11.014  -0.632  1.00  0.00     0.261 C 
BRANCH   4   5
ATOM      5  O   UNL     1      -0.783   9.665  -1.074  1.00  0.00    -0.460 OA
BRANCH   5   6
ATOM      6  C   UNL     1       0.276   9.062  -1.679  1.00  0.00     0.341 C 
ATOM      7  O   UNL     1       1.350   9.580  -1.945  1.00  0.00    -0.246 OA
BRANCH   6   8
ATOM      8  C   UNL     1       0.027   7.609  -1.828  1.00  0.00     0.101 A 
ATOM      9  C   UNL     1      -0.245   4.819  -2.198  1.00  0.00     0.042 A 
ATOM     10  C   UNL     1       0.925   5.349  -1.650  1.00  0.00     0.027 A 
ATOM     11  C   UNL     1      -1.308   5.700  -2.472  1.00  0.00     0.073 A 
ATOM     12  C   UNL     1       1.077   6.735  -1.505  1.00  0.00     0.022 A 
ATOM     13  C   UNL     1      -1.188   7.076  -2.257  1.00  0.00     0.132 A 
BRANCH   9  14
ATOM     14  N   UNL     1      -0.423   3.452  -2.459  1.00  0.00    -0.361 N 
ATOM     15  H   UNL     1      -1.026   3.255  -3.212  1.00  0.00     0.166 HD
BRANCH  14  16
ATOM     16  C   UNL     1       0.102   2.337  -1.840  1.00  0.00     0.097 C 
ATOM     17  C   UNL     1       0.922   0.137  -0.028  1.00  0.00     0.047 C 
ATOM     18  C   UNL     1       0.451  -0.115  -1.446  1.00  0.00    -0.013 C 
ATOM     19  C   UNL     1       0.365  -1.366  -1.957  1.00  0.00     0.121 C 
ATOM     20  C   UNL     1       0.028   1.045  -2.247  1.00  0.00     0.060 C 
ATOM     21  C   UNL     1      -0.091  -1.612  -3.345  1.00  0.00     0.271 C 
ATOM     22  C   UNL     1      -0.566   0.796  -3.615  1.00  0.00     0.262 C 
ATOM     23  O   UNL     1      -0.136  -2.759  -3.787  1.00  0.00    -0.268 OA
ATOM     24  N   UNL     1      -0.476  -0.505  -4.089  1.00  0.00    -0.277 N 
ATOM     25  O   UNL     1      -1.101   1.700  -4.259  1.00  0.00    -0.269 OA
ATOM     26  C   UNL     1      -0.901  -0.765  -5.454  1.00  0.00     0.157 C 
BRANCH  19  27
ATOM     27  C   UNL     1       0.743  -2.584  -1.130  1.00  0.00     0.105 C 
ATOM     28  N   UNL     1       1.056  -3.595  -0.445  1.00  0.00    -0.192 NA
ENDBRANCH  19  27
ENDBRANCH  14  16
ENDBRANCH   9  14
BRANCH  13  29
ATOM     29  O   UNL     1      -2.307   7.833  -2.469  1.00  0.00    -0.507 OA
ATOM     30  H   UNL     1      -2.278   8.760  -2.339  1.00  0.00     0.293 HD
ENDBRANCH  13  29
ENDBRANCH   6   8
ENDBRANCH   5   6
ENDBRANCH   4   5
ENDBRANCH   3   4
ENDBRANCH   2   3
ENDBRANCH   1   2
BRANCH   1  31
ATOM     31  C   UNL     1      -1.217   8.254   1.473  1.00  0.00     0.188 C 
BRANCH  31  32
ATOM     32  O   UNL     1      -2.330   9.114   1.436  1.00  0.00    -0.376 OA
BRANCH  32  33
ATOM     33  C   UNL     1      -2.990   9.455   2.644  1.00  0.00     0.202 C 
BRANCH  33  34
ATOM     34  C   UNL     1      -2.403   9.325   4.068  1.00  0.00     0.261 C 
BRANCH  34  35
ATOM     35  O   UNL     1      -1.140   8.677   4.243  1.00  0.00    -0.460 OA
BRANCH  35  36
ATOM     36  C   UNL     1      -1.174   7.374   4.606  1.00  0.00     0.338 C 
ATOM     37  O   UNL     1      -2.168   6.672   4.736  1.00  0.00    -0.246 OA
BRANCH  36  38
ATOM     38  C   UNL     1       0.209   6.864   4.647  1.00  0.00     0.060 A 
ATOM     39  C   UNL     1       0.619   5.930   3.686  1.00  0.00     0.016 A 
ATOM     40  C   UNL     1       1.092   7.293   5.640  1.00  0.00     0.016 A 
ATOM     41  C   UNL     1       1.912   5.407   3.726  1.00  0.00     0.010 A 
ATOM     42  C   UNL     1       2.381   6.751   5.691  1.00  0.00     0.010 A 
ATOM     43  C   UNL     1       2.789   5.787   4.751  1.00  0.00    -0.014 A 
BRANCH  43  44
ATOM     44  C   UNL     1       4.070   5.061   4.943  1.00  0.00     0.031 A 
ATOM     45  C   UNL     1       4.137   3.986   5.995  1.00  0.00     0.074 A 
ATOM     46  C   UNL     1       5.154   5.347   4.199  1.00  0.00     0.049 A 
ATOM     47  N   UNL     1       5.158   3.273   6.389  1.00  0.00    -0.248 NA
ATOM     48  C   UNL     1       2.880   3.678   6.696  1.00  0.00     0.031 C 
ATOM     49  C   UNL     1       5.206   6.339   3.126  1.00  0.00     0.029 A 
ATOM     50  N   UNL     1       6.428   4.836   4.248  1.00  0.00    -0.354 N 
ATOM     51  C   UNL     1       4.674   2.441   7.392  1.00  0.00     0.074 A 
ATOM     52  C   UNL     1       3.272   2.756   7.562  1.00  0.00     0.031 C 
ATOM     53  C   UNL     1       6.455   6.378   2.630  1.00  0.00     0.029 A 
ATOM     54  C   UNL     1       7.299   5.442   3.373  1.00  0.00     0.049 A 
ATOM     55  H   UNL     1       6.693   4.106   4.852  1.00  0.00     0.167 HD
ATOM     56  C   UNL     1       5.335   1.496   8.101  1.00  0.00     0.037 A 
ATOM     57  C   UNL     1       8.628   5.280   3.212  1.00  0.00     0.037 A 
ATOM     58  C   UNL     1       6.732   1.191   7.932  1.00  0.00     0.049 A 
ATOM     59  C   UNL     1       9.360   4.273   4.065  1.00  0.00     0.074 A 
ATOM     60  C   UNL     1       7.489   0.238   8.591  1.00  0.00     0.029 A 
ATOM     61  N   UNL     1       7.585   1.840   7.052  1.00  0.00    -0.354 N 
ATOM     62  N   UNL     1       8.885   3.473   4.990  1.00  0.00    -0.248 NA
ATOM     63  C   UNL     1      10.809   4.146   3.851  1.00  0.00     0.031 C 
ATOM     64  C   UNL     1       8.812   0.350   8.149  1.00  0.00     0.029 A 
ATOM     65  C   UNL     1       8.867   1.327   7.169  1.00  0.00     0.049 A 
ATOM     66  H   UNL     1       7.319   2.559   6.434  1.00  0.00     0.167 HD
ATOM     67  C   UNL     1       9.970   2.726   5.444  1.00  0.00     0.074 A 
ATOM     68  C   UNL     1      11.123   3.164   4.685  1.00  0.00     0.031 C 
ATOM     69  C   UNL     1      10.006   1.764   6.399  1.00  0.00     0.037 A 
BRANCH  56  70
ATOM     70  C   UNL     1       4.562   0.742   9.149  1.00  0.00     0.058 A 
ATOM     71  C   UNL     1       3.573  -0.195   8.810  1.00  0.00     0.135 A 
ATOM     72  C   UNL     1       4.838   0.937  10.513  1.00  0.00     0.135 A 
ATOM     73  F   UNL     1       3.254  -0.406   7.523  1.00  0.00    -0.206 F 
ATOM     74  C   UNL     1       2.868  -0.893   9.785  1.00  0.00     0.059 A 
ATOM     75  C   UNL     1       4.166   0.228  11.504  1.00  0.00     0.059 A 
ATOM     76  F   UNL     1       5.771   1.824  10.894  1.00  0.00    -0.206 F 
ATOM     77  C   UNL     1       3.173  -0.675  11.130  1.00  0.00     0.060 A 
BRANCH  77  78
ATOM     78  S   UNL     1       2.251  -1.592  12.382  1.00  0.00     0.124 S 
ATOM     79  O   UNL     1       0.939  -0.959  12.299  1.00  0.00    -0.237 OA
ATOM     80  O   UNL     1       2.327  -2.962  11.883  1.00  0.00    -0.237 OA
ATOM     81  O   UNL     1       2.995  -1.333  13.611  1.00  0.00    -0.744 OA
ENDBRANCH  77  78
ENDBRANCH  56  70
BRANCH  57  82
ATOM     82  C   UNL     1       9.364   6.100   2.210  1.00  0.00     0.058 A 
ATOM     83  C   UNL     1       9.924   5.516   1.064  1.00  0.00     0.135 A 
ATOM     84  C   UNL     1       9.531   7.483   2.385  1.00  0.00     0.135 A 
ATOM     85  F   UNL     1       9.804   4.196   0.858  1.00  0.00    -0.206 F 
ATOM     86  C   UNL     1      10.634   6.269   0.135  1.00  0.00     0.059 A 
ATOM     87  C   UNL     1      10.213   8.262   1.455  1.00  0.00     0.059 A 
ATOM     88  F   UNL     1       9.010   8.093   3.461  1.00  0.00    -0.206 F 
ATOM     89  C   UNL     1      10.770   7.643   0.337  1.00  0.00     0.060 A 
BRANCH  89  90
ATOM     90  S   UNL     1      11.653   8.617  -0.902  1.00  0.00     0.124 S 
ATOM     91  O   UNL     1      13.031   8.195  -0.680  1.00  0.00    -0.237 OA
ATOM     92  O   UNL     1      11.037   8.160  -2.144  1.00  0.00    -0.237 OA
ATOM     93  O   UNL     1      11.346   9.994  -0.528  1.00  0.00    -0.744 OA
ENDBRANCH  89  90
ENDBRANCH  57  82
BRANCH  69  94
ATOM     94  C   UNL     1      11.323   1.077   6.653  1.00  0.00     0.058 A 
ATOM     95  C   UNL     1      12.388   1.725   7.296  1.00  0.00     0.135 A 
ATOM     96  C   UNL     1      11.496  -0.273   6.301  1.00  0.00     0.135 A 
ATOM     97  F   UNL     1      12.280   3.015   7.650  1.00  0.00    -0.206 F 
ATOM     98  C   UNL     1      13.587   1.068   7.560  1.00  0.00     0.059 A 
ATOM     99  C   UNL     1      12.674  -0.958   6.583  1.00  0.00     0.059 A 
ATOM    100  F   UNL     1      10.506  -0.946   5.694  1.00  0.00    -0.206 F 
ATOM    101  C   UNL     1      13.719  -0.275   7.202  1.00  0.00     0.060 A 
BRANCH 101 102
ATOM    102  S   UNL     1      15.266  -1.125   7.584  1.00  0.00     0.124 S 
ATOM    103  O   UNL     1      16.175  -0.531   6.609  1.00  0.00    -0.237 OA
ATOM    104  O   UNL     1      15.494  -0.748   8.975  1.00  0.00    -0.237 OA
ATOM    105  O   UNL     1      14.945  -2.532   7.366  1.00  0.00    -0.744 OA
ENDBRANCH 101 102
ENDBRANCH  69  94
ENDBRANCH  43  44
ENDBRANCH  36  38
ENDBRANCH  35  36
ENDBRANCH  34  35
ENDBRANCH  33  34
ENDBRANCH  32  33
ENDBRANCH  31  32
ENDBRANCH   1  31
TORSDOF 24
