REMARK SMILES O=C(CC1(CC(=O)OCCOCCOCCOC(=O)c2ccc(-c3c4nc(c(-c5c(F)cc(S(=O)(=O)[O-])cc5F)c5ccc([nH]5)c(-c5c(F)cc(S(=O)(=O)[O-])cc5F)c5nc(c(-c6c(F)cc(S(=O)(=O)[O-])cc6F)c6ccc3[nH]6)C=C5)C=C4)cc2)CCCC1)N[C@H]1CO[C@H]2[C@@H]1OC[C@@H]2n1nnnc1-c1ccccc1
REMARK SMILES IDX 11 1 10 2 9 3 8 4 6 5 7 6 5 7 4 8 86 9 89 10 87 11 88 12
REMARK SMILES IDX 3 13 2 14 1 15 90 16 91 18 92 19 95 20 93 21 94 22 96 23
REMARK SMILES IDX 98 24 97 25 99 26 100 27 103 28 101 29 102 30 104 31 105 32
REMARK SMILES IDX 109 33 106 34 108 35 107 36 12 37 13 38 14 39 15 40 16 41
REMARK SMILES IDX 17 42 18 43 19 44 20 45 21 46 85 47 22 48 84 49 23 50 24 51
REMARK SMILES IDX 25 52 78 53 26 54 83 55 77 56 79 57 27 58 82 59 76 60 75 61
REMARK SMILES IDX 28 63 62 64 41 65 61 66 42 67 45 68 60 69 80 70 43 71 44 72
REMARK SMILES IDX 59 74 81 75 46 76 29 77 30 78 39 79 31 80 32 81 38 82 40 83
REMARK SMILES IDX 33 84 34 85 35 86 36 87 37 88 63 89 64 90 73 91 65 92 66 93
REMARK SMILES IDX 72 94 74 95 67 96 68 97 69 98 70 99 71 100 47 101 48 102
REMARK SMILES IDX 57 103 49 104 50 105 56 106 58 107 51 108 52 109 53 110
REMARK SMILES IDX 54 111 55 112
REMARK H PARENT 90 17 79 62 45 73
REMARK Flexibility Score: inf
ROOT
ATOM      1  O   UNL     1       5.241   6.687  -1.661  1.00  0.00    -0.376 OA
ENDROOT
BRANCH   1   2
ATOM      2  C   UNL     1       4.043   6.567  -0.895  1.00  0.00     0.202 C 
BRANCH   2   3
ATOM      3  C   UNL     1       2.713   6.667  -1.654  1.00  0.00     0.261 C 
BRANCH   3   4
ATOM      4  O   UNL     1       2.515   5.588  -2.598  1.00  0.00    -0.463 OA
BRANCH   4   5
ATOM      5  C   UNL     1       2.068   5.989  -3.821  1.00  0.00     0.306 C 
ATOM      6  O   UNL     1       1.756   7.141  -4.104  1.00  0.00    -0.252 OA
BRANCH   5   7
ATOM      7  C   UNL     1       2.112   4.898  -4.872  1.00  0.00     0.130 C 
BRANCH   7   8
ATOM      8  C   UNL     1       1.440   3.524  -4.586  1.00  0.00    -0.011 C 
ATOM      9  C   UNL     1       0.973   2.937  -5.946  1.00  0.00     0.008 C 
ATOM     10  C   UNL     1       0.085   3.642  -3.868  1.00  0.00     0.008 C 
ATOM     11  C   UNL     1      -0.339   3.648  -6.270  1.00  0.00     0.001 C 
ATOM     12  C   UNL     1      -0.924   4.072  -4.928  1.00  0.00     0.001 C 
BRANCH   8  13
ATOM     13  C   UNL     1       2.451   2.545  -3.931  1.00  0.00     0.107 C 
BRANCH  13  14
ATOM     14  C   UNL     1       1.976   1.823  -2.678  1.00  0.00     0.220 C 
ATOM     15  O   UNL     1       1.491   0.698  -2.701  1.00  0.00    -0.275 OA
ATOM     16  N   UNL     1       2.091   2.583  -1.540  1.00  0.00    -0.348 N 
ATOM     17  H   UNL     1       2.276   3.544  -1.639  1.00  0.00     0.163 HD
BRANCH  16  18
ATOM     18  C   UNL     1       1.952   2.043  -0.187  1.00  0.00     0.139 C 
ATOM     19  C   UNL     1       2.044   3.188   0.817  1.00  0.00     0.188 C 
ATOM     20  C   UNL     1       0.586   1.470   0.153  1.00  0.00     0.174 C 
ATOM     21  O   UNL     1       0.728   3.753   0.887  1.00  0.00    -0.371 OA
ATOM     22  C   UNL     1      -0.188   2.668   0.678  1.00  0.00     0.176 C 
ATOM     23  O   UNL     1       0.618   0.528   1.244  1.00  0.00    -0.371 OA
ATOM     24  C   UNL     1      -0.757   2.255   2.025  1.00  0.00     0.169 C 
ATOM     25  C   UNL     1      -0.605   0.743   1.976  1.00  0.00     0.191 C 
BRANCH  24  26
ATOM     26  N   UNL     1      -2.065   2.733   2.395  1.00  0.00    -0.217 N 
ATOM     27  N   UNL     1      -2.636   2.202   3.499  1.00  0.00    -0.044 NA
ATOM     28  C   UNL     1      -2.794   3.840   2.002  1.00  0.00     0.182 A 
ATOM     29  N   UNL     1      -3.673   2.973   3.773  1.00  0.00    -0.023 NA
ATOM     30  N   UNL     1      -3.781   3.990   2.865  1.00  0.00    -0.108 NA
BRANCH  28  31
ATOM     31  C   UNL     1      -2.534   4.712   0.865  1.00  0.00     0.021 A 
ATOM     32  C   UNL     1      -1.957   5.973   1.053  1.00  0.00     0.012 A 
ATOM     33  C   UNL     1      -2.824   4.282  -0.438  1.00  0.00     0.012 A 
ATOM     34  C   UNL     1      -1.588   6.750  -0.049  1.00  0.00     0.001 A 
ATOM     35  C   UNL     1      -2.429   5.047  -1.537  1.00  0.00     0.001 A 
ATOM     36  C   UNL     1      -1.796   6.273  -1.343  1.00  0.00     0.000 A 
ENDBRANCH  28  31
ENDBRANCH  24  26
ENDBRANCH  16  18
ENDBRANCH  13  14
ENDBRANCH   8  13
ENDBRANCH   7   8
ENDBRANCH   5   7
ENDBRANCH   4   5
ENDBRANCH   3   4
ENDBRANCH   2   3
ENDBRANCH   1   2
BRANCH   1  37
ATOM     37  C   UNL     1       5.447   5.742  -2.701  1.00  0.00     0.188 C 
BRANCH  37  38
ATOM     38  C   UNL     1       5.705   4.295  -2.270  1.00  0.00     0.188 C 
BRANCH  38  39
ATOM     39  O   UNL     1       4.801   3.784  -1.283  1.00  0.00    -0.376 OA
BRANCH  39  40
ATOM     40  C   UNL     1       5.463   3.381  -0.071  1.00  0.00     0.202 C 
BRANCH  40  41
ATOM     41  C   UNL     1       5.744   1.879  -0.011  1.00  0.00     0.261 C 
BRANCH  41  42
ATOM     42  O   UNL     1       6.648   1.519  -1.052  1.00  0.00    -0.460 OA
BRANCH  42  43
ATOM     43  C   UNL     1       6.061   1.087  -2.196  1.00  0.00     0.338 C 
ATOM     44  O   UNL     1       4.907   0.743  -2.349  1.00  0.00    -0.246 OA
BRANCH  43  45
ATOM     45  C   UNL     1       7.003   1.346  -3.304  1.00  0.00     0.060 A 
ATOM     46  C   UNL     1       6.469   1.567  -4.582  1.00  0.00     0.016 A 
ATOM     47  C   UNL     1       8.375   1.482  -3.068  1.00  0.00     0.016 A 
ATOM     48  C   UNL     1       7.314   1.896  -5.635  1.00  0.00     0.010 A 
ATOM     49  C   UNL     1       9.218   1.818  -4.115  1.00  0.00     0.010 A 
ATOM     50  C   UNL     1       8.691   1.982  -5.405  1.00  0.00    -0.014 A 
BRANCH  50  51
ATOM     51  C   UNL     1       9.627   1.998  -6.540  1.00  0.00     0.031 A 
ATOM     52  C   UNL     1      10.273   0.695  -6.908  1.00  0.00     0.074 A 
ATOM     53  C   UNL     1       9.903   3.143  -7.182  1.00  0.00     0.049 A 
ATOM     54  N   UNL     1      11.220   0.455  -7.770  1.00  0.00    -0.248 NA
ATOM     55  C   UNL     1       9.798  -0.499  -6.184  1.00  0.00     0.031 C 
ATOM     56  C   UNL     1       9.295   4.443  -6.897  1.00  0.00     0.029 A 
ATOM     57  N   UNL     1      10.785   3.396  -8.197  1.00  0.00    -0.354 N 
ATOM     58  C   UNL     1      11.466  -0.910  -7.680  1.00  0.00     0.074 A 
ATOM     59  C   UNL     1      10.600  -1.440  -6.654  1.00  0.00     0.031 C 
ATOM     60  C   UNL     1       9.836   5.363  -7.713  1.00  0.00     0.029 A 
ATOM     61  C   UNL     1      10.853   4.723  -8.544  1.00  0.00     0.049 A 
ATOM     62  H   UNL     1      11.319   2.695  -8.636  1.00  0.00     0.167 HD
ATOM     63  C   UNL     1      12.335  -1.650  -8.404  1.00  0.00     0.037 A 
ATOM     64  C   UNL     1      11.671   5.341  -9.416  1.00  0.00     0.037 A 
ATOM     65  C   UNL     1      13.183  -1.088  -9.419  1.00  0.00     0.049 A 
ATOM     66  C   UNL     1      12.667   4.503 -10.176  1.00  0.00     0.074 A 
ATOM     67  C   UNL     1      14.094  -1.731 -10.235  1.00  0.00     0.029 A 
ATOM     68  N   UNL     1      13.224   0.260  -9.751  1.00  0.00    -0.354 N 
ATOM     69  N   UNL     1      12.882   3.208 -10.104  1.00  0.00    -0.248 NA
ATOM     70  C   UNL     1      13.527   5.202 -11.138  1.00  0.00     0.031 C 
ATOM     71  C   UNL     1      14.727  -0.763 -11.020  1.00  0.00     0.029 A 
ATOM     72  C   UNL     1      14.161   0.474 -10.744  1.00  0.00     0.049 A 
ATOM     73  H   UNL     1      12.667   0.960  -9.340  1.00  0.00     0.167 HD
ATOM     74  C   UNL     1      13.877   2.933 -11.036  1.00  0.00     0.074 A 
ATOM     75  C   UNL     1      14.213   4.197 -11.663  1.00  0.00     0.031 C 
ATOM     76  C   UNL     1      14.459   1.749 -11.351  1.00  0.00     0.037 A 
BRANCH  63  77
ATOM     77  C   UNL     1      12.424  -3.120  -8.099  1.00  0.00     0.058 A 
ATOM     78  C   UNL     1      11.371  -4.005  -8.383  1.00  0.00     0.135 A 
ATOM     79  C   UNL     1      13.587  -3.654  -7.522  1.00  0.00     0.135 A 
ATOM     80  F   UNL     1      10.223  -3.546  -8.908  1.00  0.00    -0.206 F 
ATOM     81  C   UNL     1      11.459  -5.361  -8.085  1.00  0.00     0.059 A 
ATOM     82  C   UNL     1      13.710  -5.013  -7.245  1.00  0.00     0.059 A 
ATOM     83  F   UNL     1      14.619  -2.853  -7.215  1.00  0.00    -0.206 F 
ATOM     84  C   UNL     1      12.635  -5.856  -7.520  1.00  0.00     0.060 A 
BRANCH  84  85
ATOM     85  S   UNL     1      12.739  -7.621  -7.156  1.00  0.00     0.124 S 
ATOM     86  O   UNL     1      11.817  -7.742  -6.031  1.00  0.00    -0.237 OA
ATOM     87  O   UNL     1      12.292  -8.222  -8.409  1.00  0.00    -0.237 OA
ATOM     88  O   UNL     1      14.149  -7.820  -6.835  1.00  0.00    -0.744 OA
ENDBRANCH  84  85
ENDBRANCH  63  77
BRANCH  64  89
ATOM     89  C   UNL     1      11.582   6.812  -9.610  1.00  0.00     0.058 A 
ATOM     90  C   UNL     1      11.120   7.357 -10.817  1.00  0.00     0.135 A 
ATOM     91  C   UNL     1      11.939   7.706  -8.587  1.00  0.00     0.135 A 
ATOM     92  F   UNL     1      10.770   6.546 -11.828  1.00  0.00    -0.206 F 
ATOM     93  C   UNL     1      11.031   8.732 -11.011  1.00  0.00     0.059 A 
ATOM     94  C   UNL     1      11.831   9.084  -8.746  1.00  0.00     0.059 A 
ATOM     95  F   UNL     1      12.371   7.238  -7.405  1.00  0.00    -0.206 F 
ATOM     96  C   UNL     1      11.385   9.588  -9.967  1.00  0.00     0.060 A 
BRANCH  96  97
ATOM     97  S   UNL     1      11.222  11.369 -10.216  1.00  0.00     0.124 S 
ATOM     98  O   UNL     1      12.298  11.633 -11.164  1.00  0.00    -0.237 OA
ATOM     99  O   UNL     1       9.865  11.478 -10.742  1.00  0.00    -0.237 OA
ATOM    100  O   UNL     1      11.413  11.914  -8.876  1.00  0.00    -0.744 OA
ENDBRANCH  96  97
ENDBRANCH  64  89
BRANCH  76 101
ATOM    101  C   UNL     1      15.480   1.756 -12.455  1.00  0.00     0.058 A 
ATOM    102  C   UNL     1      16.753   2.319 -12.285  1.00  0.00     0.135 A 
ATOM    103  C   UNL     1      15.195   1.128 -13.679  1.00  0.00     0.135 A 
ATOM    104  F   UNL     1      17.073   2.934 -11.136  1.00  0.00    -0.206 F 
ATOM    105  C   UNL     1      17.700   2.285 -13.302  1.00  0.00     0.059 A 
ATOM    106  C   UNL     1      16.139   1.051 -14.696  1.00  0.00     0.059 A 
ATOM    107  F   UNL     1      13.995   0.561 -13.886  1.00  0.00    -0.206 F 
ATOM    108  C   UNL     1      17.385   1.644 -14.502  1.00  0.00     0.060 A 
BRANCH 108 109
ATOM    109  S   UNL     1      18.637   1.575 -15.799  1.00  0.00     0.124 S 
ATOM    110  O   UNL     1      18.660   2.960 -16.257  1.00  0.00    -0.237 OA
ATOM    111  O   UNL     1      19.818   1.129 -15.066  1.00  0.00    -0.237 OA
ATOM    112  O   UNL     1      18.093   0.609 -16.747  1.00  0.00    -0.744 OA
ENDBRANCH 108 109
ENDBRANCH  76 101
ENDBRANCH  50  51
ENDBRANCH  43  45
ENDBRANCH  42  43
ENDBRANCH  41  42
ENDBRANCH  40  41
ENDBRANCH  39  40
ENDBRANCH  38  39
ENDBRANCH  37  38
ENDBRANCH   1  37
TORSDOF 26
