REMARK SMILES C[C@@H](O)[C@@H](NC(=O)CN(C)C(=O)c1cccs1)C(=O)OCCOCCOCCOC(=O)c1ccc(-c2c3nc(c(-c4c(F)cc(S(=O)(=O)[O-])cc4F)c4ccc([nH]4)c(-c4c(F)cc(S(=O)(=O)[O-])cc4F)c4nc(c(-c5c(F)cc(S(=O)(=O)[O-])cc5F)c5ccc2[nH]5)C=C4)C=C3)cc1
REMARK SMILES IDX 24 1 23 2 22 3 21 4 20 5 18 6 19 7 4 8 2 9 1 10 3 11 5 13
REMARK SMILES IDX 6 14 7 16 8 17 9 18 10 19 11 20 12 21 13 22 14 23 17 24
REMARK SMILES IDX 15 25 16 26 25 27 26 28 27 29 28 30 29 31 30 32 31 33 32 34
REMARK SMILES IDX 33 35 97 36 34 37 96 38 35 39 36 40 37 41 90 42 38 43 95 44
REMARK SMILES IDX 89 45 91 46 39 47 94 48 88 49 87 50 40 52 74 53 53 54 73 55
REMARK SMILES IDX 54 56 57 57 72 58 92 59 55 60 56 61 71 63 93 64 58 65 41 66
REMARK SMILES IDX 42 67 51 68 43 69 44 70 50 71 52 72 45 73 46 74 47 75 48 76
REMARK SMILES IDX 49 77 75 78 76 79 85 80 77 81 78 82 84 83 86 84 79 85 80 86
REMARK SMILES IDX 81 87 82 88 83 89 59 90 60 91 69 92 61 93 62 94 68 95 70 96
REMARK SMILES IDX 63 97 64 98 65 99 66 100 67 101
REMARK H PARENT 3 12 5 15 91 51 57 62
REMARK Flexibility Score: inf
ROOT
ATOM      1  C   UNL     1      -1.769  -2.947   4.644  1.00  0.00     0.188 C 
ENDROOT
BRANCH   1   2
ATOM      2  O   UNL     1      -2.657  -4.051   4.479  1.00  0.00    -0.376 OA
BRANCH   2   3
ATOM      3  C   UNL     1      -3.008  -4.404   3.142  1.00  0.00     0.202 C 
BRANCH   3   4
ATOM      4  C   UNL     1      -3.644  -3.277   2.324  1.00  0.00     0.261 C 
BRANCH   4   5
ATOM      5  O   UNL     1      -2.615  -2.503   1.671  1.00  0.00    -0.462 OA
BRANCH   5   6
ATOM      6  C   UNL     1      -3.078  -1.529   0.847  1.00  0.00     0.331 C 
ATOM      7  O   UNL     1      -4.272  -1.271   0.723  1.00  0.00    -0.250 OA
BRANCH   6   8
ATOM      8  C   UNL     1      -2.005  -0.937  -0.084  1.00  0.00     0.221 C 
BRANCH   8   9
ATOM      9  C   UNL     1      -0.532  -0.837   0.376  1.00  0.00     0.145 C 
ATOM     10  C   UNL     1       0.258   0.142  -0.503  1.00  0.00     0.041 C 
BRANCH   9  11
ATOM     11  O   UNL     1      -0.430  -0.392   1.727  1.00  0.00    -0.391 OA
ATOM     12  H   UNL     1      -0.800   0.502   1.802  1.00  0.00     0.211 HD
ENDBRANCH   9  11
ENDBRANCH   8   9
BRANCH   8  13
ATOM     13  N   UNL     1      -2.123  -1.440  -1.468  1.00  0.00    -0.339 N 
ATOM     14  C   UNL     1      -1.835  -2.647  -2.036  1.00  0.00     0.240 C 
ATOM     15  H   UNL     1      -2.477  -0.777  -2.103  1.00  0.00     0.164 HD
ATOM     16  O   UNL     1      -1.542  -2.625  -3.235  1.00  0.00    -0.273 OA
BRANCH  14  17
ATOM     17  C   UNL     1      -1.891  -3.970  -1.252  1.00  0.00     0.219 C 
BRANCH  17  18
ATOM     18  N   UNL     1      -0.619  -4.578  -0.847  1.00  0.00    -0.332 N 
ATOM     19  C   UNL     1      -0.209  -4.440   0.537  1.00  0.00     0.147 C 
BRANCH  18  20
ATOM     20  C   UNL     1       0.063  -5.432  -1.728  1.00  0.00     0.264 C 
ATOM     21  O   UNL     1      -0.286  -5.588  -2.892  1.00  0.00    -0.268 OA
BRANCH  20  22
ATOM     22  C   UNL     1       1.178  -6.167  -1.143  1.00  0.00     0.092 A 
ATOM     23  C   UNL     1       1.139  -7.162  -0.183  1.00  0.00     0.025 A 
ATOM     24  S   UNL     1       2.782  -5.762  -1.571  1.00  0.00    -0.139 S 
ATOM     25  C   UNL     1       2.438  -7.501   0.293  1.00  0.00     0.012 A 
ATOM     26  C   UNL     1       3.423  -6.801  -0.368  1.00  0.00     0.065 A 
ENDBRANCH  20  22
ENDBRANCH  18  20
ENDBRANCH  17  18
ENDBRANCH  14  17
ENDBRANCH   8  13
ENDBRANCH   6   8
ENDBRANCH   5   6
ENDBRANCH   4   5
ENDBRANCH   3   4
ENDBRANCH   2   3
ENDBRANCH   1   2
BRANCH   1  27
ATOM     27  C   UNL     1      -0.445  -3.040   3.880  1.00  0.00     0.188 C 
BRANCH  27  28
ATOM     28  O   UNL     1       0.159  -4.331   3.813  1.00  0.00    -0.376 OA
BRANCH  28  29
ATOM     29  C   UNL     1       0.517  -4.922   5.064  1.00  0.00     0.202 C 
BRANCH  29  30
ATOM     30  C   UNL     1       1.792  -4.327   5.666  1.00  0.00     0.261 C 
BRANCH  30  31
ATOM     31  O   UNL     1       1.464  -3.088   6.315  1.00  0.00    -0.460 OA
BRANCH  31  32
ATOM     32  C   UNL     1       2.131  -1.992   5.882  1.00  0.00     0.338 C 
ATOM     33  O   UNL     1       3.098  -1.968   5.140  1.00  0.00    -0.246 OA
BRANCH  32  34
ATOM     34  C   UNL     1       1.348  -0.789   6.256  1.00  0.00     0.060 A 
ATOM     35  C   UNL     1       1.360   0.294   5.369  1.00  0.00     0.016 A 
ATOM     36  C   UNL     1       0.572  -0.737   7.420  1.00  0.00     0.016 A 
ATOM     37  C   UNL     1       0.630   1.444   5.662  1.00  0.00     0.010 A 
ATOM     38  C   UNL     1      -0.156   0.418   7.716  1.00  0.00     0.010 A 
ATOM     39  C   UNL     1      -0.101   1.524   6.854  1.00  0.00    -0.014 A 
BRANCH  39  40
ATOM     40  C   UNL     1      -0.630   2.838   7.286  1.00  0.00     0.031 A 
ATOM     41  C   UNL     1       0.229   3.685   8.184  1.00  0.00     0.074 A 
ATOM     42  C   UNL     1      -1.821   3.290   6.858  1.00  0.00     0.049 A 
ATOM     43  N   UNL     1       0.016   4.892   8.637  1.00  0.00    -0.248 NA
ATOM     44  C   UNL     1       1.501   3.089   8.626  1.00  0.00     0.031 C 
ATOM     45  C   UNL     1      -2.740   2.567   5.980  1.00  0.00     0.029 A 
ATOM     46  N   UNL     1      -2.459   4.479   7.109  1.00  0.00    -0.354 N 
ATOM     47  C   UNL     1       1.131   5.206   9.404  1.00  0.00     0.074 A 
ATOM     48  C   UNL     1       2.000   4.049   9.389  1.00  0.00     0.031 C 
ATOM     49  C   UNL     1      -3.829   3.329   5.768  1.00  0.00     0.029 A 
ATOM     50  C   UNL     1      -3.684   4.588   6.497  1.00  0.00     0.049 A 
ATOM     51  H   UNL     1      -2.074   5.187   7.674  1.00  0.00     0.167 HD
ATOM     52  C   UNL     1       1.418   6.360  10.049  1.00  0.00     0.037 A 
ATOM     53  C   UNL     1      -4.581   5.593   6.526  1.00  0.00     0.037 A 
ATOM     54  C   UNL     1       0.553   7.506  10.079  1.00  0.00     0.049 A 
ATOM     55  C   UNL     1      -4.261   6.852   7.291  1.00  0.00     0.074 A 
ATOM     56  C   UNL     1       0.757   8.725  10.700  1.00  0.00     0.029 A 
ATOM     57  N   UNL     1      -0.689   7.570   9.466  1.00  0.00    -0.354 N 
ATOM     58  N   UNL     1      -3.182   7.152   7.974  1.00  0.00    -0.248 NA
ATOM     59  C   UNL     1      -5.279   7.913   7.279  1.00  0.00     0.031 C 
ATOM     60  C   UNL     1      -0.377   9.518  10.486  1.00  0.00     0.029 A 
ATOM     61  C   UNL     1      -1.272   8.802   9.707  1.00  0.00     0.049 A 
ATOM     62  H   UNL     1      -1.097   6.846   8.939  1.00  0.00     0.167 HD
ATOM     63  C   UNL     1      -3.382   8.443   8.453  1.00  0.00     0.074 A 
ATOM     64  C   UNL     1      -4.681   8.870   7.975  1.00  0.00     0.031 C 
ATOM     65  C   UNL     1      -2.564   9.208   9.218  1.00  0.00     0.037 A 
BRANCH  52  66
ATOM     66  C   UNL     1       2.724   6.418  10.783  1.00  0.00     0.058 A 
ATOM     67  C   UNL     1       3.940   6.561  10.095  1.00  0.00     0.135 A 
ATOM     68  C   UNL     1       2.764   6.313  12.181  1.00  0.00     0.135 A 
ATOM     69  F   UNL     1       3.953   6.638   8.755  1.00  0.00    -0.206 F 
ATOM     70  C   UNL     1       5.156   6.569  10.768  1.00  0.00     0.059 A 
ATOM     71  C   UNL     1       3.969   6.338  12.877  1.00  0.00     0.059 A 
ATOM     72  F   UNL     1       1.629   6.164  12.880  1.00  0.00    -0.206 F 
ATOM     73  C   UNL     1       5.160   6.449  12.159  1.00  0.00     0.060 A 
BRANCH  73  74
ATOM     74  S   UNL     1       6.745   6.438  13.023  1.00  0.00     0.124 S 
ATOM     75  O   UNL     1       7.200   5.074  12.772  1.00  0.00    -0.237 OA
ATOM     76  O   UNL     1       7.487   7.490  12.335  1.00  0.00    -0.237 OA
ATOM     77  O   UNL     1       6.378   6.734  14.404  1.00  0.00    -0.744 OA
ENDBRANCH  73  74
ENDBRANCH  52  66
BRANCH  53  78
ATOM     78  C   UNL     1      -5.869   5.463   5.798  1.00  0.00     0.058 A 
ATOM     79  C   UNL     1      -6.111   6.182   4.619  1.00  0.00     0.135 A 
ATOM     80  C   UNL     1      -6.890   4.630   6.281  1.00  0.00     0.135 A 
ATOM     81  F   UNL     1      -5.167   6.999   4.127  1.00  0.00    -0.206 F 
ATOM     82  C   UNL     1      -7.327   6.095   3.951  1.00  0.00     0.059 A 
ATOM     83  C   UNL     1      -8.108   4.513   5.620  1.00  0.00     0.059 A 
ATOM     84  F   UNL     1      -6.701   3.916   7.401  1.00  0.00    -0.206 F 
ATOM     85  C   UNL     1      -8.322   5.259   4.462  1.00  0.00     0.060 A 
BRANCH  85  86
ATOM     86  S   UNL     1      -9.888   5.122   3.571  1.00  0.00     0.124 S 
ATOM     87  O   UNL     1     -10.566   6.346   3.982  1.00  0.00    -0.237 OA
ATOM     88  O   UNL     1      -9.450   5.070   2.180  1.00  0.00    -0.237 OA
ATOM     89  O   UNL     1     -10.455   3.880   4.088  1.00  0.00    -0.744 OA
ENDBRANCH  85  86
ENDBRANCH  53  78
BRANCH  65  90
ATOM     90  C   UNL     1      -3.038  10.591   9.565  1.00  0.00     0.058 A 
ATOM     91  C   UNL     1      -4.018  10.805  10.545  1.00  0.00     0.135 A 
ATOM     92  C   UNL     1      -2.473  11.714   8.940  1.00  0.00     0.135 A 
ATOM     93  F   UNL     1      -4.590   9.763  11.168  1.00  0.00    -0.206 F 
ATOM     94  C   UNL     1      -4.440  12.088  10.880  1.00  0.00     0.059 A 
ATOM     95  C   UNL     1      -2.866  13.006   9.274  1.00  0.00     0.059 A 
ATOM     96  F   UNL     1      -1.523  11.561   8.005  1.00  0.00    -0.206 F 
ATOM     97  C   UNL     1      -3.860  13.182  10.235  1.00  0.00     0.060 A 
BRANCH  97  98
ATOM     98  S   UNL     1      -4.392  14.847  10.691  1.00  0.00     0.124 S 
ATOM     99  O   UNL     1      -5.631  14.976   9.932  1.00  0.00    -0.237 OA
ATOM    100  O   UNL     1      -4.544  14.747  12.140  1.00  0.00    -0.237 OA
ATOM    101  O   UNL     1      -3.287  15.688  10.242  1.00  0.00    -0.744 OA
ENDBRANCH  97  98
ENDBRANCH  65  90
ENDBRANCH  39  40
ENDBRANCH  32  34
ENDBRANCH  31  32
ENDBRANCH  30  31
ENDBRANCH  29  30
ENDBRANCH  28  29
ENDBRANCH  27  28
ENDBRANCH   1  27
TORSDOF 27
