REMARK SMILES O=C(OCCOCCOCCOC(=O)[C@@]12C[C@H]3C[C@@H](C1)C[C@](n1cc([N+](=O)[O-])cn1)(C3)C2)c1ccc(-c2c3nc(c(-c4c(F)cc(S(=O)(=O)[O-])cc4F)c4ccc([nH]4)c(-c4c(F)cc(S(=O)(=O)[O-])cc4F)c4nc(c(-c5c(F)cc(S(=O)(=O)[O-])cc5F)c5ccc2[nH]5)C=C4)C=C3)cc1
REMARK SMILES IDX 7 1 6 2 5 3 4 4 3 5 2 6 1 7 33 8 34 9 98 10 35 11 97 12
REMARK SMILES IDX 36 13 37 14 38 15 91 16 39 17 96 18 90 19 92 20 40 21 95 22
REMARK SMILES IDX 89 23 88 24 41 26 75 27 54 28 74 29 55 30 58 31 73 32 93 33
REMARK SMILES IDX 56 34 57 35 72 37 94 38 59 39 42 40 43 41 52 42 44 43 45 44
REMARK SMILES IDX 51 45 53 46 46 47 47 48 48 49 49 50 50 51 76 52 77 53 86 54
REMARK SMILES IDX 78 55 79 56 85 57 87 58 80 59 81 60 82 61 83 62 84 63 60 64
REMARK SMILES IDX 61 65 70 66 62 67 63 68 69 69 71 70 64 71 65 72 66 73 67 74
REMARK SMILES IDX 68 75 8 76 9 77 10 78 11 79 12 80 13 81 14 82 15 83 16 84
REMARK SMILES IDX 20 85 32 86 17 87 19 88 22 89 18 90 31 91 21 92 23 93 24 94
REMARK SMILES IDX 30 95 25 96 29 97 26 98 27 99 28 100
REMARK H PARENT 92 25 58 36
REMARK Flexibility Score: inf
ROOT
ATOM      1  C   UNL     1       3.368   0.811  -0.923  1.00  0.00     0.188 C 
ENDROOT
BRANCH   1   2
ATOM      2  O   UNL     1       4.758   0.630  -0.963  1.00  0.00    -0.376 OA
BRANCH   2   3
ATOM      3  C   UNL     1       5.403  -0.483  -0.389  1.00  0.00     0.202 C 
BRANCH   3   4
ATOM      4  C   UNL     1       4.702  -1.723   0.175  1.00  0.00     0.261 C 
BRANCH   4   5
ATOM      5  O   UNL     1       3.311  -1.881  -0.086  1.00  0.00    -0.460 OA
BRANCH   5   6
ATOM      6  C   UNL     1       2.223  -1.601   0.660  1.00  0.00     0.338 C 
ATOM      7  O   UNL     1       1.129  -1.992   0.255  1.00  0.00    -0.246 OA
BRANCH   6   8
ATOM      8  C   UNL     1       2.226  -0.728   1.865  1.00  0.00     0.060 A 
ATOM      9  C   UNL     1       3.315  -0.481   2.699  1.00  0.00     0.016 A 
ATOM     10  C   UNL     1       0.971  -0.171   2.193  1.00  0.00     0.016 A 
ATOM     11  C   UNL     1       3.097   0.036   3.960  1.00  0.00     0.010 A 
ATOM     12  C   UNL     1       0.753   0.377   3.439  1.00  0.00     0.010 A 
ATOM     13  C   UNL     1       1.797   0.347   4.349  1.00  0.00    -0.014 A 
BRANCH  13  14
ATOM     14  C   UNL     1       1.566   0.619   5.752  1.00  0.00     0.031 A 
ATOM     15  C   UNL     1       2.188   1.877   6.215  1.00  0.00     0.074 A 
ATOM     16  C   UNL     1       0.821  -0.218   6.500  1.00  0.00     0.049 A 
ATOM     17  N   UNL     1       3.224   2.013   6.975  1.00  0.00    -0.248 NA
ATOM     18  C   UNL     1       1.746   3.127   5.579  1.00  0.00     0.031 C 
ATOM     19  C   UNL     1       0.008  -1.350   6.040  1.00  0.00     0.029 A 
ATOM     20  N   UNL     1       0.548  -0.177   7.831  1.00  0.00    -0.354 N 
ATOM     21  C   UNL     1       3.368   3.385   7.150  1.00  0.00     0.074 A 
ATOM     22  C   UNL     1       2.619   3.998   6.087  1.00  0.00     0.031 C 
ATOM     23  C   UNL     1      -0.845  -1.718   7.021  1.00  0.00     0.029 A 
ATOM     24  C   UNL     1      -0.550  -0.946   8.213  1.00  0.00     0.049 A 
ATOM     25  H   UNL     1       1.080   0.349   8.470  1.00  0.00     0.167 HD
ATOM     26  C   UNL     1       3.799   3.883   8.342  1.00  0.00     0.037 A 
ATOM     27  C   UNL     1      -1.210  -0.863   9.398  1.00  0.00     0.037 A 
ATOM     28  C   UNL     1       4.504   2.867   9.093  1.00  0.00     0.049 A 
ATOM     29  C   UNL     1      -0.277  -0.221  10.365  1.00  0.00     0.074 A 
ATOM     30  C   UNL     1       5.597   2.056   8.849  1.00  0.00     0.029 A 
ATOM     31  N   UNL     1       3.855   2.301  10.165  1.00  0.00    -0.354 N 
ATOM     32  N   UNL     1       0.829  -0.782  10.780  1.00  0.00    -0.248 NA
ATOM     33  C   UNL     1      -0.314   1.230  10.478  1.00  0.00     0.031 C 
ATOM     34  C   UNL     1       5.281   0.809   9.464  1.00  0.00     0.029 A 
ATOM     35  C   UNL     1       4.054   0.947  10.113  1.00  0.00     0.049 A 
ATOM     36  H   UNL     1       3.337   2.784  10.849  1.00  0.00     0.167 HD
ATOM     37  C   UNL     1       1.767   0.241  10.792  1.00  0.00     0.074 A 
ATOM     38  C   UNL     1       0.987   1.472  10.666  1.00  0.00     0.031 C 
ATOM     39  C   UNL     1       3.095  -0.018  10.602  1.00  0.00     0.037 A 
BRANCH  26  40
ATOM     40  C   UNL     1       3.171   5.093   9.019  1.00  0.00     0.058 A 
ATOM     41  C   UNL     1       3.669   5.484  10.281  1.00  0.00     0.135 A 
ATOM     42  C   UNL     1       1.927   5.664   8.663  1.00  0.00     0.135 A 
ATOM     43  F   UNL     1       4.862   5.043  10.713  1.00  0.00    -0.206 F 
ATOM     44  C   UNL     1       2.921   6.246  11.177  1.00  0.00     0.059 A 
ATOM     45  C   UNL     1       1.186   6.463   9.523  1.00  0.00     0.059 A 
ATOM     46  F   UNL     1       1.315   5.425   7.500  1.00  0.00    -0.206 F 
ATOM     47  C   UNL     1       1.665   6.703  10.797  1.00  0.00     0.060 A 
BRANCH  47  48
ATOM     48  S   UNL     1       0.635   7.576  11.985  1.00  0.00     0.124 S 
ATOM     49  O   UNL     1       0.322   6.504  12.929  1.00  0.00    -0.237 OA
ATOM     50  O   UNL     1       1.553   8.605  12.471  1.00  0.00    -0.237 OA
ATOM     51  O   UNL     1      -0.473   8.057  11.180  1.00  0.00    -0.744 OA
ENDBRANCH  47  48
ENDBRANCH  26  40
BRANCH  27  52
ATOM     52  C   UNL     1      -2.684  -0.931   9.616  1.00  0.00     0.058 A 
ATOM     53  C   UNL     1      -3.232  -0.996  10.910  1.00  0.00     0.135 A 
ATOM     54  C   UNL     1      -3.598  -0.658   8.576  1.00  0.00     0.135 A 
ATOM     55  F   UNL     1      -2.437  -1.231  11.966  1.00  0.00    -0.206 F 
ATOM     56  C   UNL     1      -4.590  -0.757  11.163  1.00  0.00     0.059 A 
ATOM     57  C   UNL     1      -4.955  -0.431   8.802  1.00  0.00     0.059 A 
ATOM     58  F   UNL     1      -3.188  -0.509   7.308  1.00  0.00    -0.206 F 
ATOM     59  C   UNL     1      -5.441  -0.455  10.101  1.00  0.00     0.060 A 
BRANCH  59  60
ATOM     60  S   UNL     1      -7.155   0.024  10.429  1.00  0.00     0.124 S 
ATOM     61  O   UNL     1      -7.740  -1.234  10.878  1.00  0.00    -0.237 OA
ATOM     62  O   UNL     1      -6.999   1.056  11.448  1.00  0.00    -0.237 OA
ATOM     63  O   UNL     1      -7.627   0.502   9.132  1.00  0.00    -0.744 OA
ENDBRANCH  59  60
ENDBRANCH  27  52
BRANCH  39  64
ATOM     64  C   UNL     1       3.568  -1.444  10.705  1.00  0.00     0.058 A 
ATOM     65  C   UNL     1       3.187  -2.480   9.835  1.00  0.00     0.135 A 
ATOM     66  C   UNL     1       4.572  -1.730  11.642  1.00  0.00     0.135 A 
ATOM     67  F   UNL     1       2.314  -2.259   8.841  1.00  0.00    -0.206 F 
ATOM     68  C   UNL     1       3.747  -3.757   9.925  1.00  0.00     0.059 A 
ATOM     69  C   UNL     1       5.168  -2.984  11.728  1.00  0.00     0.059 A 
ATOM     70  F   UNL     1       5.027  -0.764  12.457  1.00  0.00    -0.206 F 
ATOM     71  C   UNL     1       4.740  -3.998  10.876  1.00  0.00     0.060 A 
BRANCH  71  72
ATOM     72  S   UNL     1       5.515  -5.627  10.950  1.00  0.00     0.124 S 
ATOM     73  O   UNL     1       4.438  -6.457  11.478  1.00  0.00    -0.237 OA
ATOM     74  O   UNL     1       5.877  -5.868   9.555  1.00  0.00    -0.237 OA
ATOM     75  O   UNL     1       6.648  -5.426  11.851  1.00  0.00    -0.744 OA
ENDBRANCH  71  72
ENDBRANCH  39  64
ENDBRANCH  13  14
ENDBRANCH   6   8
ENDBRANCH   5   6
ENDBRANCH   4   5
ENDBRANCH   3   4
ENDBRANCH   2   3
ENDBRANCH   1   2
BRANCH   1  76
ATOM     76  C   UNL     1       2.488   0.201  -2.041  1.00  0.00     0.188 C 
BRANCH  76  77
ATOM     77  O   UNL     1       2.934   0.032  -3.383  1.00  0.00    -0.376 OA
BRANCH  77  78
ATOM     78  C   UNL     1       4.256   0.363  -3.749  1.00  0.00     0.202 C 
BRANCH  78  79
ATOM     79  C   UNL     1       4.485   1.847  -4.044  1.00  0.00     0.261 C 
BRANCH  79  80
ATOM     80  O   UNL     1       4.147   2.740  -2.969  1.00  0.00    -0.463 OA
BRANCH  80  81
ATOM     81  C   UNL     1       2.838   3.099  -2.907  1.00  0.00     0.312 C 
ATOM     82  O   UNL     1       1.976   2.720  -3.694  1.00  0.00    -0.252 OA
BRANCH  81  83
ATOM     83  C   UNL     1       2.553   4.156  -1.826  1.00  0.00     0.071 C 
ATOM     84  C   UNL     1       1.374   3.845  -0.878  1.00  0.00     0.022 C 
ATOM     85  C   UNL     1       3.756   4.661  -1.001  1.00  0.00     0.022 C 
ATOM     86  C   UNL     1       2.109   5.277  -2.733  1.00  0.00     0.049 C 
ATOM     87  C   UNL     1       0.978   5.119  -0.090  1.00  0.00    -0.007 C 
ATOM     88  C   UNL     1       3.363   5.919  -0.194  1.00  0.00    -0.007 C 
ATOM     89  C   UNL     1       1.741   6.585  -2.029  1.00  0.00     0.065 C 
ATOM     90  C   UNL     1       2.189   5.576   0.740  1.00  0.00     0.007 C 
ATOM     91  C   UNL     1       0.566   6.253  -1.065  1.00  0.00     0.034 C 
ATOM     92  C   UNL     1       2.940   7.046  -1.166  1.00  0.00     0.034 C 
BRANCH  89  93
ATOM     93  N   UNL     1       1.425   7.511  -3.156  1.00  0.00    -0.259 N 
ATOM     94  C   UNL     1       2.300   7.588  -4.257  1.00  0.00     0.195 A 
ATOM     95  N   UNL     1       0.140   7.569  -3.611  1.00  0.00    -0.173 NA
ATOM     96  C   UNL     1       1.574   6.962  -5.264  1.00  0.00     0.307 A 
ATOM     97  C   UNL     1       0.234   7.095  -4.864  1.00  0.00     0.220 A 
BRANCH  96  98
ATOM     98  N   UNL     1       2.097   6.163  -6.333  1.00  0.00     0.066 N 
ATOM     99  O   UNL     1       1.291   5.758  -7.179  1.00  0.00    -0.258 OA
ATOM    100  O   UNL     1       3.304   5.887  -6.290  1.00  0.00    -0.258 OA
ENDBRANCH  96  98
ENDBRANCH  89  93
ENDBRANCH  81  83
ENDBRANCH  80  81
ENDBRANCH  79  80
ENDBRANCH  78  79
ENDBRANCH  77  78
ENDBRANCH  76  77
ENDBRANCH   1  76
TORSDOF 22
