REMARK SMILES COc1c(C)cccc1C(=O)NC(=S)Nc1ccc(C(=O)OCCOCCOCCOC(=O)c2ccc(-c3c4nc(c(-c5c(F)cc(S(=O)(=O)[O-])cc5F)c5ccc([nH]5)c(-c5c(F)cc(S(=O)(=O)[O-])cc5F)c5nc(c(-c6c(F)cc(S(=O)(=O)[O-])cc6F)c6ccc3[nH]6)C=C5)C=C4)cc2)cc1C
REMARK SMILES IDX 26 1 25 2 24 3 23 4 22 5 20 6 21 7 19 8 16 9 17 10 101 11
REMARK SMILES IDX 18 12 100 13 102 14 15 15 13 17 14 18 12 19 10 20 11 21 9 23
REMARK SMILES IDX 3 24 4 25 5 26 6 27 8 28 7 29 2 30 1 31 27 32 28 33 29 34
REMARK SMILES IDX 30 35 31 36 32 37 33 38 34 39 35 40 99 41 36 42 98 43 37 44
REMARK SMILES IDX 38 45 39 46 92 47 40 48 97 49 91 50 93 51 41 52 96 53 90 54
REMARK SMILES IDX 89 55 42 57 76 58 55 59 75 60 56 61 59 62 74 63 94 64 57 65
REMARK SMILES IDX 58 66 73 68 95 69 60 70 43 71 44 72 53 73 45 74 46 75 52 76
REMARK SMILES IDX 54 77 47 78 48 79 49 80 50 81 51 82 77 83 78 84 87 85 79 86
REMARK SMILES IDX 80 87 86 88 88 89 81 90 82 91 83 92 84 93 85 94 61 95 62 96
REMARK SMILES IDX 71 97 63 98 64 99 70 100 72 101 65 102 66 103 67 104 68 105
REMARK SMILES IDX 69 106
REMARK H PARENT 15 16 12 22 93 56 59 67
REMARK Flexibility Score: inf
ROOT
ATOM      1  C   UNL     1       3.805  -6.288  -7.185  1.00  0.00     0.188 C 
ENDROOT
BRANCH   1   2
ATOM      2  O   UNL     1       2.478  -6.744  -7.552  1.00  0.00    -0.376 OA
BRANCH   2   3
ATOM      3  C   UNL     1       1.316  -5.923  -7.887  1.00  0.00     0.202 C 
BRANCH   3   4
ATOM      4  C   UNL     1       0.018  -5.050  -7.031  1.00  0.00     0.261 C 
BRANCH   4   5
ATOM      5  O   UNL     1      -0.123  -4.165  -5.359  1.00  0.00    -0.460 OA
BRANCH   5   6
ATOM      6  C   UNL     1       0.207  -4.413  -3.841  1.00  0.00     0.338 C 
ATOM      7  O   UNL     1       0.539  -5.486  -3.298  1.00  0.00    -0.246 OA
BRANCH   6   8
ATOM      8  C   UNL     1       0.491  -3.580  -2.705  1.00  0.00     0.060 A 
ATOM      9  C   UNL     1       1.415  -1.391   0.443  1.00  0.00     0.043 A 
ATOM     10  C   UNL     1       1.205  -0.420  -1.333  1.00  0.00     0.027 A 
ATOM     11  C   UNL     1       1.305  -3.348   0.497  1.00  0.00    -0.027 A 
ATOM     12  C   UNL     1       0.736  -1.650  -2.803  1.00  0.00     0.018 A 
ATOM     13  C   UNL     1       0.829  -4.557  -0.980  1.00  0.00     0.021 A 
ATOM     14  C   UNL     1       2.374  -3.929   1.460  1.00  0.00     0.046 C 
BRANCH   9  15
ATOM     15  N   UNL     1       0.849  -0.892   1.668  1.00  0.00    -0.332 N 
ATOM     16  H   UNL     1       1.404  -0.241   2.156  1.00  0.00     0.169 HD
BRANCH  15  17
ATOM     17  C   UNL     1      -0.355  -1.193   2.252  1.00  0.00     0.177 C 
ATOM     18  S   UNL     1      -0.592  -0.677   3.836  1.00  0.00    -0.040 S 
BRANCH  17  19
ATOM     19  N   UNL     1      -1.440  -1.811   1.655  1.00  0.00    -0.299 N 
ATOM     20  C   UNL     1      -1.918  -2.292   0.422  1.00  0.00     0.261 C 
ATOM     21  O   UNL     1      -3.072  -2.707   0.314  1.00  0.00    -0.269 OA
ATOM     22  H   UNL     1      -2.126  -1.972   2.342  1.00  0.00     0.172 HD
BRANCH  20  23
ATOM     23  C   UNL     1      -1.111  -2.215  -0.788  1.00  0.00     0.082 A 
ATOM     24  C   UNL     1       0.097  -1.777  -0.833  1.00  0.00     0.134 A 
ATOM     25  C   UNL     1       2.136  -1.971  -1.222  1.00  0.00    -0.008 A 
ATOM     26  C   UNL     1       3.409  -0.704  -0.779  1.00  0.00     0.048 C 
ATOM     27  C   UNL     1       3.066  -2.675  -1.729  1.00  0.00     0.007 A 
ATOM     28  C   UNL     1      -0.060  -2.909  -0.997  1.00  0.00     0.018 A 
ATOM     29  C   UNL     1       1.910  -3.120  -1.494  1.00  0.00     0.001 A 
BRANCH  24  30
ATOM     30  O   UNL     1      -0.733  -0.263  -0.572  1.00  0.00    -0.496 OA
ATOM     31  C   UNL     1      -0.342   0.991   0.029  1.00  0.00     0.278 C 
ENDBRANCH  24  30
ENDBRANCH  20  23
ENDBRANCH  17  19
ENDBRANCH  15  17
ENDBRANCH   9  15
ENDBRANCH   6   8
ENDBRANCH   5   6
ENDBRANCH   4   5
ENDBRANCH   3   4
ENDBRANCH   2   3
ENDBRANCH   1   2
BRANCH   1  32
ATOM     32  C   UNL     1       4.373  -5.093  -7.893  1.00  0.00     0.188 C 
BRANCH  32  33
ATOM     33  O   UNL     1       3.262  -4.299  -8.205  1.00  0.00    -0.376 OA
BRANCH  33  34
ATOM     34  C   UNL     1       3.301  -3.473  -9.319  1.00  0.00     0.202 C 
BRANCH  34  35
ATOM     35  C   UNL     1       4.462  -2.503  -9.241  1.00  0.00     0.261 C 
BRANCH  35  36
ATOM     36  O   UNL     1       4.361  -1.412  -8.260  1.00  0.00    -0.460 OA
BRANCH  36  37
ATOM     37  C   UNL     1       4.590  -1.458  -6.894  1.00  0.00     0.338 C 
ATOM     38  O   UNL     1       5.230  -0.582  -6.330  1.00  0.00    -0.246 OA
BRANCH  37  39
ATOM     39  C   UNL     1       3.688  -2.356  -6.133  1.00  0.00     0.060 A 
ATOM     40  C   UNL     1       3.945  -3.239  -5.066  1.00  0.00     0.016 A 
ATOM     41  C   UNL     1       2.418  -2.312  -6.548  1.00  0.00     0.016 A 
ATOM     42  C   UNL     1       3.115  -4.416  -4.738  1.00  0.00     0.010 A 
ATOM     43  C   UNL     1       1.708  -3.467  -6.291  1.00  0.00     0.010 A 
ATOM     44  C   UNL     1       1.994  -4.745  -5.492  1.00  0.00    -0.014 A 
BRANCH  44  45
ATOM     45  C   UNL     1       0.859  -6.244  -5.313  1.00  0.00     0.031 A 
ATOM     46  C   UNL     1      -1.019  -6.163  -5.025  1.00  0.00     0.074 A 
ATOM     47  C   UNL     1       1.329  -7.509  -5.254  1.00  0.00     0.049 A 
ATOM     48  N   UNL     1      -1.635  -6.486  -3.899  1.00  0.00    -0.248 NA
ATOM     49  C   UNL     1      -2.114  -5.154  -5.742  1.00  0.00     0.031 C 
ATOM     50  C   UNL     1       0.579  -8.757  -5.366  1.00  0.00     0.029 A 
ATOM     51  N   UNL     1       2.648  -7.944  -5.148  1.00  0.00    -0.354 N 
ATOM     52  C   UNL     1      -2.930  -5.903  -3.927  1.00  0.00     0.074 A 
ATOM     53  C   UNL     1      -2.852  -4.755  -4.720  1.00  0.00     0.031 C 
ATOM     54  C   UNL     1       1.383  -9.775  -4.992  1.00  0.00     0.029 A 
ATOM     55  C   UNL     1       2.623  -9.182  -4.509  1.00  0.00     0.049 A 
ATOM     56  H   UNL     1       3.448  -7.466  -5.466  1.00  0.00     0.167 HD
ATOM     57  C   UNL     1      -4.082  -6.639  -3.878  1.00  0.00     0.037 A 
ATOM     58  C   UNL     1       3.144  -9.257  -3.253  1.00  0.00     0.037 A 
ATOM     59  C   UNL     1      -3.650  -7.994  -3.683  1.00  0.00     0.049 A 
ATOM     60  C   UNL     1       2.014  -9.558  -2.295  1.00  0.00     0.074 A 
ATOM     61  C   UNL     1      -3.251  -8.957  -4.596  1.00  0.00     0.029 A 
ATOM     62  N   UNL     1      -2.993  -8.249  -2.502  1.00  0.00    -0.354 N 
ATOM     63  N   UNL     1       0.773  -9.168  -2.454  1.00  0.00    -0.248 NA
ATOM     64  C   UNL     1       2.175 -10.491  -1.187  1.00  0.00     0.031 C 
ATOM     65  C   UNL     1      -2.268  -9.758  -3.949  1.00  0.00     0.029 A 
ATOM     66  C   UNL     1      -2.101  -9.287  -2.657  1.00  0.00     0.049 A 
ATOM     67  H   UNL     1      -3.139  -7.757  -1.661  1.00  0.00     0.167 HD
ATOM     68  C   UNL     1      -0.023  -9.817  -1.546  1.00  0.00     0.074 A 
ATOM     69  C   UNL     1       0.904 -10.628  -0.778  1.00  0.00     0.031 C 
ATOM     70  C   UNL     1      -1.384  -9.721  -1.480  1.00  0.00     0.037 A 
BRANCH  57  71
ATOM     71  C   UNL     1      -5.452  -6.204  -4.429  1.00  0.00     0.058 A 
ATOM     72  C   UNL     1      -6.354  -7.193  -4.871  1.00  0.00     0.135 A 
ATOM     73  C   UNL     1      -5.945  -4.877  -4.572  1.00  0.00     0.135 A 
ATOM     74  F   UNL     1      -6.057  -8.495  -4.766  1.00  0.00    -0.206 F 
ATOM     75  C   UNL     1      -7.598  -6.905  -5.443  1.00  0.00     0.059 A 
ATOM     76  C   UNL     1      -7.172  -4.561  -5.187  1.00  0.00     0.059 A 
ATOM     77  F   UNL     1      -5.281  -3.817  -4.090  1.00  0.00    -0.206 F 
ATOM     78  C   UNL     1      -8.000  -5.588  -5.612  1.00  0.00     0.060 A 
BRANCH  78  79
ATOM     79  S   UNL     1      -9.620  -5.268  -6.341  1.00  0.00     0.124 S 
ATOM     80  O   UNL     1      -9.505  -5.921  -7.642  1.00  0.00    -0.237 OA
ATOM     81  O   UNL     1     -10.518  -5.912  -5.388  1.00  0.00    -0.237 OA
ATOM     82  O   UNL     1      -9.700  -3.811  -6.387  1.00  0.00    -0.744 OA
ENDBRANCH  78  79
ENDBRANCH  57  71
BRANCH  58  83
ATOM     83  C   UNL     1       4.338  -8.348  -3.073  1.00  0.00     0.058 A 
ATOM     84  C   UNL     1       5.414  -8.482  -3.992  1.00  0.00     0.135 A 
ATOM     85  C   UNL     1       4.317  -7.165  -2.326  1.00  0.00     0.135 A 
ATOM     86  F   UNL     1       5.529  -9.600  -4.731  1.00  0.00    -0.206 F 
ATOM     87  C   UNL     1       6.308  -7.446  -4.273  1.00  0.00     0.059 A 
ATOM     88  C   UNL     1       5.236  -6.123  -2.564  1.00  0.00     0.059 A 
ATOM     89  F   UNL     1       3.352  -6.952  -1.421  1.00  0.00    -0.206 F 
ATOM     90  C   UNL     1       6.190  -6.250  -3.577  1.00  0.00     0.060 A 
BRANCH  90  91
ATOM     91  S   UNL     1       7.188  -4.839  -4.132  1.00  0.00     0.124 S 
ATOM     92  O   UNL     1       8.518  -5.191  -3.653  1.00  0.00    -0.237 OA
ATOM     93  O   UNL     1       7.004  -4.881  -5.582  1.00  0.00    -0.237 OA
ATOM     94  O   UNL     1       6.574  -3.704  -3.454  1.00  0.00    -0.744 OA
ENDBRANCH  90  91
ENDBRANCH  58  83
BRANCH  70  95
ATOM     95  C   UNL     1      -2.222 -10.062  -0.266  1.00  0.00     0.058 A 
ATOM     96  C   UNL     1      -1.710 -10.093   1.036  1.00  0.00     0.135 A 
ATOM     97  C   UNL     1      -3.638 -10.184  -0.367  1.00  0.00     0.135 A 
ATOM     98  F   UNL     1      -0.423  -9.830   1.298  1.00  0.00    -0.206 F 
ATOM     99  C   UNL     1      -2.513 -10.369   2.136  1.00  0.00     0.059 A 
ATOM    100  C   UNL     1      -4.469 -10.316   0.731  1.00  0.00     0.059 A 
ATOM    101  F   UNL     1      -4.282 -10.173  -1.544  1.00  0.00    -0.206 F 
ATOM    102  C   UNL     1      -3.889 -10.483   1.971  1.00  0.00     0.060 A 
BRANCH 102 103
ATOM    103  S   UNL     1      -4.910 -10.905   3.380  1.00  0.00     0.124 S 
ATOM    104  O   UNL     1      -4.698 -12.348   3.454  1.00  0.00    -0.237 OA
ATOM    105  O   UNL     1      -4.308 -10.121   4.454  1.00  0.00    -0.237 OA
ATOM    106  O   UNL     1      -6.247 -10.485   2.974  1.00  0.00    -0.744 OA
ENDBRANCH 102 103
ENDBRANCH  70  95
ENDBRANCH  44  45
ENDBRANCH  37  39
ENDBRANCH  36  37
ENDBRANCH  35  36
ENDBRANCH  34  35
ENDBRANCH  33  34
ENDBRANCH  32  33
ENDBRANCH   1  32
TORSDOF 25
