REMARK SMILES Cc1ccc2nc(Cl)c([C@@H]3CC(c4cccs4)=NN3C(=O)CCCC(=O)OCCOCCOCCOC(=O)c3ccc(-c4c5nc(c(-c6c(F)cc(S(=O)(=O)[O-])cc6F)c6ccc([nH]6)c(-c6c(F)cc(S(=O)(=O)[O-])cc6F)c6nc(c(-c7c(F)cc(S(=O)(=O)[O-])cc7F)c7ccc4[nH]7)C=C6)C=C5)cc3)cc2c1
REMARK SMILES IDX 31 1 30 2 29 3 28 4 27 5 25 6 26 7 24 8 23 9 22 10 20 11
REMARK SMILES IDX 21 12 19 13 10 14 11 15 12 16 18 17 9 18 1 19 2 20 3 21
REMARK SMILES IDX 107 22 4 23 106 24 5 25 105 26 6 27 7 28 8 29 13 30 14 31
REMARK SMILES IDX 17 32 15 33 16 34 32 35 33 36 34 37 35 38 36 39 37 40 38 41
REMARK SMILES IDX 39 42 40 43 104 44 41 45 103 46 42 47 43 48 44 49 97 50
REMARK SMILES IDX 45 51 102 52 96 53 98 54 46 55 101 56 95 57 94 58 47 60
REMARK SMILES IDX 81 61 60 62 80 63 61 64 64 65 79 66 99 67 62 68 63 69 78 71
REMARK SMILES IDX 100 72 65 73 48 74 49 75 58 76 50 77 51 78 57 79 59 80 52 81
REMARK SMILES IDX 53 82 54 83 55 84 56 85 82 86 83 87 92 88 84 89 85 90 91 91
REMARK SMILES IDX 93 92 86 93 87 94 88 95 89 96 90 97 66 98 67 99 76 100
REMARK SMILES IDX 68 101 69 102 75 103 77 104 70 105 71 106 72 107 73 108
REMARK SMILES IDX 74 109
REMARK H PARENT 98 59 64 70
REMARK Flexibility Score: inf
ROOT
ATOM      1  C   UNL     1      -2.535  -2.497   0.686  1.00  0.00     0.188 C 
ENDROOT
BRANCH   1   2
ATOM      2  O   UNL     1      -3.796  -2.200   1.437  1.00  0.00    -0.376 OA
BRANCH   2   3
ATOM      3  C   UNL     1      -4.392  -0.903   1.909  1.00  0.00     0.202 C 
BRANCH   3   4
ATOM      4  C   UNL     1      -5.135   0.520   0.884  1.00  0.00     0.261 C 
BRANCH   4   5
ATOM      5  O   UNL     1      -4.360   1.046  -0.950  1.00  0.00    -0.463 OA
BRANCH   5   6
ATOM      6  C   UNL     1      -3.070   0.851  -1.841  1.00  0.00     0.305 C 
ATOM      7  O   UNL     1      -2.075   0.164  -1.530  1.00  0.00    -0.252 OA
BRANCH   6   8
ATOM      8  C   UNL     1      -2.656   1.731  -2.964  1.00  0.00     0.123 C 
BRANCH   8   9
ATOM      9  C   UNL     1      -3.576   2.608  -3.704  1.00  0.00     0.022 C 
BRANCH   9  10
ATOM     10  C   UNL     1      -4.130   3.643  -2.771  1.00  0.00     0.103 C 
BRANCH  10  11
ATOM     11  C   UNL     1      -3.084   4.457  -2.012  1.00  0.00     0.243 C 
ATOM     12  O   UNL     1      -2.604   5.418  -2.636  1.00  0.00    -0.273 OA
BRANCH  11  13
ATOM     13  N   UNL     1      -2.808   4.264  -0.654  1.00  0.00    -0.225 N 
ATOM     14  C   UNL     1      -2.464   3.098   0.313  1.00  0.00     0.150 C 
ATOM     15  C   UNL     1      -2.155   3.825   1.631  1.00  0.00     0.092 C 
ATOM     16  C   UNL     1      -2.350   5.255   1.233  1.00  0.00     0.081 C 
ATOM     17  N   UNL     1      -2.650   5.464  -0.002  1.00  0.00    -0.173 NA
BRANCH  14  18
ATOM     18  C   UNL     1      -3.547   2.034   0.508  1.00  0.00     0.015 A 
ATOM     19  C   UNL     1      -6.590  -4.216  -1.226  1.00  0.00     0.044 C 
ATOM     20  C   UNL     1      -6.347  -2.725  -1.292  1.00  0.00    -0.050 A 
ATOM     21  C   UNL     1      -7.268  -1.877  -1.876  1.00  0.00     0.005 A 
ATOM     22  C   UNL     1      -5.156  -2.208  -0.706  1.00  0.00     0.013 A 
ATOM     23  C   UNL     1      -7.124  -0.500  -1.764  1.00  0.00     0.029 A 
ATOM     24  C   UNL     1      -4.664  -0.811  -0.542  1.00  0.00     0.001 A 
ATOM     25  C   UNL     1      -6.063   0.100  -1.105  1.00  0.00     0.072 A 
ATOM     26  C   UNL     1      -3.287   0.237   0.309  1.00  0.00     0.019 A 
ATOM     27  N   UNL     1      -6.256   1.706  -0.734  1.00  0.00    -0.236 NA
ATOM     28  C   UNL     1      -5.095   2.616   0.028  1.00  0.00     0.135 A 
ATOM     29  Cl  UNL     1      -5.692   4.162   0.507  1.00  0.00    -0.062 Cl
ENDBRANCH  14  18
BRANCH  16  30
ATOM     30  C   UNL     1      -2.249   6.369   2.135  1.00  0.00     0.050 A 
ATOM     31  C   UNL     1      -1.210   6.754   2.954  1.00  0.00     0.022 A 
ATOM     32  S   UNL     1      -3.558   7.479   2.206  1.00  0.00    -0.142 S 
ATOM     33  C   UNL     1      -1.480   7.993   3.612  1.00  0.00     0.012 A 
ATOM     34  C   UNL     1      -2.726   8.490   3.300  1.00  0.00     0.065 A 
ENDBRANCH  16  30
ENDBRANCH  11  13
ENDBRANCH  10  11
ENDBRANCH   9  10
ENDBRANCH   8   9
ENDBRANCH   6   8
ENDBRANCH   5   6
ENDBRANCH   4   5
ENDBRANCH   3   4
ENDBRANCH   2   3
ENDBRANCH   1   2
BRANCH   1  35
ATOM     35  C   UNL     1      -2.495  -3.057  -0.898  1.00  0.00     0.188 C 
BRANCH  35  36
ATOM     36  O   UNL     1      -2.469  -2.153  -2.010  1.00  0.00    -0.376 OA
BRANCH  36  37
ATOM     37  C   UNL     1      -3.414  -2.027  -3.092  1.00  0.00     0.202 C 
BRANCH  37  38
ATOM     38  C   UNL     1      -3.882  -3.245  -3.893  1.00  0.00     0.261 C 
BRANCH  38  39
ATOM     39  O   UNL     1      -2.827  -4.147  -4.171  1.00  0.00    -0.460 OA
BRANCH  39  40
ATOM     40  C   UNL     1      -1.750  -3.529  -4.710  1.00  0.00     0.338 C 
ATOM     41  O   UNL     1      -1.765  -2.642  -5.545  1.00  0.00    -0.246 OA
BRANCH  40  42
ATOM     42  C   UNL     1      -0.603  -3.913  -3.870  1.00  0.00     0.060 A 
ATOM     43  C   UNL     1       0.422  -2.980  -3.689  1.00  0.00     0.016 A 
ATOM     44  C   UNL     1      -0.598  -5.138  -3.186  1.00  0.00     0.016 A 
ATOM     45  C   UNL     1       1.511  -3.315  -2.896  1.00  0.00     0.010 A 
ATOM     46  C   UNL     1       0.472  -5.460  -2.369  1.00  0.00     0.010 A 
ATOM     47  C   UNL     1       1.556  -4.577  -2.288  1.00  0.00    -0.014 A 
BRANCH  47  48
ATOM     48  C   UNL     1       2.854  -5.105  -1.842  1.00  0.00     0.031 A 
ATOM     49  C   UNL     1       3.606  -5.964  -2.820  1.00  0.00     0.074 A 
ATOM     50  C   UNL     1       3.344  -4.812  -0.629  1.00  0.00     0.049 A 
ATOM     51  N   UNL     1       4.764  -6.548  -2.687  1.00  0.00    -0.248 NA
ATOM     52  C   UNL     1       2.958  -6.202  -4.125  1.00  0.00     0.031 C 
ATOM     53  C   UNL     1       2.684  -3.981   0.378  1.00  0.00     0.029 A 
ATOM     54  N   UNL     1       4.520  -5.191  -0.042  1.00  0.00    -0.354 N 
ATOM     55  C   UNL     1       4.988  -7.204  -3.890  1.00  0.00     0.074 A 
ATOM     56  C   UNL     1       3.825  -7.002  -4.721  1.00  0.00     0.031 C 
ATOM     57  C   UNL     1       3.469  -3.920   1.469  1.00  0.00     0.029 A 
ATOM     58  C   UNL     1       4.673  -4.716   1.236  1.00  0.00     0.049 A 
ATOM     59  H   UNL     1       5.192  -5.751  -0.493  1.00  0.00     0.167 HD
ATOM     60  C   UNL     1       6.082  -7.894  -4.279  1.00  0.00     0.037 A 
ATOM     61  C   UNL     1       5.676  -4.918   2.111  1.00  0.00     0.037 A 
ATOM     62  C   UNL     1       7.228  -8.094  -3.440  1.00  0.00     0.049 A 
ATOM     63  C   UNL     1       6.863  -5.738   1.675  1.00  0.00     0.074 A 
ATOM     64  C   UNL     1       8.393  -8.780  -3.722  1.00  0.00     0.029 A 
ATOM     65  N   UNL     1       7.345  -7.607  -2.146  1.00  0.00    -0.354 N 
ATOM     66  N   UNL     1       7.082  -6.327   0.522  1.00  0.00    -0.248 NA
ATOM     67  C   UNL     1       7.945  -5.912   2.653  1.00  0.00     0.031 C 
ATOM     68  C   UNL     1       9.202  -8.740  -2.582  1.00  0.00     0.029 A 
ATOM     69  C   UNL     1       8.558  -7.992  -1.607  1.00  0.00     0.049 A 
ATOM     70  H   UNL     1       6.665  -7.068  -1.681  1.00  0.00     0.167 HD
ATOM     71  C   UNL     1       8.336  -6.920   0.627  1.00  0.00     0.074 A 
ATOM     72  C   UNL     1       8.830  -6.609   1.954  1.00  0.00     0.031 C 
ATOM     73  C   UNL     1       9.020  -7.655  -0.284  1.00  0.00     0.037 A 
BRANCH  60  74
ATOM     74  C   UNL     1       6.070  -8.476  -5.661  1.00  0.00     0.058 A 
ATOM     75  C   UNL     1       6.188  -7.663  -6.800  1.00  0.00     0.135 A 
ATOM     76  C   UNL     1       5.935  -9.859  -5.851  1.00  0.00     0.135 A 
ATOM     77  F   UNL     1       6.285  -6.330  -6.672  1.00  0.00    -0.206 F 
ATOM     78  C   UNL     1       6.155  -8.200  -8.082  1.00  0.00     0.059 A 
ATOM     79  C   UNL     1       5.923 -10.421  -7.124  1.00  0.00     0.059 A 
ATOM     80  F   UNL     1       5.799 -10.677  -4.795  1.00  0.00    -0.206 F 
ATOM     81  C   UNL     1       6.022  -9.581  -8.233  1.00  0.00     0.060 A 
BRANCH  81  82
ATOM     82  S   UNL     1       5.993 -10.266  -9.902  1.00  0.00     0.124 S 
ATOM     83  O   UNL     1       4.660  -9.878 -10.353  1.00  0.00    -0.237 OA
ATOM     84  O   UNL     1       7.105  -9.573 -10.544  1.00  0.00    -0.237 OA
ATOM     85  O   UNL     1       6.190 -11.696  -9.686  1.00  0.00    -0.744 OA
ENDBRANCH  81  82
ENDBRANCH  60  74
BRANCH  61  86
ATOM     86  C   UNL     1       5.601  -4.337   3.476  1.00  0.00     0.058 A 
ATOM     87  C   UNL     1       6.442  -3.286   3.867  1.00  0.00     0.135 A 
ATOM     88  C   UNL     1       4.683  -4.827   4.418  1.00  0.00     0.135 A 
ATOM     89  F   UNL     1       7.338  -2.787   3.003  1.00  0.00    -0.206 F 
ATOM     90  C   UNL     1       6.392  -2.753   5.152  1.00  0.00     0.059 A 
ATOM     91  C   UNL     1       4.598  -4.296   5.701  1.00  0.00     0.059 A 
ATOM     92  F   UNL     1       3.845  -5.822   4.087  1.00  0.00    -0.206 F 
ATOM     93  C   UNL     1       5.466  -3.266   6.062  1.00  0.00     0.060 A 
BRANCH  93  94
ATOM     94  S   UNL     1       5.378  -2.542   7.714  1.00  0.00     0.124 S 
ATOM     95  O   UNL     1       6.572  -3.097   8.341  1.00  0.00    -0.237 OA
ATOM     96  O   UNL     1       5.413  -1.112   7.425  1.00  0.00    -0.237 OA
ATOM     97  O   UNL     1       4.104  -3.037   8.228  1.00  0.00    -0.744 OA
ENDBRANCH  93  94
ENDBRANCH  61  86
BRANCH  73  98
ATOM     98  C   UNL     1      10.382  -8.149   0.109  1.00  0.00     0.058 A 
ATOM     99  C   UNL     1      10.545  -9.216   1.005  1.00  0.00     0.135 A 
ATOM    100  C   UNL     1      11.533  -7.595  -0.475  1.00  0.00     0.135 A 
ATOM    101  F   UNL     1       9.475  -9.777   1.590  1.00  0.00    -0.206 F 
ATOM    102  C   UNL     1      11.806  -9.704   1.327  1.00  0.00     0.059 A 
ATOM    103  C   UNL     1      12.802  -8.085  -0.188  1.00  0.00     0.059 A 
ATOM    104  F   UNL     1      11.426  -6.583  -1.351  1.00  0.00    -0.206 F 
ATOM    105  C   UNL     1      12.928  -9.132   0.724  1.00  0.00     0.060 A 
BRANCH 105 106
ATOM    106  S   UNL     1      14.558  -9.799   1.120  1.00  0.00     0.124 S 
ATOM    107  O   UNL     1      14.784  -9.245   2.451  1.00  0.00    -0.237 OA
ATOM    108  O   UNL     1      14.329 -11.240   1.064  1.00  0.00    -0.237 OA
ATOM    109  O   UNL     1      15.410  -9.264   0.063  1.00  0.00    -0.744 OA
ENDBRANCH 105 106
ENDBRANCH  73  98
ENDBRANCH  47  48
ENDBRANCH  40  42
ENDBRANCH  39  40
ENDBRANCH  38  39
ENDBRANCH  37  38
ENDBRANCH  36  37
ENDBRANCH  35  36
ENDBRANCH   1  35
TORSDOF 26
