REMARK SMILES CN1C(=O)[C@@H]2CC=CC[C@]2(C(=O)OCCOCCOCCOC(=O)c2ccc(-c3c4nc(c(-c5c(F)cc(S(=O)(=O)[O-])cc5F)c5ccc([nH]5)c(-c5c(F)cc(S(=O)(=O)[O-])cc5F)c5nc(c(-c6c(F)cc(S(=O)(=O)[O-])cc6F)c6ccc3[nH]6)C=C5)C=C4)cc2)[C@H]1c1ccccc1
REMARK SMILES IDX 18 1 17 2 16 3 15 4 14 5 13 6 11 7 12 8 10 9 1 10 2 11 3 12
REMARK SMILES IDX 91 13 4 14 5 15 6 16 9 17 7 18 8 19 92 20 93 21 97 22 94 23
REMARK SMILES IDX 96 24 95 25 19 26 20 27 21 28 22 29 23 30 24 31 25 32 26 33
REMARK SMILES IDX 90 34 27 35 89 36 28 37 29 38 30 39 83 40 31 41 88 42 82 43
REMARK SMILES IDX 84 44 32 45 87 46 81 47 80 48 33 50 67 51 46 52 66 53 47 54
REMARK SMILES IDX 50 55 65 56 85 57 48 58 49 59 64 61 86 62 51 63 34 64 35 65
REMARK SMILES IDX 44 66 36 67 37 68 43 69 45 70 38 71 39 72 40 73 41 74 42 75
REMARK SMILES IDX 68 76 69 77 78 78 70 79 71 80 77 81 79 82 72 83 73 84 74 85
REMARK SMILES IDX 75 86 76 87 52 88 53 89 62 90 54 91 55 92 61 93 63 94 56 95
REMARK SMILES IDX 57 96 58 97 59 98 60 99
REMARK H PARENT 84 49 50 60
REMARK Flexibility Score: inf
ROOT
ATOM      1  C   UNL     1       2.977   5.789   0.333  1.00  0.00     0.188 C 
ENDROOT
BRANCH   1   2
ATOM      2  C   UNL     1       2.342   7.185   0.478  1.00  0.00     0.188 C 
BRANCH   2   3
ATOM      3  O   UNL     1       1.258   7.246   1.413  1.00  0.00    -0.376 OA
BRANCH   3   4
ATOM      4  C   UNL     1       1.571   6.824   2.741  1.00  0.00     0.202 C 
BRANCH   4   5
ATOM      5  C   UNL     1       0.511   5.814   3.218  1.00  0.00     0.261 C 
BRANCH   5   6
ATOM      6  O   UNL     1       0.323   4.846   2.170  1.00  0.00    -0.463 OA
BRANCH   6   7
ATOM      7  C   UNL     1      -0.922   4.439   1.734  1.00  0.00     0.315 C 
ATOM      8  O   UNL     1      -1.985   4.682   2.277  1.00  0.00    -0.251 OA
BRANCH   7   9
ATOM      9  C   UNL     1      -0.702   3.736   0.373  1.00  0.00     0.108 C 
ATOM     10  C   UNL     1       1.064   0.432  -0.316  1.00  0.00     0.147 C 
ATOM     11  N   UNL     1       0.179   1.577  -0.234  1.00  0.00    -0.337 N 
ATOM     12  C   UNL     1      -1.121   1.557  -0.678  1.00  0.00     0.227 C 
ATOM     13  C   UNL     1       0.383   2.635   0.715  1.00  0.00     0.133 C 
ATOM     14  O   UNL     1      -1.657   0.600  -1.220  1.00  0.00    -0.275 OA
ATOM     15  C   UNL     1      -1.799   2.895  -0.361  1.00  0.00     0.102 C 
ATOM     16  C   UNL     1      -2.336   3.369  -1.739  1.00  0.00     0.041 C 
ATOM     17  C   UNL     1      -0.346   5.004  -0.446  1.00  0.00     0.049 C 
ATOM     18  C   UNL     1      -1.481   4.321  -2.505  1.00  0.00    -0.030 C 
ATOM     19  C   UNL     1      -0.558   5.062  -1.903  1.00  0.00    -0.030 C 
BRANCH  13  20
ATOM     20  C   UNL     1       0.233   2.038   2.145  1.00  0.00    -0.024 A 
ATOM     21  C   UNL     1      -1.007   1.545   2.604  1.00  0.00     0.006 A 
ATOM     22  C   UNL     1       1.281   2.152   3.071  1.00  0.00     0.006 A 
ATOM     23  C   UNL     1      -1.238   1.329   3.961  1.00  0.00     0.000 A 
ATOM     24  C   UNL     1       1.050   1.911   4.431  1.00  0.00     0.000 A 
ATOM     25  C   UNL     1      -0.216   1.536   4.877  1.00  0.00     0.000 A 
ENDBRANCH  13  20
ENDBRANCH   7   9
ENDBRANCH   6   7
ENDBRANCH   5   6
ENDBRANCH   4   5
ENDBRANCH   3   4
ENDBRANCH   2   3
ENDBRANCH   1   2
BRANCH   1  26
ATOM     26  O   UNL     1       4.219   5.714   1.033  1.00  0.00    -0.376 OA
BRANCH  26  27
ATOM     27  C   UNL     1       5.348   5.592   0.165  1.00  0.00     0.202 C 
BRANCH  27  28
ATOM     28  C   UNL     1       5.709   6.922  -0.510  1.00  0.00     0.261 C 
BRANCH  28  29
ATOM     29  O   UNL     1       4.723   7.409  -1.443  1.00  0.00    -0.460 OA
BRANCH  29  30
ATOM     30  C   UNL     1       4.522   6.669  -2.566  1.00  0.00     0.338 C 
ATOM     31  O   UNL     1       5.096   5.646  -2.862  1.00  0.00    -0.246 OA
BRANCH  30  32
ATOM     32  C   UNL     1       3.349   7.223  -3.295  1.00  0.00     0.060 A 
ATOM     33  C   UNL     1       2.417   6.334  -3.841  1.00  0.00     0.016 A 
ATOM     34  C   UNL     1       3.164   8.602  -3.440  1.00  0.00     0.016 A 
ATOM     35  C   UNL     1       1.304   6.824  -4.540  1.00  0.00     0.010 A 
ATOM     36  C   UNL     1       2.053   9.088  -4.141  1.00  0.00     0.010 A 
ATOM     37  C   UNL     1       1.118   8.203  -4.704  1.00  0.00    -0.014 A 
BRANCH  37  38
ATOM     38  C   UNL     1       0.041   8.722  -5.588  1.00  0.00     0.031 A 
ATOM     39  C   UNL     1       0.353   8.955  -7.041  1.00  0.00     0.074 A 
ATOM     40  C   UNL     1      -1.191   9.004  -5.121  1.00  0.00     0.049 A 
ATOM     41  N   UNL     1      -0.402   9.457  -7.983  1.00  0.00    -0.248 NA
ATOM     42  C   UNL     1       1.701   8.568  -7.488  1.00  0.00     0.031 C 
ATOM     43  C   UNL     1      -1.647   8.799  -3.748  1.00  0.00     0.029 A 
ATOM     44  N   UNL     1      -2.284   9.540  -5.762  1.00  0.00    -0.354 N 
ATOM     45  C   UNL     1       0.374   9.446  -9.135  1.00  0.00     0.074 A 
ATOM     46  C   UNL     1       1.667   8.908  -8.768  1.00  0.00     0.031 C 
ATOM     47  C   UNL     1      -2.922   9.219  -3.646  1.00  0.00     0.029 A 
ATOM     48  C   UNL     1      -3.364   9.752  -4.936  1.00  0.00     0.049 A 
ATOM     49  H   UNL     1      -2.293   9.753  -6.723  1.00  0.00     0.167 HD
ATOM     50  C   UNL     1       0.043   9.843 -10.386  1.00  0.00     0.037 A 
ATOM     51  C   UNL     1      -4.558  10.331  -5.183  1.00  0.00     0.037 A 
ATOM     52  C   UNL     1      -1.230  10.399 -10.758  1.00  0.00     0.049 A 
ATOM     53  C   UNL     1      -4.870  10.855  -6.565  1.00  0.00     0.074 A 
ATOM     54  C   UNL     1      -1.652  10.816 -12.009  1.00  0.00     0.029 A 
ATOM     55  N   UNL     1      -2.279  10.636  -9.884  1.00  0.00    -0.354 N 
ATOM     56  N   UNL     1      -4.139  10.805  -7.653  1.00  0.00    -0.248 NA
ATOM     57  C   UNL     1      -6.168  11.526  -6.750  1.00  0.00     0.031 C 
ATOM     58  C   UNL     1      -2.938  11.352 -11.882  1.00  0.00     0.029 A 
ATOM     59  C   UNL     1      -3.335  11.224 -10.561  1.00  0.00     0.049 A 
ATOM     60  H   UNL     1      -2.275  10.419  -8.924  1.00  0.00     0.167 HD
ATOM     61  C   UNL     1      -4.896  11.415  -8.652  1.00  0.00     0.074 A 
ATOM     62  C   UNL     1      -6.146  11.817  -8.044  1.00  0.00     0.031 C 
ATOM     63  C   UNL     1      -4.582  11.620  -9.955  1.00  0.00     0.037 A 
BRANCH  50  64
ATOM     64  C   UNL     1       1.097   9.715 -11.447  1.00  0.00     0.058 A 
ATOM     65  C   UNL     1       1.458   8.467 -11.977  1.00  0.00     0.135 A 
ATOM     66  C   UNL     1       1.737  10.857 -11.955  1.00  0.00     0.135 A 
ATOM     67  F   UNL     1       0.890   7.344 -11.511  1.00  0.00    -0.206 F 
ATOM     68  C   UNL     1       2.436   8.352 -12.959  1.00  0.00     0.059 A 
ATOM     69  C   UNL     1       2.701  10.768 -12.953  1.00  0.00     0.059 A 
ATOM     70  F   UNL     1       1.430  12.073 -11.476  1.00  0.00    -0.206 F 
ATOM     71  C   UNL     1       3.054   9.509 -13.438  1.00  0.00     0.060 A 
BRANCH  71  72
ATOM     72  S   UNL     1       4.327   9.344 -14.707  1.00  0.00     0.124 S 
ATOM     73  O   UNL     1       5.439   8.804 -13.932  1.00  0.00    -0.237 OA
ATOM     74  O   UNL     1       3.707   8.422 -15.653  1.00  0.00    -0.237 OA
ATOM     75  O   UNL     1       4.504  10.710 -15.191  1.00  0.00    -0.744 OA
ENDBRANCH  71  72
ENDBRANCH  50  64
BRANCH  51  76
ATOM     76  C   UNL     1      -5.558  10.482  -4.090  1.00  0.00     0.058 A 
ATOM     77  C   UNL     1      -6.761   9.761  -4.101  1.00  0.00     0.135 A 
ATOM     78  C   UNL     1      -5.347  11.381  -3.032  1.00  0.00     0.135 A 
ATOM     79  F   UNL     1      -7.021   8.906  -5.103  1.00  0.00    -0.206 F 
ATOM     80  C   UNL     1      -7.726   9.933  -3.112  1.00  0.00     0.059 A 
ATOM     81  C   UNL     1      -6.285  11.553  -2.019  1.00  0.00     0.059 A 
ATOM     82  F   UNL     1      -4.213  12.097  -2.975  1.00  0.00    -0.206 F 
ATOM     83  C   UNL     1      -7.477  10.833  -2.074  1.00  0.00     0.060 A 
BRANCH  83  84
ATOM     84  S   UNL     1      -8.719  11.027  -0.776  1.00  0.00     0.124 S 
ATOM     85  O   UNL     1      -9.744  11.803  -1.465  1.00  0.00    -0.237 OA
ATOM     86  O   UNL     1      -9.064   9.642  -0.471  1.00  0.00    -0.237 OA
ATOM     87  O   UNL     1      -7.995  11.732   0.277  1.00  0.00    -0.744 OA
ENDBRANCH  83  84
ENDBRANCH  51  76
BRANCH  63  88
ATOM     88  C   UNL     1      -5.604  12.292 -10.833  1.00  0.00     0.058 A 
ATOM     89  C   UNL     1      -5.863  13.668 -10.743  1.00  0.00     0.135 A 
ATOM     90  C   UNL     1      -6.273  11.566 -11.833  1.00  0.00     0.135 A 
ATOM     91  F   UNL     1      -5.256  14.410  -9.803  1.00  0.00    -0.206 F 
ATOM     92  C   UNL     1      -6.756  14.300 -11.605  1.00  0.00     0.059 A 
ATOM     93  C   UNL     1      -7.152  12.180 -12.721  1.00  0.00     0.059 A 
ATOM     94  F   UNL     1      -6.055  10.248 -11.971  1.00  0.00    -0.206 F 
ATOM     95  C   UNL     1      -7.392  13.548 -12.595  1.00  0.00     0.060 A 
BRANCH  95  96
ATOM     96  S   UNL     1      -8.505  14.389 -13.743  1.00  0.00     0.124 S 
ATOM     97  O   UNL     1      -9.671  14.630 -12.901  1.00  0.00    -0.237 OA
ATOM     98  O   UNL     1      -7.735  15.573 -14.114  1.00  0.00    -0.237 OA
ATOM     99  O   UNL     1      -8.693  13.412 -14.812  1.00  0.00    -0.744 OA
ENDBRANCH  95  96
ENDBRANCH  63  88
ENDBRANCH  37  38
ENDBRANCH  30  32
ENDBRANCH  29  30
ENDBRANCH  28  29
ENDBRANCH  27  28
ENDBRANCH  26  27
ENDBRANCH   1  26
TORSDOF 21
