REMARK SMILES C=C[C@@H]1[C@@H](O)C[C@@H]2[C@@]3(CC[C@@]4(C)[C@@H]([C@H](C)CCC=C(C)C)CC[C@@]24C)C[C@@]13CCC(=O)OCCOCCOCCOC(=O)c1ccc(-c2c3nc(c(-c4c(F)cc(S(=O)(=O)[O-])cc4F)c4ccc([nH]4)c(-c4c(F)cc(S(=O)(=O)[O-])cc4F)c4nc(c(-c5c(F)cc(S(=O)(=O)[O-])cc5F)c5ccc2[nH]5)C=C4)C=C3)cc1
REMARK SMILES IDX 35 1 34 2 33 3 32 4 30 5 31 6 29 7 28 8 27 9 3 10 4 11 6 12
REMARK SMILES IDX 8 13 26 14 7 15 9 16 24 17 10 18 11 19 23 20 25 21 12 22
REMARK SMILES IDX 13 23 22 24 2 25 1 26 5 27 14 29 15 30 16 31 17 32 18 33
REMARK SMILES IDX 19 34 20 35 21 36 36 37 37 38 38 39 39 40 40 41 41 42 42 43
REMARK SMILES IDX 43 44 44 45 45 46 109 47 46 48 108 49 47 50 48 51 49 52
REMARK SMILES IDX 102 53 50 54 107 55 101 56 103 57 51 58 106 59 100 60 99 61
REMARK SMILES IDX 52 63 86 64 65 65 85 66 66 67 69 68 84 69 104 70 67 71 68 72
REMARK SMILES IDX 83 74 105 75 70 76 53 77 54 78 63 79 55 80 56 81 62 82 64 83
REMARK SMILES IDX 57 84 58 85 59 86 60 87 61 88 87 89 88 90 97 91 89 92 90 93
REMARK SMILES IDX 96 94 98 95 91 96 92 97 93 98 94 99 95 100 71 101 72 102
REMARK SMILES IDX 81 103 73 104 74 105 80 106 82 107 75 108 76 109 77 110
REMARK SMILES IDX 78 111 79 112
REMARK H PARENT 5 28 103 62 69 73
REMARK Flexibility Score: inf
ROOT
ATOM      1  O   UNL     1      -2.122   4.558   1.031  1.00  0.00    -0.376 OA
ENDROOT
BRANCH   1   2
ATOM      2  C   UNL     1      -3.195   4.285   1.904  1.00  0.00     0.202 C 
BRANCH   2   3
ATOM      3  C   UNL     1      -3.047   3.471   3.180  1.00  0.00     0.261 C 
BRANCH   3   4
ATOM      4  O   UNL     1      -3.763   4.210   4.102  1.00  0.00    -0.463 OA
BRANCH   4   5
ATOM      5  C   UNL     1      -3.403   4.309   5.377  1.00  0.00     0.305 C 
ATOM      6  O   UNL     1      -2.350   3.980   5.921  1.00  0.00    -0.252 OA
BRANCH   5   7
ATOM      7  C   UNL     1      -4.635   4.906   5.921  1.00  0.00     0.123 C 
BRANCH   7   8
ATOM      8  C   UNL     1      -5.847   4.116   5.281  1.00  0.00     0.020 C 
BRANCH   8   9
ATOM      9  C   UNL     1      -5.690   2.533   5.089  1.00  0.00    -0.014 C 
ATOM     10  C   UNL     1      -5.423   1.735   6.415  1.00  0.00     0.047 C 
ATOM     11  C   UNL     1      -4.555   0.444   6.214  1.00  0.00     0.122 C 
ATOM     12  C   UNL     1      -4.700  -0.281   4.853  1.00  0.00     0.037 C 
ATOM     13  C   UNL     1      -5.433   1.787   3.610  1.00  0.00    -0.019 C 
ATOM     14  C   UNL     1      -6.780   1.864   4.312  1.00  0.00     0.016 C 
ATOM     15  C   UNL     1      -4.273   0.697   3.751  1.00  0.00     0.005 C 
ATOM     16  C   UNL     1      -5.611   2.392   2.195  1.00  0.00     0.008 C 
ATOM     17  C   UNL     1      -3.603   0.121   2.384  1.00  0.00    -0.023 C 
ATOM     18  C   UNL     1      -4.702   1.869   1.039  1.00  0.00     0.008 C 
ATOM     19  C   UNL     1      -3.249   1.248   1.293  1.00  0.00    -0.024 C 
ATOM     20  C   UNL     1      -2.194  -0.493   2.548  1.00  0.00     0.008 C 
ATOM     21  C   UNL     1      -4.585  -0.988   1.888  1.00  0.00     0.012 C 
ATOM     22  C   UNL     1      -2.981   0.614  -0.150  1.00  0.00     0.012 C 
ATOM     23  C   UNL     1      -1.556   1.905   1.658  1.00  0.00    -0.002 C 
ATOM     24  C   UNL     1      -1.050   0.534   2.270  1.00  0.00     0.005 C 
BRANCH  10  25
ATOM     25  C   UNL     1      -5.027   2.558   7.635  1.00  0.00    -0.028 C 
ATOM     26  C   UNL     1      -3.848   2.602   8.274  1.00  0.00     0.004 C 
ENDBRANCH  10  25
BRANCH  11  27
ATOM     27  O   UNL     1      -4.843  -0.520   7.239  1.00  0.00    -0.392 OA
ATOM     28  H   UNL     1      -5.761  -0.822   7.150  1.00  0.00     0.210 HD
ENDBRANCH  11  27
BRANCH  23  29
ATOM     29  C   UNL     1      -0.517   3.202   2.551  1.00  0.00    -0.010 C 
ATOM     30  C   UNL     1      -0.842   4.708   3.178  1.00  0.00     0.008 C 
BRANCH  29  31
ATOM     31  C   UNL     1       0.921   3.579   1.977  1.00  0.00     0.008 C 
BRANCH  31  32
ATOM     32  C   UNL     1       1.830   4.454   3.008  1.00  0.00     0.027 C 
BRANCH  32  33
ATOM     33  C   UNL     1       1.826   3.925   4.434  1.00  0.00    -0.028 C 
ATOM     34  C   UNL     1       2.070   4.548   5.609  1.00  0.00    -0.080 C 
ATOM     35  C   UNL     1       1.764   3.821   6.900  1.00  0.00     0.039 C 
ATOM     36  C   UNL     1       2.629   5.932   5.799  1.00  0.00     0.039 C 
ENDBRANCH  32  33
ENDBRANCH  31  32
ENDBRANCH  29  31
ENDBRANCH  23  29
ENDBRANCH   8   9
ENDBRANCH   7   8
ENDBRANCH   5   7
ENDBRANCH   4   5
ENDBRANCH   3   4
ENDBRANCH   2   3
ENDBRANCH   1   2
BRANCH   1  37
ATOM     37  C   UNL     1      -2.285   5.793   0.364  1.00  0.00     0.188 C 
BRANCH  37  38
ATOM     38  C   UNL     1      -3.719   6.275   0.242  1.00  0.00     0.188 C 
BRANCH  38  39
ATOM     39  O   UNL     1      -4.695   5.308  -0.154  1.00  0.00    -0.376 OA
BRANCH  39  40
ATOM     40  C   UNL     1      -4.641   4.953  -1.524  1.00  0.00     0.202 C 
BRANCH  40  41
ATOM     41  C   UNL     1      -5.446   5.918  -2.403  1.00  0.00     0.261 C 
BRANCH  41  42
ATOM     42  O   UNL     1      -5.282   7.294  -2.018  1.00  0.00    -0.460 OA
BRANCH  42  43
ATOM     43  C   UNL     1      -6.061   7.731  -0.983  1.00  0.00     0.338 C 
ATOM     44  O   UNL     1      -7.078   7.206  -0.565  1.00  0.00    -0.246 OA
BRANCH  43  45
ATOM     45  C   UNL     1      -5.298   8.794  -0.254  1.00  0.00     0.060 A 
ATOM     46  C   UNL     1      -5.393   8.860   1.151  1.00  0.00     0.016 A 
ATOM     47  C   UNL     1      -4.318   9.547  -0.917  1.00  0.00     0.016 A 
ATOM     48  C   UNL     1      -4.559   9.717   1.880  1.00  0.00     0.010 A 
ATOM     49  C   UNL     1      -3.485  10.398  -0.196  1.00  0.00     0.010 A 
ATOM     50  C   UNL     1      -3.661  10.543   1.192  1.00  0.00    -0.014 A 
BRANCH  50  51
ATOM     51  C   UNL     1      -3.281  11.856   1.763  1.00  0.00     0.031 A 
ATOM     52  C   UNL     1      -4.196  12.997   1.397  1.00  0.00     0.074 A 
ATOM     53  C   UNL     1      -2.152  12.060   2.458  1.00  0.00     0.049 A 
ATOM     54  N   UNL     1      -4.032  14.283   1.532  1.00  0.00    -0.248 NA
ATOM     55  C   UNL     1      -5.458  12.623   0.730  1.00  0.00     0.031 C 
ATOM     56  C   UNL     1      -1.206  11.029   2.875  1.00  0.00     0.029 A 
ATOM     57  N   UNL     1      -1.594  13.233   2.901  1.00  0.00    -0.354 N 
ATOM     58  C   UNL     1      -5.147  14.861   0.935  1.00  0.00     0.074 A 
ATOM     59  C   UNL     1      -5.953  13.797   0.393  1.00  0.00     0.031 C 
ATOM     60  C   UNL     1      -0.161  11.620   3.484  1.00  0.00     0.029 A 
ATOM     61  C   UNL     1      -0.350  13.071   3.460  1.00  0.00     0.049 A 
ATOM     62  H   UNL     1      -2.042  14.107   2.825  1.00  0.00     0.167 HD
ATOM     63  C   UNL     1      -5.478  16.169   0.849  1.00  0.00     0.037 A 
ATOM     64  C   UNL     1       0.542  13.998   3.866  1.00  0.00     0.037 A 
ATOM     65  C   UNL     1      -4.654  17.213   1.387  1.00  0.00     0.049 A 
ATOM     66  C   UNL     1       0.180  15.458   3.745  1.00  0.00     0.074 A 
ATOM     67  C   UNL     1      -4.890  18.573   1.405  1.00  0.00     0.029 A 
ATOM     68  N   UNL     1      -3.418  17.005   1.986  1.00  0.00    -0.354 N 
ATOM     69  N   UNL     1      -0.899  16.001   3.226  1.00  0.00    -0.248 NA
ATOM     70  C   UNL     1       1.147  16.431   4.270  1.00  0.00     0.031 C 
ATOM     71  C   UNL     1      -3.765  19.194   1.957  1.00  0.00     0.029 A 
ATOM     72  C   UNL     1      -2.861  18.215   2.351  1.00  0.00     0.049 A 
ATOM     73  H   UNL     1      -3.001  16.125   2.130  1.00  0.00     0.167 HD
ATOM     74  C   UNL     1      -0.753  17.376   3.383  1.00  0.00     0.074 A 
ATOM     75  C   UNL     1       0.517  17.579   4.054  1.00  0.00     0.031 C 
ATOM     76  C   UNL     1      -1.590  18.381   3.015  1.00  0.00     0.037 A 
BRANCH  63  77
ATOM     77  C   UNL     1      -6.742  16.512   0.108  1.00  0.00     0.058 A 
ATOM     78  C   UNL     1      -8.012  16.117   0.567  1.00  0.00     0.135 A 
ATOM     79  C   UNL     1      -6.679  17.199  -1.115  1.00  0.00     0.135 A 
ATOM     80  F   UNL     1      -8.134  15.430   1.715  1.00  0.00    -0.206 F 
ATOM     81  C   UNL     1      -9.162  16.341  -0.184  1.00  0.00     0.059 A 
ATOM     82  C   UNL     1      -7.821  17.470  -1.863  1.00  0.00     0.059 A 
ATOM     83  F   UNL     1      -5.495  17.590  -1.611  1.00  0.00    -0.206 F 
ATOM     84  C   UNL     1      -9.055  17.015  -1.401  1.00  0.00     0.060 A 
BRANCH  84  85
ATOM     85  S   UNL     1     -10.550  17.274  -2.377  1.00  0.00     0.124 S 
ATOM     86  O   UNL     1     -10.823  15.922  -2.856  1.00  0.00    -0.237 OA
ATOM     87  O   UNL     1     -11.483  17.795  -1.383  1.00  0.00    -0.237 OA
ATOM     88  O   UNL     1     -10.129  18.228  -3.398  1.00  0.00    -0.744 OA
ENDBRANCH  84  85
ENDBRANCH  63  77
BRANCH  64  89
ATOM     89  C   UNL     1       1.855  13.560   4.413  1.00  0.00     0.058 A 
ATOM     90  C   UNL     1       2.144  13.665   5.781  1.00  0.00     0.135 A 
ATOM     91  C   UNL     1       2.820  12.957   3.588  1.00  0.00     0.135 A 
ATOM     92  F   UNL     1       1.264  14.249   6.609  1.00  0.00    -0.206 F 
ATOM     93  C   UNL     1       3.331  13.173   6.317  1.00  0.00     0.059 A 
ATOM     94  C   UNL     1       4.003  12.436   4.103  1.00  0.00     0.059 A 
ATOM     95  F   UNL     1       2.592  12.828   2.272  1.00  0.00    -0.206 F 
ATOM     96  C   UNL     1       4.248  12.544   5.471  1.00  0.00     0.060 A 
BRANCH  96  97
ATOM     97  S   UNL     1       5.729  11.806   6.197  1.00  0.00     0.124 S 
ATOM     98  O   UNL     1       6.482  12.988   6.600  1.00  0.00    -0.237 OA
ATOM     99  O   UNL     1       5.167  11.006   7.282  1.00  0.00    -0.237 OA
ATOM    100  O   UNL     1       6.299  11.040   5.093  1.00  0.00    -0.744 OA
ENDBRANCH  96  97
ENDBRANCH  64  89
BRANCH  76 101
ATOM    101  C   UNL     1      -1.182  19.788   3.359  1.00  0.00     0.058 A 
ATOM    102  C   UNL     1      -0.132  20.440   2.695  1.00  0.00     0.135 A 
ATOM    103  C   UNL     1      -1.907  20.516   4.317  1.00  0.00     0.135 A 
ATOM    104  F   UNL     1       0.593  19.789   1.772  1.00  0.00    -0.206 F 
ATOM    105  C   UNL     1       0.203  21.758   2.989  1.00  0.00     0.059 A 
ATOM    106  C   UNL     1      -1.613  21.845   4.600  1.00  0.00     0.059 A 
ATOM    107  F   UNL     1      -2.933  19.945   4.968  1.00  0.00    -0.206 F 
ATOM    108  C   UNL     1      -0.547  22.453   3.940  1.00  0.00     0.060 A 
BRANCH 108 109
ATOM    109  S   UNL     1      -0.121  24.171   4.288  1.00  0.00     0.124 S 
ATOM    110  O   UNL     1       1.137  24.021   5.011  1.00  0.00    -0.237 OA
ATOM    111  O   UNL     1      -0.021  24.744   2.950  1.00  0.00    -0.237 OA
ATOM    112  O   UNL     1      -1.249  24.647   5.085  1.00  0.00    -0.744 OA
ENDBRANCH 108 109
ENDBRANCH  76 101
ENDBRANCH  50  51
ENDBRANCH  43  45
ENDBRANCH  42  43
ENDBRANCH  41  42
ENDBRANCH  40  41
ENDBRANCH  39  40
ENDBRANCH  38  39
ENDBRANCH  37  38
ENDBRANCH   1  37
TORSDOF 28
