REMARK SMILES COc1ccc(C(=O)OCCOCCOCCOC(=O)c2ccc(-c3c4nc(c(-c5c(F)cc(S(=O)(=O)[O-])cc5F)c5ccc([nH]5)c(-c5c(F)cc(S(=O)(=O)[O-])cc5F)c5nc(c(-c6c(F)cc(S(=O)(=O)[O-])cc6F)c6ccc3[nH]6)C=C5)C=C4)cc2)cc1S(=O)(=O)N(C)Cc1cccc(F)c1
REMARK SMILES IDX 13 1 12 2 11 3 10 4 9 5 7 6 8 7 6 8 3 9 4 10 88 11 5 12
REMARK SMILES IDX 87 13 2 14 1 15 89 16 90 17 91 18 92 19 93 20 94 21 95 22
REMARK SMILES IDX 96 23 101 24 97 25 99 26 98 27 100 28 14 29 15 30 16 31
REMARK SMILES IDX 17 32 18 33 19 34 20 35 21 36 22 37 86 38 23 39 85 40 24 41
REMARK SMILES IDX 25 42 26 43 79 44 27 45 84 46 78 47 80 48 28 49 83 50 77 51
REMARK SMILES IDX 76 52 29 54 63 55 42 56 62 57 43 58 46 59 61 60 81 61 44 62
REMARK SMILES IDX 45 63 60 65 82 66 47 67 30 68 31 69 40 70 32 71 33 72 39 73
REMARK SMILES IDX 41 74 34 75 35 76 36 77 37 78 38 79 64 80 65 81 74 82 66 83
REMARK SMILES IDX 67 84 73 85 75 86 68 87 69 88 70 89 71 90 72 91 48 92 49 93
REMARK SMILES IDX 58 94 50 95 51 96 57 97 59 98 52 99 53 100 54 101 55 102
REMARK SMILES IDX 56 103
REMARK H PARENT 80 53 46 64
REMARK Flexibility Score: inf
ROOT
ATOM      1  C   UNL     1       1.871   2.856  -7.468  1.00  0.00     0.188 C 
ENDROOT
BRANCH   1   2
ATOM      2  O   UNL     1       2.368   3.988  -8.150  1.00  0.00    -0.376 OA
BRANCH   2   3
ATOM      3  C   UNL     1       3.304   4.861  -7.544  1.00  0.00     0.202 C 
BRANCH   3   4
ATOM      4  C   UNL     1       3.382   5.140  -6.034  1.00  0.00     0.261 C 
BRANCH   4   5
ATOM      5  O   UNL     1       3.042   4.060  -5.161  1.00  0.00    -0.460 OA
BRANCH   5   6
ATOM      6  C   UNL     1       1.883   4.230  -4.481  1.00  0.00     0.338 C 
ATOM      7  O   UNL     1       1.142   5.198  -4.532  1.00  0.00    -0.246 OA
BRANCH   6   8
ATOM      8  C   UNL     1       1.528   3.004  -3.734  1.00  0.00     0.061 A 
ATOM      9  C   UNL     1       0.695   0.897  -2.103  1.00  0.00     0.138 A 
ATOM     10  C   UNL     1      -0.235   1.586  -2.888  1.00  0.00     0.049 A 
ATOM     11  C   UNL     1       2.057   1.161  -2.241  1.00  0.00     0.125 A 
ATOM     12  C   UNL     1       0.177   2.646  -3.691  1.00  0.00     0.019 A 
ATOM     13  C   UNL     1       2.476   2.235  -3.053  1.00  0.00     0.041 A 
BRANCH   9  14
ATOM     14  O   UNL     1       0.176  -0.006  -1.222  1.00  0.00    -0.495 OA
ATOM     15  C   UNL     1      -0.002   0.613   0.056  1.00  0.00     0.278 C 
ENDBRANCH   9  14
BRANCH  11  16
ATOM     16  S   UNL     1       3.358   0.285  -1.409  1.00  0.00     0.246 S 
ATOM     17  O   UNL     1       4.161  -0.332  -2.443  1.00  0.00    -0.207 OA
ATOM     18  O   UNL     1       3.938   1.256  -0.501  1.00  0.00    -0.207 OA
BRANCH  16  19
ATOM     19  N   UNL     1       2.699  -0.960  -0.460  1.00  0.00    -0.196 NA
ATOM     20  C   UNL     1       2.153  -2.126  -1.196  1.00  0.00     0.125 C 
BRANCH  19  21
ATOM     21  C   UNL     1       3.509  -1.347   0.729  1.00  0.00     0.137 C 
BRANCH  21  22
ATOM     22  C   UNL     1       4.736  -2.174   0.421  1.00  0.00    -0.030 A 
ATOM     23  C   UNL     1       4.661  -3.578   0.404  1.00  0.00     0.005 A 
ATOM     24  C   UNL     1       5.934  -1.556   0.039  1.00  0.00     0.044 A 
ATOM     25  C   UNL     1       5.737  -4.342  -0.050  1.00  0.00     0.003 A 
ATOM     26  C   UNL     1       7.000  -2.328  -0.409  1.00  0.00     0.123 A 
ATOM     27  C   UNL     1       6.906  -3.712  -0.471  1.00  0.00     0.039 A 
ATOM     28  F   UNL     1       8.128  -1.725  -0.808  1.00  0.00    -0.207 F 
ENDBRANCH  21  22
ENDBRANCH  19  21
ENDBRANCH  16  19
ENDBRANCH  11  16
ENDBRANCH   6   8
ENDBRANCH   5   6
ENDBRANCH   4   5
ENDBRANCH   3   4
ENDBRANCH   2   3
ENDBRANCH   1   2
BRANCH   1  29
ATOM     29  C   UNL     1       2.838   1.754  -6.993  1.00  0.00     0.188 C 
BRANCH  29  30
ATOM     30  O   UNL     1       4.226   1.946  -7.143  1.00  0.00    -0.376 OA
BRANCH  30  31
ATOM     31  C   UNL     1       4.830   1.926  -8.424  1.00  0.00     0.202 C 
BRANCH  31  32
ATOM     32  C   UNL     1       4.220   1.325  -9.703  1.00  0.00     0.261 C 
BRANCH  32  33
ATOM     33  O   UNL     1       2.800   1.200  -9.775  1.00  0.00    -0.460 OA
BRANCH  33  34
ATOM     34  C   UNL     1       2.327  -0.066  -9.683  1.00  0.00     0.338 C 
ATOM     35  O   UNL     1       2.973  -1.087  -9.509  1.00  0.00    -0.246 OA
BRANCH  34  36
ATOM     36  C   UNL     1       0.855  -0.024  -9.660  1.00  0.00     0.060 A 
ATOM     37  C   UNL     1       0.190  -0.416  -8.491  1.00  0.00     0.016 A 
ATOM     38  C   UNL     1       0.138   0.359 -10.794  1.00  0.00     0.016 A 
ATOM     39  C   UNL     1      -1.204  -0.444  -8.461  1.00  0.00     0.010 A 
ATOM     40  C   UNL     1      -1.258   0.310 -10.768  1.00  0.00     0.010 A 
ATOM     41  C   UNL     1      -1.934  -0.117  -9.611  1.00  0.00    -0.014 A 
BRANCH  41  42
ATOM     42  C   UNL     1      -3.392  -0.384  -9.661  1.00  0.00     0.031 A 
ATOM     43  C   UNL     1      -3.865  -1.659 -10.307  1.00  0.00     0.074 A 
ATOM     44  C   UNL     1      -4.278   0.478  -9.130  1.00  0.00     0.049 A 
ATOM     45  N   UNL     1      -5.084  -2.069 -10.537  1.00  0.00    -0.248 NA
ATOM     46  C   UNL     1      -2.819  -2.595 -10.753  1.00  0.00     0.031 C 
ATOM     47  C   UNL     1      -3.941   1.723  -8.442  1.00  0.00     0.029 A 
ATOM     48  N   UNL     1      -5.651   0.440  -9.103  1.00  0.00    -0.354 N 
ATOM     49  C   UNL     1      -4.955  -3.312 -11.146  1.00  0.00     0.074 A 
ATOM     50  C   UNL     1      -3.538  -3.571 -11.286  1.00  0.00     0.031 C 
ATOM     51  C   UNL     1      -5.079   2.343  -8.080  1.00  0.00     0.029 A 
ATOM     52  C   UNL     1      -6.223   1.556  -8.540  1.00  0.00     0.049 A 
ATOM     53  H   UNL     1      -6.175  -0.315  -9.454  1.00  0.00     0.167 HD
ATOM     54  C   UNL     1      -5.928  -4.166 -11.541  1.00  0.00     0.037 A 
ATOM     55  C   UNL     1      -7.519   1.913  -8.437  1.00  0.00     0.037 A 
ATOM     56  C   UNL     1      -7.336  -3.898 -11.416  1.00  0.00     0.049 A 
ATOM     57  C   UNL     1      -8.585   0.985  -8.971  1.00  0.00     0.074 A 
ATOM     58  C   UNL     1      -8.402  -4.689 -11.809  1.00  0.00     0.029 A 
ATOM     59  N   UNL     1      -7.877  -2.749 -10.857  1.00  0.00    -0.354 N 
ATOM     60  N   UNL     1      -8.449  -0.190  -9.541  1.00  0.00    -0.248 NA
ATOM     61  C   UNL     1      -9.980   1.431  -8.846  1.00  0.00     0.031 C 
ATOM     62  C   UNL     1      -9.586  -4.003 -11.522  1.00  0.00     0.029 A 
ATOM     63  C   UNL     1      -9.259  -2.806 -10.904  1.00  0.00     0.049 A 
ATOM     64  H   UNL     1      -7.354  -2.004 -10.482  1.00  0.00     0.167 HD
ATOM     65  C   UNL     1      -9.741  -0.635  -9.808  1.00  0.00     0.074 A 
ATOM     66  C   UNL     1     -10.644   0.389  -9.328  1.00  0.00     0.031 C 
ATOM     67  C   UNL     1     -10.145  -1.788 -10.398  1.00  0.00     0.037 A 
BRANCH  54  68
ATOM     68  C   UNL     1      -5.502  -5.472 -12.152  1.00  0.00     0.058 A 
ATOM     69  C   UNL     1      -4.938  -6.494 -11.373  1.00  0.00     0.135 A 
ATOM     70  C   UNL     1      -5.700  -5.723 -13.519  1.00  0.00     0.135 A 
ATOM     71  F   UNL     1      -4.707  -6.298 -10.065  1.00  0.00    -0.206 F 
ATOM     72  C   UNL     1      -4.572  -7.715 -11.930  1.00  0.00     0.059 A 
ATOM     73  C   UNL     1      -5.366  -6.946 -14.093  1.00  0.00     0.059 A 
ATOM     74  F   UNL     1      -6.231  -4.777 -14.311  1.00  0.00    -0.206 F 
ATOM     75  C   UNL     1      -4.794  -7.933 -13.291  1.00  0.00     0.060 A 
BRANCH  75  76
ATOM     76  S   UNL     1      -4.335  -9.532 -13.991  1.00  0.00     0.124 S 
ATOM     77  O   UNL     1      -2.878  -9.451 -13.973  1.00  0.00    -0.237 OA
ATOM     78  O   UNL     1      -4.929 -10.469 -13.041  1.00  0.00    -0.237 OA
ATOM     79  O   UNL     1      -4.948  -9.513 -15.315  1.00  0.00    -0.744 OA
ENDBRANCH  75  76
ENDBRANCH  54  68
BRANCH  55  80
ATOM     80  C   UNL     1      -7.898   3.221  -7.835  1.00  0.00     0.058 A 
ATOM     81  C   UNL     1      -8.613   3.287  -6.630  1.00  0.00     0.135 A 
ATOM     82  C   UNL     1      -7.598   4.430  -8.482  1.00  0.00     0.135 A 
ATOM     83  F   UNL     1      -8.934   2.159  -5.978  1.00  0.00    -0.206 F 
ATOM     84  C   UNL     1      -9.050   4.500  -6.106  1.00  0.00     0.059 A 
ATOM     85  C   UNL     1      -7.996   5.658  -7.962  1.00  0.00     0.059 A 
ATOM     86  F   UNL     1      -6.906   4.425  -9.632  1.00  0.00    -0.206 F 
ATOM     87  C   UNL     1      -8.740   5.681  -6.784  1.00  0.00     0.060 A 
BRANCH  87  88
ATOM     88  S   UNL     1      -9.309   7.251  -6.096  1.00  0.00     0.124 S 
ATOM     89  O   UNL     1     -10.734   7.205  -6.403  1.00  0.00    -0.237 OA
ATOM     90  O   UNL     1      -8.955   7.114  -4.686  1.00  0.00    -0.237 OA
ATOM     91  O   UNL     1      -8.534   8.241  -6.837  1.00  0.00    -0.744 OA
ENDBRANCH  87  88
ENDBRANCH  55  80
BRANCH  67  92
ATOM     92  C   UNL     1     -11.626  -2.035 -10.508  1.00  0.00     0.058 A 
ATOM     93  C   UNL     1     -12.431  -1.329 -11.415  1.00  0.00     0.135 A 
ATOM     94  C   UNL     1     -12.236  -3.036  -9.733  1.00  0.00     0.135 A 
ATOM     95  F   UNL     1     -11.900  -0.359 -12.177  1.00  0.00    -0.206 F 
ATOM     96  C   UNL     1     -13.793  -1.587 -11.532  1.00  0.00     0.059 A 
ATOM     97  C   UNL     1     -13.590  -3.332  -9.854  1.00  0.00     0.059 A 
ATOM     98  F   UNL     1     -11.510  -3.751  -8.859  1.00  0.00    -0.206 F 
ATOM     99  C   UNL     1     -14.364  -2.593 -10.748  1.00  0.00     0.060 A 
BRANCH  99 100
ATOM    100  S   UNL     1     -16.125  -2.943 -10.935  1.00  0.00     0.124 S 
ATOM    101  O   UNL     1     -16.726  -1.792 -10.269  1.00  0.00    -0.237 OA
ATOM    102  O   UNL     1     -16.282  -2.990 -12.386  1.00  0.00    -0.237 OA
ATOM    103  O   UNL     1     -16.292  -4.222 -10.252  1.00  0.00    -0.744 OA
ENDBRANCH  99 100
ENDBRANCH  67  92
ENDBRANCH  41  42
ENDBRANCH  34  36
ENDBRANCH  33  34
ENDBRANCH  32  33
ENDBRANCH  31  32
ENDBRANCH  30  31
ENDBRANCH  29  30
ENDBRANCH   1  29
TORSDOF 25
