REMARK SMILES O=C(/C=C/c1ccccc1Oc1cccc(Cl)c1)OCCOCCOCCOC(=O)c1ccc(-c2c3nc(c(-c4c(F)cc(S(=O)(=O)[O-])cc4F)c4ccc([nH]4)c(-c4c(F)cc(S(=O)(=O)[O-])cc4F)c4nc(c(-c5c(F)cc(S(=O)(=O)[O-])cc5F)c5ccc2[nH]5)C=C4)C=C3)cc1
REMARK SMILES IDX 23 1 22 2 21 3 20 4 19 5 2 6 1 7 3 8 4 9 5 10 6 11 10 12
REMARK SMILES IDX 7 13 9 14 8 15 11 16 12 17 13 18 18 19 14 20 16 21 15 22
REMARK SMILES IDX 17 23 24 24 25 25 26 26 27 27 28 28 29 29 30 30 31 31 32 32
REMARK SMILES IDX 96 33 33 34 95 35 34 36 35 37 36 38 89 39 37 40 94 41 88 42
REMARK SMILES IDX 90 43 38 44 93 45 87 46 86 47 39 49 73 50 52 51 72 52 53 53
REMARK SMILES IDX 56 54 71 55 91 56 54 57 55 58 70 60 92 61 57 62 40 63 41 64
REMARK SMILES IDX 50 65 42 66 43 67 49 68 51 69 44 70 45 71 46 72 47 73 48 74
REMARK SMILES IDX 74 75 75 76 84 77 76 78 77 79 83 80 85 81 78 82 79 83 80 84
REMARK SMILES IDX 81 85 82 86 58 87 59 88 68 89 60 90 61 91 67 92 69 93 62 94
REMARK SMILES IDX 63 95 64 96 65 97 66 98
REMARK H PARENT 90 48 56 59
REMARK Flexibility Score: inf
ROOT
ATOM      1  C   UNL     1       3.155  -0.280  -2.468  1.00  0.00     0.188 C 
ENDROOT
BRANCH   1   2
ATOM      2  O   UNL     1       4.062  -1.308  -2.069  1.00  0.00    -0.376 OA
BRANCH   2   3
ATOM      3  C   UNL     1       5.047  -0.848  -1.144  1.00  0.00     0.202 C 
BRANCH   3   4
ATOM      4  C   UNL     1       4.934  -1.609   0.176  1.00  0.00     0.261 C 
BRANCH   4   5
ATOM      5  O   UNL     1       3.651  -1.563   0.843  1.00  0.00    -0.460 OA
BRANCH   5   6
ATOM      6  C   UNL     1       2.807  -0.513   0.852  1.00  0.00     0.330 C 
ATOM      7  O   UNL     1       1.591  -0.672   0.815  1.00  0.00    -0.247 OA
BRANCH   6   8
ATOM      8  C   UNL     1       3.360   0.852   0.878  1.00  0.00     0.094 C 
ATOM      9  C   UNL     1       4.452   1.228   1.558  1.00  0.00     0.019 C 
BRANCH   9  10
ATOM     10  C   UNL     1       4.879   2.632   1.581  1.00  0.00     0.017 A 
ATOM     11  C   UNL     1       5.818   2.996   0.593  1.00  0.00     0.012 A 
ATOM     12  C   UNL     1       4.454   3.605   2.506  1.00  0.00     0.134 A 
ATOM     13  C   UNL     1       6.336   4.290   0.527  1.00  0.00     0.001 A 
ATOM     14  C   UNL     1       4.988   4.903   2.424  1.00  0.00     0.048 A 
ATOM     15  C   UNL     1       5.920   5.245   1.444  1.00  0.00     0.004 A 
BRANCH  12  16
ATOM     16  O   UNL     1       3.619   3.459   3.598  1.00  0.00    -0.457 OA
BRANCH  16  17
ATOM     17  C   UNL     1       2.676   2.469   3.617  1.00  0.00     0.128 A 
ATOM     18  C   UNL     1       1.423   2.676   3.038  1.00  0.00     0.047 A 
ATOM     19  C   UNL     1       2.960   1.287   4.301  1.00  0.00     0.067 A 
ATOM     20  C   UNL     1       0.470   1.657   3.082  1.00  0.00     0.005 A 
ATOM     21  C   UNL     1       2.015   0.265   4.314  1.00  0.00     0.044 A 
ATOM     22  C   UNL     1       0.772   0.444   3.707  1.00  0.00     0.021 A 
ATOM     23  Cl  UNL     1       2.411  -1.246   5.037  1.00  0.00    -0.084 Cl
ENDBRANCH  16  17
ENDBRANCH  12  16
ENDBRANCH   9  10
ENDBRANCH   6   8
ENDBRANCH   5   6
ENDBRANCH   4   5
ENDBRANCH   3   4
ENDBRANCH   2   3
ENDBRANCH   1   2
BRANCH   1  24
ATOM     24  C   UNL     1       2.286  -0.713  -3.649  1.00  0.00     0.188 C 
BRANCH  24  25
ATOM     25  O   UNL     1       2.929  -1.279  -4.789  1.00  0.00    -0.376 OA
BRANCH  25  26
ATOM     26  C   UNL     1       4.246  -0.855  -5.112  1.00  0.00     0.202 C 
BRANCH  26  27
ATOM     27  C   UNL     1       4.369   0.519  -5.773  1.00  0.00     0.261 C 
BRANCH  27  28
ATOM     28  O   UNL     1       3.999   1.613  -4.913  1.00  0.00    -0.460 OA
BRANCH  28  29
ATOM     29  C   UNL     1       2.846   2.235  -5.261  1.00  0.00     0.338 C 
ATOM     30  O   UNL     1       2.084   1.923  -6.158  1.00  0.00    -0.246 OA
BRANCH  29  31
ATOM     31  C   UNL     1       2.560   3.366  -4.359  1.00  0.00     0.060 A 
ATOM     32  C   UNL     1       1.332   3.378  -3.687  1.00  0.00     0.016 A 
ATOM     33  C   UNL     1       3.384   4.495  -4.351  1.00  0.00     0.016 A 
ATOM     34  C   UNL     1       0.889   4.548  -3.067  1.00  0.00     0.010 A 
ATOM     35  C   UNL     1       2.933   5.669  -3.735  1.00  0.00     0.010 A 
ATOM     36  C   UNL     1       1.661   5.716  -3.137  1.00  0.00    -0.014 A 
BRANCH  36  37
ATOM     37  C   UNL     1       1.063   7.023  -2.760  1.00  0.00     0.031 A 
ATOM     38  C   UNL     1       0.484   7.902  -3.840  1.00  0.00     0.074 A 
ATOM     39  C   UNL     1       1.014   7.424  -1.477  1.00  0.00     0.049 A 
ATOM     40  N   UNL     1      -0.029   9.103  -3.748  1.00  0.00    -0.248 NA
ATOM     41  C   UNL     1       0.485   7.353  -5.206  1.00  0.00     0.031 C 
ATOM     42  C   UNL     1       1.500   6.660  -0.330  1.00  0.00     0.029 A 
ATOM     43  N   UNL     1       0.535   8.589  -0.929  1.00  0.00    -0.354 N 
ATOM     44  C   UNL     1      -0.406   9.456  -5.039  1.00  0.00     0.074 A 
ATOM     45  C   UNL     1      -0.043   8.351  -5.901  1.00  0.00     0.031 C 
ATOM     46  C   UNL     1       1.308   7.384   0.787  1.00  0.00     0.029 A 
ATOM     47  C   UNL     1       0.713   8.673   0.430  1.00  0.00     0.049 A 
ATOM     48  H   UNL     1       0.105   9.297  -1.461  1.00  0.00     0.167 HD
ATOM     49  C   UNL     1      -1.004  10.593  -5.471  1.00  0.00     0.037 A 
ATOM     50  C   UNL     1       0.450   9.682   1.284  1.00  0.00     0.037 A 
ATOM     51  C   UNL     1      -1.374  11.694  -4.622  1.00  0.00     0.049 A 
ATOM     52  C   UNL     1      -0.158  10.963   0.772  1.00  0.00     0.074 A 
ATOM     53  C   UNL     1      -1.996  12.881  -4.973  1.00  0.00     0.029 A 
ATOM     54  N   UNL     1      -1.154  11.749  -3.255  1.00  0.00    -0.354 N 
ATOM     55  N   UNL     1      -0.513  11.279  -0.450  1.00  0.00    -0.248 NA
ATOM     56  C   UNL     1      -0.397  12.028   1.760  1.00  0.00     0.031 C 
ATOM     57  C   UNL     1      -2.121  13.668  -3.822  1.00  0.00     0.029 A 
ATOM     58  C   UNL     1      -1.611  12.955  -2.750  1.00  0.00     0.049 A 
ATOM     59  H   UNL     1      -0.736  11.035  -2.721  1.00  0.00     0.167 HD
ATOM     60  C   UNL     1      -1.036  12.567  -0.373  1.00  0.00     0.074 A 
ATOM     61  C   UNL     1      -0.960  12.970   1.015  1.00  0.00     0.031 C 
ATOM     62  C   UNL     1      -1.536  13.345  -1.365  1.00  0.00     0.037 A 
BRANCH  49  63
ATOM     63  C   UNL     1      -1.283  10.713  -6.942  1.00  0.00     0.058 A 
ATOM     64  C   UNL     1      -2.340  10.018  -7.548  1.00  0.00     0.135 A 
ATOM     65  C   UNL     1      -0.507  11.563  -7.745  1.00  0.00     0.135 A 
ATOM     66  F   UNL     1      -3.101   9.180  -6.826  1.00  0.00    -0.206 F 
ATOM     67  C   UNL     1      -2.608  10.148  -8.907  1.00  0.00     0.059 A 
ATOM     68  C   UNL     1      -0.770  11.723  -9.102  1.00  0.00     0.059 A 
ATOM     69  F   UNL     1       0.517  12.248  -7.213  1.00  0.00    -0.206 F 
ATOM     70  C   UNL     1      -1.815  11.001  -9.677  1.00  0.00     0.060 A 
BRANCH  70  71
ATOM     71  S   UNL     1      -2.176  11.166 -11.438  1.00  0.00     0.124 S 
ATOM     72  O   UNL     1      -1.631   9.918 -11.964  1.00  0.00    -0.237 OA
ATOM     73  O   UNL     1      -3.631  11.278 -11.453  1.00  0.00    -0.237 OA
ATOM     74  O   UNL     1      -1.455  12.376 -11.820  1.00  0.00    -0.744 OA
ENDBRANCH  70  71
ENDBRANCH  49  63
BRANCH  50  75
ATOM     75  C   UNL     1       0.787   9.540   2.724  1.00  0.00     0.058 A 
ATOM     76  C   UNL     1      -0.217   9.408   3.693  1.00  0.00     0.135 A 
ATOM     77  C   UNL     1       2.122   9.554   3.157  1.00  0.00     0.135 A 
ATOM     78  F   UNL     1      -1.507   9.402   3.325  1.00  0.00    -0.206 F 
ATOM     79  C   UNL     1       0.088   9.314   5.047  1.00  0.00     0.059 A 
ATOM     80  C   UNL     1       2.452   9.441   4.502  1.00  0.00     0.059 A 
ATOM     81  F   UNL     1       3.119   9.667   2.265  1.00  0.00    -0.206 F 
ATOM     82  C   UNL     1       1.427   9.334   5.441  1.00  0.00     0.060 A 
BRANCH  82  83
ATOM     83  S   UNL     1       1.823   9.174   7.196  1.00  0.00     0.124 S 
ATOM     84  O   UNL     1       1.553  10.523   7.679  1.00  0.00    -0.237 OA
ATOM     85  O   UNL     1       0.891   8.140   7.631  1.00  0.00    -0.237 OA
ATOM     86  O   UNL     1       3.228   8.776   7.182  1.00  0.00    -0.744 OA
ENDBRANCH  82  83
ENDBRANCH  50  75
BRANCH  62  87
ATOM     87  C   UNL     1      -2.068  14.700  -0.987  1.00  0.00     0.058 A 
ATOM     88  C   UNL     1      -1.210  15.769  -0.686  1.00  0.00     0.135 A 
ATOM     89  C   UNL     1      -3.450  14.946  -0.974  1.00  0.00     0.135 A 
ATOM     90  F   UNL     1       0.120  15.587  -0.680  1.00  0.00    -0.206 F 
ATOM     91  C   UNL     1      -1.704  17.030  -0.364  1.00  0.00     0.059 A 
ATOM     92  C   UNL     1      -3.967  16.203  -0.676  1.00  0.00     0.059 A 
ATOM     93  F   UNL     1      -4.314  13.960  -1.265  1.00  0.00    -0.206 F 
ATOM     94  C   UNL     1      -3.085  17.237  -0.360  1.00  0.00     0.060 A 
BRANCH  94  95
ATOM     95  S   UNL     1      -3.718  18.884   0.028  1.00  0.00     0.124 S 
ATOM     96  O   UNL     1      -3.590  18.912   1.482  1.00  0.00    -0.237 OA
ATOM     97  O   UNL     1      -2.805  19.755  -0.705  1.00  0.00    -0.237 OA
ATOM     98  O   UNL     1      -5.085  18.850  -0.482  1.00  0.00    -0.744 OA
ENDBRANCH  94  95
ENDBRANCH  62  87
ENDBRANCH  36  37
ENDBRANCH  29  31
ENDBRANCH  28  29
ENDBRANCH  27  28
ENDBRANCH  26  27
ENDBRANCH  25  26
ENDBRANCH  24  25
ENDBRANCH   1  24
TORSDOF 23
