REMARK SMILES Cc1cc(CS(=O)(=O)N[C@@H]2C=C[C@H](C(=O)OCCOCCOCCOC(=O)c3ccc(-c4c5nc(c(-c6c(F)cc(S(=O)(=O)[O-])cc6F)c6ccc([nH]6)c(-c6c(F)cc(S(=O)(=O)[O-])cc6F)c6nc(c(-c7c(F)cc(S(=O)(=O)[O-])cc7F)c7ccc4[nH]7)C=C6)C=C5)cc3)C2)no1
REMARK SMILES IDX 20 1 19 2 18 3 17 4 16 5 14 6 15 7 13 8 10 9 11 10 94 11
REMARK SMILES IDX 12 12 9 13 6 15 7 16 8 17 5 18 4 19 1 20 2 21 3 22 96 23
REMARK SMILES IDX 95 24 21 25 22 26 23 27 24 28 25 29 26 30 27 31 28 32 29 33
REMARK SMILES IDX 93 34 30 35 92 36 31 37 32 38 33 39 86 40 34 41 91 42 85 43
REMARK SMILES IDX 87 44 35 45 90 46 84 47 83 48 36 50 70 51 49 52 69 53 50 54
REMARK SMILES IDX 53 55 68 56 88 57 51 58 52 59 67 61 89 62 54 63 37 64 38 65
REMARK SMILES IDX 47 66 39 67 40 68 46 69 48 70 41 71 42 72 43 73 44 74 45 75
REMARK SMILES IDX 71 76 72 77 81 78 73 79 74 80 80 81 82 82 75 83 76 84 77 85
REMARK SMILES IDX 78 86 79 87 55 88 56 89 65 90 57 91 58 92 64 93 66 94 59 95
REMARK SMILES IDX 60 96 61 97 62 98 63 99
REMARK H PARENT 9 14 87 49 53 60
REMARK Flexibility Score: inf
ROOT
ATOM      1  C   UNL     1       3.239   0.141   5.926  1.00  0.00     0.188 C 
ENDROOT
BRANCH   1   2
ATOM      2  O   UNL     1       4.523   0.442   5.427  1.00  0.00    -0.376 OA
BRANCH   2   3
ATOM      3  C   UNL     1       4.752   0.559   4.031  1.00  0.00     0.202 C 
BRANCH   3   4
ATOM      4  C   UNL     1       3.661   0.811   2.971  1.00  0.00     0.261 C 
BRANCH   4   5
ATOM      5  O   UNL     1       2.326   0.803   3.462  1.00  0.00    -0.463 OA
BRANCH   5   6
ATOM      6  C   UNL     1       1.525  -0.242   3.108  1.00  0.00     0.312 C 
ATOM      7  O   UNL     1       1.785  -1.082   2.260  1.00  0.00    -0.252 OA
BRANCH   6   8
ATOM      8  C   UNL     1       0.291  -0.236   4.000  1.00  0.00     0.123 C 
ATOM      9  C   UNL     1      -1.759  -0.706   2.805  1.00  0.00     0.093 C 
ATOM     10  C   UNL     1      -1.590   0.757   3.069  1.00  0.00    -0.011 C 
ATOM     11  C   UNL     1      -0.698  -1.351   3.682  1.00  0.00     0.043 C 
ATOM     12  C   UNL     1      -0.483   1.020   3.760  1.00  0.00    -0.015 C 
BRANCH   9  13
ATOM     13  N   UNL     1      -1.507  -0.885   1.381  1.00  0.00    -0.208 NA
ATOM     14  H   UNL     1      -1.452   0.043   0.962  1.00  0.00     0.141 HD
BRANCH  13  15
ATOM     15  S   UNL     1      -2.630  -1.769   0.500  1.00  0.00     0.218 S 
ATOM     16  O   UNL     1      -2.906  -2.979   1.242  1.00  0.00    -0.212 OA
ATOM     17  O   UNL     1      -2.065  -1.846  -0.831  1.00  0.00    -0.212 OA
BRANCH  15  18
ATOM     18  C   UNL     1      -4.095  -0.705   0.399  1.00  0.00     0.213 C 
BRANCH  18  19
ATOM     19  C   UNL     1      -4.706  -0.343   1.703  1.00  0.00     0.100 A 
ATOM     20  C   UNL     1      -5.217   1.462   4.850  1.00  0.00     0.091 C 
ATOM     21  C   UNL     1      -5.165   0.672   3.605  1.00  0.00     0.133 A 
ATOM     22  C   UNL     1      -4.787   0.937   2.311  1.00  0.00     0.073 A 
ATOM     23  O   UNL     1      -5.479  -0.646   3.712  1.00  0.00    -0.361 OA
ATOM     24  N   UNL     1      -5.238  -1.275   2.504  1.00  0.00    -0.084 NA
ENDBRANCH  18  19
ENDBRANCH  15  18
ENDBRANCH  13  15
ENDBRANCH   9  13
ENDBRANCH   6   8
ENDBRANCH   5   6
ENDBRANCH   4   5
ENDBRANCH   3   4
ENDBRANCH   2   3
ENDBRANCH   1   2
BRANCH   1  25
ATOM     25  C   UNL     1       2.391   1.382   6.303  1.00  0.00     0.188 C 
BRANCH  25  26
ATOM     26  O   UNL     1       2.858   2.677   5.978  1.00  0.00    -0.376 OA
BRANCH  26  27
ATOM     27  C   UNL     1       4.147   3.068   6.423  1.00  0.00     0.202 C 
BRANCH  27  28
ATOM     28  C   UNL     1       4.695   2.686   7.816  1.00  0.00     0.261 C 
BRANCH  28  29
ATOM     29  O   UNL     1       4.405   1.367   8.307  1.00  0.00    -0.460 OA
BRANCH  29  30
ATOM     30  C   UNL     1       3.513   1.299   9.329  1.00  0.00     0.338 C 
ATOM     31  O   UNL     1       2.937   2.234   9.860  1.00  0.00    -0.246 OA
BRANCH  30  32
ATOM     32  C   UNL     1       3.169  -0.114   9.602  1.00  0.00     0.060 A 
ATOM     33  C   UNL     1       1.854  -0.548   9.374  1.00  0.00     0.016 A 
ATOM     34  C   UNL     1       4.114  -0.989  10.137  1.00  0.00     0.016 A 
ATOM     35  C   UNL     1       1.474  -1.851   9.702  1.00  0.00     0.010 A 
ATOM     36  C   UNL     1       3.725  -2.288  10.488  1.00  0.00     0.010 A 
ATOM     37  C   UNL     1       2.397  -2.717  10.300  1.00  0.00    -0.014 A 
BRANCH  37  38
ATOM     38  C   UNL     1       1.944  -4.004  10.890  1.00  0.00     0.031 A 
ATOM     39  C   UNL     1       1.710  -4.073  12.376  1.00  0.00     0.074 A 
ATOM     40  C   UNL     1       1.744  -5.095  10.128  1.00  0.00     0.049 A 
ATOM     41  N   UNL     1       1.403  -5.101  13.123  1.00  0.00    -0.248 NA
ATOM     42  C   UNL     1       1.848  -2.809  13.119  1.00  0.00     0.031 C 
ATOM     43  C   UNL     1       1.891  -5.150   8.675  1.00  0.00     0.029 A 
ATOM     44  N   UNL     1       1.389  -6.375  10.479  1.00  0.00    -0.354 N 
ATOM     45  C   UNL     1       1.324  -4.614  14.424  1.00  0.00     0.074 A 
ATOM     46  C   UNL     1       1.642  -3.204  14.366  1.00  0.00     0.031 C 
ATOM     47  C   UNL     1       1.647  -6.406   8.259  1.00  0.00     0.029 A 
ATOM     48  C   UNL     1       1.364  -7.252   9.419  1.00  0.00     0.049 A 
ATOM     49  H   UNL     1       1.172  -6.640  11.402  1.00  0.00     0.167 HD
ATOM     50  C   UNL     1       1.012  -5.281  15.561  1.00  0.00     0.037 A 
ATOM     51  C   UNL     1       1.167  -8.586   9.392  1.00  0.00     0.037 A 
ATOM     52  C   UNL     1       0.699  -6.686  15.614  1.00  0.00     0.049 A 
ATOM     53  C   UNL     1       0.894  -9.322  10.681  1.00  0.00     0.074 A 
ATOM     54  C   UNL     1       0.350  -7.447  16.716  1.00  0.00     0.029 A 
ATOM     55  N   UNL     1       0.706  -7.543  14.523  1.00  0.00    -0.354 N 
ATOM     56  N   UNL     1       0.802  -8.847  11.902  1.00  0.00    -0.248 NA
ATOM     57  C   UNL     1       0.697 -10.777  10.590  1.00  0.00     0.031 C 
ATOM     58  C   UNL     1       0.205  -8.775  16.302  1.00  0.00     0.029 A 
ATOM     59  C   UNL     1       0.397  -8.831  14.931  1.00  0.00     0.049 A 
ATOM     60  H   UNL     1       0.902  -7.276  13.596  1.00  0.00     0.167 HD
ATOM     61  C   UNL     1       0.503  -9.938  12.715  1.00  0.00     0.074 A 
ATOM     62  C   UNL     1       0.422 -11.094  11.848  1.00  0.00     0.031 C 
ATOM     63  C   UNL     1       0.309  -9.976  14.057  1.00  0.00     0.037 A 
BRANCH  50  64
ATOM     64  C   UNL     1       1.024  -4.505  16.851  1.00  0.00     0.058 A 
ATOM     65  C   UNL     1       0.051  -3.536  17.144  1.00  0.00     0.135 A 
ATOM     66  C   UNL     1       2.004  -4.761  17.824  1.00  0.00     0.135 A 
ATOM     67  F   UNL     1      -0.899  -3.236  16.243  1.00  0.00    -0.206 F 
ATOM     68  C   UNL     1       0.065  -2.830  18.343  1.00  0.00     0.059 A 
ATOM     69  C   UNL     1       2.019  -4.090  19.043  1.00  0.00     0.059 A 
ATOM     70  F   UNL     1       2.960  -5.676  17.596  1.00  0.00    -0.206 F 
ATOM     71  C   UNL     1       1.053  -3.116  19.287  1.00  0.00     0.060 A 
BRANCH  71  72
ATOM     72  S   UNL     1       1.053  -2.195  20.840  1.00  0.00     0.124 S 
ATOM     73  O   UNL     1       1.480  -0.872  20.394  1.00  0.00    -0.237 OA
ATOM     74  O   UNL     1      -0.339  -2.302  21.264  1.00  0.00    -0.237 OA
ATOM     75  O   UNL     1       2.015  -2.918  21.666  1.00  0.00    -0.744 OA
ENDBRANCH  71  72
ENDBRANCH  50  64
BRANCH  51  76
ATOM     76  C   UNL     1       1.236  -9.325   8.101  1.00  0.00     0.058 A 
ATOM     77  C   UNL     1       0.095  -9.919   7.541  1.00  0.00     0.135 A 
ATOM     78  C   UNL     1       2.449  -9.466   7.408  1.00  0.00     0.135 A 
ATOM     79  F   UNL     1      -1.085  -9.828   8.173  1.00  0.00    -0.206 F 
ATOM     80  C   UNL     1       0.154 -10.637   6.351  1.00  0.00     0.059 A 
ATOM     81  C   UNL     1       2.529 -10.155   6.201  1.00  0.00     0.059 A 
ATOM     82  F   UNL     1       3.571  -8.913   7.896  1.00  0.00    -0.206 F 
ATOM     83  C   UNL     1       1.377 -10.747   5.686  1.00  0.00     0.060 A 
BRANCH  83  84
ATOM     84  S   UNL     1       1.436 -11.648   4.122  1.00  0.00     0.124 S 
ATOM     85  O   UNL     1       1.269 -13.026   4.570  1.00  0.00    -0.237 OA
ATOM     86  O   UNL     1       0.309 -11.072   3.395  1.00  0.00    -0.237 OA
ATOM     87  O   UNL     1       2.754 -11.313   3.591  1.00  0.00    -0.744 OA
ENDBRANCH  83  84
ENDBRANCH  51  76
BRANCH  63  88
ATOM     88  C   UNL     1      -0.059 -11.300  14.677  1.00  0.00     0.058 A 
ATOM     89  C   UNL     1       0.868 -12.347  14.798  1.00  0.00     0.135 A 
ATOM     90  C   UNL     1      -1.343 -11.499  15.212  1.00  0.00     0.135 A 
ATOM     91  F   UNL     1       2.108 -12.214  14.302  1.00  0.00    -0.206 F 
ATOM     92  C   UNL     1       0.527 -13.553  15.405  1.00  0.00     0.059 A 
ATOM     93  C   UNL     1      -1.695 -12.684  15.851  1.00  0.00     0.059 A 
ATOM     94  F   UNL     1      -2.266 -10.527  15.136  1.00  0.00    -0.206 F 
ATOM     95  C   UNL     1      -0.756 -13.711  15.932  1.00  0.00     0.060 A 
BRANCH  95  96
ATOM     96  S   UNL     1      -1.173 -15.267  16.749  1.00  0.00     0.124 S 
ATOM     97  O   UNL     1      -1.266 -16.180  15.614  1.00  0.00    -0.237 OA
ATOM     98  O   UNL     1      -0.030 -15.470  17.634  1.00  0.00    -0.237 OA
ATOM     99  O   UNL     1      -2.434 -14.972  17.422  1.00  0.00    -0.744 OA
ENDBRANCH  95  96
ENDBRANCH  63  88
ENDBRANCH  37  38
ENDBRANCH  30  32
ENDBRANCH  29  30
ENDBRANCH  28  29
ENDBRANCH  27  28
ENDBRANCH  26  27
ENDBRANCH  25  26
ENDBRANCH   1  25
TORSDOF 24
