REMARK SMILES O=C(C[C@]1(C(=O)NC2CCCCC2)CC(c2ccc([N+](=O)[O-])cc2)=NO1)OCCOCCOCCOC(=O)c1ccc(-c2c3nc(c(-c4c(F)cc(S(=O)(=O)[O-])cc4F)c4ccc([nH]4)c(-c4c(F)cc(S(=O)(=O)[O-])cc4F)c4nc(c(-c5c(F)cc(S(=O)(=O)[O-])cc5F)c5ccc2[nH]5)C=C4)C=C3)cc1
REMARK SMILES IDX 31 1 30 2 29 3 28 4 27 5 2 6 1 7 3 8 4 9 14 10 26 11 15 12
REMARK SMILES IDX 25 13 5 14 6 15 7 16 8 18 9 19 13 20 10 21 12 22 11 23 16 24
REMARK SMILES IDX 17 25 24 26 18 27 23 28 19 29 20 30 21 31 22 32 32 33 33 34
REMARK SMILES IDX 34 35 35 36 36 37 37 38 38 39 39 40 40 41 104 42 41 43
REMARK SMILES IDX 103 44 42 45 43 46 44 47 97 48 45 49 102 50 96 51 98 52
REMARK SMILES IDX 46 53 101 54 95 55 94 56 47 58 81 59 60 60 80 61 61 62 64 63
REMARK SMILES IDX 79 64 99 65 62 66 63 67 78 69 100 70 65 71 48 72 49 73 58 74
REMARK SMILES IDX 50 75 51 76 57 77 59 78 52 79 53 80 54 81 55 82 56 83 82 84
REMARK SMILES IDX 83 85 92 86 84 87 85 88 91 89 93 90 86 91 87 92 88 93 89 94
REMARK SMILES IDX 90 95 66 96 67 97 76 98 68 99 69 100 75 101 77 102 70 103
REMARK SMILES IDX 71 104 72 105 73 106 74 107
REMARK H PARENT 7 17 98 57 64 68
REMARK Flexibility Score: inf
ROOT
ATOM      1  C   UNL     1       7.128   0.133  -0.135  1.00  0.00     0.188 C 
ENDROOT
BRANCH   1   2
ATOM      2  O   UNL     1       6.556  -0.822  -1.015  1.00  0.00    -0.376 OA
BRANCH   2   3
ATOM      3  C   UNL     1       5.446  -1.549  -0.517  1.00  0.00     0.202 C 
BRANCH   3   4
ATOM      4  C   UNL     1       4.139  -0.884  -0.949  1.00  0.00     0.261 C 
BRANCH   4   5
ATOM      5  O   UNL     1       4.054   0.537  -0.716  1.00  0.00    -0.463 OA
BRANCH   5   6
ATOM      6  C   UNL     1       4.060   1.183   0.461  1.00  0.00     0.310 C 
ATOM      7  O   UNL     1       4.111   2.412   0.475  1.00  0.00    -0.252 OA
BRANCH   6   8
ATOM      8  C   UNL     1       4.084   0.402   1.752  1.00  0.00     0.185 C 
BRANCH   8   9
ATOM      9  C   UNL     1       2.698   0.209   2.349  1.00  0.00     0.231 C 
ATOM     10  C   UNL     1       2.640  -0.109   3.830  1.00  0.00     0.123 C 
ATOM     11  O   UNL     1       2.211  -1.004   1.713  1.00  0.00    -0.378 OA
ATOM     12  C   UNL     1       2.482  -1.582   3.781  1.00  0.00     0.092 C 
ATOM     13  N   UNL     1       2.345  -2.094   2.606  1.00  0.00    -0.089 NA
BRANCH   9  14
ATOM     14  C   UNL     1       1.757   1.362   1.976  1.00  0.00     0.268 C 
ATOM     15  O   UNL     1       0.865   1.209   1.135  1.00  0.00    -0.270 OA
ATOM     16  N   UNL     1       1.906   2.619   2.472  1.00  0.00    -0.350 N 
ATOM     17  H   UNL     1       1.446   3.284   1.910  1.00  0.00     0.163 HD
BRANCH  16  18
ATOM     18  C   UNL     1       2.572   3.256   3.626  1.00  0.00     0.082 C 
ATOM     19  C   UNL     1       4.078   3.014   3.786  1.00  0.00     0.025 C 
ATOM     20  C   UNL     1       2.330   4.774   3.510  1.00  0.00     0.025 C 
ATOM     21  C   UNL     1       4.692   3.799   4.944  1.00  0.00     0.002 C 
ATOM     22  C   UNL     1       2.939   5.564   4.663  1.00  0.00     0.002 C 
ATOM     23  C   UNL     1       4.429   5.289   4.811  1.00  0.00     0.000 C 
ENDBRANCH  16  18
ENDBRANCH   9  14
BRANCH  12  24
ATOM     24  C   UNL     1       2.451  -2.358   5.024  1.00  0.00    -0.000 A 
ATOM     25  C   UNL     1       3.400  -3.350   5.281  1.00  0.00     0.017 A 
ATOM     26  C   UNL     1       1.422  -2.092   5.934  1.00  0.00     0.017 A 
ATOM     27  C   UNL     1       3.318  -4.083   6.471  1.00  0.00     0.086 A 
ATOM     28  C   UNL     1       1.327  -2.831   7.113  1.00  0.00     0.086 A 
ATOM     29  C   UNL     1       2.273  -3.830   7.376  1.00  0.00     0.269 A 
BRANCH  29  30
ATOM     30  N   UNL     1       2.137  -4.651   8.585  1.00  0.00     0.062 N 
ATOM     31  O   UNL     1       3.070  -5.416   8.868  1.00  0.00    -0.258 OA
ATOM     32  O   UNL     1       1.078  -4.566   9.223  1.00  0.00    -0.258 OA
ENDBRANCH  29  30
ENDBRANCH  12  24
ENDBRANCH   8   9
ENDBRANCH   6   8
ENDBRANCH   5   6
ENDBRANCH   4   5
ENDBRANCH   3   4
ENDBRANCH   2   3
ENDBRANCH   1   2
BRANCH   1  33
ATOM     33  C   UNL     1       8.248   0.954  -0.795  1.00  0.00     0.188 C 
BRANCH  33  34
ATOM     34  O   UNL     1       8.839   0.511  -2.009  1.00  0.00    -0.376 OA
BRANCH  34  35
ATOM     35  C   UNL     1       9.046  -0.877  -2.217  1.00  0.00     0.202 C 
BRANCH  35  36
ATOM     36  C   UNL     1       9.959  -1.630  -1.242  1.00  0.00     0.261 C 
BRANCH  36  37
ATOM     37  O   UNL     1       9.682  -1.437   0.159  1.00  0.00    -0.460 OA
BRANCH  37  38
ATOM     38  C   UNL     1      10.627  -0.722   0.820  1.00  0.00     0.338 C 
ATOM     39  O   UNL     1      11.630  -0.219   0.342  1.00  0.00    -0.246 OA
BRANCH  38  40
ATOM     40  C   UNL     1      10.268  -0.512   2.237  1.00  0.00     0.060 A 
ATOM     41  C   UNL     1      10.144   0.808   2.688  1.00  0.00     0.016 A 
ATOM     42  C   UNL     1      10.277  -1.569   3.151  1.00  0.00     0.016 A 
ATOM     43  C   UNL     1      10.099   1.080   4.057  1.00  0.00     0.010 A 
ATOM     44  C   UNL     1      10.242  -1.292   4.527  1.00  0.00     0.010 A 
ATOM     45  C   UNL     1      10.206   0.038   4.988  1.00  0.00    -0.014 A 
BRANCH  45  46
ATOM     46  C   UNL     1      10.471   0.372   6.414  1.00  0.00     0.031 A 
ATOM     47  C   UNL     1      11.892   0.357   6.923  1.00  0.00     0.074 A 
ATOM     48  C   UNL     1       9.478   0.759   7.236  1.00  0.00     0.049 A 
ATOM     49  N   UNL     1      12.351   0.664   8.110  1.00  0.00    -0.248 NA
ATOM     50  C   UNL     1      12.931  -0.053   5.965  1.00  0.00     0.031 C 
ATOM     51  C   UNL     1       8.064   0.845   6.875  1.00  0.00     0.029 A 
ATOM     52  N   UNL     1       9.514   1.155   8.551  1.00  0.00    -0.354 N 
ATOM     53  C   UNL     1      13.730   0.500   8.039  1.00  0.00     0.074 A 
ATOM     54  C   UNL     1      14.028   0.024   6.705  1.00  0.00     0.031 C 
ATOM     55  C   UNL     1       7.365   1.255   7.948  1.00  0.00     0.029 A 
ATOM     56  C   UNL     1       8.279   1.450   9.074  1.00  0.00     0.049 A 
ATOM     57  H   UNL     1      10.348   1.220   9.070  1.00  0.00     0.167 HD
ATOM     58  C   UNL     1      14.670   0.741   8.986  1.00  0.00     0.037 A 
ATOM     59  C   UNL     1       7.922   1.827  10.319  1.00  0.00     0.037 A 
ATOM     60  C   UNL     1      14.388   1.207  10.319  1.00  0.00     0.049 A 
ATOM     61  C   UNL     1       8.978   2.043  11.372  1.00  0.00     0.074 A 
ATOM     62  C   UNL     1      15.279   1.473  11.346  1.00  0.00     0.029 A 
ATOM     63  N   UNL     1      13.121   1.474  10.815  1.00  0.00    -0.354 N 
ATOM     64  N   UNL     1      10.278   1.902  11.279  1.00  0.00    -0.248 NA
ATOM     65  C   UNL     1       8.515   2.485  12.696  1.00  0.00     0.031 C 
ATOM     66  C   UNL     1      14.548   1.870  12.472  1.00  0.00     0.029 A 
ATOM     67  C   UNL     1      13.205   1.890  12.134  1.00  0.00     0.049 A 
ATOM     68  H   UNL     1      12.285   1.383  10.304  1.00  0.00     0.167 HD
ATOM     69  C   UNL     1      10.789   2.255  12.525  1.00  0.00     0.074 A 
ATOM     70  C   UNL     1       9.660   2.635  13.348  1.00  0.00     0.031 C 
ATOM     71  C   UNL     1      12.078   2.262  12.950  1.00  0.00     0.037 A 
BRANCH  58  72
ATOM     72  C   UNL     1      16.105   0.500   8.611  1.00  0.00     0.058 A 
ATOM     73  C   UNL     1      16.796   1.379   7.761  1.00  0.00     0.135 A 
ATOM     74  C   UNL     1      16.810  -0.595   9.136  1.00  0.00     0.135 A 
ATOM     75  F   UNL     1      16.163   2.432   7.220  1.00  0.00    -0.206 F 
ATOM     76  C   UNL     1      18.129   1.168   7.427  1.00  0.00     0.059 A 
ATOM     77  C   UNL     1      18.151  -0.813   8.832  1.00  0.00     0.059 A 
ATOM     78  F   UNL     1      16.195  -1.465   9.952  1.00  0.00    -0.206 F 
ATOM     79  C   UNL     1      18.798   0.068   7.967  1.00  0.00     0.060 A 
BRANCH  79  80
ATOM     80  S   UNL     1      20.531  -0.189   7.530  1.00  0.00     0.124 S 
ATOM     81  O   UNL     1      20.415  -0.683   6.162  1.00  0.00    -0.237 OA
ATOM     82  O   UNL     1      21.093   1.151   7.675  1.00  0.00    -0.237 OA
ATOM     83  O   UNL     1      20.987  -1.165   8.514  1.00  0.00    -0.744 OA
ENDBRANCH  79  80
ENDBRANCH  58  72
BRANCH  59  84
ATOM     84  C   UNL     1       6.486   2.017  10.648  1.00  0.00     0.058 A 
ATOM     85  C   UNL     1       5.951   3.293  10.873  1.00  0.00     0.135 A 
ATOM     86  C   UNL     1       5.623   0.916  10.749  1.00  0.00     0.135 A 
ATOM     87  F   UNL     1       6.742   4.375  10.800  1.00  0.00    -0.206 F 
ATOM     88  C   UNL     1       4.610   3.473  11.197  1.00  0.00     0.059 A 
ATOM     89  C   UNL     1       4.275   1.071  11.050  1.00  0.00     0.059 A 
ATOM     90  F   UNL     1       6.085  -0.325  10.527  1.00  0.00    -0.206 F 
ATOM     91  C   UNL     1       3.779   2.354  11.278  1.00  0.00     0.060 A 
BRANCH  91  92
ATOM     92  S   UNL     1       2.019   2.594  11.605  1.00  0.00     0.124 S 
ATOM     93  O   UNL     1       2.014   2.799  13.048  1.00  0.00    -0.237 OA
ATOM     94  O   UNL     1       1.712   3.763  10.788  1.00  0.00    -0.237 OA
ATOM     95  O   UNL     1       1.426   1.345  11.135  1.00  0.00    -0.744 OA
ENDBRANCH  91  92
ENDBRANCH  59  84
BRANCH  71  96
ATOM     96  C   UNL     1      12.337   2.713  14.362  1.00  0.00     0.058 A 
ATOM     97  C   UNL     1      12.003   1.911  15.464  1.00  0.00     0.135 A 
ATOM     98  C   UNL     1      12.938   3.956  14.616  1.00  0.00     0.135 A 
ATOM     99  F   UNL     1      11.423   0.714  15.277  1.00  0.00    -0.206 F 
ATOM    100  C   UNL     1      12.219   2.341  16.770  1.00  0.00     0.059 A 
ATOM    101  C   UNL     1      13.187   4.397  15.913  1.00  0.00     0.059 A 
ATOM    102  F   UNL     1      13.291   4.758  13.598  1.00  0.00    -0.206 F 
ATOM    103  C   UNL     1      12.805   3.590  16.984  1.00  0.00     0.060 A 
BRANCH 103 104
ATOM    104  S   UNL     1      13.075   4.146  18.682  1.00  0.00     0.124 S 
ATOM    105  O   UNL     1      11.733   4.570  19.067  1.00  0.00    -0.237 OA
ATOM    106  O   UNL     1      13.570   2.938  19.335  1.00  0.00    -0.237 OA
ATOM    107  O   UNL     1      14.055   5.217  18.535  1.00  0.00    -0.744 OA
ENDBRANCH 103 104
ENDBRANCH  71  96
ENDBRANCH  45  46
ENDBRANCH  38  40
ENDBRANCH  37  38
ENDBRANCH  36  37
ENDBRANCH  35  36
ENDBRANCH  34  35
ENDBRANCH  33  34
ENDBRANCH   1  33
TORSDOF 25
