REMARK SMILES Cc1nc(=O)[nH]c(C)c1CC(=O)Nc1sccc1C(=O)OCCOCCOCCOC(=O)c1ccc(-c2c3nc(c(-c4c(F)cc(S(=O)(=O)[O-])cc4F)c4ccc([nH]4)c(-c4c(F)cc(S(=O)(=O)[O-])cc4F)c4nc(c(-c5c(F)cc(S(=O)(=O)[O-])cc5F)c5ccc2[nH]5)C=C4)C=C3)cc1
REMARK SMILES IDX 25 1 24 2 23 3 22 4 21 5 19 6 20 7 18 8 14 9 15 10 16 11
REMARK SMILES IDX 17 12 13 13 11 14 12 15 10 17 9 18 1 19 2 20 3 21 4 22 7 23
REMARK SMILES IDX 5 24 6 25 8 26 26 28 27 29 28 30 29 31 30 32 31 33 32 34
REMARK SMILES IDX 33 35 34 36 98 37 35 38 97 39 36 40 37 41 38 42 91 43 39 44
REMARK SMILES IDX 96 45 90 46 92 47 40 48 95 49 89 50 88 51 41 53 75 54 54 55
REMARK SMILES IDX 74 56 55 57 58 58 73 59 93 60 56 61 57 62 72 64 94 65 59 66
REMARK SMILES IDX 42 67 43 68 52 69 44 70 45 71 51 72 53 73 46 74 47 75 48 76
REMARK SMILES IDX 49 77 50 78 76 79 77 80 86 81 78 82 79 83 85 84 87 85 80 86
REMARK SMILES IDX 81 87 82 88 83 89 84 90 60 91 61 92 70 93 62 94 63 95 69 96
REMARK SMILES IDX 71 97 64 98 65 99 66 100 67 101 68 102
REMARK H PARENT 13 16 6 27 92 52 58 63
REMARK Flexibility Score: inf
ROOT
ATOM      1  C   UNL     1       0.209   2.584   1.631  1.00  0.00     0.188 C 
ENDROOT
BRANCH   1   2
ATOM      2  O   UNL     1      -0.771   3.156   0.791  1.00  0.00    -0.376 OA
BRANCH   2   3
ATOM      3  C   UNL     1      -1.225   2.295  -0.232  1.00  0.00     0.202 C 
BRANCH   3   4
ATOM      4  C   UNL     1      -2.056   1.092   0.220  1.00  0.00     0.261 C 
BRANCH   4   5
ATOM      5  O   UNL     1      -1.534   0.001   1.022  1.00  0.00    -0.460 OA
BRANCH   5   6
ATOM      6  C   UNL     1      -0.263  -0.486   0.942  1.00  0.00     0.341 C 
ATOM      7  O   UNL     1       0.595  -0.050   0.213  1.00  0.00    -0.246 OA
BRANCH   6   8
ATOM      8  C   UNL     1       0.009  -1.536   1.940  1.00  0.00     0.094 A 
ATOM      9  C   UNL     1      -0.909  -2.401   2.497  1.00  0.00     0.110 A 
ATOM     10  S   UNL     1      -0.332  -3.214   3.873  1.00  0.00    -0.126 S 
ATOM     11  C   UNL     1       1.262  -2.672   3.580  1.00  0.00     0.068 A 
ATOM     12  C   UNL     1       1.304  -1.764   2.541  1.00  0.00     0.029 A 
BRANCH   9  13
ATOM     13  N   UNL     1      -2.208  -2.704   2.188  1.00  0.00    -0.317 N 
ATOM     14  C   UNL     1      -2.676  -3.038   0.945  1.00  0.00     0.229 C 
ATOM     15  O   UNL     1      -3.894  -3.042   0.746  1.00  0.00    -0.274 OA
ATOM     16  H   UNL     1      -2.862  -2.679   2.923  1.00  0.00     0.170 HD
BRANCH  14  17
ATOM     17  C   UNL     1      -1.704  -3.615  -0.104  1.00  0.00     0.139 C 
BRANCH  17  18
ATOM     18  C   UNL     1      -0.997  -2.676  -1.037  1.00  0.00     0.002 A 
ATOM     19  C   UNL     1       1.310  -3.872  -0.628  1.00  0.00     0.067 C 
ATOM     20  C   UNL     1       0.496  -2.755  -1.254  1.00  0.00     0.049 A 
ATOM     21  N   UNL     1       1.187  -1.909  -1.947  1.00  0.00    -0.198 NA
ATOM     22  C   UNL     1       0.557  -0.844  -2.520  1.00  0.00     0.345 A 
ATOM     23  C   UNL     1      -1.590  -1.708  -1.764  1.00  0.00     0.022 A 
ATOM     24  O   UNL     1       1.139   0.075  -3.088  1.00  0.00    -0.246 OA
ATOM     25  N   UNL     1      -0.813  -0.819  -2.462  1.00  0.00    -0.310 N 
ATOM     26  C   UNL     1      -3.074  -1.467  -1.817  1.00  0.00     0.065 C 
ATOM     27  H   UNL     1      -1.276  -0.107  -2.961  1.00  0.00     0.171 HD
ENDBRANCH  17  18
ENDBRANCH  14  17
ENDBRANCH   9  13
ENDBRANCH   6   8
ENDBRANCH   5   6
ENDBRANCH   4   5
ENDBRANCH   3   4
ENDBRANCH   2   3
ENDBRANCH   1   2
BRANCH   1  28
ATOM     28  C   UNL     1      -0.370   1.971   2.923  1.00  0.00     0.188 C 
BRANCH  28  29
ATOM     29  O   UNL     1      -1.730   2.191   3.256  1.00  0.00    -0.376 OA
BRANCH  29  30
ATOM     30  C   UNL     1      -2.245   3.508   3.129  1.00  0.00     0.202 C 
BRANCH  30  31
ATOM     31  C   UNL     1      -1.454   4.731   3.650  1.00  0.00     0.261 C 
BRANCH  31  32
ATOM     32  O   UNL     1      -0.029   4.749   3.426  1.00  0.00    -0.460 OA
BRANCH  32  33
ATOM     33  C   UNL     1       0.764   4.402   4.479  1.00  0.00     0.338 C 
ATOM     34  O   UNL     1       0.387   4.176   5.616  1.00  0.00    -0.246 OA
BRANCH  33  35
ATOM     35  C   UNL     1       2.133   4.048   3.992  1.00  0.00     0.060 A 
ATOM     36  C   UNL     1       2.640   2.766   4.282  1.00  0.00     0.016 A 
ATOM     37  C   UNL     1       2.898   4.931   3.230  1.00  0.00     0.016 A 
ATOM     38  C   UNL     1       3.914   2.381   3.859  1.00  0.00     0.010 A 
ATOM     39  C   UNL     1       4.198   4.565   2.849  1.00  0.00     0.010 A 
ATOM     40  C   UNL     1       4.731   3.310   3.207  1.00  0.00    -0.014 A 
BRANCH  40  41
ATOM     41  C   UNL     1       6.206   3.110   3.219  1.00  0.00     0.031 A 
ATOM     42  C   UNL     1       6.971   3.756   4.349  1.00  0.00     0.074 A 
ATOM     43  C   UNL     1       6.860   2.371   2.304  1.00  0.00     0.049 A 
ATOM     44  N   UNL     1       8.259   3.831   4.554  1.00  0.00    -0.248 NA
ATOM     45  C   UNL     1       6.160   4.416   5.388  1.00  0.00     0.031 C 
ATOM     46  C   UNL     1       6.243   1.630   1.207  1.00  0.00     0.029 A 
ATOM     47  N   UNL     1       8.207   2.138   2.152  1.00  0.00    -0.354 N 
ATOM     48  C   UNL     1       8.412   4.568   5.724  1.00  0.00     0.074 A 
ATOM     49  C   UNL     1       7.089   4.934   6.174  1.00  0.00     0.031 C 
ATOM     50  C   UNL     1       7.212   1.042   0.479  1.00  0.00     0.029 A 
ATOM     51  C   UNL     1       8.519   1.397   1.035  1.00  0.00     0.049 A 
ATOM     52  H   UNL     1       8.885   2.471   2.783  1.00  0.00     0.167 HD
ATOM     53  C   UNL     1       9.551   4.911   6.369  1.00  0.00     0.037 A 
ATOM     54  C   UNL     1       9.720   1.072   0.510  1.00  0.00     0.037 A 
ATOM     55  C   UNL     1      10.867   4.541   5.924  1.00  0.00     0.049 A 
ATOM     56  C   UNL     1      10.983   1.534   1.201  1.00  0.00     0.074 A 
ATOM     57  C   UNL     1      12.084   4.822   6.517  1.00  0.00     0.029 A 
ATOM     58  N   UNL     1      11.139   3.820   4.771  1.00  0.00    -0.354 N 
ATOM     59  N   UNL     1      11.117   2.222   2.311  1.00  0.00    -0.248 NA
ATOM     60  C   UNL     1      12.261   1.177   0.565  1.00  0.00     0.031 C 
ATOM     61  C   UNL     1      13.096   4.325   5.691  1.00  0.00     0.029 A 
ATOM     62  C   UNL     1      12.507   3.672   4.619  1.00  0.00     0.049 A 
ATOM     63  H   UNL     1      10.460   3.465   4.153  1.00  0.00     0.167 HD
ATOM     64  C   UNL     1      12.489   2.347   2.524  1.00  0.00     0.074 A 
ATOM     65  C   UNL     1      13.142   1.657   1.432  1.00  0.00     0.031 C 
ATOM     66  C   UNL     1      13.147   2.971   3.533  1.00  0.00     0.037 A 
BRANCH  53  67
ATOM     67  C   UNL     1       9.424   5.766   7.601  1.00  0.00     0.058 A 
ATOM     68  C   UNL     1       8.882   5.274   8.799  1.00  0.00     0.135 A 
ATOM     69  C   UNL     1       9.877   7.095   7.586  1.00  0.00     0.135 A 
ATOM     70  F   UNL     1       8.410   4.018   8.864  1.00  0.00    -0.206 F 
ATOM     71  C   UNL     1       8.769   6.077   9.930  1.00  0.00     0.059 A 
ATOM     72  C   UNL     1       9.805   7.906   8.714  1.00  0.00     0.059 A 
ATOM     73  F   UNL     1      10.397   7.620   6.465  1.00  0.00    -0.206 F 
ATOM     74  C   UNL     1       9.237   7.392   9.878  1.00  0.00     0.060 A 
BRANCH  74  75
ATOM     75  S   UNL     1       9.096   8.416  11.357  1.00  0.00     0.124 S 
ATOM     76  O   UNL     1       7.655   8.641  11.420  1.00  0.00    -0.237 OA
ATOM     77  O   UNL     1       9.646   7.545  12.391  1.00  0.00    -0.237 OA
ATOM     78  O   UNL     1       9.901   9.591  11.037  1.00  0.00    -0.744 OA
ENDBRANCH  74  75
ENDBRANCH  53  67
BRANCH  54  79
ATOM     79  C   UNL     1       9.800   0.278  -0.749  1.00  0.00     0.058 A 
ATOM     80  C   UNL     1      10.320  -1.026  -0.753  1.00  0.00     0.135 A 
ATOM     81  C   UNL     1       9.380   0.812  -1.978  1.00  0.00     0.135 A 
ATOM     82  F   UNL     1      10.757  -1.576   0.390  1.00  0.00    -0.206 F 
ATOM     83  C   UNL     1      10.433  -1.766  -1.927  1.00  0.00     0.059 A 
ATOM     84  C   UNL     1       9.454   0.080  -3.161  1.00  0.00     0.059 A 
ATOM     85  F   UNL     1       8.879   2.055  -2.035  1.00  0.00    -0.206 F 
ATOM     86  C   UNL     1       9.991  -1.206  -3.126  1.00  0.00     0.060 A 
BRANCH  86  87
ATOM     87  S   UNL     1      10.101  -2.196  -4.633  1.00  0.00     0.124 S 
ATOM     88  O   UNL     1      11.542  -2.230  -4.859  1.00  0.00    -0.237 OA
ATOM     89  O   UNL     1       9.492  -3.455  -4.216  1.00  0.00    -0.237 OA
ATOM     90  O   UNL     1       9.330  -1.424  -5.603  1.00  0.00    -0.744 OA
ENDBRANCH  86  87
ENDBRANCH  54  79
BRANCH  66  91
ATOM     91  C   UNL     1      14.652   2.899   3.545  1.00  0.00     0.058 A 
ATOM     92  C   UNL     1      15.440   3.602   2.621  1.00  0.00     0.135 A 
ATOM     93  C   UNL     1      15.317   2.165   4.544  1.00  0.00     0.135 A 
ATOM     94  F   UNL     1      14.860   4.317   1.645  1.00  0.00    -0.206 F 
ATOM     95  C   UNL     1      16.831   3.560   2.669  1.00  0.00     0.059 A 
ATOM     96  C   UNL     1      16.705   2.136   4.631  1.00  0.00     0.059 A 
ATOM     97  F   UNL     1      14.614   1.486   5.464  1.00  0.00    -0.206 F 
ATOM     98  C   UNL     1      17.455   2.827   3.681  1.00  0.00     0.060 A 
BRANCH  98  99
ATOM     99  S   UNL     1      19.259   2.809   3.753  1.00  0.00     0.124 S 
ATOM    100  O   UNL     1      19.591   1.976   2.602  1.00  0.00    -0.237 OA
ATOM    101  O   UNL     1      19.590   4.225   3.627  1.00  0.00    -0.237 OA
ATOM    102  O   UNL     1      19.543   2.219   5.057  1.00  0.00    -0.744 OA
ENDBRANCH  98  99
ENDBRANCH  66  91
ENDBRANCH  40  41
ENDBRANCH  33  35
ENDBRANCH  32  33
ENDBRANCH  31  32
ENDBRANCH  30  31
ENDBRANCH  29  30
ENDBRANCH  28  29
ENDBRANCH   1  28
TORSDOF 23
