REMARK SMILES C#CCN(CC(=O)OCCOCCOCCOC(=O)c1ccc(-c2c3nc(c(-c4c(F)cc(S(=O)(=O)[O-])cc4F)c4ccc([nH]4)c(-c4c(F)cc(S(=O)(=O)[O-])cc4F)c4nc(c(-c5c(F)cc(S(=O)(=O)[O-])cc5F)c5ccc2[nH]5)C=C4)C=C3)cc1)C(=O)CCc1ccc(Cl)cc1Cl
REMARK SMILES IDX 12 1 11 2 10 3 9 4 8 5 6 6 7 7 5 8 4 9 3 10 2 11 1 12 86 13
REMARK SMILES IDX 87 14 88 15 89 16 90 17 91 18 96 19 92 20 95 21 97 22 93 23
REMARK SMILES IDX 94 24 13 25 14 26 15 27 16 28 17 29 18 30 19 31 20 32 21 33
REMARK SMILES IDX 85 34 22 35 84 36 23 37 24 38 25 39 78 40 26 41 83 42 77 43
REMARK SMILES IDX 79 44 27 45 82 46 76 47 75 48 28 50 62 51 41 52 61 53 42 54
REMARK SMILES IDX 45 55 60 56 80 57 43 58 44 59 59 61 81 62 46 63 29 64 30 65
REMARK SMILES IDX 39 66 31 67 32 68 38 69 40 70 33 71 34 72 35 73 36 74 37 75
REMARK SMILES IDX 63 76 64 77 73 78 65 79 66 80 72 81 74 82 67 83 68 84 69 85
REMARK SMILES IDX 70 86 71 87 47 88 48 89 57 90 49 91 50 92 56 93 58 94 51 95
REMARK SMILES IDX 52 96 53 97 54 98 55 99
REMARK H PARENT 79 49 45 60
REMARK Flexibility Score: inf
ROOT
ATOM      1  C   UNL     1      -5.272  -2.495   2.956  1.00  0.00     0.188 C 
ENDROOT
BRANCH   1   2
ATOM      2  O   UNL     1      -6.617  -2.409   2.486  1.00  0.00    -0.376 OA
BRANCH   2   3
ATOM      3  C   UNL     1      -7.046  -1.101   2.118  1.00  0.00     0.202 C 
BRANCH   3   4
ATOM      4  C   UNL     1      -6.443  -0.630   0.793  1.00  0.00     0.261 C 
BRANCH   4   5
ATOM      5  O   UNL     1      -5.045  -0.287   0.929  1.00  0.00    -0.462 OA
BRANCH   5   6
ATOM      6  C   UNL     1      -4.765   1.003   1.221  1.00  0.00     0.325 C 
ATOM      7  O   UNL     1      -5.612   1.884   1.327  1.00  0.00    -0.250 OA
BRANCH   6   8
ATOM      8  C   UNL     1      -3.284   1.250   1.522  1.00  0.00     0.243 C 
BRANCH   8   9
ATOM      9  N   UNL     1      -2.260   0.218   1.301  1.00  0.00    -0.320 N 
BRANCH   9  10
ATOM     10  C   UNL     1      -1.773   0.043  -0.074  1.00  0.00     0.210 C 
BRANCH  10  11
ATOM     11  C   UNL     1      -0.253   0.043  -0.074  1.00  0.00    -0.085 C 
ATOM     12  C   UNL     1       1.051   0.043  -0.074  1.00  0.00     0.006 C 
ENDBRANCH  10  11
ENDBRANCH   9  10
BRANCH   9  13
ATOM     13  C   UNL     1      -1.803  -0.676   2.261  1.00  0.00     0.224 C 
ATOM     14  O   UNL     1      -1.159  -1.685   1.955  1.00  0.00    -0.275 OA
BRANCH  13  15
ATOM     15  C   UNL     1      -2.131  -0.475   3.729  1.00  0.00     0.105 C 
BRANCH  15  16
ATOM     16  C   UNL     1      -1.313   0.563   4.508  1.00  0.00     0.047 C 
BRANCH  16  17
ATOM     17  C   UNL     1      -1.938   1.940   4.535  1.00  0.00    -0.029 A 
ATOM     18  C   UNL     1      -1.266   2.990   3.886  1.00  0.00     0.007 A 
ATOM     19  C   UNL     1      -3.207   2.197   5.097  1.00  0.00     0.045 A 
ATOM     20  C   UNL     1      -1.888   4.227   3.711  1.00  0.00     0.021 A 
ATOM     21  C   UNL     1      -3.839   3.425   4.892  1.00  0.00     0.041 A 
ATOM     22  Cl  UNL     1      -4.084   1.000   5.986  1.00  0.00    -0.084 Cl
ATOM     23  C   UNL     1      -3.183   4.426   4.184  1.00  0.00     0.042 A 
ATOM     24  Cl  UNL     1      -3.988   5.910   3.855  1.00  0.00    -0.084 Cl
ENDBRANCH  16  17
ENDBRANCH  15  16
ENDBRANCH  13  15
ENDBRANCH   9  13
ENDBRANCH   8   9
ENDBRANCH   6   8
ENDBRANCH   5   6
ENDBRANCH   4   5
ENDBRANCH   3   4
ENDBRANCH   2   3
ENDBRANCH   1   2
BRANCH   1  25
ATOM     25  C   UNL     1      -4.314  -3.100   1.914  1.00  0.00     0.188 C 
BRANCH  25  26
ATOM     26  O   UNL     1      -4.859  -4.133   1.092  1.00  0.00    -0.376 OA
BRANCH  26  27
ATOM     27  C   UNL     1      -5.487  -5.215   1.778  1.00  0.00     0.202 C 
BRANCH  27  28
ATOM     28  C   UNL     1      -4.532  -6.047   2.631  1.00  0.00     0.261 C 
BRANCH  28  29
ATOM     29  O   UNL     1      -4.114  -5.303   3.789  1.00  0.00    -0.460 OA
BRANCH  29  30
ATOM     30  C   UNL     1      -3.243  -5.970   4.581  1.00  0.00     0.338 C 
ATOM     31  O   UNL     1      -2.890  -7.128   4.462  1.00  0.00    -0.246 OA
BRANCH  30  32
ATOM     32  C   UNL     1      -2.769  -5.072   5.653  1.00  0.00     0.060 A 
ATOM     33  C   UNL     1      -2.042  -3.921   5.337  1.00  0.00     0.016 A 
ATOM     34  C   UNL     1      -2.927  -5.457   6.985  1.00  0.00     0.016 A 
ATOM     35  C   UNL     1      -1.440  -3.171   6.356  1.00  0.00     0.010 A 
ATOM     36  C   UNL     1      -2.338  -4.697   8.002  1.00  0.00     0.010 A 
ATOM     37  C   UNL     1      -1.560  -3.567   7.694  1.00  0.00    -0.014 A 
BRANCH  37  38
ATOM     38  C   UNL     1      -0.705  -2.950   8.745  1.00  0.00     0.031 A 
ATOM     39  C   UNL     1       0.517  -3.701   9.203  1.00  0.00     0.074 A 
ATOM     40  C   UNL     1      -0.965  -1.738   9.272  1.00  0.00     0.049 A 
ATOM     41  N   UNL     1       1.308  -3.466  10.217  1.00  0.00    -0.248 NA
ATOM     42  C   UNL     1       0.899  -4.873   8.398  1.00  0.00     0.031 C 
ATOM     43  C   UNL     1      -2.042  -0.844   8.857  1.00  0.00     0.029 A 
ATOM     44  N   UNL     1      -0.332  -1.055  10.284  1.00  0.00    -0.354 N 
ATOM     45  C   UNL     1       2.258  -4.480  10.197  1.00  0.00     0.074 A 
ATOM     46  C   UNL     1       1.950  -5.326   9.064  1.00  0.00     0.031 C 
ATOM     47  C   UNL     1      -1.998   0.270   9.611  1.00  0.00     0.029 A 
ATOM     48  C   UNL     1      -0.930   0.141  10.603  1.00  0.00     0.049 A 
ATOM     49  H   UNL     1       0.474  -1.392  10.737  1.00  0.00     0.167 HD
ATOM     50  C   UNL     1       3.288  -4.696  11.049  1.00  0.00     0.037 A 
ATOM     51  C   UNL     1      -0.674   1.008  11.605  1.00  0.00     0.037 A 
ATOM     52  C   UNL     1       3.608  -3.854  12.170  1.00  0.00     0.049 A 
ATOM     53  C   UNL     1       0.419   0.702  12.601  1.00  0.00     0.074 A 
ATOM     54  C   UNL     1       4.601  -4.023  13.120  1.00  0.00     0.029 A 
ATOM     55  N   UNL     1       2.948  -2.678  12.488  1.00  0.00    -0.354 N 
ATOM     56  N   UNL     1       1.258  -0.306  12.627  1.00  0.00    -0.248 NA
ATOM     57  C   UNL     1       0.584   1.644  13.721  1.00  0.00     0.031 C 
ATOM     58  C   UNL     1       4.523  -2.962  14.029  1.00  0.00     0.029 A 
ATOM     59  C   UNL     1       3.505  -2.114  13.623  1.00  0.00     0.049 A 
ATOM     60  H   UNL     1       2.193  -2.299  11.981  1.00  0.00     0.167 HD
ATOM     61  C   UNL     1       2.058  -0.110  13.750  1.00  0.00     0.074 A 
ATOM     62  C   UNL     1       1.613   1.119  14.372  1.00  0.00     0.031 C 
ATOM     63  C   UNL     1       3.066  -0.881  14.226  1.00  0.00     0.037 A 
BRANCH  50  64
ATOM     64  C   UNL     1       4.105  -5.934  10.828  1.00  0.00     0.058 A 
ATOM     65  C   UNL     1       5.054  -6.021   9.799  1.00  0.00     0.135 A 
ATOM     66  C   UNL     1       3.926  -7.052  11.658  1.00  0.00     0.135 A 
ATOM     67  F   UNL     1       5.244  -4.986   8.965  1.00  0.00    -0.206 F 
ATOM     68  C   UNL     1       5.780  -7.188   9.581  1.00  0.00     0.059 A 
ATOM     69  C   UNL     1       4.655  -8.221  11.471  1.00  0.00     0.059 A 
ATOM     70  F   UNL     1       3.026  -7.018  12.652  1.00  0.00    -0.206 F 
ATOM     71  C   UNL     1       5.567  -8.285  10.418  1.00  0.00     0.060 A 
BRANCH  71  72
ATOM     72  S   UNL     1       6.497  -9.802  10.116  1.00  0.00     0.124 S 
ATOM     73  O   UNL     1       5.793 -10.348   8.960  1.00  0.00    -0.237 OA
ATOM     74  O   UNL     1       7.843  -9.300   9.858  1.00  0.00    -0.237 OA
ATOM     75  O   UNL     1       6.339 -10.550  11.359  1.00  0.00    -0.744 OA
ENDBRANCH  71  72
ENDBRANCH  50  64
BRANCH  51  76
ATOM     76  C   UNL     1      -1.504   2.233  11.769  1.00  0.00     0.058 A 
ATOM     77  C   UNL     1      -0.960   3.509  11.561  1.00  0.00     0.135 A 
ATOM     78  C   UNL     1      -2.845   2.152  12.176  1.00  0.00     0.135 A 
ATOM     79  F   UNL     1       0.323   3.639  11.192  1.00  0.00    -0.206 F 
ATOM     80  C   UNL     1      -1.710   4.663  11.765  1.00  0.00     0.059 A 
ATOM     81  C   UNL     1      -3.622   3.291  12.362  1.00  0.00     0.059 A 
ATOM     82  F   UNL     1      -3.413   0.955  12.389  1.00  0.00    -0.206 F 
ATOM     83  C   UNL     1      -3.042   4.543  12.166  1.00  0.00     0.060 A 
BRANCH  83  84
ATOM     84  S   UNL     1      -4.024   6.042  12.392  1.00  0.00     0.124 S 
ATOM     85  O   UNL     1      -3.551   6.510  13.689  1.00  0.00    -0.237 OA
ATOM     86  O   UNL     1      -3.630   6.847  11.239  1.00  0.00    -0.237 OA
ATOM     87  O   UNL     1      -5.397   5.547  12.358  1.00  0.00    -0.744 OA
ENDBRANCH  83  84
ENDBRANCH  51  76
BRANCH  63  88
ATOM     88  C   UNL     1       3.788  -0.409  15.458  1.00  0.00     0.058 A 
ATOM     89  C   UNL     1       3.218  -0.520  16.735  1.00  0.00     0.135 A 
ATOM     90  C   UNL     1       5.093   0.104  15.365  1.00  0.00     0.135 A 
ATOM     91  F   UNL     1       1.972  -1.001  16.879  1.00  0.00    -0.206 F 
ATOM     92  C   UNL     1       3.908  -0.123  17.877  1.00  0.00     0.059 A 
ATOM     93  C   UNL     1       5.809   0.488  16.495  1.00  0.00     0.059 A 
ATOM     94  F   UNL     1       5.689   0.221  14.168  1.00  0.00    -0.206 F 
ATOM     95  C   UNL     1       5.204   0.380  17.747  1.00  0.00     0.060 A 
BRANCH  95  96
ATOM     96  S   UNL     1       6.108   0.857  19.236  1.00  0.00     0.124 S 
ATOM     97  O   UNL     1       5.507   2.150  19.544  1.00  0.00    -0.237 OA
ATOM     98  O   UNL     1       5.788  -0.227  20.161  1.00  0.00    -0.237 OA
ATOM     99  O   UNL     1       7.497   0.899  18.790  1.00  0.00    -0.744 OA
ENDBRANCH  95  96
ENDBRANCH  63  88
ENDBRANCH  37  38
ENDBRANCH  30  32
ENDBRANCH  29  30
ENDBRANCH  28  29
ENDBRANCH  27  28
ENDBRANCH  26  27
ENDBRANCH  25  26
ENDBRANCH   1  25
TORSDOF 27
