REMARK SMILES O=C(NC1(C(=O)OCCOCCOCCOC(=O)c2ccc(-c3c4nc(c(-c5c(F)cc(S(=O)(=O)[O-])cc5F)c5ccc([nH]5)c(-c5c(F)cc(S(=O)(=O)[O-])cc5F)c5nc(c(-c6c(F)cc(S(=O)(=O)[O-])cc6F)c6ccc3[nH]6)C=C5)C=C4)cc2)Cc2ccccc2C1)OCC1c2ccccc2-c2ccccc21
REMARK SMILES IDX 11 1 10 2 9 3 8 4 7 5 5 6 6 7 4 8 85 9 92 10 86 11 91 12
REMARK SMILES IDX 87 13 90 14 88 15 89 16 3 17 1 18 2 19 93 21 94 22 95 23
REMARK SMILES IDX 96 24 107 25 97 26 101 27 102 28 106 29 98 30 100 31 103 32
REMARK SMILES IDX 105 33 99 34 104 35 12 36 13 37 14 38 15 39 16 40 17 41
REMARK SMILES IDX 18 42 19 43 20 44 84 45 21 46 83 47 22 48 23 49 24 50 77 51
REMARK SMILES IDX 25 52 82 53 76 54 78 55 26 56 81 57 75 58 74 59 27 61 61 62
REMARK SMILES IDX 40 63 60 64 41 65 44 66 59 67 79 68 42 69 43 70 58 72 80 73
REMARK SMILES IDX 45 74 28 75 29 76 38 77 30 78 31 79 37 80 39 81 32 82 33 83
REMARK SMILES IDX 34 84 35 85 36 86 62 87 63 88 72 89 64 90 65 91 71 92 73 93
REMARK SMILES IDX 66 94 67 95 68 96 69 97 70 98 46 99 47 100 56 101 48 102
REMARK SMILES IDX 49 103 55 104 57 105 50 106 51 107 52 108 53 109 54 110
REMARK H PARENT 3 20 78 60 44 71
REMARK Flexibility Score: inf
ROOT
ATOM      1  C   UNL     1       4.256   1.289  -2.427  1.00  0.00     0.188 C 
ENDROOT
BRANCH   1   2
ATOM      2  O   UNL     1       5.232   2.319  -2.417  1.00  0.00    -0.376 OA
BRANCH   2   3
ATOM      3  C   UNL     1       6.007   2.426  -1.226  1.00  0.00     0.202 C 
BRANCH   3   4
ATOM      4  C   UNL     1       6.640   1.135  -0.714  1.00  0.00     0.261 C 
BRANCH   4   5
ATOM      5  O   UNL     1       5.600   0.261  -0.253  1.00  0.00    -0.461 OA
BRANCH   5   6
ATOM      6  C   UNL     1       5.990  -0.731   0.586  1.00  0.00     0.332 C 
ATOM      7  O   UNL     1       7.144  -0.852   0.972  1.00  0.00    -0.249 OA
BRANCH   6   8
ATOM      8  C   UNL     1       4.819  -1.764   0.821  1.00  0.00     0.149 C 
ATOM      9  C   UNL     1       5.002  -2.554   2.138  1.00  0.00     0.076 C 
ATOM     10  C   UNL     1       5.021  -2.869  -0.263  1.00  0.00     0.076 C 
ATOM     11  C   UNL     1       6.179  -3.410   1.741  1.00  0.00    -0.042 A 
ATOM     12  C   UNL     1       6.203  -3.573   0.344  1.00  0.00    -0.042 A 
ATOM     13  C   UNL     1       7.296  -3.672   2.510  1.00  0.00     0.004 A 
ATOM     14  C   UNL     1       7.353  -3.967  -0.318  1.00  0.00     0.004 A 
ATOM     15  C   UNL     1       8.470  -4.036   1.847  1.00  0.00     0.000 A 
ATOM     16  C   UNL     1       8.500  -4.176   0.447  1.00  0.00     0.000 A 
BRANCH   8  17
ATOM     17  N   UNL     1       3.504  -1.130   0.715  1.00  0.00    -0.305 N 
ATOM     18  O   UNL     1       2.050   0.529   1.153  1.00  0.00    -0.225 OA
ATOM     19  C   UNL     1       3.125   0.008   1.378  1.00  0.00     0.408 C 
ATOM     20  H   UNL     1       2.841  -1.554   0.123  1.00  0.00     0.168 HD
BRANCH  19  21
ATOM     21  O   UNL     1       4.117   0.546   2.160  1.00  0.00    -0.449 OA
BRANCH  21  22
ATOM     22  C   UNL     1       4.077   1.978   2.110  1.00  0.00     0.248 C 
BRANCH  22  23
ATOM     23  C   UNL     1       5.191   2.736   2.877  1.00  0.00     0.088 C 
ATOM     24  C   UNL     1       6.629   2.225   2.798  1.00  0.00    -0.029 A 
ATOM     25  C   UNL     1       5.344   4.117   2.212  1.00  0.00    -0.029 A 
ATOM     26  C   UNL     1       7.175   1.071   3.334  1.00  0.00     0.005 A 
ATOM     27  C   UNL     1       7.455   3.151   2.117  1.00  0.00    -0.014 A 
ATOM     28  C   UNL     1       6.661   4.294   1.735  1.00  0.00    -0.014 A 
ATOM     29  C   UNL     1       4.359   5.056   1.947  1.00  0.00     0.005 A 
ATOM     30  C   UNL     1       8.533   0.806   3.107  1.00  0.00     0.000 A 
ATOM     31  C   UNL     1       8.797   2.885   1.880  1.00  0.00     0.009 A 
ATOM     32  C   UNL     1       6.999   5.401   0.973  1.00  0.00     0.009 A 
ATOM     33  C   UNL     1       4.697   6.167   1.171  1.00  0.00     0.000 A 
ATOM     34  C   UNL     1       9.331   1.691   2.366  1.00  0.00     0.001 A 
ATOM     35  C   UNL     1       6.003   6.336   0.684  1.00  0.00     0.001 A 
ENDBRANCH  22  23
ENDBRANCH  21  22
ENDBRANCH  19  21
ENDBRANCH   8  17
ENDBRANCH   6   8
ENDBRANCH   5   6
ENDBRANCH   4   5
ENDBRANCH   3   4
ENDBRANCH   2   3
ENDBRANCH   1   2
BRANCH   1  36
ATOM     36  C   UNL     1       4.760  -0.054  -3.000  1.00  0.00     0.188 C 
BRANCH  36  37
ATOM     37  O   UNL     1       6.065  -0.176  -3.550  1.00  0.00    -0.376 OA
BRANCH  37  38
ATOM     38  C   UNL     1       6.544   0.852  -4.409  1.00  0.00     0.202 C 
BRANCH  38  39
ATOM     39  C   UNL     1       5.714   1.269  -5.635  1.00  0.00     0.261 C 
BRANCH  39  40
ATOM     40  O   UNL     1       4.314   1.478  -5.383  1.00  0.00    -0.460 OA
BRANCH  40  41
ATOM     41  C   UNL     1       3.481   0.529  -5.886  1.00  0.00     0.338 C 
ATOM     42  O   UNL     1       3.787  -0.410  -6.601  1.00  0.00    -0.246 OA
BRANCH  41  43
ATOM     43  C   UNL     1       2.159   0.637  -5.223  1.00  0.00     0.060 A 
ATOM     44  C   UNL     1       1.684  -0.486  -4.524  1.00  0.00     0.016 A 
ATOM     45  C   UNL     1       1.404   1.809  -5.267  1.00  0.00     0.016 A 
ATOM     46  C   UNL     1       0.450  -0.450  -3.881  1.00  0.00     0.010 A 
ATOM     47  C   UNL     1       0.134   1.824  -4.679  1.00  0.00     0.010 A 
ATOM     48  C   UNL     1      -0.360   0.681  -4.021  1.00  0.00    -0.014 A 
BRANCH  48  49
ATOM     49  C   UNL     1      -1.818   0.534  -3.797  1.00  0.00     0.031 A 
ATOM     50  C   UNL     1      -2.632   0.007  -4.951  1.00  0.00     0.074 A 
ATOM     51  C   UNL     1      -2.404   0.830  -2.624  1.00  0.00     0.049 A 
ATOM     52  N   UNL     1      -3.924  -0.157  -5.054  1.00  0.00    -0.248 NA
ATOM     53  C   UNL     1      -1.878  -0.393  -6.154  1.00  0.00     0.031 C 
ATOM     54  C   UNL     1      -1.715   1.274  -1.415  1.00  0.00     0.029 A 
ATOM     55  N   UNL     1      -3.730   0.806  -2.269  1.00  0.00    -0.354 N 
ATOM     56  C   UNL     1      -4.135  -0.672  -6.328  1.00  0.00     0.074 A 
ATOM     57  C   UNL     1      -2.845  -0.782  -6.968  1.00  0.00     0.031 C 
ATOM     58  C   UNL     1      -2.631   1.511  -0.456  1.00  0.00     0.029 A 
ATOM     59  C   UNL     1      -3.969   1.264  -0.995  1.00  0.00     0.049 A 
ATOM     60  H   UNL     1      -4.443   0.491  -2.870  1.00  0.00     0.167 HD
ATOM     61  C   UNL     1      -5.301  -1.019  -6.918  1.00  0.00     0.037 A 
ATOM     62  C   UNL     1      -5.137   1.484  -0.357  1.00  0.00     0.037 A 
ATOM     63  C   UNL     1      -6.585  -0.882  -6.290  1.00  0.00     0.049 A 
ATOM     64  C   UNL     1      -6.434   1.181  -1.070  1.00  0.00     0.074 A 
ATOM     65  C   UNL     1      -7.830  -1.194  -6.802  1.00  0.00     0.029 A 
ATOM     66  N   UNL     1      -6.787  -0.378  -5.014  1.00  0.00    -0.354 N 
ATOM     67  N   UNL     1      -6.623   0.686  -2.271  1.00  0.00    -0.248 NA
ATOM     68  C   UNL     1      -7.678   1.469  -0.341  1.00  0.00     0.031 C 
ATOM     69  C   UNL     1      -8.791  -0.833  -5.852  1.00  0.00     0.029 A 
ATOM     70  C   UNL     1      -8.140  -0.347  -4.729  1.00  0.00     0.049 A 
ATOM     71  H   UNL     1      -6.073  -0.086  -4.402  1.00  0.00     0.167 HD
ATOM     72  C   UNL     1      -8.002   0.573  -2.427  1.00  0.00     0.074 A 
ATOM     73  C   UNL     1      -8.600   1.047  -1.196  1.00  0.00     0.031 C 
ATOM     74  C   UNL     1      -8.712   0.116  -3.489  1.00  0.00     0.037 A 
BRANCH  61  75
ATOM     75  C   UNL     1      -5.234  -1.531  -8.328  1.00  0.00     0.058 A 
ATOM     76  C   UNL     1      -4.727  -2.805  -8.629  1.00  0.00     0.135 A 
ATOM     77  C   UNL     1      -5.683  -0.734  -9.393  1.00  0.00     0.135 A 
ATOM     78  F   UNL     1      -4.256  -3.594  -7.650  1.00  0.00    -0.206 F 
ATOM     79  C   UNL     1      -4.650  -3.265  -9.939  1.00  0.00     0.059 A 
ATOM     80  C   UNL     1      -5.639  -1.183 -10.709  1.00  0.00     0.059 A 
ATOM     81  F   UNL     1      -6.162   0.498  -9.160  1.00  0.00    -0.206 F 
ATOM     82  C   UNL     1      -5.109  -2.446 -10.973  1.00  0.00     0.060 A 
BRANCH  82  83
ATOM     83  S   UNL     1      -5.010  -3.058 -12.667  1.00  0.00     0.124 S 
ATOM     84  O   UNL     1      -3.576  -2.967 -12.927  1.00  0.00    -0.237 OA
ATOM     85  O   UNL     1      -5.546  -4.410 -12.543  1.00  0.00    -0.237 OA
ATOM     86  O   UNL     1      -5.843  -2.123 -13.416  1.00  0.00    -0.744 OA
ENDBRANCH  82  83
ENDBRANCH  61  75
BRANCH  62  87
ATOM     87  C   UNL     1      -5.146   2.043   1.022  1.00  0.00     0.058 A 
ATOM     88  C   UNL     1      -5.574   1.274   2.115  1.00  0.00     0.135 A 
ATOM     89  C   UNL     1      -4.753   3.368   1.272  1.00  0.00     0.135 A 
ATOM     90  F   UNL     1      -5.977   0.009   1.927  1.00  0.00    -0.206 F 
ATOM     91  C   UNL     1      -5.626   1.801   3.403  1.00  0.00     0.059 A 
ATOM     92  C   UNL     1      -4.772   3.909   2.554  1.00  0.00     0.059 A 
ATOM     93  F   UNL     1      -4.334   4.147   0.263  1.00  0.00    -0.206 F 
ATOM     94  C   UNL     1      -5.221   3.120   3.613  1.00  0.00     0.060 A 
BRANCH  94  95
ATOM     95  S   UNL     1      -5.257   3.782   5.293  1.00  0.00     0.124 S 
ATOM     96  O   UNL     1      -6.688   3.961   5.509  1.00  0.00    -0.237 OA
ATOM     97  O   UNL     1      -4.624   2.712   6.059  1.00  0.00    -0.237 OA
ATOM     98  O   UNL     1      -4.476   5.011   5.186  1.00  0.00    -0.744 OA
ENDBRANCH  94  95
ENDBRANCH  62  87
BRANCH  74  99
ATOM     99  C   UNL     1     -10.209   0.059  -3.359  1.00  0.00     0.058 A 
ATOM    100  C   UNL     1     -11.000   1.216  -3.399  1.00  0.00     0.135 A 
ATOM    101  C   UNL     1     -10.863  -1.181  -3.269  1.00  0.00     0.135 A 
ATOM    102  F   UNL     1     -10.425   2.426  -3.482  1.00  0.00    -0.206 F 
ATOM    103  C   UNL     1     -12.389   1.148  -3.333  1.00  0.00     0.059 A 
ATOM    104  C   UNL     1     -12.251  -1.274  -3.230  1.00  0.00     0.059 A 
ATOM    105  F   UNL     1     -10.153  -2.321  -3.244  1.00  0.00    -0.206 F 
ATOM    106  C   UNL     1     -13.005  -0.102  -3.252  1.00  0.00     0.060 A 
BRANCH 106 107
ATOM    107  S   UNL     1     -14.808  -0.179  -3.208  1.00  0.00     0.124 S 
ATOM    108  O   UNL     1     -15.087   0.259  -1.844  1.00  0.00    -0.237 OA
ATOM    109  O   UNL     1     -15.188   0.754  -4.264  1.00  0.00    -0.237 OA
ATOM    110  O   UNL     1     -15.095  -1.583  -3.487  1.00  0.00    -0.744 OA
ENDBRANCH 106 107
ENDBRANCH  74  99
ENDBRANCH  48  49
ENDBRANCH  41  43
ENDBRANCH  40  41
ENDBRANCH  39  40
ENDBRANCH  38  39
ENDBRANCH  37  38
ENDBRANCH  36  37
ENDBRANCH   1  36
TORSDOF 24
