REMARK SMILES Cc1c(NC(=O)c2cccc(-c3cc4ccccc4oc3=O)c2)cccc1C(=O)OCCOCCOCCOC(=O)c1ccc(-c2c3nc(c(-c4c(F)cc(S(=O)(=O)[O-])cc4F)c4ccc([nH]4)c(-c4c(F)cc(S(=O)(=O)[O-])cc4F)c4nc(c(-c5c(F)cc(S(=O)(=O)[O-])cc5F)c5ccc2[nH]5)C=C4)C=C3)cc1
REMARK SMILES IDX 34 1 33 2 32 3 31 4 30 5 28 6 29 7 27 8 1 9 2 10 3 11 24 12
REMARK SMILES IDX 26 13 25 14 4 15 5 16 6 18 7 19 8 20 23 21 9 22 11 23 10 24
REMARK SMILES IDX 12 25 13 26 21 27 14 28 20 29 22 30 15 31 19 32 16 33 18 34
REMARK SMILES IDX 17 35 35 36 36 37 37 38 38 39 39 40 40 41 41 42 42 43 43 44
REMARK SMILES IDX 107 45 44 46 106 47 45 48 46 49 47 50 100 51 48 52 105 53
REMARK SMILES IDX 99 54 101 55 49 56 104 57 98 58 97 59 50 61 84 62 63 63
REMARK SMILES IDX 83 64 64 65 67 66 82 67 102 68 65 69 66 70 81 72 103 73
REMARK SMILES IDX 68 74 51 75 52 76 61 77 53 78 54 79 60 80 62 81 55 82 56 83
REMARK SMILES IDX 57 84 58 85 59 86 85 87 86 88 95 89 87 90 88 91 94 92 96 93
REMARK SMILES IDX 89 94 90 95 91 96 92 97 93 98 69 99 70 100 79 101 71 102
REMARK SMILES IDX 72 103 78 104 80 105 73 106 74 107 75 108 76 109 77 110
REMARK H PARENT 4 17 101 60 67 71
REMARK Flexibility Score: inf
ROOT
ATOM      1  C   UNL     1       3.280   5.768  -1.880  1.00  0.00     0.188 C 
ENDROOT
BRANCH   1   2
ATOM      2  O   UNL     1       4.106   5.029  -0.949  1.00  0.00    -0.376 OA
BRANCH   2   3
ATOM      3  C   UNL     1       4.734   3.750  -1.196  1.00  0.00     0.202 C 
BRANCH   3   4
ATOM      4  C   UNL     1       4.423   2.244  -0.404  1.00  0.00     0.261 C 
BRANCH   4   5
ATOM      5  O   UNL     1       3.178   1.001  -0.579  1.00  0.00    -0.460 OA
BRANCH   5   6
ATOM      6  C   UNL     1       1.799   0.752  -0.177  1.00  0.00     0.338 C 
ATOM      7  O   UNL     1       0.913   1.593  -0.054  1.00  0.00    -0.246 OA
BRANCH   6   8
ATOM      8  C   UNL     1       1.153  -0.487   0.393  1.00  0.00     0.065 A 
ATOM      9  C   UNL     1       2.819  -2.111  -0.482  1.00  0.00     0.047 C 
ATOM     10  C   UNL     1       1.467  -1.790   0.064  1.00  0.00    -0.013 A 
ATOM     11  C   UNL     1       0.479  -2.784   0.318  1.00  0.00     0.045 A 
ATOM     12  C   UNL     1      -0.727  -2.503   0.986  1.00  0.00     0.026 A 
ATOM     13  C   UNL     1      -0.033  -0.252   1.186  1.00  0.00     0.016 A 
ATOM     14  C   UNL     1      -0.967  -1.236   1.470  1.00  0.00     0.003 A 
BRANCH  11  15
ATOM     15  N   UNL     1       0.758  -4.103  -0.052  1.00  0.00    -0.322 N 
ATOM     16  C   UNL     1      -0.072  -5.157  -0.335  1.00  0.00     0.255 C 
ATOM     17  H   UNL     1       1.718  -4.311  -0.122  1.00  0.00     0.170 HD
ATOM     18  O   UNL     1       0.375  -6.297  -0.186  1.00  0.00    -0.269 OA
BRANCH  16  19
ATOM     19  C   UNL     1      -1.421  -5.007  -0.969  1.00  0.00     0.040 A 
ATOM     20  C   UNL     1      -2.299  -6.089  -0.826  1.00  0.00     0.014 A 
ATOM     21  C   UNL     1      -1.751  -3.984  -1.875  1.00  0.00     0.022 A 
ATOM     22  C   UNL     1      -3.471  -6.166  -1.577  1.00  0.00     0.001 A 
ATOM     23  C   UNL     1      -2.922  -4.069  -2.668  1.00  0.00    -0.010 A 
ATOM     24  C   UNL     1      -3.774  -5.167  -2.499  1.00  0.00     0.009 A 
BRANCH  23  25
ATOM     25  C   UNL     1      -3.260  -3.169  -3.806  1.00  0.00     0.068 A 
ATOM     26  C   UNL     1      -3.487  -1.846  -3.673  1.00  0.00     0.028 A 
ATOM     27  C   UNL     1      -2.506  -3.424  -5.076  1.00  0.00     0.344 A 
ATOM     28  C   UNL     1      -2.200  -1.150  -3.523  1.00  0.00     0.018 A 
ATOM     29  O   UNL     1      -1.310  -2.707  -5.173  1.00  0.00    -0.422 OA
ATOM     30  O   UNL     1      -2.868  -4.247  -5.907  1.00  0.00    -0.246 OA
ATOM     31  C   UNL     1      -2.030  -0.122  -2.618  1.00  0.00     0.012 A 
ATOM     32  C   UNL     1      -1.106  -1.664  -4.243  1.00  0.00     0.138 A 
ATOM     33  C   UNL     1      -0.738   0.315  -2.379  1.00  0.00     0.001 A 
ATOM     34  C   UNL     1       0.186  -1.243  -3.994  1.00  0.00     0.048 A 
ATOM     35  C   UNL     1       0.364  -0.267  -3.026  1.00  0.00     0.004 A 
ENDBRANCH  23  25
ENDBRANCH  16  19
ENDBRANCH  11  15
ENDBRANCH   6   8
ENDBRANCH   5   6
ENDBRANCH   4   5
ENDBRANCH   3   4
ENDBRANCH   2   3
ENDBRANCH   1   2
BRANCH   1  36
ATOM     36  C   UNL     1       3.457   5.822  -3.408  1.00  0.00     0.188 C 
BRANCH  36  37
ATOM     37  O   UNL     1       3.979   4.622  -3.940  1.00  0.00    -0.376 OA
BRANCH  37  38
ATOM     38  C   UNL     1       4.141   4.588  -5.350  1.00  0.00     0.202 C 
BRANCH  38  39
ATOM     39  C   UNL     1       2.841   4.462  -6.168  1.00  0.00     0.261 C 
BRANCH  39  40
ATOM     40  O   UNL     1       2.251   3.143  -6.142  1.00  0.00    -0.460 OA
BRANCH  40  41
ATOM     41  C   UNL     1       0.987   3.012  -5.582  1.00  0.00     0.338 C 
ATOM     42  O   UNL     1       0.038   2.648  -6.204  1.00  0.00    -0.246 OA
BRANCH  41  43
ATOM     43  C   UNL     1       1.078   3.078  -4.091  1.00  0.00     0.060 A 
ATOM     44  C   UNL     1       0.175   3.614  -3.176  1.00  0.00     0.016 A 
ATOM     45  C   UNL     1       2.185   2.509  -3.567  1.00  0.00     0.016 A 
ATOM     46  C   UNL     1       0.485   3.748  -1.759  1.00  0.00     0.010 A 
ATOM     47  C   UNL     1       2.463   2.698  -2.218  1.00  0.00     0.010 A 
ATOM     48  C   UNL     1       1.711   3.348  -1.188  1.00  0.00    -0.014 A 
BRANCH  48  49
ATOM     49  C   UNL     1       2.139   3.576   0.492  1.00  0.00     0.031 A 
ATOM     50  C   UNL     1       2.697   2.530   1.808  1.00  0.00     0.074 A 
ATOM     51  C   UNL     1       1.886   4.821   0.963  1.00  0.00     0.049 A 
ATOM     52  N   UNL     1       2.728   2.871   3.089  1.00  0.00    -0.248 NA
ATOM     53  C   UNL     1       3.233   1.099   1.832  1.00  0.00     0.031 C 
ATOM     54  C   UNL     1       2.418   5.452   2.167  1.00  0.00     0.029 A 
ATOM     55  N   UNL     1       0.924   5.734   0.508  1.00  0.00    -0.354 N 
ATOM     56  C   UNL     1       3.407   1.868   3.811  1.00  0.00     0.074 A 
ATOM     57  C   UNL     1       3.344   0.686   3.075  1.00  0.00     0.031 C 
ATOM     58  C   UNL     1       1.599   6.451   2.526  1.00  0.00     0.029 A 
ATOM     59  C   UNL     1       0.441   6.373   1.658  1.00  0.00     0.049 A 
ATOM     60  H   UNL     1       0.646   5.893  -0.423  1.00  0.00     0.167 HD
ATOM     61  C   UNL     1       4.228   2.082   4.873  1.00  0.00     0.037 A 
ATOM     62  C   UNL     1      -0.853   6.240   2.056  1.00  0.00     0.037 A 
ATOM     63  C   UNL     1       3.702   3.200   5.591  1.00  0.00     0.049 A 
ATOM     64  C   UNL     1      -0.978   5.788   3.491  1.00  0.00     0.074 A 
ATOM     65  C   UNL     1       3.972   4.549   5.604  1.00  0.00     0.029 A 
ATOM     66  N   UNL     1       2.416   3.031   6.081  1.00  0.00    -0.354 N 
ATOM     67  N   UNL     1      -0.011   5.229   4.174  1.00  0.00    -0.248 NA
ATOM     68  C   UNL     1      -2.182   5.975   4.293  1.00  0.00     0.031 C 
ATOM     69  C   UNL     1       2.728   5.199   5.876  1.00  0.00     0.029 A 
ATOM     70  C   UNL     1       1.751   4.236   6.098  1.00  0.00     0.049 A 
ATOM     71  H   UNL     1       2.034   2.173   6.374  1.00  0.00     0.167 HD
ATOM     72  C   UNL     1      -0.448   4.929   5.437  1.00  0.00     0.074 A 
ATOM     73  C   UNL     1      -1.800   5.455   5.472  1.00  0.00     0.031 C 
ATOM     74  C   UNL     1       0.312   4.245   6.346  1.00  0.00     0.037 A 
BRANCH  61  75
ATOM     75  C   UNL     1       5.474   1.242   5.202  1.00  0.00     0.058 A 
ATOM     76  C   UNL     1       6.131   1.364   6.441  1.00  0.00     0.135 A 
ATOM     77  C   UNL     1       6.155   0.391   4.282  1.00  0.00     0.135 A 
ATOM     78  F   UNL     1       5.651   2.190   7.383  1.00  0.00    -0.206 F 
ATOM     79  C   UNL     1       7.327   0.683   6.752  1.00  0.00     0.059 A 
ATOM     80  C   UNL     1       7.303  -0.351   4.590  1.00  0.00     0.059 A 
ATOM     81  F   UNL     1       5.790   0.288   2.995  1.00  0.00    -0.206 F 
ATOM     82  C   UNL     1       7.903  -0.180   5.823  1.00  0.00     0.060 A 
BRANCH  82  83
ATOM     83  S   UNL     1       9.457  -1.030   6.193  1.00  0.00     0.124 S 
ATOM     84  O   UNL     1      10.425   0.056   6.080  1.00  0.00    -0.237 OA
ATOM     85  O   UNL     1       9.228  -1.542   7.540  1.00  0.00    -0.237 OA
ATOM     86  O   UNL     1       9.544  -2.050   5.151  1.00  0.00    -0.744 OA
ENDBRANCH  82  83
ENDBRANCH  61  75
BRANCH  62  87
ATOM     87  C   UNL     1      -1.819   6.061   0.924  1.00  0.00     0.058 A 
ATOM     88  C   UNL     1      -1.868   7.088  -0.046  1.00  0.00     0.135 A 
ATOM     89  C   UNL     1      -2.394   4.833   0.564  1.00  0.00     0.135 A 
ATOM     90  F   UNL     1      -1.331   8.290   0.225  1.00  0.00    -0.206 F 
ATOM     91  C   UNL     1      -2.347   6.882  -1.338  1.00  0.00     0.059 A 
ATOM     92  C   UNL     1      -2.903   4.607  -0.731  1.00  0.00     0.059 A 
ATOM     93  F   UNL     1      -2.373   3.801   1.420  1.00  0.00    -0.206 F 
ATOM     94  C   UNL     1      -2.838   5.628  -1.685  1.00  0.00     0.060 A 
BRANCH  94  95
ATOM     95  S   UNL     1      -3.212   5.339  -3.438  1.00  0.00     0.124 S 
ATOM     96  O   UNL     1      -4.421   6.129  -3.627  1.00  0.00    -0.237 OA
ATOM     97  O   UNL     1      -2.014   5.864  -4.093  1.00  0.00    -0.237 OA
ATOM     98  O   UNL     1      -3.378   3.892  -3.508  1.00  0.00    -0.744 OA
ENDBRANCH  94  95
ENDBRANCH  62  87
BRANCH  74  99
ATOM     99  C   UNL     1      -0.257   3.510   7.548  1.00  0.00     0.058 A 
ATOM    100  C   UNL     1      -1.591   3.066   7.632  1.00  0.00     0.135 A 
ATOM    101  C   UNL     1       0.581   3.085   8.610  1.00  0.00     0.135 A 
ATOM    102  F   UNL     1      -2.457   3.243   6.626  1.00  0.00    -0.206 F 
ATOM    103  C   UNL     1      -2.089   2.379   8.739  1.00  0.00     0.059 A 
ATOM    104  C   UNL     1       0.124   2.322   9.682  1.00  0.00     0.059 A 
ATOM    105  F   UNL     1       1.889   3.383   8.636  1.00  0.00    -0.206 F 
ATOM    106  C   UNL     1      -1.227   2.024   9.767  1.00  0.00     0.060 A 
BRANCH 106 107
ATOM    107  S   UNL     1      -1.860   1.167  11.217  1.00  0.00     0.124 S 
ATOM    108  O   UNL     1      -2.102   2.285  12.124  1.00  0.00    -0.237 OA
ATOM    109  O   UNL     1      -3.055   0.498  10.710  1.00  0.00    -0.237 OA
ATOM    110  O   UNL     1      -0.760   0.280  11.581  1.00  0.00    -0.744 OA
ENDBRANCH 106 107
ENDBRANCH  74  99
ENDBRANCH  48  49
ENDBRANCH  41  43
ENDBRANCH  40  41
ENDBRANCH  39  40
ENDBRANCH  38  39
ENDBRANCH  37  38
ENDBRANCH  36  37
ENDBRANCH   1  36
TORSDOF 23
