REMARK SMILES Cc1ccc(C(=O)N2C[C@H](C(=O)OCCOCCOCCOC(=O)c3ccc(-c4c5nc(c(-c6c(F)cc(S(=O)(=O)[O-])cc6F)c6ccc([nH]6)c(-c6c(F)cc(S(=O)(=O)[O-])cc6F)c6nc(c(-c7c(F)cc(S(=O)(=O)[O-])cc7F)c7ccc4[nH]7)C=C6)C=C5)cc3)Oc3ccccc32)o1
REMARK SMILES IDX 18 1 17 2 16 3 15 4 14 5 13 6 11 7 12 8 10 9 8 10 9 11 97 12
REMARK SMILES IDX 92 13 96 14 91 15 93 16 95 17 94 18 6 19 7 20 5 21 1 22 2 23
REMARK SMILES IDX 3 24 98 25 4 26 19 27 20 28 21 29 22 30 23 31 24 32 25 33
REMARK SMILES IDX 26 34 90 35 27 36 89 37 28 38 29 39 30 40 83 41 31 42 88 43
REMARK SMILES IDX 82 44 84 45 32 46 87 47 81 48 80 49 33 51 67 52 46 53 66 54
REMARK SMILES IDX 47 55 50 56 65 57 85 58 48 59 49 60 64 62 86 63 51 64 34 65
REMARK SMILES IDX 35 66 44 67 36 68 37 69 43 70 45 71 38 72 39 73 40 74 41 75
REMARK SMILES IDX 42 76 68 77 69 78 78 79 70 80 71 81 77 82 79 83 72 84 73 85
REMARK SMILES IDX 74 86 75 87 76 88 52 89 53 90 62 91 54 92 55 93 61 94 63 95
REMARK SMILES IDX 56 96 57 97 58 98 59 99 60 100
REMARK H PARENT 84 50 50 61
REMARK Flexibility Score: inf
ROOT
ATOM      1  C   UNL     1      -4.456  -0.416   4.827  1.00  0.00     0.188 C 
ENDROOT
BRANCH   1   2
ATOM      2  C   UNL     1      -5.728   0.420   4.971  1.00  0.00     0.188 C 
BRANCH   2   3
ATOM      3  O   UNL     1      -6.845  -0.243   5.551  1.00  0.00    -0.376 OA
BRANCH   3   4
ATOM      4  C   UNL     1      -7.248  -1.477   4.963  1.00  0.00     0.202 C 
BRANCH   4   5
ATOM      5  C   UNL     1      -7.739  -1.425   3.506  1.00  0.00     0.261 C 
BRANCH   5   6
ATOM      6  O   UNL     1      -6.802  -0.867   2.555  1.00  0.00    -0.460 OA
BRANCH   6   7
ATOM      7  C   UNL     1      -7.158   0.345   2.049  1.00  0.00     0.349 C 
ATOM      8  O   UNL     1      -8.188   0.938   2.367  1.00  0.00    -0.248 OA
BRANCH   7   9
ATOM      9  C   UNL     1      -6.190   0.931   1.036  1.00  0.00     0.302 C 
ATOM     10  N   UNL     1      -4.140   1.009  -0.314  1.00  0.00    -0.298 N 
ATOM     11  C   UNL     1      -4.841   0.263   0.764  1.00  0.00     0.183 C 
ATOM     12  C   UNL     1      -4.984   1.504  -1.363  1.00  0.00     0.087 A 
ATOM     13  C   UNL     1      -6.376   1.410  -1.244  1.00  0.00     0.144 A 
ATOM     14  C   UNL     1      -4.462   2.029  -2.554  1.00  0.00     0.030 A 
ATOM     15  O   UNL     1      -7.010   0.907  -0.145  1.00  0.00    -0.475 OA
ATOM     16  C   UNL     1      -7.225   1.819  -2.272  1.00  0.00     0.049 A 
ATOM     17  C   UNL     1      -5.311   2.432  -3.591  1.00  0.00     0.002 A 
ATOM     18  C   UNL     1      -6.692   2.329  -3.450  1.00  0.00     0.004 A 
BRANCH  10  19
ATOM     19  C   UNL     1      -2.808   1.441  -0.223  1.00  0.00     0.294 C 
ATOM     20  O   UNL     1      -2.520   2.621  -0.439  1.00  0.00    -0.265 OA
BRANCH  19  21
ATOM     21  C   UNL     1      -1.779   0.442   0.017  1.00  0.00     0.192 A 
ATOM     22  C   UNL     1       1.794   0.085   0.111  1.00  0.00     0.087 C 
ATOM     23  C   UNL     1       0.342  -0.192   0.129  1.00  0.00     0.101 A 
ATOM     24  C   UNL     1      -0.411  -1.342   0.192  1.00  0.00     0.046 A 
ATOM     25  O   UNL     1      -0.478   0.888   0.041  1.00  0.00    -0.456 OA
ATOM     26  C   UNL     1      -1.770  -0.938   0.117  1.00  0.00     0.056 A 
ENDBRANCH  19  21
ENDBRANCH  10  19
ENDBRANCH   7   9
ENDBRANCH   6   7
ENDBRANCH   5   6
ENDBRANCH   4   5
ENDBRANCH   3   4
ENDBRANCH   2   3
ENDBRANCH   1   2
BRANCH   1  27
ATOM     27  O   UNL     1      -4.631  -1.658   4.158  1.00  0.00    -0.376 OA
BRANCH  27  28
ATOM     28  C   UNL     1      -3.533  -2.574   4.160  1.00  0.00     0.202 C 
BRANCH  28  29
ATOM     29  C   UNL     1      -2.715  -2.732   5.460  1.00  0.00     0.261 C 
BRANCH  29  30
ATOM     30  O   UNL     1      -2.094  -1.530   5.962  1.00  0.00    -0.460 OA
BRANCH  30  31
ATOM     31  C   UNL     1      -1.385  -0.777   5.089  1.00  0.00     0.338 C 
ATOM     32  O   UNL     1      -0.989  -1.136   3.993  1.00  0.00    -0.246 OA
BRANCH  31  33
ATOM     33  C   UNL     1      -1.408   0.640   5.553  1.00  0.00     0.060 A 
ATOM     34  C   UNL     1      -1.473   1.648   4.579  1.00  0.00     0.016 A 
ATOM     35  C   UNL     1      -1.444   0.986   6.909  1.00  0.00     0.016 A 
ATOM     36  C   UNL     1      -1.504   2.994   4.954  1.00  0.00     0.010 A 
ATOM     37  C   UNL     1      -1.461   2.336   7.285  1.00  0.00     0.010 A 
ATOM     38  C   UNL     1      -1.438   3.348   6.308  1.00  0.00    -0.014 A 
BRANCH  38  39
ATOM     39  C   UNL     1      -1.051   4.738   6.673  1.00  0.00     0.031 A 
ATOM     40  C   UNL     1       0.410   5.003   6.945  1.00  0.00     0.074 A 
ATOM     41  C   UNL     1      -1.932   5.755   6.708  1.00  0.00     0.049 A 
ATOM     42  N   UNL     1       1.009   6.118   7.274  1.00  0.00    -0.248 NA
ATOM     43  C   UNL     1       1.315   3.847   6.830  1.00  0.00     0.031 C 
ATOM     44  C   UNL     1      -3.361   5.654   6.425  1.00  0.00     0.029 A 
ATOM     45  N   UNL     1      -1.741   7.086   6.998  1.00  0.00    -0.354 N 
ATOM     46  C   UNL     1       2.356   5.797   7.404  1.00  0.00     0.074 A 
ATOM     47  C   UNL     1       2.481   4.377   7.162  1.00  0.00     0.031 C 
ATOM     48  C   UNL     1      -3.920   6.871   6.561  1.00  0.00     0.029 A 
ATOM     49  C   UNL     1      -2.894   7.835   6.963  1.00  0.00     0.049 A 
ATOM     50  H   UNL     1      -0.859   7.468   7.212  1.00  0.00     0.167 HD
ATOM     51  C   UNL     1       3.402   6.609   7.684  1.00  0.00     0.037 A 
ATOM     52  C   UNL     1      -3.098   9.142   7.234  1.00  0.00     0.037 A 
ATOM     53  C   UNL     1       3.286   8.023   7.921  1.00  0.00     0.049 A 
ATOM     54  C   UNL     1      -1.926  10.018   7.612  1.00  0.00     0.074 A 
ATOM     55  C   UNL     1       4.291   8.930   8.206  1.00  0.00     0.029 A 
ATOM     56  N   UNL     1       2.096   8.734   7.907  1.00  0.00    -0.354 N 
ATOM     57  N   UNL     1      -0.655   9.704   7.715  1.00  0.00    -0.248 NA
ATOM     58  C   UNL     1      -2.215  11.431   7.903  1.00  0.00     0.031 C 
ATOM     59  C   UNL     1       3.703  10.181   8.416  1.00  0.00     0.029 A 
ATOM     60  C   UNL     1       2.339  10.065   8.200  1.00  0.00     0.049 A 
ATOM     61  H   UNL     1       1.210   8.349   7.716  1.00  0.00     0.167 HD
ATOM     62  C   UNL     1       0.007  10.886   8.043  1.00  0.00     0.074 A 
ATOM     63  C   UNL     1      -1.002  11.921   8.118  1.00  0.00     0.031 C 
ATOM     64  C   UNL     1       1.330  11.095   8.256  1.00  0.00     0.037 A 
BRANCH  51  65
ATOM     65  C   UNL     1       4.763   5.977   7.776  1.00  0.00     0.058 A 
ATOM     66  C   UNL     1       5.435   5.493   6.642  1.00  0.00     0.135 A 
ATOM     67  C   UNL     1       5.411   5.869   9.017  1.00  0.00     0.135 A 
ATOM     68  F   UNL     1       4.850   5.548   5.434  1.00  0.00    -0.206 F 
ATOM     69  C   UNL     1       6.689   4.899   6.738  1.00  0.00     0.059 A 
ATOM     70  C   UNL     1       6.678   5.307   9.133  1.00  0.00     0.059 A 
ATOM     71  F   UNL     1       4.811   6.310  10.134  1.00  0.00    -0.206 F 
ATOM     72  C   UNL     1       7.302   4.810   7.989  1.00  0.00     0.060 A 
BRANCH  72  73
ATOM     73  S   UNL     1       8.929   4.036   8.098  1.00  0.00     0.124 S 
ATOM     74  O   UNL     1       8.597   2.631   7.882  1.00  0.00    -0.237 OA
ATOM     75  O   UNL     1       9.658   4.689   7.015  1.00  0.00    -0.237 OA
ATOM     76  O   UNL     1       9.377   4.374   9.445  1.00  0.00    -0.744 OA
ENDBRANCH  72  73
ENDBRANCH  51  65
BRANCH  52  77
ATOM     77  C   UNL     1      -4.472   9.715   7.171  1.00  0.00     0.058 A 
ATOM     78  C   UNL     1      -4.828  10.658   6.194  1.00  0.00     0.135 A 
ATOM     79  C   UNL     1      -5.452   9.351   8.109  1.00  0.00     0.135 A 
ATOM     80  F   UNL     1      -3.924  11.056   5.287  1.00  0.00    -0.206 F 
ATOM     81  C   UNL     1      -6.097  11.231   6.158  1.00  0.00     0.059 A 
ATOM     82  C   UNL     1      -6.735   9.889   8.076  1.00  0.00     0.059 A 
ATOM     83  F   UNL     1      -5.167   8.453   9.065  1.00  0.00    -0.206 F 
ATOM     84  C   UNL     1      -7.045  10.837   7.103  1.00  0.00     0.060 A 
BRANCH  84  85
ATOM     85  S   UNL     1      -8.701  11.555   7.023  1.00  0.00     0.124 S 
ATOM     86  O   UNL     1      -8.455  12.916   7.485  1.00  0.00    -0.237 OA
ATOM     87  O   UNL     1      -9.030  11.411   5.608  1.00  0.00    -0.237 OA
ATOM     88  O   UNL     1      -9.477  10.713   7.928  1.00  0.00    -0.744 OA
ENDBRANCH  84  85
ENDBRANCH  52  77
BRANCH  64  89
ATOM     89  C   UNL     1       1.788  12.502   8.537  1.00  0.00     0.058 A 
ATOM     90  C   UNL     1       1.517  13.146   9.755  1.00  0.00     0.135 A 
ATOM     91  C   UNL     1       2.566  13.194   7.593  1.00  0.00     0.135 A 
ATOM     92  F   UNL     1       0.779  12.533  10.694  1.00  0.00    -0.206 F 
ATOM     93  C   UNL     1       1.977  14.434  10.015  1.00  0.00     0.059 A 
ATOM     94  C   UNL     1       3.062  14.470   7.844  1.00  0.00     0.059 A 
ATOM     95  F   UNL     1       2.869  12.622   6.417  1.00  0.00    -0.206 F 
ATOM     96  C   UNL     1       2.751  15.088   9.054  1.00  0.00     0.060 A 
BRANCH  96  97
ATOM     97  S   UNL     1       3.367  16.746   9.416  1.00  0.00     0.124 S 
ATOM     98  O   UNL     1       2.151  17.544   9.299  1.00  0.00    -0.237 OA
ATOM     99  O   UNL     1       3.897  16.595  10.768  1.00  0.00    -0.237 OA
ATOM    100  O   UNL     1       4.369  16.972   8.379  1.00  0.00    -0.744 OA
ENDBRANCH  96  97
ENDBRANCH  64  89
ENDBRANCH  38  39
ENDBRANCH  31  33
ENDBRANCH  30  31
ENDBRANCH  29  30
ENDBRANCH  28  29
ENDBRANCH  27  28
ENDBRANCH   1  27
TORSDOF 22
