REMARK SMILES CC[C@]1(C(=O)OCCOCCOCCOC(=O)c2ccc(-c3c4nc(c(-c5c(F)cc(S(=O)(=O)[O-])cc5F)c5ccc([nH]5)c(-c5c(F)cc(S(=O)(=O)[O-])cc5F)c5nc(c(-c6c(F)cc(S(=O)(=O)[O-])cc6F)c6ccc3[nH]6)C=C5)C=C4)cc2)CCC[N@@H+](Cc2cc(OC)ccc2F)C1
REMARK SMILES IDX 10 1 9 2 8 3 7 4 6 5 4 6 5 7 3 8 84 9 98 10 85 11 87 12
REMARK SMILES IDX 86 13 2 15 1 16 88 17 89 18 90 19 96 20 91 21 95 22 97 23
REMARK SMILES IDX 94 24 92 25 93 26 11 27 12 28 13 29 14 30 15 31 16 32 17 33
REMARK SMILES IDX 18 34 19 35 83 36 20 37 82 38 21 39 22 40 23 41 76 42 24 43
REMARK SMILES IDX 81 44 75 45 77 46 25 47 80 48 74 49 73 50 26 52 60 53 39 54
REMARK SMILES IDX 59 55 40 56 43 57 58 58 78 59 41 60 42 61 57 63 79 64 44 65
REMARK SMILES IDX 27 66 28 67 37 68 29 69 30 70 36 71 38 72 31 73 32 74 33 75
REMARK SMILES IDX 34 76 35 77 61 78 62 79 71 80 63 81 64 82 70 83 72 84 65 85
REMARK SMILES IDX 66 86 67 87 68 88 69 89 45 90 46 91 55 92 47 93 48 94 54 95
REMARK SMILES IDX 56 96 49 97 50 98 51 99 52 100 53 101
REMARK H PARENT 87 14 77 51 43 62
REMARK Flexibility Score: inf
ROOT
ATOM      1  C   UNL     1      -0.074  -1.945   4.870  1.00  0.00     0.188 C 
ENDROOT
BRANCH   1   2
ATOM      2  O   UNL     1       0.824  -2.295   5.911  1.00  0.00    -0.376 OA
BRANCH   2   3
ATOM      3  C   UNL     1       1.533  -1.234   6.544  1.00  0.00     0.202 C 
BRANCH   3   4
ATOM      4  C   UNL     1       2.423  -0.340   5.665  1.00  0.00     0.261 C 
BRANCH   4   5
ATOM      5  O   UNL     1       1.751   0.330   4.575  1.00  0.00    -0.463 OA
BRANCH   5   6
ATOM      6  C   UNL     1       2.086  -0.117   3.334  1.00  0.00     0.317 C 
ATOM      7  O   UNL     1       2.859  -1.052   3.138  1.00  0.00    -0.251 OA
BRANCH   6   8
ATOM      8  C   UNL     1       1.447   0.664   2.168  1.00  0.00     0.117 C 
ATOM      9  C   UNL     1       0.539   1.846   2.578  1.00  0.00     0.030 C 
ATOM     10  C   UNL     1       2.713   1.254   1.528  1.00  0.00     0.281 C 
ATOM     11  C   UNL     1       0.344   2.839   1.423  1.00  0.00     0.063 C 
ATOM     12  N   UNL     1       2.546   2.237   0.456  1.00  0.00    -0.330 N 
ATOM     13  C   UNL     1       1.682   3.345   0.860  1.00  0.00     0.262 C 
ATOM     14  H   UNL     1       2.050   1.797  -0.319  1.00  0.00     0.348 HD
BRANCH   8  15
ATOM     15  C   UNL     1       0.657  -0.362   1.297  1.00  0.00     0.021 C 
ATOM     16  C   UNL     1       0.842  -0.302  -0.214  1.00  0.00     0.005 C 
ENDBRANCH   8  15
BRANCH  12  17
ATOM     17  C   UNL     1       3.863   2.651  -0.085  1.00  0.00     0.302 C 
BRANCH  17  18
ATOM     18  C   UNL     1       4.818   3.343   0.871  1.00  0.00     0.046 A 
ATOM     19  C   UNL     1       5.050   4.723   0.780  1.00  0.00     0.059 A 
ATOM     20  C   UNL     1       5.496   2.638   1.875  1.00  0.00     0.132 A 
ATOM     21  C   UNL     1       5.890   5.364   1.698  1.00  0.00     0.119 A 
ATOM     22  C   UNL     1       6.230   3.286   2.862  1.00  0.00     0.043 A 
ATOM     23  F   UNL     1       5.430   1.301   1.935  1.00  0.00    -0.206 F 
ATOM     24  C   UNL     1       6.413   4.660   2.784  1.00  0.00     0.049 A 
BRANCH  21  25
ATOM     25  O   UNL     1       6.144   6.688   1.461  1.00  0.00    -0.497 OA
ATOM     26  C   UNL     1       7.459   7.095   1.840  1.00  0.00     0.278 C 
ENDBRANCH  21  25
ENDBRANCH  17  18
ENDBRANCH  12  17
ENDBRANCH   6   8
ENDBRANCH   5   6
ENDBRANCH   4   5
ENDBRANCH   3   4
ENDBRANCH   2   3
ENDBRANCH   1   2
BRANCH   1  27
ATOM     27  C   UNL     1      -1.181  -0.946   5.210  1.00  0.00     0.188 C 
BRANCH  27  28
ATOM     28  O   UNL     1      -0.808   0.147   6.039  1.00  0.00    -0.376 OA
BRANCH  28  29
ATOM     29  C   UNL     1      -1.846   1.077   6.359  1.00  0.00     0.202 C 
BRANCH  29  30
ATOM     30  C   UNL     1      -3.122   0.474   6.979  1.00  0.00     0.261 C 
BRANCH  30  31
ATOM     31  O   UNL     1      -3.861  -0.420   6.122  1.00  0.00    -0.460 OA
BRANCH  31  32
ATOM     32  C   UNL     1      -4.154  -0.009   4.865  1.00  0.00     0.338 C 
ATOM     33  O   UNL     1      -4.113   1.138   4.451  1.00  0.00    -0.246 OA
BRANCH  32  34
ATOM     34  C   UNL     1      -4.261  -1.215   3.998  1.00  0.00     0.060 A 
ATOM     35  C   UNL     1      -3.757  -1.147   2.688  1.00  0.00     0.016 A 
ATOM     36  C   UNL     1      -4.760  -2.427   4.486  1.00  0.00     0.016 A 
ATOM     37  C   UNL     1      -3.793  -2.272   1.856  1.00  0.00     0.010 A 
ATOM     38  C   UNL     1      -4.807  -3.546   3.651  1.00  0.00     0.010 A 
ATOM     39  C   UNL     1      -4.359  -3.466   2.320  1.00  0.00    -0.014 A 
BRANCH  39  40
ATOM     40  C   UNL     1      -4.738  -4.550   1.378  1.00  0.00     0.031 A 
ATOM     41  C   UNL     1      -6.159  -4.560   0.878  1.00  0.00     0.074 A 
ATOM     42  C   UNL     1      -3.887  -5.522   1.004  1.00  0.00     0.049 A 
ATOM     43  N   UNL     1      -6.801  -5.480   0.210  1.00  0.00    -0.248 NA
ATOM     44  C   UNL     1      -6.964  -3.366   1.189  1.00  0.00     0.031 C 
ATOM     45  C   UNL     1      -2.473  -5.601   1.360  1.00  0.00     0.029 A 
ATOM     46  N   UNL     1      -4.109  -6.652   0.252  1.00  0.00    -0.354 N 
ATOM     47  C   UNL     1      -8.091  -4.989   0.043  1.00  0.00     0.074 A 
ATOM     48  C   UNL     1      -8.144  -3.697   0.689  1.00  0.00     0.031 C 
ATOM     49  C   UNL     1      -1.958  -6.734   0.848  1.00  0.00     0.029 A 
ATOM     50  C   UNL     1      -3.016  -7.484   0.169  1.00  0.00     0.049 A 
ATOM     51  H   UNL     1      -4.968  -6.847  -0.186  1.00  0.00     0.167 HD
ATOM     52  C   UNL     1      -9.140  -5.564  -0.588  1.00  0.00     0.037 A 
ATOM     53  C   UNL     1      -2.898  -8.722  -0.358  1.00  0.00     0.037 A 
ATOM     54  C   UNL     1      -9.088  -6.850  -1.229  1.00  0.00     0.049 A 
ATOM     55  C   UNL     1      -4.102  -9.381  -0.992  1.00  0.00     0.074 A 
ATOM     56  C   UNL     1     -10.100  -7.521  -1.890  1.00  0.00     0.029 A 
ATOM     57  N   UNL     1      -7.964  -7.660  -1.285  1.00  0.00    -0.354 N 
ATOM     58  N   UNL     1      -5.320  -8.915  -1.135  1.00  0.00    -0.248 NA
ATOM     59  C   UNL     1      -3.918 -10.740  -1.529  1.00  0.00     0.031 C 
ATOM     60  C   UNL     1      -9.601  -8.758  -2.308  1.00  0.00     0.029 A 
ATOM     61  C   UNL     1      -8.262  -8.831  -1.958  1.00  0.00     0.049 A 
ATOM     62  H   UNL     1      -7.085  -7.434  -0.904  1.00  0.00     0.167 HD
ATOM     63  C   UNL     1      -6.031  -9.902  -1.815  1.00  0.00     0.074 A 
ATOM     64  C   UNL     1      -5.113 -10.995  -2.047  1.00  0.00     0.031 C 
ATOM     65  C   UNL     1      -7.327  -9.897  -2.216  1.00  0.00     0.037 A 
BRANCH  52  66
ATOM     66  C   UNL     1     -10.444  -4.821  -0.578  1.00  0.00     0.058 A 
ATOM     67  C   UNL     1     -10.642  -3.661  -1.342  1.00  0.00     0.135 A 
ATOM     68  C   UNL     1     -11.517  -5.288   0.199  1.00  0.00     0.135 A 
ATOM     69  F   UNL     1      -9.640  -3.159  -2.081  1.00  0.00    -0.206 F 
ATOM     70  C   UNL     1     -11.850  -2.974  -1.317  1.00  0.00     0.059 A 
ATOM     71  C   UNL     1     -12.744  -4.633   0.217  1.00  0.00     0.059 A 
ATOM     72  F   UNL     1     -11.378  -6.389   0.953  1.00  0.00    -0.206 F 
ATOM     73  C   UNL     1     -12.895  -3.467  -0.533  1.00  0.00     0.060 A 
BRANCH  73  74
ATOM     74  S   UNL     1     -14.457  -2.564  -0.509  1.00  0.00     0.124 S 
ATOM     75  O   UNL     1     -14.104  -1.396   0.293  1.00  0.00    -0.237 OA
ATOM     76  O   UNL     1     -14.693  -2.310  -1.927  1.00  0.00    -0.237 OA
ATOM     77  O   UNL     1     -15.383  -3.500   0.120  1.00  0.00    -0.744 OA
ENDBRANCH  73  74
ENDBRANCH  52  66
BRANCH  53  78
ATOM     78  C   UNL     1      -1.598  -9.446  -0.288  1.00  0.00     0.058 A 
ATOM     79  C   UNL     1      -0.851  -9.710  -1.446  1.00  0.00     0.135 A 
ATOM     80  C   UNL     1      -1.087  -9.909   0.935  1.00  0.00     0.135 A 
ATOM     81  F   UNL     1      -1.305  -9.306  -2.643  1.00  0.00    -0.206 F 
ATOM     82  C   UNL     1       0.347 -10.418  -1.398  1.00  0.00     0.059 A 
ATOM     83  C   UNL     1       0.121 -10.596   1.012  1.00  0.00     0.059 A 
ATOM     84  F   UNL     1      -1.761  -9.684   2.074  1.00  0.00    -0.206 F 
ATOM     85  C   UNL     1       0.826 -10.855  -0.162  1.00  0.00     0.060 A 
BRANCH  85  86
ATOM     86  S   UNL     1       2.401 -11.740  -0.106  1.00  0.00     0.124 S 
ATOM     87  O   UNL     1       2.033 -13.032  -0.672  1.00  0.00    -0.237 OA
ATOM     88  O   UNL     1       3.255 -10.898  -0.938  1.00  0.00    -0.237 OA
ATOM     89  O   UNL     1       2.732 -11.745   1.316  1.00  0.00    -0.744 OA
ENDBRANCH  85  86
ENDBRANCH  53  78
BRANCH  65  90
ATOM     90  C   UNL     1      -7.832 -11.066  -3.018  1.00  0.00     0.058 A 
ATOM     91  C   UNL     1      -8.134 -12.301  -2.425  1.00  0.00     0.135 A 
ATOM     92  C   UNL     1      -8.131 -10.903  -4.381  1.00  0.00     0.135 A 
ATOM     93  F   UNL     1      -7.865 -12.511  -1.127  1.00  0.00    -0.206 F 
ATOM     94  C   UNL     1      -8.717 -13.333  -3.155  1.00  0.00     0.059 A 
ATOM     95  C   UNL     1      -8.735 -11.912  -5.124  1.00  0.00     0.059 A 
ATOM     96  F   UNL     1      -7.873  -9.736  -4.994  1.00  0.00    -0.206 F 
ATOM     97  C   UNL     1      -9.024 -13.125  -4.503  1.00  0.00     0.060 A 
BRANCH  97  98
ATOM     98  S   UNL     1      -9.854 -14.443  -5.418  1.00  0.00     0.124 S 
ATOM     99  O   UNL     1      -8.772 -15.404  -5.600  1.00  0.00    -0.237 OA
ATOM    100  O   UNL     1     -10.911 -14.846  -4.495  1.00  0.00    -0.237 OA
ATOM    101  O   UNL     1     -10.313 -13.776  -6.633  1.00  0.00    -0.744 OA
ENDBRANCH  97  98
ENDBRANCH  65  90
ENDBRANCH  39  40
ENDBRANCH  32  34
ENDBRANCH  31  32
ENDBRANCH  30  31
ENDBRANCH  29  30
ENDBRANCH  28  29
ENDBRANCH  27  28
ENDBRANCH   1  27
TORSDOF 24
