REMARK SMILES COc1cc2c(cc1OC)[C@H](C(=O)OCCOCCOCCOC(=O)c1ccc(-c3c4nc(c(-c5c(F)cc(S(=O)(=O)[O-])cc5F)c5ccc([nH]5)c(-c5c(F)cc(S(=O)(=O)[O-])cc5F)c5nc(c(-c6c(F)cc(S(=O)(=O)[O-])cc6F)c6ccc3[nH]6)C=C5)C=C4)cc1)[C@H](c1cccc(Cl)c1)N(C)C2=O
REMARK SMILES IDX 19 1 18 2 17 3 16 4 15 5 14 6 12 7 13 8 11 9 3 10 4 11 8 12
REMARK SMILES IDX 5 13 7 14 6 15 102 16 100 17 103 18 92 19 101 20 2 21 1 22
REMARK SMILES IDX 9 23 10 24 93 25 94 26 99 27 95 28 97 29 96 30 98 31 20 32
REMARK SMILES IDX 21 33 22 34 23 35 24 36 25 37 26 38 27 39 91 40 28 41 90 42
REMARK SMILES IDX 29 43 30 44 31 45 84 46 32 47 89 48 83 49 85 50 33 51 88 52
REMARK SMILES IDX 82 53 81 54 34 56 68 57 47 58 67 59 48 60 51 61 66 62 86 63
REMARK SMILES IDX 49 64 50 65 65 67 87 68 52 69 35 70 36 71 45 72 37 73 38 74
REMARK SMILES IDX 44 75 46 76 39 77 40 78 41 79 42 80 43 81 69 82 70 83 79 84
REMARK SMILES IDX 71 85 72 86 78 87 80 88 73 89 74 90 75 91 76 92 77 93 53 94
REMARK SMILES IDX 54 95 63 96 55 97 56 98 62 99 64 100 57 101 58 102 59 103
REMARK SMILES IDX 60 104 61 105
REMARK H PARENT 85 55 51 66
REMARK Flexibility Score: inf
ROOT
ATOM      1  C   UNL     1       1.699   8.884  -4.059  1.00  0.00     0.188 C 
ENDROOT
BRANCH   1   2
ATOM      2  C   UNL     1       1.544   8.252  -5.461  1.00  0.00     0.188 C 
BRANCH   2   3
ATOM      3  O   UNL     1       0.322   8.550  -6.111  1.00  0.00    -0.376 OA
BRANCH   3   4
ATOM      4  C   UNL     1      -0.616   7.488  -6.222  1.00  0.00     0.202 C 
BRANCH   4   5
ATOM      5  C   UNL     1      -1.163   6.951  -4.894  1.00  0.00     0.261 C 
BRANCH   5   6
ATOM      6  O   UNL     1      -0.145   6.592  -3.945  1.00  0.00    -0.463 OA
BRANCH   6   7
ATOM      7  C   UNL     1       0.554   5.450  -4.196  1.00  0.00     0.316 C 
ATOM      8  O   UNL     1       0.298   4.702  -5.126  1.00  0.00    -0.251 OA
BRANCH   7   9
ATOM      9  C   UNL     1       1.612   5.238  -3.111  1.00  0.00     0.157 C 
ATOM     10  C   UNL     1       0.837   1.485  -1.192  1.00  0.00     0.161 A 
ATOM     11  C   UNL     1       2.124   2.050  -1.143  1.00  0.00     0.064 A 
ATOM     12  C   UNL     1      -0.236   2.236  -1.687  1.00  0.00     0.161 A 
ATOM     13  C   UNL     1       2.356   3.322  -1.672  1.00  0.00     0.048 A 
ATOM     14  C   UNL     1       0.015   3.500  -2.208  1.00  0.00     0.056 A 
ATOM     15  C   UNL     1       1.318   3.996  -2.312  1.00  0.00    -0.015 A 
ATOM     16  C   UNL     1       3.692   3.975  -1.544  1.00  0.00     0.254 C 
ATOM     17  N   UNL     1       3.969   5.018  -2.433  1.00  0.00    -0.333 N 
ATOM     18  O   UNL     1       4.471   3.592  -0.678  1.00  0.00    -0.269 OA
ATOM     19  C   UNL     1       3.096   5.243  -3.612  1.00  0.00     0.134 C 
ATOM     20  C   UNL     1       5.269   5.672  -2.364  1.00  0.00     0.147 C 
BRANCH  10  21
ATOM     21  O   UNL     1       0.625   0.180  -0.841  1.00  0.00    -0.493 OA
ATOM     22  C   UNL     1       1.169  -0.181   0.420  1.00  0.00     0.278 C 
ENDBRANCH  10  21
BRANCH  12  23
ATOM     23  O   UNL     1      -1.565   1.927  -1.742  1.00  0.00    -0.493 OA
ATOM     24  C   UNL     1      -1.940   0.566  -1.633  1.00  0.00     0.278 C 
ENDBRANCH  12  23
BRANCH  19  25
ATOM     25  C   UNL     1       3.462   4.313  -4.780  1.00  0.00    -0.023 A 
ATOM     26  C   UNL     1       3.002   4.582  -6.081  1.00  0.00     0.006 A 
ATOM     27  C   UNL     1       4.273   3.174  -4.623  1.00  0.00     0.026 A 
ATOM     28  C   UNL     1       3.225   3.697  -7.141  1.00  0.00     0.002 A 
ATOM     29  C   UNL     1       4.522   2.304  -5.689  1.00  0.00     0.041 A 
ATOM     30  C   UNL     1       3.974   2.545  -6.941  1.00  0.00     0.020 A 
ATOM     31  Cl  UNL     1       5.512   0.920  -5.440  1.00  0.00    -0.084 Cl
ENDBRANCH  19  25
ENDBRANCH   7   9
ENDBRANCH   6   7
ENDBRANCH   5   6
ENDBRANCH   4   5
ENDBRANCH   3   4
ENDBRANCH   2   3
ENDBRANCH   1   2
BRANCH   1  32
ATOM     32  O   UNL     1       0.770   9.863  -3.624  1.00  0.00    -0.376 OA
BRANCH  32  33
ATOM     33  C   UNL     1       0.339  10.841  -4.559  1.00  0.00     0.202 C 
BRANCH  33  34
ATOM     34  C   UNL     1       1.391  11.666  -5.325  1.00  0.00     0.261 C 
BRANCH  34  35
ATOM     35  O   UNL     1       2.454  10.929  -5.966  1.00  0.00    -0.460 OA
BRANCH  35  36
ATOM     36  C   UNL     1       3.685  11.031  -5.405  1.00  0.00     0.338 C 
ATOM     37  O   UNL     1       3.982  11.693  -4.414  1.00  0.00    -0.246 OA
BRANCH  36  38
ATOM     38  C   UNL     1       4.633  10.076  -6.028  1.00  0.00     0.060 A 
ATOM     39  C   UNL     1       5.180   9.047  -5.242  1.00  0.00     0.016 A 
ATOM     40  C   UNL     1       5.046  10.229  -7.351  1.00  0.00     0.016 A 
ATOM     41  C   UNL     1       6.147   8.184  -5.769  1.00  0.00     0.010 A 
ATOM     42  C   UNL     1       6.039   9.382  -7.868  1.00  0.00     0.010 A 
ATOM     43  C   UNL     1       6.615   8.370  -7.075  1.00  0.00    -0.014 A 
BRANCH  43  44
ATOM     44  C   UNL     1       7.811   7.628  -7.563  1.00  0.00     0.031 A 
ATOM     45  C   UNL     1       9.150   8.319  -7.547  1.00  0.00     0.074 A 
ATOM     46  C   UNL     1       7.722   6.366  -8.022  1.00  0.00     0.049 A 
ATOM     47  N   UNL     1      10.297   7.919  -8.032  1.00  0.00    -0.248 NA
ATOM     48  C   UNL     1       9.199   9.638  -6.898  1.00  0.00     0.031 C 
ATOM     49  C   UNL     1       6.505   5.559  -8.041  1.00  0.00     0.029 A 
ATOM     50  N   UNL     1       8.675   5.548  -8.584  1.00  0.00    -0.354 N 
ATOM     51  C   UNL     1      11.200   8.941  -7.764  1.00  0.00     0.074 A 
ATOM     52  C   UNL     1      10.463   9.987  -7.088  1.00  0.00     0.031 C 
ATOM     53  C   UNL     1       6.778   4.374  -8.615  1.00  0.00     0.029 A 
ATOM     54  C   UNL     1       8.176   4.349  -9.038  1.00  0.00     0.049 A 
ATOM     55  H   UNL     1       9.625   5.797  -8.654  1.00  0.00     0.167 HD
ATOM     56  C   UNL     1      12.522   9.004  -8.055  1.00  0.00     0.037 A 
ATOM     57  C   UNL     1       8.762   3.362  -9.747  1.00  0.00     0.037 A 
ATOM     58  C   UNL     1      13.255   7.961  -8.727  1.00  0.00     0.049 A 
ATOM     59  C   UNL     1      10.216   3.489 -10.136  1.00  0.00     0.074 A 
ATOM     60  C   UNL     1      14.601   7.928  -9.047  1.00  0.00     0.029 A 
ATOM     61  N   UNL     1      12.706   6.776  -9.193  1.00  0.00    -0.354 N 
ATOM     62  N   UNL     1      11.060   4.456  -9.865  1.00  0.00    -0.248 NA
ATOM     63  C   UNL     1      10.795   2.396 -10.932  1.00  0.00     0.031 C 
ATOM     64  C   UNL     1      14.854   6.753  -9.761  1.00  0.00     0.029 A 
ATOM     65  C   UNL     1      13.680   6.021  -9.828  1.00  0.00     0.049 A 
ATOM     66  H   UNL     1      11.764   6.510  -9.088  1.00  0.00     0.167 HD
ATOM     67  C   UNL     1      12.274   4.072 -10.430  1.00  0.00     0.074 A 
ATOM     68  C   UNL     1      12.058   2.782 -11.049  1.00  0.00     0.031 C 
ATOM     69  C   UNL     1      13.460   4.731 -10.434  1.00  0.00     0.037 A 
BRANCH  56  70
ATOM     70  C   UNL     1      13.264  10.258  -7.680  1.00  0.00     0.058 A 
ATOM     71  C   UNL     1      13.560  10.577  -6.346  1.00  0.00     0.135 A 
ATOM     72  C   UNL     1      13.732  11.128  -8.679  1.00  0.00     0.135 A 
ATOM     73  F   UNL     1      13.122   9.790  -5.349  1.00  0.00    -0.206 F 
ATOM     74  C   UNL     1      14.274  11.724  -6.013  1.00  0.00     0.059 A 
ATOM     75  C   UNL     1      14.473  12.265  -8.372  1.00  0.00     0.059 A 
ATOM     76  F   UNL     1      13.475  10.873  -9.972  1.00  0.00    -0.206 F 
ATOM     77  C   UNL     1      14.730  12.560  -7.035  1.00  0.00     0.060 A 
BRANCH  77  78
ATOM     78  S   UNL     1      15.668  14.035  -6.586  1.00  0.00     0.124 S 
ATOM     79  O   UNL     1      14.631  14.869  -5.986  1.00  0.00    -0.237 OA
ATOM     80  O   UNL     1      16.665  13.501  -5.664  1.00  0.00    -0.237 OA
ATOM     81  O   UNL     1      16.190  14.509  -7.864  1.00  0.00    -0.744 OA
ENDBRANCH  77  78
ENDBRANCH  56  70
BRANCH  57  82
ATOM     82  C   UNL     1       7.969   2.175 -10.180  1.00  0.00     0.058 A 
ATOM     83  C   UNL     1       8.240   0.893  -9.679  1.00  0.00     0.135 A 
ATOM     84  C   UNL     1       6.939   2.299 -11.126  1.00  0.00     0.135 A 
ATOM     85  F   UNL     1       9.229   0.716  -8.790  1.00  0.00    -0.206 F 
ATOM     86  C   UNL     1       7.532  -0.225 -10.112  1.00  0.00     0.059 A 
ATOM     87  C   UNL     1       6.197   1.201 -11.552  1.00  0.00     0.059 A 
ATOM     88  F   UNL     1       6.632   3.502 -11.635  1.00  0.00    -0.206 F 
ATOM     89  C   UNL     1       6.510  -0.060 -11.048  1.00  0.00     0.060 A 
BRANCH  89  90
ATOM     90  S   UNL     1       5.574  -1.510 -11.581  1.00  0.00     0.124 S 
ATOM     91  O   UNL     1       6.553  -2.207 -12.405  1.00  0.00    -0.237 OA
ATOM     92  O   UNL     1       5.241  -2.143 -10.309  1.00  0.00    -0.237 OA
ATOM     93  O   UNL     1       4.441  -0.931 -12.299  1.00  0.00    -0.744 OA
ENDBRANCH  89  90
ENDBRANCH  57  82
BRANCH  69  94
ATOM     94  C   UNL     1      14.638   4.059 -11.092  1.00  0.00     0.058 A 
ATOM     95  C   UNL     1      14.736   3.933 -12.487  1.00  0.00     0.135 A 
ATOM     96  C   UNL     1      15.718   3.602 -10.318  1.00  0.00     0.135 A 
ATOM     97  F   UNL     1      13.731   4.347 -13.275  1.00  0.00    -0.206 F 
ATOM     98  C   UNL     1      15.854   3.363 -13.089  1.00  0.00     0.059 A 
ATOM     99  C   UNL     1      16.859   3.057 -10.901  1.00  0.00     0.059 A 
ATOM    100  F   UNL     1      15.684   3.707  -8.980  1.00  0.00    -0.206 F 
ATOM    101  C   UNL     1      16.914   2.934 -12.288  1.00  0.00     0.060 A 
BRANCH 101 102
ATOM    102  S   UNL     1      18.378   2.243 -13.087  1.00  0.00     0.124 S 
ATOM    103  O   UNL     1      17.880   0.953 -13.554  1.00  0.00    -0.237 OA
ATOM    104  O   UNL     1      18.659   3.228 -14.127  1.00  0.00    -0.237 OA
ATOM    105  O   UNL     1      19.360   2.183 -12.008  1.00  0.00    -0.744 OA
ENDBRANCH 101 102
ENDBRANCH  69  94
ENDBRANCH  43  44
ENDBRANCH  36  38
ENDBRANCH  35  36
ENDBRANCH  34  35
ENDBRANCH  33  34
ENDBRANCH  32  33
ENDBRANCH   1  32
TORSDOF 23
