REMARK SMILES CC(C)c1ccc(-c2cnc([C@@H]3[NH2+][C@H](C(=O)OCCOCCOCCOC(=O)c4ccc(-c5c6nc(c(-c7c(F)cc(S(=O)(=O)[O-])cc7F)c7ccc([nH]7)c(-c7c(F)cc(S(=O)(=O)[O-])cc7F)c7nc(c(-c8c(F)cc(S(=O)(=O)[O-])cc8F)c8ccc5[nH]8)C=C7)C=C6)cc4)C(C)(C)S3)s2)cc1
REMARK SMILES IDX 21 1 20 2 19 3 18 4 17 5 15 6 16 7 14 8 12 9 13 10 98 11
REMARK SMILES IDX 95 14 96 15 97 16 11 17 8 18 9 19 99 20 10 21 7 22 4 23 5 24
REMARK SMILES IDX 101 25 6 26 100 27 2 28 1 29 3 30 22 31 23 32 24 33 25 34
REMARK SMILES IDX 26 35 27 36 28 37 29 38 30 39 94 40 31 41 93 42 32 43 33 44
REMARK SMILES IDX 34 45 87 46 35 47 92 48 86 49 88 50 36 51 91 52 85 53 84 54
REMARK SMILES IDX 37 56 71 57 50 58 70 59 51 60 54 61 69 62 89 63 52 64 53 65
REMARK SMILES IDX 68 67 90 68 55 69 38 70 39 71 48 72 40 73 41 74 47 75 49 76
REMARK SMILES IDX 42 77 43 78 44 79 45 80 46 81 72 82 73 83 82 84 74 85 75 86
REMARK SMILES IDX 81 87 83 88 76 89 77 90 78 91 79 92 80 93 56 94 57 95 66 96
REMARK SMILES IDX 58 97 59 98 65 99 67 100 60 101 61 102 62 103 63 104 64 105
REMARK H PARENT 13 12 13 13 88 55 54 66
REMARK Flexibility Score: inf
ROOT
ATOM      1  C   UNL     1     -12.725   2.547  -3.376  1.00  0.00     0.188 C 
ENDROOT
BRANCH   1   2
ATOM      2  O   UNL     1     -13.646   2.418  -4.435  1.00  0.00    -0.376 OA
BRANCH   2   3
ATOM      3  C   UNL     1     -13.596   1.260  -5.239  1.00  0.00     0.202 C 
BRANCH   3   4
ATOM      4  C   UNL     1     -13.377  -0.166  -4.690  1.00  0.00     0.261 C 
BRANCH   4   5
ATOM      5  O   UNL     1     -12.498  -0.351  -3.563  1.00  0.00    -0.459 OA
BRANCH   5   6
ATOM      6  C   UNL     1     -11.828  -1.536  -3.539  1.00  0.00     0.366 C 
ATOM      7  O   UNL     1     -11.871  -2.349  -4.464  1.00  0.00    -0.245 OA
BRANCH   6   8
ATOM      8  C   UNL     1     -11.019  -1.857  -2.241  1.00  0.00     0.310 C 
ATOM      9  C   UNL     1      -9.056  -0.461  -2.352  1.00  0.00     0.304 C 
ATOM     10  N   UNL     1      -9.556  -1.837  -2.560  1.00  0.00    -0.317 N 
ATOM     11  S   UNL     1     -10.169   0.353  -1.123  1.00  0.00    -0.079 SA
ATOM     12  H   UNL     1      -9.059  -2.481  -1.944  1.00  0.00     0.348 HD
ATOM     13  H   UNL     1      -9.402  -2.126  -3.526  1.00  0.00     0.348 HD
ATOM     14  C   UNL     1     -11.216  -1.122  -0.896  1.00  0.00     0.079 C 
ATOM     15  C   UNL     1     -10.586  -1.897   0.291  1.00  0.00     0.030 C 
ATOM     16  C   UNL     1     -12.666  -0.852  -0.477  1.00  0.00     0.030 C 
BRANCH   9  17
ATOM     17  C   UNL     1      -8.986   0.341  -3.636  1.00  0.00     0.162 A 
ATOM     18  C   UNL     1      -8.287   1.762  -5.485  1.00  0.00     0.055 A 
ATOM     19  C   UNL     1      -9.645   1.637  -5.294  1.00  0.00     0.132 A 
ATOM     20  S   UNL     1      -7.474   0.736  -4.374  1.00  0.00    -0.112 S 
ATOM     21  N   UNL     1     -10.038   0.804  -4.279  1.00  0.00    -0.242 NA
BRANCH  18  22
ATOM     22  C   UNL     1      -7.617   2.625  -6.454  1.00  0.00    -0.007 A 
ATOM     23  C   UNL     1      -6.613   4.297  -8.511  1.00  0.00    -0.045 A 
ATOM     24  C   UNL     1      -6.221   2.951  -8.404  1.00  0.00     0.004 A 
ATOM     25  C   UNL     1      -7.498   4.801  -7.554  1.00  0.00     0.004 A 
ATOM     26  C   UNL     1      -6.707   2.125  -7.383  1.00  0.00     0.010 A 
ATOM     27  C   UNL     1      -7.991   3.976  -6.539  1.00  0.00     0.010 A 
BRANCH  23  28
ATOM     28  C   UNL     1      -6.077   5.128  -9.667  1.00  0.00     0.013 C 
ATOM     29  C   UNL     1      -6.857   4.816 -10.949  1.00  0.00     0.012 C 
ATOM     30  C   UNL     1      -6.072   6.642  -9.426  1.00  0.00     0.012 C 
ENDBRANCH  23  28
ENDBRANCH  18  22
ENDBRANCH   9  17
ENDBRANCH   6   8
ENDBRANCH   5   6
ENDBRANCH   4   5
ENDBRANCH   3   4
ENDBRANCH   2   3
ENDBRANCH   1   2
BRANCH   1  31
ATOM     31  C   UNL     1     -13.338   2.116  -2.048  1.00  0.00     0.188 C 
BRANCH  31  32
ATOM     32  O   UNL     1     -14.743   2.178  -1.840  1.00  0.00    -0.376 OA
BRANCH  32  33
ATOM     33  C   UNL     1     -15.453   3.268  -2.397  1.00  0.00     0.202 C 
BRANCH  33  34
ATOM     34  C   UNL     1     -15.066   4.696  -1.982  1.00  0.00     0.261 C 
BRANCH  34  35
ATOM     35  O   UNL     1     -13.661   4.963  -1.838  1.00  0.00    -0.460 OA
BRANCH  35  36
ATOM     36  C   UNL     1     -13.180   4.964  -0.568  1.00  0.00     0.338 C 
ATOM     37  O   UNL     1     -13.817   4.786   0.458  1.00  0.00    -0.246 OA
BRANCH  36  38
ATOM     38  C   UNL     1     -11.701   5.058  -0.607  1.00  0.00     0.060 A 
ATOM     39  C   UNL     1     -10.936   4.016  -0.063  1.00  0.00     0.016 A 
ATOM     40  C   UNL     1     -11.068   6.175  -1.153  1.00  0.00     0.016 A 
ATOM     41  C   UNL     1      -9.540   4.077  -0.082  1.00  0.00     0.010 A 
ATOM     42  C   UNL     1      -9.669   6.252  -1.135  1.00  0.00     0.010 A 
ATOM     43  C   UNL     1      -8.896   5.209  -0.594  1.00  0.00    -0.014 A 
BRANCH  43  44
ATOM     44  C   UNL     1      -7.430   5.383  -0.432  1.00  0.00     0.031 A 
ATOM     45  C   UNL     1      -6.919   6.149   0.754  1.00  0.00     0.074 A 
ATOM     46  C   UNL     1      -6.556   4.888  -1.326  1.00  0.00     0.049 A 
ATOM     47  N   UNL     1      -5.704   6.554   1.019  1.00  0.00    -0.248 NA
ATOM     48  C   UNL     1      -7.914   6.503   1.777  1.00  0.00     0.031 C 
ATOM     49  C   UNL     1      -6.902   4.063  -2.479  1.00  0.00     0.029 A 
ATOM     50  N   UNL     1      -5.190   5.023  -1.405  1.00  0.00    -0.354 N 
ATOM     51  C   UNL     1      -5.789   7.229   2.230  1.00  0.00     0.074 A 
ATOM     52  C   UNL     1      -7.177   7.184   2.641  1.00  0.00     0.031 C 
ATOM     53  C   UNL     1      -5.777   3.778  -3.159  1.00  0.00     0.029 A 
ATOM     54  C   UNL     1      -4.640   4.428  -2.515  1.00  0.00     0.049 A 
ATOM     55  H   UNL     1      -4.656   5.502  -0.731  1.00  0.00     0.167 HD
ATOM     56  C   UNL     1      -4.803   7.840   2.931  1.00  0.00     0.037 A 
ATOM     57  C   UNL     1      -3.375   4.432  -2.982  1.00  0.00     0.037 A 
ATOM     58  C   UNL     1      -3.429   7.909   2.509  1.00  0.00     0.049 A 
ATOM     59  C   UNL     1      -2.318   5.220  -2.255  1.00  0.00     0.074 A 
ATOM     60  C   UNL     1      -2.365   8.530   3.140  1.00  0.00     0.029 A 
ATOM     61  N   UNL     1      -2.928   7.351   1.342  1.00  0.00    -0.354 N 
ATOM     62  N   UNL     1      -2.413   5.887  -1.130  1.00  0.00    -0.248 NA
ATOM     63  C   UNL     1      -0.987   5.280  -2.879  1.00  0.00     0.031 C 
ATOM     64  C   UNL     1      -1.232   8.391   2.329  1.00  0.00     0.029 A 
ATOM     65  C   UNL     1      -1.577   7.638   1.219  1.00  0.00     0.049 A 
ATOM     66  H   UNL     1      -3.454   6.827   0.696  1.00  0.00     0.167 HD
ATOM     67  C   UNL     1      -1.154   6.434  -0.905  1.00  0.00     0.074 A 
ATOM     68  C   UNL     1      -0.310   6.011  -2.002  1.00  0.00     0.031 C 
ATOM     69  C   UNL     1      -0.740   7.218   0.121  1.00  0.00     0.037 A 
BRANCH  56  70
ATOM     70  C   UNL     1      -5.206   8.537   4.199  1.00  0.00     0.058 A 
ATOM     71  C   UNL     1      -5.585   7.825   5.348  1.00  0.00     0.135 A 
ATOM     72  C   UNL     1      -5.239   9.940   4.256  1.00  0.00     0.135 A 
ATOM     73  F   UNL     1      -5.589   6.482   5.341  1.00  0.00    -0.206 F 
ATOM     74  C   UNL     1      -6.030   8.478   6.492  1.00  0.00     0.059 A 
ATOM     75  C   UNL     1      -5.652  10.614   5.399  1.00  0.00     0.059 A 
ATOM     76  F   UNL     1      -4.886  10.668   3.185  1.00  0.00    -0.206 F 
ATOM     77  C   UNL     1      -6.070   9.874   6.504  1.00  0.00     0.060 A 
BRANCH  77  78
ATOM     78  S   UNL     1      -6.696  10.708   7.977  1.00  0.00     0.124 S 
ATOM     79  O   UNL     1      -8.129  10.455   7.865  1.00  0.00    -0.237 OA
ATOM     80  O   UNL     1      -6.009  10.002   9.053  1.00  0.00    -0.237 OA
ATOM     81  O   UNL     1      -6.287  12.095   7.781  1.00  0.00    -0.744 OA
ENDBRANCH  77  78
ENDBRANCH  56  70
BRANCH  57  82
ATOM     82  C   UNL     1      -3.032   3.690  -4.225  1.00  0.00     0.058 A 
ATOM     83  C   UNL     1      -2.244   2.530  -4.176  1.00  0.00     0.135 A 
ATOM     84  C   UNL     1      -3.473   4.128  -5.483  1.00  0.00     0.135 A 
ATOM     85  F   UNL     1      -1.772   2.090  -3.000  1.00  0.00    -0.206 F 
ATOM     86  C   UNL     1      -1.913   1.823  -5.328  1.00  0.00     0.059 A 
ATOM     87  C   UNL     1      -3.164   3.431  -6.647  1.00  0.00     0.059 A 
ATOM     88  F   UNL     1      -4.222   5.237  -5.585  1.00  0.00    -0.206 F 
ATOM     89  C   UNL     1      -2.388   2.277  -6.560  1.00  0.00     0.060 A 
BRANCH  89  90
ATOM     90  S   UNL     1      -2.028   1.306  -8.041  1.00  0.00     0.124 S 
ATOM     91  O   UNL     1      -0.628   1.636  -8.278  1.00  0.00    -0.237 OA
ATOM     92  O   UNL     1      -2.297  -0.055  -7.589  1.00  0.00    -0.237 OA
ATOM     93  O   UNL     1      -2.974   1.826  -9.025  1.00  0.00    -0.744 OA
ENDBRANCH  89  90
ENDBRANCH  57  82
BRANCH  69  94
ATOM     94  C   UNL     1       0.698   7.662   0.127  1.00  0.00     0.058 A 
ATOM     95  C   UNL     1       1.167   8.654  -0.748  1.00  0.00     0.135 A 
ATOM     96  C   UNL     1       1.600   7.139   1.068  1.00  0.00     0.135 A 
ATOM     97  F   UNL     1       0.350   9.180  -1.674  1.00  0.00    -0.206 F 
ATOM     98  C   UNL     1       2.482   9.108  -0.695  1.00  0.00     0.059 A 
ATOM     99  C   UNL     1       2.912   7.595   1.155  1.00  0.00     0.059 A 
ATOM    100  F   UNL     1       1.202   6.191   1.931  1.00  0.00    -0.206 F 
ATOM    101  C   UNL     1       3.345   8.577   0.266  1.00  0.00     0.060 A 
BRANCH 101 102
ATOM    102  S   UNL     1       5.031   9.218   0.364  1.00  0.00     0.124 S 
ATOM    103  O   UNL     1       5.639   8.634  -0.827  1.00  0.00    -0.237 OA
ATOM    104  O   UNL     1       4.818  10.662   0.324  1.00  0.00    -0.237 OA
ATOM    105  O   UNL     1       5.520   8.698   1.637  1.00  0.00    -0.744 OA
ENDBRANCH 101 102
ENDBRANCH  69  94
ENDBRANCH  43  44
ENDBRANCH  36  38
ENDBRANCH  35  36
ENDBRANCH  34  35
ENDBRANCH  33  34
ENDBRANCH  32  33
ENDBRANCH  31  32
ENDBRANCH   1  31
TORSDOF 23
