REMARK SMILES Cc1cc(NC(=O)[C@@H]2[C@@H](C(=O)OCCOCCOCCOC(=O)c3ccc(-c4c5nc(c(-c6c(F)cc(S(=O)(=O)[O-])cc6F)c6ccc([nH]6)c(-c6c(F)cc(S(=O)(=O)[O-])cc6F)c6nc(c(-c7c(F)cc(S(=O)(=O)[O-])cc7F)c7ccc4[nH]7)C=C6)C=C5)cc3)C2(C)C)on1
REMARK SMILES IDX 17 1 16 2 15 3 14 4 13 5 12 6 10 7 11 8 9 9 8 10 90 11 91 12
REMARK SMILES IDX 92 13 6 14 5 15 7 17 4 18 1 19 2 20 3 21 94 22 93 23 18 24
REMARK SMILES IDX 19 25 20 26 21 27 22 28 23 29 24 30 25 31 89 32 26 33 88 34
REMARK SMILES IDX 27 35 28 36 29 37 82 38 30 39 87 40 81 41 83 42 31 43 86 44
REMARK SMILES IDX 80 45 79 46 32 48 66 49 45 50 65 51 46 52 49 53 64 54 84 55
REMARK SMILES IDX 47 56 48 57 63 59 85 60 50 61 33 62 34 63 43 64 35 65 36 66
REMARK SMILES IDX 42 67 44 68 37 69 38 70 39 71 40 72 41 73 67 74 68 75 77 76
REMARK SMILES IDX 69 77 70 78 76 79 78 80 71 81 72 82 73 83 74 84 75 85 51 86
REMARK SMILES IDX 52 87 61 88 53 89 54 90 60 91 62 92 55 93 56 94 57 95 58 96
REMARK SMILES IDX 59 97
REMARK H PARENT 5 16 83 47 49 58
REMARK Flexibility Score: inf
ROOT
ATOM      1  C   UNL     1      -7.579  -0.242   2.413  1.00  0.00     0.188 C 
ENDROOT
BRANCH   1   2
ATOM      2  C   UNL     1      -8.512  -0.545   1.226  1.00  0.00     0.188 C 
BRANCH   2   3
ATOM      3  O   UNL     1      -8.997  -1.878   1.076  1.00  0.00    -0.376 OA
BRANCH   3   4
ATOM      4  C   UNL     1      -8.053  -2.949   1.025  1.00  0.00     0.202 C 
BRANCH   4   5
ATOM      5  C   UNL     1      -6.870  -2.793   0.065  1.00  0.00     0.261 C 
BRANCH   5   6
ATOM      6  O   UNL     1      -6.014  -1.731   0.508  1.00  0.00    -0.463 OA
BRANCH   6   7
ATOM      7  C   UNL     1      -5.280  -1.135  -0.458  1.00  0.00     0.310 C 
ATOM      8  O   UNL     1      -5.089  -1.571  -1.583  1.00  0.00    -0.252 OA
BRANCH   7   9
ATOM      9  C   UNL     1      -4.812   0.219  -0.057  1.00  0.00     0.118 C 
ATOM     10  C   UNL     1      -3.331   0.453  -0.109  1.00  0.00     0.100 C 
ATOM     11  C   UNL     1      -4.038   0.577   1.228  1.00  0.00    -0.009 C 
ATOM     12  C   UNL     1      -3.732  -0.499   2.251  1.00  0.00     0.013 C 
ATOM     13  C   UNL     1      -4.290   1.909   1.894  1.00  0.00     0.013 C 
BRANCH  10  14
ATOM     14  C   UNL     1      -2.675   1.414  -1.032  1.00  0.00     0.231 C 
ATOM     15  N   UNL     1      -2.863   2.759  -1.177  1.00  0.00    -0.294 N 
ATOM     16  H   UNL     1      -2.119   3.203  -1.645  1.00  0.00     0.173 HD
ATOM     17  O   UNL     1      -1.736   0.955  -1.692  1.00  0.00    -0.274 OA
BRANCH  15  18
ATOM     18  C   UNL     1      -3.854   3.620  -0.816  1.00  0.00     0.231 A 
ATOM     19  C   UNL     1      -5.561   6.696   0.158  1.00  0.00     0.070 C 
ATOM     20  C   UNL     1      -5.089   5.353  -0.249  1.00  0.00     0.083 A 
ATOM     21  C   UNL     1      -3.812   4.990  -0.733  1.00  0.00     0.096 A 
ATOM     22  N   UNL     1      -5.883   4.281  -0.137  1.00  0.00    -0.083 NA
ATOM     23  O   UNL     1      -5.106   3.201  -0.527  1.00  0.00    -0.338 OA
ENDBRANCH  15  18
ENDBRANCH  10  14
ENDBRANCH   7   9
ENDBRANCH   6   7
ENDBRANCH   5   6
ENDBRANCH   4   5
ENDBRANCH   3   4
ENDBRANCH   2   3
ENDBRANCH   1   2
BRANCH   1  24
ATOM     24  O   UNL     1      -7.373  -1.304   3.312  1.00  0.00    -0.376 OA
BRANCH  24  25
ATOM     25  C   UNL     1      -8.213  -1.491   4.434  1.00  0.00     0.202 C 
BRANCH  25  26
ATOM     26  C   UNL     1      -9.604  -0.864   4.637  1.00  0.00     0.261 C 
BRANCH  26  27
ATOM     27  O   UNL     1      -9.987   0.231   3.808  1.00  0.00    -0.460 OA
BRANCH  27  28
ATOM     28  C   UNL     1      -9.663   1.473   4.238  1.00  0.00     0.338 C 
ATOM     29  O   UNL     1      -9.023   1.770   5.228  1.00  0.00    -0.246 OA
BRANCH  28  30
ATOM     30  C   UNL     1     -10.079   2.407   3.171  1.00  0.00     0.060 A 
ATOM     31  C   UNL     1      -9.105   3.145   2.487  1.00  0.00     0.016 A 
ATOM     32  C   UNL     1     -11.426   2.502   2.815  1.00  0.00     0.016 A 
ATOM     33  C   UNL     1      -9.480   3.982   1.434  1.00  0.00     0.010 A 
ATOM     34  C   UNL     1     -11.801   3.357   1.779  1.00  0.00     0.010 A 
ATOM     35  C   UNL     1     -10.833   4.107   1.091  1.00  0.00    -0.014 A 
BRANCH  35  36
ATOM     36  C   UNL     1     -11.274   5.102   0.087  1.00  0.00     0.031 A 
ATOM     37  C   UNL     1     -11.751   6.444   0.561  1.00  0.00     0.074 A 
ATOM     38  C   UNL     1     -11.301   4.793  -1.221  1.00  0.00     0.049 A 
ATOM     39  N   UNL     1     -12.292   7.419  -0.120  1.00  0.00    -0.248 NA
ATOM     40  C   UNL     1     -11.599   6.720   1.999  1.00  0.00     0.031 C 
ATOM     41  C   UNL     1     -10.823   3.540  -1.803  1.00  0.00     0.029 A 
ATOM     42  N   UNL     1     -11.772   5.507  -2.294  1.00  0.00    -0.354 N 
ATOM     43  C   UNL     1     -12.559   8.420   0.805  1.00  0.00     0.074 A 
ATOM     44  C   UNL     1     -12.131   7.929   2.098  1.00  0.00     0.031 C 
ATOM     45  C   UNL     1     -11.042   3.566  -3.130  1.00  0.00     0.029 A 
ATOM     46  C   UNL     1     -11.713   4.817  -3.481  1.00  0.00     0.049 A 
ATOM     47  H   UNL     1     -12.120   6.425  -2.220  1.00  0.00     0.167 HD
ATOM     48  C   UNL     1     -13.114   9.636   0.593  1.00  0.00     0.037 A 
ATOM     49  C   UNL     1     -12.178   5.146  -4.702  1.00  0.00     0.037 A 
ATOM     50  C   UNL     1     -13.547  10.112  -0.694  1.00  0.00     0.049 A 
ATOM     51  C   UNL     1     -12.891   6.459  -4.893  1.00  0.00     0.074 A 
ATOM     52  C   UNL     1     -14.072  11.348  -1.023  1.00  0.00     0.029 A 
ATOM     53  N   UNL     1     -13.530   9.361  -1.860  1.00  0.00    -0.354 N 
ATOM     54  N   UNL     1     -13.099   7.419  -4.022  1.00  0.00    -0.248 NA
ATOM     55  C   UNL     1     -13.449   6.727  -6.226  1.00  0.00     0.031 C 
ATOM     56  C   UNL     1     -14.424  11.326  -2.378  1.00  0.00     0.029 A 
ATOM     57  C   UNL     1     -14.077  10.090  -2.902  1.00  0.00     0.049 A 
ATOM     58  H   UNL     1     -13.180   8.443  -1.936  1.00  0.00     0.167 HD
ATOM     59  C   UNL     1     -13.798   8.409  -4.705  1.00  0.00     0.074 A 
ATOM     60  C   UNL     1     -13.969   7.937  -6.064  1.00  0.00     0.031 C 
ATOM     61  C   UNL     1     -14.253   9.602  -4.248  1.00  0.00     0.037 A 
BRANCH  48  62
ATOM     62  C   UNL     1     -13.319  10.516   1.792  1.00  0.00     0.058 A 
ATOM     63  C   UNL     1     -12.245  11.149   2.438  1.00  0.00     0.135 A 
ATOM     64  C   UNL     1     -14.610  10.729   2.301  1.00  0.00     0.135 A 
ATOM     65  F   UNL     1     -10.989  10.964   2.002  1.00  0.00    -0.206 F 
ATOM     66  C   UNL     1     -12.441  11.935   3.569  1.00  0.00     0.059 A 
ATOM     67  C   UNL     1     -14.831  11.530   3.417  1.00  0.00     0.059 A 
ATOM     68  F   UNL     1     -15.670  10.143   1.722  1.00  0.00    -0.206 F 
ATOM     69  C   UNL     1     -13.738  12.113   4.055  1.00  0.00     0.060 A 
BRANCH  69  70
ATOM     70  S   UNL     1     -13.974  13.116   5.537  1.00  0.00     0.124 S 
ATOM     71  O   UNL     1     -13.498  12.210   6.578  1.00  0.00    -0.237 OA
ATOM     72  O   UNL     1     -13.127  14.274   5.271  1.00  0.00    -0.237 OA
ATOM     73  O   UNL     1     -15.409  13.381   5.543  1.00  0.00    -0.744 OA
ENDBRANCH  69  70
ENDBRANCH  48  62
BRANCH  49  74
ATOM     74  C   UNL     1     -12.003   4.205  -5.839  1.00  0.00     0.058 A 
ATOM     75  C   UNL     1     -11.101   4.490  -6.874  1.00  0.00     0.135 A 
ATOM     76  C   UNL     1     -12.718   2.999  -5.907  1.00  0.00     0.135 A 
ATOM     77  F   UNL     1     -10.408   5.639  -6.861  1.00  0.00    -0.206 F 
ATOM     78  C   UNL     1     -10.912   3.613  -7.937  1.00  0.00     0.059 A 
ATOM     79  C   UNL     1     -12.531   2.096  -6.949  1.00  0.00     0.059 A 
ATOM     80  F   UNL     1     -13.592   2.680  -4.940  1.00  0.00    -0.206 F 
ATOM     81  C   UNL     1     -11.628   2.415  -7.963  1.00  0.00     0.060 A 
BRANCH  81  82
ATOM     82  S   UNL     1     -11.326   1.256  -9.315  1.00  0.00     0.124 S 
ATOM     83  O   UNL     1     -11.995   1.921 -10.427  1.00  0.00    -0.237 OA
ATOM     84  O   UNL     1      -9.868   1.225  -9.373  1.00  0.00    -0.237 OA
ATOM     85  O   UNL     1     -11.954   0.024  -8.846  1.00  0.00    -0.744 OA
ENDBRANCH  81  82
ENDBRANCH  49  74
BRANCH  61  86
ATOM     86  C   UNL     1     -14.978  10.490  -5.221  1.00  0.00     0.058 A 
ATOM     87  C   UNL     1     -16.298  10.221  -5.613  1.00  0.00     0.135 A 
ATOM     88  C   UNL     1     -14.374  11.660  -5.709  1.00  0.00     0.135 A 
ATOM     89  F   UNL     1     -16.918   9.111  -5.183  1.00  0.00    -0.206 F 
ATOM     90  C   UNL     1     -16.993  11.078  -6.461  1.00  0.00     0.059 A 
ATOM     91  C   UNL     1     -15.057  12.543  -6.539  1.00  0.00     0.059 A 
ATOM     92  F   UNL     1     -13.115  11.967  -5.358  1.00  0.00    -0.206 F 
ATOM     93  C   UNL     1     -16.366  12.241  -6.914  1.00  0.00     0.060 A 
BRANCH  93  94
ATOM     94  S   UNL     1     -17.297  13.374  -7.967  1.00  0.00     0.124 S 
ATOM     95  O   UNL     1     -17.302  12.659  -9.239  1.00  0.00    -0.237 OA
ATOM     96  O   UNL     1     -18.582  13.456  -7.280  1.00  0.00    -0.237 OA
ATOM     97  O   UNL     1     -16.500  14.597  -7.938  1.00  0.00    -0.744 OA
ENDBRANCH  93  94
ENDBRANCH  61  86
ENDBRANCH  35  36
ENDBRANCH  28  30
ENDBRANCH  27  28
ENDBRANCH  26  27
ENDBRANCH  25  26
ENDBRANCH  24  25
ENDBRANCH   1  24
TORSDOF 22
