REMARK SMILES CC(C)[C@H](C(=O)OCCOCCOCCOC(=O)c1ccc(-c2c3nc(c(-c4c(F)cc(S(=O)(=O)[O-])cc4F)c4ccc([nH]4)c(-c4c(F)cc(S(=O)(=O)[O-])cc4F)c4nc(c(-c5c(F)cc(S(=O)(=O)[O-])cc5F)c5ccc2[nH]5)C=C4)C=C3)cc1)c1ccc(Cl)cc1F
REMARK SMILES IDX 12 1 11 2 10 3 9 4 8 5 7 6 5 7 6 8 4 9 2 10 1 11 3 12 85 13
REMARK SMILES IDX 86 14 91 15 87 16 90 17 92 18 88 19 89 20 13 21 14 22 15 23
REMARK SMILES IDX 16 24 17 25 18 26 19 27 20 28 84 29 21 30 83 31 22 32 23 33
REMARK SMILES IDX 24 34 77 35 25 36 82 37 76 38 78 39 26 40 81 41 75 42 74 43
REMARK SMILES IDX 27 45 61 46 40 47 60 48 41 49 44 50 59 51 79 52 42 53 43 54
REMARK SMILES IDX 58 56 80 57 45 58 28 59 29 60 38 61 30 62 31 63 37 64 39 65
REMARK SMILES IDX 32 66 33 67 34 68 35 69 36 70 62 71 63 72 72 73 64 74 65 75
REMARK SMILES IDX 71 76 73 77 66 78 67 79 68 80 69 81 70 82 46 83 47 84 56 85
REMARK SMILES IDX 48 86 49 87 55 88 57 89 50 90 51 91 52 92 53 93 54 94
REMARK H PARENT 78 44 44 55
REMARK Flexibility Score: inf
ROOT
ATOM      1  C   UNL     1       1.200   2.714   2.019  1.00  0.00     0.188 C 
ENDROOT
BRANCH   1   2
ATOM      2  C   UNL     1       2.177   1.698   2.634  1.00  0.00     0.188 C 
BRANCH   2   3
ATOM      3  O   UNL     1       3.281   1.458   1.772  1.00  0.00    -0.376 OA
BRANCH   3   4
ATOM      4  C   UNL     1       3.375   0.158   1.224  1.00  0.00     0.202 C 
BRANCH   4   5
ATOM      5  C   UNL     1       2.383  -0.121   0.096  1.00  0.00     0.261 C 
BRANCH   5   6
ATOM      6  O   UNL     1       0.986   0.052   0.385  1.00  0.00    -0.463 OA
BRANCH   6   7
ATOM      7  C   UNL     1       0.398  -0.755   1.319  1.00  0.00     0.313 C 
ATOM      8  O   UNL     1       1.001  -1.502   2.059  1.00  0.00    -0.252 OA
BRANCH   7   9
ATOM      9  C   UNL     1      -1.121  -0.605   1.205  1.00  0.00     0.135 C 
BRANCH   9  10
ATOM     10  C   UNL     1      -1.741  -1.848   0.504  1.00  0.00     0.001 C 
ATOM     11  C   UNL     1      -1.541  -1.736  -1.018  1.00  0.00     0.008 C 
ATOM     12  C   UNL     1      -1.181  -3.208   0.943  1.00  0.00     0.008 C 
ENDBRANCH   9  10
BRANCH   9  13
ATOM     13  C   UNL     1      -1.825  -0.095   2.465  1.00  0.00     0.002 A 
ATOM     14  C   UNL     1      -2.154   1.275   2.554  1.00  0.00     0.009 A 
ATOM     15  C   UNL     1      -2.228  -0.910   3.530  1.00  0.00     0.128 A 
ATOM     16  C   UNL     1      -2.870   1.786   3.644  1.00  0.00     0.021 A 
ATOM     17  C   UNL     1      -2.941  -0.411   4.622  1.00  0.00     0.060 A 
ATOM     18  F   UNL     1      -1.973  -2.220   3.524  1.00  0.00    -0.207 F 
ATOM     19  C   UNL     1      -3.271   0.936   4.669  1.00  0.00     0.043 A 
ATOM     20  Cl  UNL     1      -4.161   1.563   5.999  1.00  0.00    -0.084 Cl
ENDBRANCH   9  13
ENDBRANCH   7   9
ENDBRANCH   6   7
ENDBRANCH   5   6
ENDBRANCH   4   5
ENDBRANCH   3   4
ENDBRANCH   2   3
ENDBRANCH   1   2
BRANCH   1  21
ATOM     21  O   UNL     1       1.719   3.737   1.174  1.00  0.00    -0.376 OA
BRANCH  21  22
ATOM     22  C   UNL     1       2.957   4.338   1.533  1.00  0.00     0.202 C 
BRANCH  22  23
ATOM     23  C   UNL     1       2.977   5.147   2.834  1.00  0.00     0.261 C 
BRANCH  23  24
ATOM     24  O   UNL     1       2.693   4.359   4.008  1.00  0.00    -0.460 OA
BRANCH  24  25
ATOM     25  C   UNL     1       1.616   4.750   4.730  1.00  0.00     0.338 C 
ATOM     26  O   UNL     1       0.899   5.714   4.515  1.00  0.00    -0.246 OA
BRANCH  25  27
ATOM     27  C   UNL     1       1.294   3.752   5.771  1.00  0.00     0.060 A 
ATOM     28  C   UNL     1       0.163   2.953   5.585  1.00  0.00     0.016 A 
ATOM     29  C   UNL     1       1.978   3.718   6.987  1.00  0.00     0.016 A 
ATOM     30  C   UNL     1      -0.308   2.147   6.619  1.00  0.00     0.010 A 
ATOM     31  C   UNL     1       1.490   2.917   8.033  1.00  0.00     0.010 A 
ATOM     32  C   UNL     1       0.317   2.156   7.869  1.00  0.00    -0.014 A 
BRANCH  32  33
ATOM     33  C   UNL     1      -0.394   1.541   9.027  1.00  0.00     0.031 A 
ATOM     34  C   UNL     1      -1.055   2.446  10.037  1.00  0.00     0.074 A 
ATOM     35  C   UNL     1      -0.564   0.209   9.131  1.00  0.00     0.049 A 
ATOM     36  N   UNL     1      -1.640   2.146  11.169  1.00  0.00    -0.248 NA
ATOM     37  C   UNL     1      -1.064   3.883   9.720  1.00  0.00     0.031 C 
ATOM     38  C   UNL     1      -0.095  -0.785   8.167  1.00  0.00     0.029 A 
ATOM     39  N   UNL     1      -1.197  -0.537  10.098  1.00  0.00    -0.354 N 
ATOM     40  C   UNL     1      -2.049   3.357  11.717  1.00  0.00     0.074 A 
ATOM     41  C   UNL     1      -1.643   4.396  10.796  1.00  0.00     0.031 C 
ATOM     42  C   UNL     1      -0.461  -2.009   8.588  1.00  0.00     0.029 A 
ATOM     43  C   UNL     1      -1.138  -1.893   9.879  1.00  0.00     0.049 A 
ATOM     44  H   UNL     1      -1.651  -0.137  10.875  1.00  0.00     0.167 HD
ATOM     45  C   UNL     1      -2.704   3.585  12.882  1.00  0.00     0.037 A 
ATOM     46  C   UNL     1      -1.548  -2.925  10.646  1.00  0.00     0.037 A 
ATOM     47  C   UNL     1      -3.146   2.551  13.781  1.00  0.00     0.049 A 
ATOM     48  C   UNL     1      -2.200  -2.650  11.978  1.00  0.00     0.074 A 
ATOM     49  C   UNL     1      -3.792   2.687  14.998  1.00  0.00     0.029 A 
ATOM     50  N   UNL     1      -3.004   1.191  13.556  1.00  0.00    -0.354 N 
ATOM     51  N   UNL     1      -2.500  -1.498  12.530  1.00  0.00    -0.248 NA
ATOM     52  C   UNL     1      -2.556  -3.817  12.799  1.00  0.00     0.031 C 
ATOM     53  C   UNL     1      -4.005   1.409  15.527  1.00  0.00     0.029 A 
ATOM     54  C   UNL     1      -3.536   0.476  14.617  1.00  0.00     0.049 A 
ATOM     55  H   UNL     1      -2.587   0.791  12.758  1.00  0.00     0.167 HD
ATOM     56  C   UNL     1      -3.096  -1.803  13.751  1.00  0.00     0.074 A 
ATOM     57  C   UNL     1      -3.129  -3.247  13.850  1.00  0.00     0.031 C 
ATOM     58  C   UNL     1      -3.569  -0.963  14.706  1.00  0.00     0.037 A 
BRANCH  45  59
ATOM     59  C   UNL     1      -2.929   5.018  13.277  1.00  0.00     0.058 A 
ATOM     60  C   UNL     1      -3.880   5.831  12.641  1.00  0.00     0.135 A 
ATOM     61  C   UNL     1      -2.183   5.581  14.326  1.00  0.00     0.135 A 
ATOM     62  F   UNL     1      -4.605   5.350  11.618  1.00  0.00    -0.206 F 
ATOM     63  C   UNL     1      -4.062   7.160  13.010  1.00  0.00     0.059 A 
ATOM     64  C   UNL     1      -2.368   6.899  14.730  1.00  0.00     0.059 A 
ATOM     65  F   UNL     1      -1.259   4.848  14.967  1.00  0.00    -0.206 F 
ATOM     66  C   UNL     1      -3.298   7.686  14.054  1.00  0.00     0.060 A 
BRANCH  66  67
ATOM     67  S   UNL     1      -3.537   9.414  14.519  1.00  0.00     0.124 S 
ATOM     68  O   UNL     1      -2.884  10.106  13.412  1.00  0.00    -0.237 OA
ATOM     69  O   UNL     1      -4.991   9.528  14.568  1.00  0.00    -0.237 OA
ATOM     70  O   UNL     1      -2.861   9.517  15.809  1.00  0.00    -0.744 OA
ENDBRANCH  66  67
ENDBRANCH  45  59
BRANCH  46  71
ATOM     71  C   UNL     1      -1.309  -4.327  10.202  1.00  0.00     0.058 A 
ATOM     72  C   UNL     1      -2.373  -5.178   9.868  1.00  0.00     0.135 A 
ATOM     73  C   UNL     1      -0.008  -4.850  10.125  1.00  0.00     0.135 A 
ATOM     74  F   UNL     1      -3.637  -4.734   9.946  1.00  0.00    -0.206 F 
ATOM     75  C   UNL     1      -2.159  -6.499   9.484  1.00  0.00     0.059 A 
ATOM     76  C   UNL     1       0.234  -6.157   9.716  1.00  0.00     0.059 A 
ATOM     77  F   UNL     1       1.046  -4.079  10.434  1.00  0.00    -0.206 F 
ATOM     78  C   UNL     1      -0.850  -6.979   9.407  1.00  0.00     0.060 A 
BRANCH  78  79
ATOM     79  S   UNL     1      -0.574  -8.678   8.861  1.00  0.00     0.124 S 
ATOM     80  O   UNL     1      -0.971  -9.434  10.043  1.00  0.00    -0.237 OA
ATOM     81  O   UNL     1      -1.464  -8.780   7.709  1.00  0.00    -0.237 OA
ATOM     82  O   UNL     1       0.851  -8.701   8.546  1.00  0.00    -0.744 OA
ENDBRANCH  78  79
ENDBRANCH  46  71
BRANCH  58  83
ATOM     83  C   UNL     1      -4.197  -1.580  15.927  1.00  0.00     0.058 A 
ATOM     84  C   UNL     1      -3.428  -2.219  16.912  1.00  0.00     0.135 A 
ATOM     85  C   UNL     1      -5.585  -1.498  16.132  1.00  0.00     0.135 A 
ATOM     86  F   UNL     1      -2.098  -2.327  16.765  1.00  0.00    -0.206 F 
ATOM     87  C   UNL     1      -4.015  -2.784  18.041  1.00  0.00     0.059 A 
ATOM     88  C   UNL     1      -6.189  -2.033  17.266  1.00  0.00     0.059 A 
ATOM     89  F   UNL     1      -6.367  -0.885  15.230  1.00  0.00    -0.206 F 
ATOM     90  C   UNL     1      -5.397  -2.689  18.207  1.00  0.00     0.060 A 
BRANCH  90  91
ATOM     91  S   UNL     1      -6.147  -3.415  19.681  1.00  0.00     0.124 S 
ATOM     92  O   UNL     1      -6.104  -4.838  19.361  1.00  0.00    -0.237 OA
ATOM     93  O   UNL     1      -5.245  -2.977  20.742  1.00  0.00    -0.237 OA
ATOM     94  O   UNL     1      -7.479  -2.819  19.715  1.00  0.00    -0.744 OA
ENDBRANCH  90  91
ENDBRANCH  58  83
ENDBRANCH  32  33
ENDBRANCH  25  27
ENDBRANCH  24  25
ENDBRANCH  23  24
ENDBRANCH  22  23
ENDBRANCH  21  22
ENDBRANCH   1  21
TORSDOF 22
