REMARK SMILES CC(C)(C)OC(=O)N1CC[C@@H]2CO[C@@H](CC(=O)OCCOCCOCCOC(=O)c3ccc(-c4c5nc(c(-c6c(F)cc(S(=O)(=O)[O-])cc6F)c6ccc([nH]6)c(-c6c(F)cc(S(=O)(=O)[O-])cc6F)c6nc(c(-c7c(F)cc(S(=O)(=O)[O-])cc7F)c7ccc4[nH]7)C=C6)C=C5)cc3)[C@@H]2C1
REMARK SMILES IDX 22 1 21 2 20 3 19 4 18 5 16 6 17 7 15 8 14 9 8 10 9 11 97 12
REMARK SMILES IDX 10 13 96 14 11 15 12 16 13 17 6 18 7 19 5 20 2 21 1 22 3 23
REMARK SMILES IDX 4 24 23 25 24 26 25 27 26 28 27 29 28 30 29 31 30 32 31 33
REMARK SMILES IDX 95 34 32 35 94 36 33 37 34 38 35 39 88 40 36 41 93 42 87 43
REMARK SMILES IDX 89 44 37 45 92 46 86 47 85 48 38 50 72 51 51 52 71 53 52 54
REMARK SMILES IDX 55 55 70 56 90 57 53 58 54 59 69 61 91 62 56 63 39 64 40 65
REMARK SMILES IDX 49 66 41 67 42 68 48 69 50 70 43 71 44 72 45 73 46 74 47 75
REMARK SMILES IDX 73 76 74 77 83 78 75 79 76 80 82 81 84 82 77 83 78 84 79 85
REMARK SMILES IDX 80 86 81 87 57 88 58 89 67 90 59 91 60 92 66 93 68 94 61 95
REMARK SMILES IDX 62 96 63 97 64 98 65 99
REMARK H PARENT 89 49 55 60
REMARK Flexibility Score: inf
ROOT
ATOM      1  C   UNL     1       4.181   4.840  -5.163  1.00  0.00     0.188 C 
ENDROOT
BRANCH   1   2
ATOM      2  O   UNL     1       3.859   6.016  -5.891  1.00  0.00    -0.376 OA
BRANCH   2   3
ATOM      3  C   UNL     1       2.836   5.897  -6.882  1.00  0.00     0.202 C 
BRANCH   3   4
ATOM      4  C   UNL     1       3.032   4.826  -7.972  1.00  0.00     0.261 C 
BRANCH   4   5
ATOM      5  O   UNL     1       3.235   3.500  -7.441  1.00  0.00    -0.463 OA
BRANCH   5   6
ATOM      6  C   UNL     1       4.010   2.687  -8.214  1.00  0.00     0.308 C 
ATOM      7  O   UNL     1       4.240   2.882  -9.401  1.00  0.00    -0.252 OA
BRANCH   6   8
ATOM      8  C   UNL     1       4.679   1.610  -7.383  1.00  0.00     0.155 C 
BRANCH   8   9
ATOM      9  C   UNL     1       3.905   0.328  -7.083  1.00  0.00     0.134 C 
ATOM     10  N   UNL     1       0.870  -1.040  -5.179  1.00  0.00    -0.308 N 
ATOM     11  C   UNL     1       0.075  -1.248  -6.377  1.00  0.00     0.123 C 
ATOM     12  C   UNL     1       2.275  -0.672  -5.379  1.00  0.00     0.129 C 
ATOM     13  C   UNL     1       0.175  -0.066  -7.327  1.00  0.00     0.028 C 
ATOM     14  C   UNL     1       2.513   0.447  -6.437  1.00  0.00     0.044 C 
ATOM     15  C   UNL     1       1.610   0.301  -7.655  1.00  0.00     0.024 C 
ATOM     16  C   UNL     1       2.362  -0.720  -8.489  1.00  0.00     0.164 C 
ATOM     17  O   UNL     1       3.746  -0.404  -8.316  1.00  0.00    -0.377 OA
BRANCH  10  18
ATOM     18  C   UNL     1       0.348  -1.544  -3.982  1.00  0.00     0.410 C 
ATOM     19  O   UNL     1      -0.678  -2.218  -3.960  1.00  0.00    -0.224 OA
BRANCH  18  20
ATOM     20  O   UNL     1       1.036  -1.191  -2.862  1.00  0.00    -0.444 OA
BRANCH  20  21
ATOM     21  C   UNL     1       0.498  -1.482  -1.531  1.00  0.00     0.106 C 
ATOM     22  C   UNL     1       1.205  -0.549  -0.530  1.00  0.00     0.056 C 
ATOM     23  C   UNL     1       0.846  -2.922  -1.158  1.00  0.00     0.056 C 
ATOM     24  C   UNL     1      -1.010  -1.201  -1.395  1.00  0.00     0.056 C 
ENDBRANCH  20  21
ENDBRANCH  18  20
ENDBRANCH  10  18
ENDBRANCH   8   9
ENDBRANCH   6   8
ENDBRANCH   5   6
ENDBRANCH   4   5
ENDBRANCH   3   4
ENDBRANCH   2   3
ENDBRANCH   1   2
BRANCH   1  25
ATOM     25  C   UNL     1       3.059   4.181  -4.346  1.00  0.00     0.188 C 
BRANCH  25  26
ATOM     26  O   UNL     1       1.754   4.281  -4.903  1.00  0.00    -0.376 OA
BRANCH  26  27
ATOM     27  C   UNL     1       0.736   3.480  -4.303  1.00  0.00     0.202 C 
BRANCH  27  28
ATOM     28  C   UNL     1       0.520   3.687  -2.789  1.00  0.00     0.261 C 
BRANCH  28  29
ATOM     29  O   UNL     1       1.658   3.398  -1.948  1.00  0.00    -0.460 OA
BRANCH  29  30
ATOM     30  C   UNL     1       2.224   2.189  -2.152  1.00  0.00     0.338 C 
ATOM     31  O   UNL     1       1.774   1.321  -2.879  1.00  0.00    -0.246 OA
BRANCH  30  32
ATOM     32  C   UNL     1       3.580   2.102  -1.578  1.00  0.00     0.060 A 
ATOM     33  C   UNL     1       4.486   1.242  -2.218  1.00  0.00     0.016 A 
ATOM     34  C   UNL     1       3.974   2.835  -0.459  1.00  0.00     0.016 A 
ATOM     35  C   UNL     1       5.775   1.086  -1.726  1.00  0.00     0.010 A 
ATOM     36  C   UNL     1       5.271   2.678   0.035  1.00  0.00     0.010 A 
ATOM     37  C   UNL     1       6.166   1.787  -0.582  1.00  0.00    -0.014 A 
BRANCH  37  38
ATOM     38  C   UNL     1       7.465   1.468   0.046  1.00  0.00     0.031 A 
ATOM     39  C   UNL     1       7.481   0.535   1.223  1.00  0.00     0.074 A 
ATOM     40  C   UNL     1       8.610   1.956  -0.463  1.00  0.00     0.049 A 
ATOM     41  N   UNL     1       8.486   0.161   1.967  1.00  0.00    -0.248 NA
ATOM     42  C   UNL     1       6.189  -0.061   1.608  1.00  0.00     0.031 C 
ATOM     43  C   UNL     1       8.715   2.813  -1.644  1.00  0.00     0.029 A 
ATOM     44  N   UNL     1       9.906   1.797  -0.046  1.00  0.00    -0.354 N 
ATOM     45  C   UNL     1       7.954  -0.716   2.904  1.00  0.00     0.074 A 
ATOM     46  C   UNL     1       6.531  -0.794   2.657  1.00  0.00     0.031 C 
ATOM     47  C   UNL     1      10.009   3.117  -1.848  1.00  0.00     0.029 A 
ATOM     48  C   UNL     1      10.816   2.506  -0.795  1.00  0.00     0.049 A 
ATOM     49  H   UNL     1      10.162   1.230   0.717  1.00  0.00     0.167 HD
ATOM     50  C   UNL     1       8.599  -1.404   3.874  1.00  0.00     0.037 A 
ATOM     51  C   UNL     1      12.143   2.662  -0.625  1.00  0.00     0.037 A 
ATOM     52  C   UNL     1      10.013  -1.314   4.118  1.00  0.00     0.049 A 
ATOM     53  C   UNL     1      12.821   1.961   0.526  1.00  0.00     0.074 A 
ATOM     54  C   UNL     1      10.758  -1.933   5.106  1.00  0.00     0.029 A 
ATOM     55  N   UNL     1      10.898  -0.561   3.361  1.00  0.00    -0.354 N 
ATOM     56  N   UNL     1      12.302   1.156   1.423  1.00  0.00    -0.248 NA
ATOM     57  C   UNL     1      14.263   2.192   0.689  1.00  0.00     0.031 C 
ATOM     58  C   UNL     1      12.090  -1.531   4.964  1.00  0.00     0.029 A 
ATOM     59  C   UNL     1      12.181  -0.695   3.863  1.00  0.00     0.049 A 
ATOM     60  H   UNL     1      10.650  -0.012   2.583  1.00  0.00     0.167 HD
ATOM     61  C   UNL     1      13.360   0.760   2.235  1.00  0.00     0.074 A 
ATOM     62  C   UNL     1      14.549   1.405   1.718  1.00  0.00     0.031 C 
ATOM     63  C   UNL     1      13.352  -0.062   3.313  1.00  0.00     0.037 A 
BRANCH  50  64
ATOM     64  C   UNL     1       7.777  -2.305   4.748  1.00  0.00     0.058 A 
ATOM     65  C   UNL     1       7.284  -3.530   4.274  1.00  0.00     0.135 A 
ATOM     66  C   UNL     1       7.511  -1.959   6.082  1.00  0.00     0.135 A 
ATOM     67  F   UNL     1       7.488  -3.894   2.998  1.00  0.00    -0.206 F 
ATOM     68  C   UNL     1       6.545  -4.379   5.091  1.00  0.00     0.059 A 
ATOM     69  C   UNL     1       6.793  -2.803   6.923  1.00  0.00     0.059 A 
ATOM     70  F   UNL     1       7.951  -0.793   6.578  1.00  0.00    -0.206 F 
ATOM     71  C   UNL     1       6.307  -4.008   6.415  1.00  0.00     0.060 A 
BRANCH  71  72
ATOM     72  S   UNL     1       5.364  -5.130   7.468  1.00  0.00     0.124 S 
ATOM     73  O   UNL     1       4.016  -4.964   6.934  1.00  0.00    -0.237 OA
ATOM     74  O   UNL     1       5.998  -6.416   7.200  1.00  0.00    -0.237 OA
ATOM     75  O   UNL     1       5.577  -4.597   8.810  1.00  0.00    -0.744 OA
ENDBRANCH  71  72
ENDBRANCH  50  64
BRANCH  51  76
ATOM     76  C   UNL     1      12.925   3.542  -1.534  1.00  0.00     0.058 A 
ATOM     77  C   UNL     1      13.900   3.017  -2.394  1.00  0.00     0.135 A 
ATOM     78  C   UNL     1      12.750   4.935  -1.518  1.00  0.00     0.135 A 
ATOM     79  F   UNL     1      14.109   1.692  -2.441  1.00  0.00    -0.206 F 
ATOM     80  C   UNL     1      14.704   3.841  -3.175  1.00  0.00     0.059 A 
ATOM     81  C   UNL     1      13.523   5.778  -2.309  1.00  0.00     0.059 A 
ATOM     82  F   UNL     1      11.820   5.488  -0.723  1.00  0.00    -0.206 F 
ATOM     83  C   UNL     1      14.513   5.223  -3.118  1.00  0.00     0.060 A 
BRANCH  83  84
ATOM     84  S   UNL     1      15.567   6.291  -4.123  1.00  0.00     0.124 S 
ATOM     85  O   UNL     1      16.808   6.279  -3.357  1.00  0.00    -0.237 OA
ATOM     86  O   UNL     1      15.596   5.583  -5.399  1.00  0.00    -0.237 OA
ATOM     87  O   UNL     1      14.842   7.558  -4.134  1.00  0.00    -0.744 OA
ENDBRANCH  83  84
ENDBRANCH  51  76
BRANCH  63  88
ATOM     88  C   UNL     1      14.671  -0.354   3.972  1.00  0.00     0.058 A 
ATOM     89  C   UNL     1      15.319   0.595   4.777  1.00  0.00     0.135 A 
ATOM     90  C   UNL     1      15.262  -1.621   3.842  1.00  0.00     0.135 A 
ATOM     91  F   UNL     1      14.797   1.822   4.929  1.00  0.00    -0.206 F 
ATOM     92  C   UNL     1      16.521   0.305   5.413  1.00  0.00     0.059 A 
ATOM     93  C   UNL     1      16.450  -1.941   4.490  1.00  0.00     0.059 A 
ATOM     94  F   UNL     1      14.674  -2.567   3.092  1.00  0.00    -0.206 F 
ATOM     95  C   UNL     1      17.078  -0.967   5.265  1.00  0.00     0.060 A 
BRANCH  95  96
ATOM     96  S   UNL     1      18.618  -1.345   6.128  1.00  0.00     0.124 S 
ATOM     97  O   UNL     1      19.596  -0.642   5.305  1.00  0.00    -0.237 OA
ATOM     98  O   UNL     1      18.381  -0.781   7.454  1.00  0.00    -0.237 OA
ATOM     99  O   UNL     1      18.686  -2.803   6.078  1.00  0.00    -0.744 OA
ENDBRANCH  95  96
ENDBRANCH  63  88
ENDBRANCH  37  38
ENDBRANCH  30  32
ENDBRANCH  29  30
ENDBRANCH  28  29
ENDBRANCH  27  28
ENDBRANCH  26  27
ENDBRANCH  25  26
ENDBRANCH   1  25
TORSDOF 24
