REMARK SMILES CC(C)C[C@@H](C(=O)OCCOCCOCCOC(=O)c1ccc(-c2c3nc(c(-c4c(F)cc(S(=O)(=O)[O-])cc4F)c4ccc([nH]4)c(-c4c(F)cc(S(=O)(=O)[O-])cc4F)c4nc(c(-c5c(F)cc(S(=O)(=O)[O-])cc5F)c5ccc2[nH]5)C=C4)C=C3)cc1)[C@@H]1CCC[C@@H](C)C1
REMARK SMILES IDX 13 1 12 2 11 3 10 4 9 5 8 6 6 7 7 8 5 9 4 10 2 11 1 12 3 13
REMARK SMILES IDX 86 14 87 15 92 16 88 17 90 18 89 19 91 20 14 21 15 22 16 23
REMARK SMILES IDX 17 24 18 25 19 26 20 27 21 28 85 29 22 30 84 31 23 32 24 33
REMARK SMILES IDX 25 34 78 35 26 36 83 37 77 38 79 39 27 40 82 41 76 42 75 43
REMARK SMILES IDX 28 45 62 46 41 47 61 48 42 49 45 50 60 51 80 52 43 53 44 54
REMARK SMILES IDX 59 56 81 57 46 58 29 59 30 60 39 61 31 62 32 63 38 64 40 65
REMARK SMILES IDX 33 66 34 67 35 68 36 69 37 70 63 71 64 72 73 73 65 74 66 75
REMARK SMILES IDX 72 76 74 77 67 78 68 79 69 80 70 81 71 82 47 83 48 84 57 85
REMARK SMILES IDX 49 86 50 87 56 88 58 89 51 90 52 91 53 92 54 93 55 94
REMARK H PARENT 79 44 45 55
REMARK Flexibility Score: inf
ROOT
ATOM      1  C   UNL     1      -0.879   3.188   1.431  1.00  0.00     0.188 C 
ENDROOT
BRANCH   1   2
ATOM      2  C   UNL     1       0.576   3.635   1.664  1.00  0.00     0.188 C 
BRANCH   2   3
ATOM      3  O   UNL     1       1.361   3.893   0.504  1.00  0.00    -0.376 OA
BRANCH   3   4
ATOM      4  C   UNL     1       1.300   2.936  -0.544  1.00  0.00     0.202 C 
BRANCH   4   5
ATOM      5  C   UNL     1       1.898   1.571  -0.213  1.00  0.00     0.261 C 
BRANCH   5   6
ATOM      6  O   UNL     1       1.048   0.779   0.646  1.00  0.00    -0.463 OA
BRANCH   6   7
ATOM      7  C   UNL     1       1.621   0.278   1.768  1.00  0.00     0.309 C 
ATOM      8  O   UNL     1       2.696   0.653   2.219  1.00  0.00    -0.252 OA
BRANCH   7   9
ATOM      9  C   UNL     1       0.854  -0.906   2.361  1.00  0.00     0.102 C 
BRANCH   9  10
ATOM     10  C   UNL     1       1.080  -2.148   1.460  1.00  0.00     0.018 C 
BRANCH  10  11
ATOM     11  C   UNL     1       0.051  -2.506   0.357  1.00  0.00    -0.017 C 
ATOM     12  C   UNL     1      -0.071  -1.488  -0.772  1.00  0.00     0.007 C 
ATOM     13  C   UNL     1       0.436  -3.865  -0.242  1.00  0.00     0.007 C 
ENDBRANCH  10  11
ENDBRANCH   9  10
BRANCH   9  14
ATOM     14  C   UNL     1      -0.610  -0.661   2.817  1.00  0.00     0.003 C 
ATOM     15  C   UNL     1      -0.769   0.540   3.772  1.00  0.00     0.004 C 
ATOM     16  C   UNL     1      -1.239  -1.905   3.500  1.00  0.00     0.007 C 
ATOM     17  C   UNL     1      -0.337   0.288   5.216  1.00  0.00     0.001 C 
ATOM     18  C   UNL     1      -0.675  -2.174   4.904  1.00  0.00    -0.014 C 
ATOM     19  C   UNL     1      -0.946  -0.973   5.805  1.00  0.00     0.003 C 
ATOM     20  C   UNL     1      -1.271  -3.441   5.511  1.00  0.00     0.007 C 
ENDBRANCH   9  14
ENDBRANCH   7   9
ENDBRANCH   6   7
ENDBRANCH   5   6
ENDBRANCH   4   5
ENDBRANCH   3   4
ENDBRANCH   2   3
ENDBRANCH   1   2
BRANCH   1  21
ATOM     21  O   UNL     1      -1.605   3.857   0.405  1.00  0.00    -0.376 OA
BRANCH  21  22
ATOM     22  C   UNL     1      -1.598   5.281   0.431  1.00  0.00     0.202 C 
BRANCH  22  23
ATOM     23  C   UNL     1      -2.284   5.897   1.653  1.00  0.00     0.261 C 
BRANCH  23  24
ATOM     24  O   UNL     1      -1.379   5.958   2.775  1.00  0.00    -0.460 OA
BRANCH  24  25
ATOM     25  C   UNL     1      -1.820   5.377   3.916  1.00  0.00     0.338 C 
ATOM     26  O   UNL     1      -2.902   4.848   4.098  1.00  0.00    -0.246 OA
BRANCH  25  27
ATOM     27  C   UNL     1      -0.725   5.296   4.902  1.00  0.00     0.060 A 
ATOM     28  C   UNL     1      -0.371   4.024   5.361  1.00  0.00     0.016 A 
ATOM     29  C   UNL     1      -0.137   6.429   5.461  1.00  0.00     0.016 A 
ATOM     30  C   UNL     1       0.530   3.873   6.415  1.00  0.00     0.010 A 
ATOM     31  C   UNL     1       0.763   6.279   6.528  1.00  0.00     0.010 A 
ATOM     32  C   UNL     1       1.073   5.003   7.037  1.00  0.00    -0.014 A 
BRANCH  32  33
ATOM     33  C   UNL     1       1.815   4.859   8.320  1.00  0.00     0.031 A 
ATOM     34  C   UNL     1       1.127   5.248   9.603  1.00  0.00     0.074 A 
ATOM     35  C   UNL     1       3.060   4.351   8.365  1.00  0.00     0.049 A 
ATOM     36  N   UNL     1       1.615   5.348  10.813  1.00  0.00    -0.248 NA
ATOM     37  C   UNL     1      -0.307   5.564   9.505  1.00  0.00     0.031 C 
ATOM     38  C   UNL     1       3.808   3.837   7.219  1.00  0.00     0.029 A 
ATOM     39  N   UNL     1       3.917   4.187   9.427  1.00  0.00    -0.354 N 
ATOM     40  C   UNL     1       0.563   5.780  11.612  1.00  0.00     0.074 A 
ATOM     41  C   UNL     1      -0.591   5.920  10.749  1.00  0.00     0.031 C 
ATOM     42  C   UNL     1       5.016   3.419   7.639  1.00  0.00     0.029 A 
ATOM     43  C   UNL     1       5.148   3.688   9.070  1.00  0.00     0.049 A 
ATOM     44  H   UNL     1       3.674   4.406  10.355  1.00  0.00     0.167 HD
ATOM     45  C   UNL     1       0.558   6.043  12.941  1.00  0.00     0.037 A 
ATOM     46  C   UNL     1       6.265   3.505   9.804  1.00  0.00     0.037 A 
ATOM     47  C   UNL     1       1.698   5.874  13.804  1.00  0.00     0.049 A 
ATOM     48  C   UNL     1       6.264   3.878  11.265  1.00  0.00     0.074 A 
ATOM     49  C   UNL     1       1.792   6.115  15.164  1.00  0.00     0.029 A 
ATOM     50  N   UNL     1       2.942   5.418  13.393  1.00  0.00    -0.354 N 
ATOM     51  N   UNL     1       5.280   4.339  12.000  1.00  0.00    -0.248 NA
ATOM     52  C   UNL     1       7.533   3.723  11.992  1.00  0.00     0.031 C 
ATOM     53  C   UNL     1       3.105   5.842  15.567  1.00  0.00     0.029 A 
ATOM     54  C   UNL     1       3.815   5.389  14.467  1.00  0.00     0.049 A 
ATOM     55  H   UNL     1       3.170   5.153  12.473  1.00  0.00     0.167 HD
ATOM     56  C   UNL     1       5.805   4.509  13.278  1.00  0.00     0.074 A 
ATOM     57  C   UNL     1       7.191   4.094  13.219  1.00  0.00     0.031 C 
ATOM     58  C   UNL     1       5.193   4.967  14.399  1.00  0.00     0.037 A 
BRANCH  45  59
ATOM     59  C   UNL     1      -0.709   6.598  13.530  1.00  0.00     0.058 A 
ATOM     60  C   UNL     1      -1.849   5.806  13.731  1.00  0.00     0.135 A 
ATOM     61  C   UNL     1      -0.778   7.952  13.898  1.00  0.00     0.135 A 
ATOM     62  F   UNL     1      -1.843   4.510  13.380  1.00  0.00    -0.206 F 
ATOM     63  C   UNL     1      -3.027   6.345  14.242  1.00  0.00     0.059 A 
ATOM     64  C   UNL     1      -1.936   8.506  14.433  1.00  0.00     0.059 A 
ATOM     65  F   UNL     1       0.285   8.754  13.726  1.00  0.00    -0.206 F 
ATOM     66  C   UNL     1      -3.062   7.699  14.582  1.00  0.00     0.060 A 
BRANCH  66  67
ATOM     67  S   UNL     1      -4.602   8.395  15.216  1.00  0.00     0.124 S 
ATOM     68  O   UNL     1      -5.399   8.495  13.997  1.00  0.00    -0.237 OA
ATOM     69  O   UNL     1      -5.035   7.382  16.174  1.00  0.00    -0.237 OA
ATOM     70  O   UNL     1      -4.186   9.666  15.800  1.00  0.00    -0.744 OA
ENDBRANCH  66  67
ENDBRANCH  45  59
BRANCH  46  71
ATOM     71  C   UNL     1       7.497   2.974   9.162  1.00  0.00     0.058 A 
ATOM     72  C   UNL     1       7.978   1.692   9.466  1.00  0.00     0.135 A 
ATOM     73  C   UNL     1       8.219   3.737   8.230  1.00  0.00     0.135 A 
ATOM     74  F   UNL     1       7.335   0.931  10.366  1.00  0.00    -0.206 F 
ATOM     75  C   UNL     1       9.130   1.184   8.873  1.00  0.00     0.059 A 
ATOM     76  C   UNL     1       9.359   3.242   7.604  1.00  0.00     0.059 A 
ATOM     77  F   UNL     1       7.802   4.970   7.904  1.00  0.00    -0.206 F 
ATOM     78  C   UNL     1       9.811   1.966   7.938  1.00  0.00     0.060 A 
BRANCH  78  79
ATOM     79  S   UNL     1      11.270   1.276   7.127  1.00  0.00     0.124 S 
ATOM     80  O   UNL     1      12.264   1.358   8.191  1.00  0.00    -0.237 OA
ATOM     81  O   UNL     1      10.821  -0.067   6.774  1.00  0.00    -0.237 OA
ATOM     82  O   UNL     1      11.481   2.175   5.995  1.00  0.00    -0.744 OA
ENDBRANCH  78  79
ENDBRANCH  46  71
BRANCH  58  83
ATOM     83  C   UNL     1       6.002   5.015  15.665  1.00  0.00     0.058 A 
ATOM     84  C   UNL     1       6.979   6.000  15.880  1.00  0.00     0.135 A 
ATOM     85  C   UNL     1       5.756   4.098  16.701  1.00  0.00     0.135 A 
ATOM     86  F   UNL     1       7.256   6.896  14.921  1.00  0.00    -0.206 F 
ATOM     87  C   UNL     1       7.696   6.064  17.072  1.00  0.00     0.059 A 
ATOM     88  C   UNL     1       6.445   4.158  17.909  1.00  0.00     0.059 A 
ATOM     89  F   UNL     1       4.825   3.143  16.551  1.00  0.00    -0.206 F 
ATOM     90  C   UNL     1       7.421   5.139  18.081  1.00  0.00     0.060 A 
BRANCH  90  91
ATOM     91  S   UNL     1       8.330   5.255  19.637  1.00  0.00     0.124 S 
ATOM     92  O   UNL     1       9.627   4.702  19.262  1.00  0.00    -0.237 OA
ATOM     93  O   UNL     1       8.307   6.689  19.909  1.00  0.00    -0.237 OA
ATOM     94  O   UNL     1       7.540   4.438  20.554  1.00  0.00    -0.744 OA
ENDBRANCH  90  91
ENDBRANCH  58  83
ENDBRANCH  32  33
ENDBRANCH  25  27
ENDBRANCH  24  25
ENDBRANCH  23  24
ENDBRANCH  22  23
ENDBRANCH  21  22
ENDBRANCH   1  21
TORSDOF 23
