REMARK SMILES Nc1c(Cl)ccc2c1C=C(C(=O)OCCOCCOCCOC(=O)c1ccc(-c3c4nc(c(-c5c(F)cc(S(=O)(=O)[O-])cc5F)c5ccc([nH]5)c(-c5c(F)cc(S(=O)(=O)[O-])cc5F)c5nc(c(-c6c(F)cc(S(=O)(=O)[O-])cc6F)c6ccc3[nH]6)C=C5)C=C4)cc1)[C@@H](C(F)(F)F)O2
REMARK SMILES IDX 18 1 17 2 16 3 15 4 14 5 13 6 11 7 12 8 10 9 2 10 3 11 8 12
REMARK SMILES IDX 4 13 5 14 7 15 9 16 6 17 96 18 91 19 1 20 92 23 93 24 94 25
REMARK SMILES IDX 95 26 19 27 20 28 21 29 22 30 23 31 24 32 25 33 26 34 90 35
REMARK SMILES IDX 27 36 89 37 28 38 29 39 30 40 83 41 31 42 88 43 82 44 84 45
REMARK SMILES IDX 32 46 87 47 81 48 80 49 33 51 67 52 46 53 66 54 47 55 50 56
REMARK SMILES IDX 65 57 85 58 48 59 49 60 64 62 86 63 51 64 34 65 35 66 44 67
REMARK SMILES IDX 36 68 37 69 43 70 45 71 38 72 39 73 40 74 41 75 42 76 68 77
REMARK SMILES IDX 69 78 78 79 70 80 71 81 77 82 79 83 72 84 73 85 74 86 75 87
REMARK SMILES IDX 76 88 52 89 53 90 62 91 54 92 55 93 61 94 63 95 56 96 57 97
REMARK SMILES IDX 58 98 59 99 60 100
REMARK H PARENT 1 21 1 22 84 50 50 61
REMARK Flexibility Score: inf
ROOT
ATOM      1  C   UNL     1      -4.322  -2.453  -0.879  1.00  0.00     0.188 C 
ENDROOT
BRANCH   1   2
ATOM      2  C   UNL     1      -3.378  -3.447  -1.589  1.00  0.00     0.188 C 
BRANCH   2   3
ATOM      3  O   UNL     1      -3.960  -4.681  -1.930  1.00  0.00    -0.376 OA
BRANCH   3   4
ATOM      4  C   UNL     1      -3.941  -5.786  -1.049  1.00  0.00     0.202 C 
BRANCH   4   5
ATOM      5  C   UNL     1      -3.647  -5.733   0.461  1.00  0.00     0.261 C 
BRANCH   5   6
ATOM      6  O   UNL     1      -3.346  -4.462   1.035  1.00  0.00    -0.460 OA
BRANCH   6   7
ATOM      7  C   UNL     1      -2.049  -4.246   1.354  1.00  0.00     0.338 C 
ATOM      8  O   UNL     1      -1.116  -5.011   1.178  1.00  0.00    -0.246 OA
BRANCH   7   9
ATOM      9  C   UNL     1      -1.908  -2.865   1.858  1.00  0.00     0.088 C 
ATOM     10  C   UNL     1       0.279   0.088   1.310  1.00  0.00     0.061 A 
ATOM     11  C   UNL     1       0.501   1.319   1.967  1.00  0.00     0.064 A 
ATOM     12  C   UNL     1      -0.739  -0.758   1.811  1.00  0.00     0.042 A 
ATOM     13  Cl  UNL     1       1.799   2.359   1.485  1.00  0.00    -0.082 Cl
ATOM     14  C   UNL     1      -0.315   1.744   3.017  1.00  0.00     0.026 A 
ATOM     15  C   UNL     1      -1.576  -0.306   2.844  1.00  0.00     0.130 A 
ATOM     16  C   UNL     1      -0.925  -2.126   1.329  1.00  0.00     0.029 C 
ATOM     17  C   UNL     1      -1.369   0.940   3.437  1.00  0.00     0.049 A 
ATOM     18  O   UNL     1      -2.627  -1.013   3.356  1.00  0.00    -0.475 OA
ATOM     19  C   UNL     1      -2.871  -2.366   2.897  1.00  0.00     0.316 C 
BRANCH  10  20
ATOM     20  N   UNL     1       1.131  -0.311   0.276  1.00  0.00    -0.397 N 
ATOM     21  H   UNL     1       1.829   0.301  -0.051  1.00  0.00     0.156 HD
ATOM     22  H   UNL     1       1.032  -1.205  -0.127  1.00  0.00     0.156 HD
ENDBRANCH  10  20
BRANCH  19  23
ATOM     23  C   UNL     1      -2.934  -3.281   4.129  1.00  0.00     0.430 C 
ATOM     24  F   UNL     1      -3.791  -2.793   5.060  1.00  0.00    -0.167 F 
ATOM     25  F   UNL     1      -3.377  -4.522   3.816  1.00  0.00    -0.167 F 
ATOM     26  F   UNL     1      -1.729  -3.421   4.725  1.00  0.00    -0.167 F 
ENDBRANCH  19  23
ENDBRANCH   7   9
ENDBRANCH   6   7
ENDBRANCH   5   6
ENDBRANCH   4   5
ENDBRANCH   3   4
ENDBRANCH   2   3
ENDBRANCH   1   2
BRANCH   1  27
ATOM     27  O   UNL     1      -5.682  -2.804  -0.663  1.00  0.00    -0.376 OA
BRANCH  27  28
ATOM     28  C   UNL     1      -6.447  -3.274  -1.769  1.00  0.00     0.202 C 
BRANCH  28  29
ATOM     29  C   UNL     1      -6.521  -2.428  -3.048  1.00  0.00     0.261 C 
BRANCH  29  30
ATOM     30  O   UNL     1      -5.242  -2.120  -3.627  1.00  0.00    -0.460 OA
BRANCH  30  31
ATOM     31  C   UNL     1      -4.941  -0.799  -3.700  1.00  0.00     0.338 C 
ATOM     32  O   UNL     1      -5.643   0.140  -3.365  1.00  0.00    -0.246 OA
BRANCH  31  33
ATOM     33  C   UNL     1      -3.528  -0.640  -4.088  1.00  0.00     0.060 A 
ATOM     34  C   UNL     1      -2.632  -0.112  -3.147  1.00  0.00     0.016 A 
ATOM     35  C   UNL     1      -3.107  -0.932  -5.386  1.00  0.00     0.016 A 
ATOM     36  C   UNL     1      -1.310   0.138  -3.506  1.00  0.00     0.010 A 
ATOM     37  C   UNL     1      -1.791  -0.642  -5.757  1.00  0.00     0.010 A 
ATOM     38  C   UNL     1      -0.898  -0.079  -4.827  1.00  0.00    -0.014 A 
BRANCH  38  39
ATOM     39  C   UNL     1       0.385   0.497  -5.289  1.00  0.00     0.031 A 
ATOM     40  C   UNL     1       0.387   1.923  -5.768  1.00  0.00     0.074 A 
ATOM     41  C   UNL     1       1.522  -0.218  -5.270  1.00  0.00     0.049 A 
ATOM     42  N   UNL     1       1.371   2.633  -6.253  1.00  0.00    -0.248 NA
ATOM     43  C   UNL     1      -0.893   2.647  -5.681  1.00  0.00     0.031 C 
ATOM     44  C   UNL     1       1.653  -1.588  -4.778  1.00  0.00     0.029 A 
ATOM     45  N   UNL     1       2.787   0.114  -5.686  1.00  0.00    -0.354 N 
ATOM     46  C   UNL     1       0.836   3.888  -6.515  1.00  0.00     0.074 A 
ATOM     47  C   UNL     1      -0.566   3.837  -6.161  1.00  0.00     0.031 C 
ATOM     48  C   UNL     1       2.928  -1.987  -4.938  1.00  0.00     0.029 A 
ATOM     49  C   UNL     1       3.693  -0.912  -5.569  1.00  0.00     0.049 A 
ATOM     50  H   UNL     1       3.023   1.004  -6.034  1.00  0.00     0.167 HD
ATOM     51  C   UNL     1       1.456   4.986  -7.004  1.00  0.00     0.037 A 
ATOM     52  C   UNL     1       4.984  -0.979  -5.953  1.00  0.00     0.037 A 
ATOM     53  C   UNL     1       2.840   5.022  -7.391  1.00  0.00     0.049 A 
ATOM     54  C   UNL     1       5.625   0.221  -6.603  1.00  0.00     0.074 A 
ATOM     55  C   UNL     1       3.560   6.083  -7.912  1.00  0.00     0.029 A 
ATOM     56  N   UNL     1       3.711   3.945  -7.315  1.00  0.00    -0.354 N 
ATOM     57  N   UNL     1       5.112   1.406  -6.839  1.00  0.00    -0.248 NA
ATOM     58  C   UNL     1       7.020   0.074  -7.046  1.00  0.00     0.031 C 
ATOM     59  C   UNL     1       4.854   5.633  -8.195  1.00  0.00     0.029 A 
ATOM     60  C   UNL     1       4.954   4.306  -7.805  1.00  0.00     0.049 A 
ATOM     61  H   UNL     1       3.478   3.055  -6.964  1.00  0.00     0.167 HD
ATOM     62  C   UNL     1       6.124   2.149  -7.439  1.00  0.00     0.074 A 
ATOM     63  C   UNL     1       7.283   1.285  -7.519  1.00  0.00     0.031 C 
ATOM     64  C   UNL     1       6.097   3.431  -7.882  1.00  0.00     0.037 A 
BRANCH  51  65
ATOM     65  C   UNL     1       0.630   6.228  -7.172  1.00  0.00     0.058 A 
ATOM     66  C   UNL     1       0.226   6.993  -6.067  1.00  0.00     0.135 A 
ATOM     67  C   UNL     1       0.260   6.672  -8.450  1.00  0.00     0.135 A 
ATOM     68  F   UNL     1       0.533   6.597  -4.821  1.00  0.00    -0.206 F 
ATOM     69  C   UNL     1      -0.530   8.150  -6.223  1.00  0.00     0.059 A 
ATOM     70  C   UNL     1      -0.477   7.839  -8.632  1.00  0.00     0.059 A 
ATOM     71  F   UNL     1       0.612   5.970  -9.539  1.00  0.00    -0.206 F 
ATOM     72  C   UNL     1      -0.875   8.566  -7.510  1.00  0.00     0.060 A 
BRANCH  72  73
ATOM     73  S   UNL     1      -1.846  10.076  -7.694  1.00  0.00     0.124 S 
ATOM     74  O   UNL     1      -3.145   9.651  -7.181  1.00  0.00    -0.237 OA
ATOM     75  O   UNL     1      -1.112  11.021  -6.859  1.00  0.00    -0.237 OA
ATOM     76  O   UNL     1      -1.796  10.341  -9.129  1.00  0.00    -0.744 OA
ENDBRANCH  72  73
ENDBRANCH  51  65
BRANCH  52  77
ATOM     77  C   UNL     1       5.756  -2.234  -5.750  1.00  0.00     0.058 A 
ATOM     78  C   UNL     1       6.789  -2.302  -4.804  1.00  0.00     0.135 A 
ATOM     79  C   UNL     1       5.475  -3.390  -6.495  1.00  0.00     0.135 A 
ATOM     80  F   UNL     1       7.106  -1.218  -4.079  1.00  0.00    -0.206 F 
ATOM     81  C   UNL     1       7.520  -3.469  -4.606  1.00  0.00     0.059 A 
ATOM     82  C   UNL     1       6.176  -4.575  -6.299  1.00  0.00     0.059 A 
ATOM     83  F   UNL     1       4.494  -3.378  -7.411  1.00  0.00    -0.206 F 
ATOM     84  C   UNL     1       7.201  -4.603  -5.355  1.00  0.00     0.060 A 
BRANCH  84  85
ATOM     85  S   UNL     1       8.118  -6.129  -5.045  1.00  0.00     0.124 S 
ATOM     86  O   UNL     1       9.426  -5.805  -5.601  1.00  0.00    -0.237 OA
ATOM     87  O   UNL     1       8.049  -6.235  -3.591  1.00  0.00    -0.237 OA
ATOM     88  O   UNL     1       7.353  -7.135  -5.776  1.00  0.00    -0.744 OA
ENDBRANCH  84  85
ENDBRANCH  52  77
BRANCH  64  89
ATOM     89  C   UNL     1       7.356   3.990  -8.484  1.00  0.00     0.058 A 
ATOM     90  C   UNL     1       7.787   3.613  -9.765  1.00  0.00     0.135 A 
ATOM     91  C   UNL     1       8.098   4.971  -7.805  1.00  0.00     0.135 A 
ATOM     92  F   UNL     1       7.117   2.677 -10.456  1.00  0.00    -0.206 F 
ATOM     93  C   UNL     1       8.918   4.178 -10.347  1.00  0.00     0.059 A 
ATOM     94  C   UNL     1       9.216   5.568  -8.377  1.00  0.00     0.059 A 
ATOM     95  F   UNL     1       7.721   5.376  -6.582  1.00  0.00    -0.206 F 
ATOM     96  C   UNL     1       9.623   5.159  -9.647  1.00  0.00     0.060 A 
BRANCH  96  97
ATOM     97  S   UNL     1      11.063   5.915 -10.433  1.00  0.00     0.124 S 
ATOM     98  O   UNL     1      12.037   4.830 -10.368  1.00  0.00    -0.237 OA
ATOM     99  O   UNL     1      10.558   6.235 -11.764  1.00  0.00    -0.237 OA
ATOM    100  O   UNL     1      11.349   7.067  -9.583  1.00  0.00    -0.744 OA
ENDBRANCH  96  97
ENDBRANCH  64  89
ENDBRANCH  38  39
ENDBRANCH  31  33
ENDBRANCH  30  31
ENDBRANCH  29  30
ENDBRANCH  28  29
ENDBRANCH  27  28
ENDBRANCH   1  27
TORSDOF 22
