REMARK SMILES C[C@H]1CN(C(=O)N[C@@H]2CCCCC[C@@H]2C(=O)OCCOCCOCCOC(=O)c2ccc(-c3c4nc(c(-c5c(F)cc(S(=O)(=O)[O-])cc5F)c5ccc([nH]5)c(-c5c(F)cc(S(=O)(=O)[O-])cc5F)c5nc(c(-c6c(F)cc(S(=O)(=O)[O-])cc6F)c6ccc3[nH]6)C=C5)C=C4)cc2)C[C@H](C)O1
REMARK SMILES IDX 21 1 20 2 19 3 18 4 17 5 15 6 16 7 14 8 8 9 7 10 1 11 2 12
REMARK SMILES IDX 3 13 98 14 4 15 96 16 5 17 95 18 97 19 6 20 9 22 10 23 11 24
REMARK SMILES IDX 13 26 12 27 22 29 23 30 24 31 25 32 26 33 27 34 28 35 29 36
REMARK SMILES IDX 30 37 94 38 31 39 93 40 32 41 33 42 34 43 87 44 35 45 92 46
REMARK SMILES IDX 86 47 88 48 36 49 91 50 85 51 84 52 37 54 71 55 50 56 70 57
REMARK SMILES IDX 51 58 54 59 69 60 89 61 52 62 53 63 68 65 90 66 55 67 38 68
REMARK SMILES IDX 39 69 48 70 40 71 41 72 47 73 49 74 42 75 43 76 44 77 45 78
REMARK SMILES IDX 46 79 72 80 73 81 82 82 74 83 75 84 81 85 83 86 76 87 77 88
REMARK SMILES IDX 78 89 79 90 80 91 56 92 57 93 66 94 58 95 59 96 65 97 67 98
REMARK SMILES IDX 60 99 61 100 62 101 63 102 64 103
REMARK H PARENT 7 21 88 53 54 64
REMARK Flexibility Score: 90.00
ROOT
ATOM      1  C   UNL     1       2.559   0.499  -3.020  1.00  0.00     0.188 C 
ENDROOT
BRANCH   1   2
ATOM      2  O   UNL     1       3.146   0.248  -4.295  1.00  0.00    -0.376 OA
BRANCH   2   3
ATOM      3  C   UNL     1       2.915  -0.999  -4.933  1.00  0.00     0.202 C 
BRANCH   3   4
ATOM      4  C   UNL     1       3.521  -2.236  -4.270  1.00  0.00     0.261 C 
BRANCH   4   5
ATOM      5  O   UNL     1       3.104  -2.439  -2.905  1.00  0.00    -0.463 OA
BRANCH   5   6
ATOM      6  C   UNL     1       4.095  -2.461  -1.980  1.00  0.00     0.311 C 
ATOM      7  O   UNL     1       5.285  -2.307  -2.237  1.00  0.00    -0.252 OA
BRANCH   6   8
ATOM      8  C   UNL     1       3.616  -2.665  -0.545  1.00  0.00     0.121 C 
BRANCH   8   9
ATOM      9  C   UNL     1       2.543  -3.754  -0.333  1.00  0.00     0.098 C 
BRANCH   9  10
ATOM     10  N   UNL     1       1.262  -3.585  -1.055  1.00  0.00    -0.334 N 
ATOM     11  C   UNL     1       0.085  -0.143   2.893  1.00  0.00     0.040 C 
ATOM     12  C   UNL     1      -0.489  -0.700   1.600  1.00  0.00     0.135 C 
ATOM     13  C   UNL     1      -0.002  -2.132   1.330  1.00  0.00     0.153 C 
ATOM     14  O   UNL     1      -1.920  -0.673   1.719  1.00  0.00    -0.372 OA
ATOM     15  N   UNL     1      -0.619  -2.692   0.140  1.00  0.00    -0.320 N 
ATOM     16  C   UNL     1      -2.586  -1.177   0.550  1.00  0.00     0.135 C 
ATOM     17  C   UNL     1      -0.032  -3.254  -0.944  1.00  0.00     0.317 C 
ATOM     18  C   UNL     1      -2.088  -2.587   0.174  1.00  0.00     0.153 C 
ATOM     19  C   UNL     1      -2.482  -0.187  -0.598  1.00  0.00     0.040 C 
ATOM     20  O   UNL     1      -0.696  -3.518  -1.954  1.00  0.00    -0.249 OA
ATOM     21  H   UNL     1       1.427  -3.805  -2.000  1.00  0.00     0.165 HD
ENDBRANCH   9  10
BRANCH   9  22
ATOM     22  C   UNL     1       2.434  -4.346   1.087  1.00  0.00     0.026 C 
BRANCH  22  23
ATOM     23  C   UNL     1       3.474  -3.887   2.118  1.00  0.00     0.002 C 
BRANCH  23  24
ATOM     24  C   UNL     1       3.352  -2.434   2.577  1.00  0.00     0.000 CG0
ATOM     25  G   UNL     1       3.882  -1.358   1.627  1.00  0.00     0.000 G0
ENDBRANCH  23  24
ENDBRANCH  22  23
ENDBRANCH   9  22
ENDBRANCH   8   9
BRANCH   8  26
ATOM     26  C   UNL     1       3.383  -1.344   0.179  1.00  0.00     0.017 C 
BRANCH  26  27
ATOM     27  C   UNL     1       3.882  -1.358   1.627  1.00  0.00     0.001 CG0
ATOM     28  G   UNL     1       3.352  -2.434   2.577  1.00  0.00     0.000 G0
ENDBRANCH  26  27
ENDBRANCH   8  26
ENDBRANCH   6   8
ENDBRANCH   5   6
ENDBRANCH   4   5
ENDBRANCH   3   4
ENDBRANCH   2   3
ENDBRANCH   1   2
BRANCH   1  29
ATOM     29  C   UNL     1       1.185  -0.111  -2.695  1.00  0.00     0.188 C 
BRANCH  29  30
ATOM     30  O   UNL     1       0.392  -0.256  -3.863  1.00  0.00    -0.376 OA
BRANCH  30  31
ATOM     31  C   UNL     1      -0.880   0.355  -3.842  1.00  0.00     0.202 C 
BRANCH  31  32
ATOM     32  C   UNL     1      -0.833   1.870  -4.038  1.00  0.00     0.261 C 
BRANCH  32  33
ATOM     33  O   UNL     1       0.093   2.553  -3.175  1.00  0.00    -0.460 OA
BRANCH  33  34
ATOM     34  C   UNL     1      -0.347   2.908  -1.953  1.00  0.00     0.338 C 
ATOM     35  O   UNL     1      -1.453   2.689  -1.473  1.00  0.00    -0.246 OA
BRANCH  34  36
ATOM     36  C   UNL     1       0.761   3.555  -1.232  1.00  0.00     0.060 A 
ATOM     37  C   UNL     1       1.385   2.898  -0.163  1.00  0.00     0.016 A 
ATOM     38  C   UNL     1       1.150   4.845  -1.596  1.00  0.00     0.016 A 
ATOM     39  C   UNL     1       2.387   3.548   0.567  1.00  0.00     0.010 A 
ATOM     40  C   UNL     1       2.144   5.494  -0.861  1.00  0.00     0.010 A 
ATOM     41  C   UNL     1       2.749   4.862   0.240  1.00  0.00    -0.014 A 
BRANCH  41  42
ATOM     42  C   UNL     1       3.658   5.660   1.102  1.00  0.00     0.031 A 
ATOM     43  C   UNL     1       3.055   6.683   2.027  1.00  0.00     0.074 A 
ATOM     44  C   UNL     1       4.994   5.534   1.006  1.00  0.00     0.049 A 
ATOM     45  N   UNL     1       3.639   7.638   2.703  1.00  0.00    -0.248 NA
ATOM     46  C   UNL     1       1.595   6.626   2.202  1.00  0.00     0.031 C 
ATOM     47  C   UNL     1       5.694   4.549   0.184  1.00  0.00     0.029 A 
ATOM     48  N   UNL     1       6.001   6.268   1.583  1.00  0.00    -0.354 N 
ATOM     49  C   UNL     1       2.616   8.318   3.355  1.00  0.00     0.074 A 
ATOM     50  C   UNL     1       1.376   7.665   2.996  1.00  0.00     0.031 C 
ATOM     51  C   UNL     1       7.018   4.758   0.286  1.00  0.00     0.029 A 
ATOM     52  C   UNL     1       7.256   5.923   1.137  1.00  0.00     0.049 A 
ATOM     53  H   UNL     1       5.841   6.973   2.251  1.00  0.00     0.167 HD
ATOM     54  C   UNL     1       2.707   9.394   4.172  1.00  0.00     0.037 A 
ATOM     55  C   UNL     1       8.451   6.510   1.353  1.00  0.00     0.037 A 
ATOM     56  C   UNL     1       3.948  10.028   4.529  1.00  0.00     0.049 A 
ATOM     57  C   UNL     1       8.521   7.748   2.211  1.00  0.00     0.074 A 
ATOM     58  C   UNL     1       4.152  11.106   5.373  1.00  0.00     0.029 A 
ATOM     59  N   UNL     1       5.196   9.648   4.057  1.00  0.00    -0.354 N 
ATOM     60  N   UNL     1       7.550   8.377   2.832  1.00  0.00    -0.248 NA
ATOM     61  C   UNL     1       9.844   8.365   2.389  1.00  0.00     0.031 C 
ATOM     62  C   UNL     1       5.517  11.407   5.374  1.00  0.00     0.029 A 
ATOM     63  C   UNL     1       6.171  10.485   4.572  1.00  0.00     0.049 A 
ATOM     64  H   UNL     1       5.362   8.895   3.445  1.00  0.00     0.167 HD
ATOM     65  C   UNL     1       8.150   9.440   3.501  1.00  0.00     0.074 A 
ATOM     66  C   UNL     1       9.567   9.372   3.208  1.00  0.00     0.031 C 
ATOM     67  C   UNL     1       7.581  10.385   4.289  1.00  0.00     0.037 A 
BRANCH  54  68
ATOM     68  C   UNL     1       1.430   9.981   4.706  1.00  0.00     0.058 A 
ATOM     69  C   UNL     1       0.679   9.343   5.705  1.00  0.00     0.135 A 
ATOM     70  C   UNL     1       0.977  11.228   4.242  1.00  0.00     0.135 A 
ATOM     71  F   UNL     1       1.057   8.142   6.171  1.00  0.00    -0.206 F 
ATOM     72  C   UNL     1      -0.486   9.910   6.212  1.00  0.00     0.059 A 
ATOM     73  C   UNL     1      -0.172  11.825   4.752  1.00  0.00     0.059 A 
ATOM     74  F   UNL     1       1.656  11.880   3.285  1.00  0.00    -0.206 F 
ATOM     75  C   UNL     1      -0.903  11.153   5.729  1.00  0.00     0.060 A 
BRANCH  75  76
ATOM     76  S   UNL     1      -2.409  11.882   6.407  1.00  0.00     0.124 S 
ATOM     77  O   UNL     1      -3.438  11.047   5.795  1.00  0.00    -0.237 OA
ATOM     78  O   UNL     1      -2.223  11.706   7.844  1.00  0.00    -0.237 OA
ATOM     79  O   UNL     1      -2.361  13.263   5.937  1.00  0.00    -0.744 OA
ENDBRANCH  75  76
ENDBRANCH  54  68
BRANCH  55  80
ATOM     80  C   UNL     1       9.682   5.955   0.726  1.00  0.00     0.058 A 
ATOM     81  C   UNL     1      10.677   5.348   1.506  1.00  0.00     0.135 A 
ATOM     82  C   UNL     1       9.894   6.028  -0.660  1.00  0.00     0.135 A 
ATOM     83  F   UNL     1      10.528   5.267   2.837  1.00  0.00    -0.206 F 
ATOM     84  C   UNL     1      11.843   4.845   0.939  1.00  0.00     0.059 A 
ATOM     85  C   UNL     1      11.041   5.508  -1.254  1.00  0.00     0.059 A 
ATOM     86  F   UNL     1       8.971   6.594  -1.453  1.00  0.00    -0.206 F 
ATOM     87  C   UNL     1      12.015   4.928  -0.444  1.00  0.00     0.060 A 
BRANCH  87  88
ATOM     88  S   UNL     1      13.515   4.234  -1.173  1.00  0.00     0.124 S 
ATOM     89  O   UNL     1      14.515   5.221  -0.781  1.00  0.00    -0.237 OA
ATOM     90  O   UNL     1      13.606   2.936  -0.511  1.00  0.00    -0.237 OA
ATOM     91  O   UNL     1      13.203   4.183  -2.598  1.00  0.00    -0.744 OA
ENDBRANCH  87  88
ENDBRANCH  55  80
BRANCH  67  92
ATOM     92  C   UNL     1       8.486  11.392   4.943  1.00  0.00     0.058 A 
ATOM     93  C   UNL     1       9.045  12.460   4.227  1.00  0.00     0.135 A 
ATOM     94  C   UNL     1       8.719  11.335   6.327  1.00  0.00     0.135 A 
ATOM     95  F   UNL     1       8.858  12.556   2.901  1.00  0.00    -0.206 F 
ATOM     96  C   UNL     1       9.809  13.436   4.859  1.00  0.00     0.059 A 
ATOM     97  C   UNL     1       9.459  12.312   6.984  1.00  0.00     0.059 A 
ATOM     98  F   UNL     1       8.198  10.337   7.060  1.00  0.00    -0.206 F 
ATOM     99  C   UNL     1      10.004  13.357   6.240  1.00  0.00     0.060 A 
BRANCH  99 100
ATOM    100  S   UNL     1      10.941  14.665   7.060  1.00  0.00     0.124 S 
ATOM    101  O   UNL     1      12.306  14.347   6.657  1.00  0.00    -0.237 OA
ATOM    102  O   UNL     1      10.371  15.874   6.472  1.00  0.00    -0.237 OA
ATOM    103  O   UNL     1      10.640  14.463   8.475  1.00  0.00    -0.744 OA
ENDBRANCH  99 100
ENDBRANCH  67  92
ENDBRANCH  41  42
ENDBRANCH  34  36
ENDBRANCH  33  34
ENDBRANCH  32  33
ENDBRANCH  31  32
ENDBRANCH  30  31
ENDBRANCH  29  30
ENDBRANCH   1  29
TORSDOF 21
