REMARK SMILES C[C@]([NH3+])(C(=O)N1[C@@H](C(=O)OCCOCCOCCOC(=O)c2ccc(-c3c4nc(c(-c5c(F)cc(S(=O)(=O)[O-])cc5F)c5ccc([nH]5)c(-c5c(F)cc(S(=O)(=O)[O-])cc5F)c5nc(c(-c6c(F)cc(S(=O)(=O)[O-])cc6F)c6ccc3[nH]6)C=C5)C=C4)cc2)C[C@H]2CCCC[C@@H]21)C(F)(F)F
REMARK SMILES IDX 14 1 13 2 12 3 11 4 10 5 8 6 9 7 7 8 6 9 94 10 88 11 89 12
REMARK SMILES IDX 93 13 90 14 92 15 91 16 4 17 5 18 2 19 1 20 95 21 96 22
REMARK SMILES IDX 97 23 98 24 3 25 15 29 16 30 17 31 18 32 19 33 20 34 21 35
REMARK SMILES IDX 22 36 23 37 87 38 24 39 86 40 25 41 26 42 27 43 80 44 28 45
REMARK SMILES IDX 85 46 79 47 81 48 29 49 84 50 78 51 77 52 30 54 64 55 43 56
REMARK SMILES IDX 63 57 44 58 47 59 62 60 82 61 45 62 46 63 61 65 83 66 48 67
REMARK SMILES IDX 31 68 32 69 41 70 33 71 34 72 40 73 42 74 35 75 36 76 37 77
REMARK SMILES IDX 38 78 39 79 65 80 66 81 75 82 67 83 68 84 74 85 76 86 69 87
REMARK SMILES IDX 70 88 71 89 72 90 73 91 49 92 50 93 59 94 51 95 52 96 58 97
REMARK SMILES IDX 60 98 53 99 54 100 55 101 56 102 57 103
REMARK H PARENT 3 26 3 27 3 28 81 53 47 64
REMARK Flexibility Score: inf
ROOT
ATOM      1  C   UNL     1      -1.789  -2.749   0.883  1.00  0.00     0.188 C 
ENDROOT
BRANCH   1   2
ATOM      2  O   UNL     1      -2.622  -3.900   0.806  1.00  0.00    -0.376 OA
BRANCH   2   3
ATOM      3  C   UNL     1      -3.031  -4.358  -0.478  1.00  0.00     0.202 C 
BRANCH   3   4
ATOM      4  C   UNL     1      -3.704  -3.320  -1.368  1.00  0.00     0.261 C 
BRANCH   4   5
ATOM      5  O   UNL     1      -2.713  -2.452  -1.952  1.00  0.00    -0.462 OA
BRANCH   5   6
ATOM      6  C   UNL     1      -2.993  -1.118  -1.896  1.00  0.00     0.328 C 
ATOM      7  O   UNL     1      -4.045  -0.659  -1.485  1.00  0.00    -0.250 OA
BRANCH   6   8
ATOM      8  C   UNL     1      -1.855  -0.299  -2.561  1.00  0.00     0.196 C 
ATOM      9  N   UNL     1      -1.578   1.013  -1.951  1.00  0.00    -0.320 N 
ATOM     10  C   UNL     1      -2.649   1.889  -2.372  1.00  0.00     0.089 C 
ATOM     11  C   UNL     1      -2.352   0.075  -3.968  1.00  0.00     0.043 C 
ATOM     12  C   UNL     1      -2.657   1.579  -3.872  1.00  0.00     0.014 C 
ATOM     13  C   UNL     1      -2.644   3.388  -2.142  1.00  0.00     0.025 C 
ATOM     14  C   UNL     1      -3.941   2.067  -4.510  1.00  0.00     0.006 C 
ATOM     15  C   UNL     1      -3.917   3.969  -2.787  1.00  0.00     0.002 C 
ATOM     16  C   UNL     1      -4.075   3.576  -4.266  1.00  0.00     0.000 C 
BRANCH   9  17
ATOM     17  C   UNL     1      -0.832   1.148  -0.796  1.00  0.00     0.294 C 
ATOM     18  O   UNL     1      -1.160   0.553   0.231  1.00  0.00    -0.267 OA
BRANCH  17  19
ATOM     19  C   UNL     1       0.624   1.683  -1.012  1.00  0.00     0.267 C 
ATOM     20  C   UNL     1       0.779   2.599  -2.228  1.00  0.00     0.100 C 
BRANCH  19  21
ATOM     21  C   UNL     1       1.016   2.494   0.248  1.00  0.00     0.453 C 
ATOM     22  F   UNL     1       1.271   1.681   1.294  1.00  0.00    -0.164 F 
ATOM     23  F   UNL     1       2.150   3.208   0.035  1.00  0.00    -0.164 F 
ATOM     24  F   UNL     1       0.056   3.370   0.608  1.00  0.00    -0.164 F 
ENDBRANCH  19  21
BRANCH  19  25
ATOM     25  N   UNL     1       1.503   0.479  -1.261  1.00  0.00    -0.337 N 
ATOM     26  H   UNL     1       1.431  -0.164  -0.472  1.00  0.00     0.345 HD
ATOM     27  H   UNL     1       2.472   0.781  -1.367  1.00  0.00     0.345 HD
ATOM     28  H   UNL     1       1.199   0.006  -2.112  1.00  0.00     0.345 HD
ENDBRANCH  19  25
ENDBRANCH  17  19
ENDBRANCH   9  17
ENDBRANCH   6   8
ENDBRANCH   5   6
ENDBRANCH   4   5
ENDBRANCH   3   4
ENDBRANCH   2   3
ENDBRANCH   1   2
BRANCH   1  29
ATOM     29  C   UNL     1      -0.481  -2.729   0.065  1.00  0.00     0.188 C 
BRANCH  29  30
ATOM     30  O   UNL     1       0.020  -3.941  -0.479  1.00  0.00    -0.376 OA
BRANCH  30  31
ATOM     31  C   UNL     1       0.241  -5.010   0.439  1.00  0.00     0.202 C 
BRANCH  31  32
ATOM     32  C   UNL     1       1.222  -4.724   1.575  1.00  0.00     0.261 C 
BRANCH  32  33
ATOM     33  O   UNL     1       0.697  -3.739   2.485  1.00  0.00    -0.460 OA
BRANCH  33  34
ATOM     34  C   UNL     1       1.612  -2.859   2.949  1.00  0.00     0.338 C 
ATOM     35  O   UNL     1       2.819  -2.885   2.753  1.00  0.00    -0.246 OA
BRANCH  34  36
ATOM     36  C   UNL     1       0.960  -1.759   3.677  1.00  0.00     0.060 A 
ATOM     37  C   UNL     1       0.500  -0.653   2.962  1.00  0.00     0.016 A 
ATOM     38  C   UNL     1       1.021  -1.714   5.069  1.00  0.00     0.016 A 
ATOM     39  C   UNL     1       0.174   0.526   3.626  1.00  0.00     0.010 A 
ATOM     40  C   UNL     1       0.696  -0.524   5.734  1.00  0.00     0.010 A 
ATOM     41  C   UNL     1       0.341   0.627   5.007  1.00  0.00    -0.014 A 
BRANCH  41  42
ATOM     42  C   UNL     1       0.413   1.980   5.624  1.00  0.00     0.031 A 
ATOM     43  C   UNL     1       1.747   2.460   6.141  1.00  0.00     0.074 A 
ATOM     44  C   UNL     1      -0.630   2.830   5.617  1.00  0.00     0.049 A 
ATOM     45  N   UNL     1       2.026   3.487   6.900  1.00  0.00    -0.248 NA
ATOM     46  C   UNL     1       2.924   1.667   5.749  1.00  0.00     0.031 C 
ATOM     47  C   UNL     1      -1.933   2.572   5.006  1.00  0.00     0.029 A 
ATOM     48  N   UNL     1      -0.746   4.098   6.131  1.00  0.00    -0.354 N 
ATOM     49  C   UNL     1       3.395   3.419   7.138  1.00  0.00     0.074 A 
ATOM     50  C   UNL     1       3.892   2.259   6.432  1.00  0.00     0.031 C 
ATOM     51  C   UNL     1      -2.715   3.653   5.172  1.00  0.00     0.029 A 
ATOM     52  C   UNL     1      -1.996   4.645   5.968  1.00  0.00     0.049 A 
ATOM     53  H   UNL     1      -0.005   4.571   6.574  1.00  0.00     0.167 HD
ATOM     54  C   UNL     1       4.164   4.246   7.886  1.00  0.00     0.037 A 
ATOM     55  C   UNL     1      -2.517   5.792   6.447  1.00  0.00     0.037 A 
ATOM     56  C   UNL     1       3.672   5.440   8.521  1.00  0.00     0.049 A 
ATOM     57  C   UNL     1      -1.662   6.686   7.305  1.00  0.00     0.074 A 
ATOM     58  C   UNL     1       4.343   6.320   9.351  1.00  0.00     0.029 A 
ATOM     59  N   UNL     1       2.388   5.941   8.362  1.00  0.00    -0.354 N 
ATOM     60  N   UNL     1      -0.411   6.531   7.669  1.00  0.00    -0.248 NA
ATOM     61  C   UNL     1      -2.294   7.904   7.834  1.00  0.00     0.031 C 
ATOM     62  C   UNL     1       3.459   7.346   9.707  1.00  0.00     0.029 A 
ATOM     63  C   UNL     1       2.249   7.123   9.069  1.00  0.00     0.049 A 
ATOM     64  H   UNL     1       1.679   5.518   7.826  1.00  0.00     0.167 HD
ATOM     65  C   UNL     1      -0.102   7.634   8.458  1.00  0.00     0.074 A 
ATOM     66  C   UNL     1      -1.293   8.458   8.505  1.00  0.00     0.031 C 
ATOM     67  C   UNL     1       1.059   7.935   9.092  1.00  0.00     0.037 A 
BRANCH  54  68
ATOM     68  C   UNL     1       5.596   3.847   8.105  1.00  0.00     0.058 A 
ATOM     69  C   UNL     1       6.569   3.949   7.099  1.00  0.00     0.135 A 
ATOM     70  C   UNL     1       5.996   3.339   9.352  1.00  0.00     0.135 A 
ATOM     71  F   UNL     1       6.236   4.404   5.881  1.00  0.00    -0.206 F 
ATOM     72  C   UNL     1       7.880   3.532   7.312  1.00  0.00     0.059 A 
ATOM     73  C   UNL     1       7.306   2.941   9.596  1.00  0.00     0.059 A 
ATOM     74  F   UNL     1       5.105   3.216  10.349  1.00  0.00    -0.206 F 
ATOM     75  C   UNL     1       8.238   3.023   8.562  1.00  0.00     0.060 A 
BRANCH  75  76
ATOM     76  S   UNL     1       9.937   2.472   8.827  1.00  0.00     0.124 S 
ATOM     77  O   UNL     1       9.936   1.185   8.138  1.00  0.00    -0.237 OA
ATOM     78  O   UNL     1      10.715   3.530   8.191  1.00  0.00    -0.237 OA
ATOM     79  O   UNL     1      10.049   2.405  10.281  1.00  0.00    -0.744 OA
ENDBRANCH  75  76
ENDBRANCH  54  68
BRANCH  55  80
ATOM     80  C   UNL     1      -3.941   6.126   6.173  1.00  0.00     0.058 A 
ATOM     81  C   UNL     1      -4.293   7.192   5.334  1.00  0.00     0.135 A 
ATOM     82  C   UNL     1      -4.980   5.367   6.736  1.00  0.00     0.135 A 
ATOM     83  F   UNL     1      -3.338   7.959   4.786  1.00  0.00    -0.206 F 
ATOM     84  C   UNL     1      -5.624   7.495   5.061  1.00  0.00     0.059 A 
ATOM     85  C   UNL     1      -6.316   5.633   6.456  1.00  0.00     0.059 A 
ATOM     86  F   UNL     1      -4.697   4.333   7.543  1.00  0.00    -0.206 F 
ATOM     87  C   UNL     1      -6.629   6.705   5.623  1.00  0.00     0.060 A 
BRANCH  87  88
ATOM     88  S   UNL     1      -8.352   7.056   5.207  1.00  0.00     0.124 S 
ATOM     89  O   UNL     1      -8.626   8.216   6.047  1.00  0.00    -0.237 OA
ATOM     90  O   UNL     1      -8.280   7.310   3.772  1.00  0.00    -0.237 OA
ATOM     91  O   UNL     1      -9.043   5.825   5.583  1.00  0.00    -0.744 OA
ENDBRANCH  87  88
ENDBRANCH  55  80
BRANCH  67  92
ATOM     92  C   UNL     1       1.111   9.228   9.855  1.00  0.00     0.058 A 
ATOM     93  C   UNL     1       0.473   9.379  11.096  1.00  0.00     0.135 A 
ATOM     94  C   UNL     1       1.843  10.317   9.355  1.00  0.00     0.135 A 
ATOM     95  F   UNL     1      -0.240   8.368  11.616  1.00  0.00    -0.206 F 
ATOM     96  C   UNL     1       0.536  10.576  11.803  1.00  0.00     0.059 A 
ATOM     97  C   UNL     1       1.937  11.515  10.055  1.00  0.00     0.059 A 
ATOM     98  F   UNL     1       2.481  10.219   8.178  1.00  0.00    -0.206 F 
ATOM     99  C   UNL     1       1.267  11.640  11.271  1.00  0.00     0.060 A 
BRANCH  99 100
ATOM    100  S   UNL     1       1.354  13.185  12.201  1.00  0.00     0.124 S 
ATOM    101  O   UNL     1       0.044  13.767  11.927  1.00  0.00    -0.237 OA
ATOM    102  O   UNL     1       1.567  12.720  13.568  1.00  0.00    -0.237 OA
ATOM    103  O   UNL     1       2.488  13.880  11.599  1.00  0.00    -0.744 OA
ENDBRANCH  99 100
ENDBRANCH  67  92
ENDBRANCH  41  42
ENDBRANCH  34  36
ENDBRANCH  33  34
ENDBRANCH  32  33
ENDBRANCH  31  32
ENDBRANCH  30  31
ENDBRANCH  29  30
ENDBRANCH   1  29
TORSDOF 24
