REMARK SMILES O=C(OCCOCCOCCOC(=O)[C@@H]1CN(C(=O)C2CCCC2)C[C@H]1c1ccccc1)c1ccc(-c2c3nc(c(-c4c(F)cc(S(=O)(=O)[O-])cc4F)c4ccc([nH]4)c(-c4c(F)cc(S(=O)(=O)[O-])cc4F)c4nc(c(-c5c(F)cc(S(=O)(=O)[O-])cc5F)c5ccc2[nH]5)C=C4)C=C3)cc1
REMARK SMILES IDX 7 1 6 2 5 3 4 4 3 5 2 6 1 7 33 8 34 9 98 10 35 11 97 12
REMARK SMILES IDX 36 13 37 14 38 15 91 16 39 17 96 18 90 19 92 20 40 21 95 22
REMARK SMILES IDX 89 23 88 24 41 26 75 27 54 28 74 29 55 30 58 31 73 32 93 33
REMARK SMILES IDX 56 34 57 35 72 37 94 38 59 39 42 40 43 41 52 42 44 43 45 44
REMARK SMILES IDX 51 45 53 46 46 47 47 48 48 49 49 50 50 51 76 52 77 53 86 54
REMARK SMILES IDX 78 55 79 56 85 57 87 58 80 59 81 60 82 61 83 62 84 63 60 64
REMARK SMILES IDX 61 65 70 66 62 67 63 68 69 69 71 70 64 71 65 72 66 73 67 74
REMARK SMILES IDX 68 75 8 76 9 77 10 78 11 79 12 80 13 81 14 82 15 83 16 84
REMARK SMILES IDX 26 85 17 86 25 87 27 88 28 89 32 90 29 91 31 92 30 93 18 94
REMARK SMILES IDX 19 95 20 96 21 97 24 98 22 99 23 100
REMARK H PARENT 92 25 58 36
REMARK Flexibility Score: inf
ROOT
ATOM      1  C   UNL     1       2.649  -1.003  -1.615  1.00  0.00     0.188 C 
ENDROOT
BRANCH   1   2
ATOM      2  O   UNL     1       4.042  -0.722  -1.497  1.00  0.00    -0.376 OA
BRANCH   2   3
ATOM      3  C   UNL     1       4.798  -1.560  -0.624  1.00  0.00     0.202 C 
BRANCH   3   4
ATOM      4  C   UNL     1       4.409  -1.637   0.867  1.00  0.00     0.261 C 
BRANCH   4   5
ATOM      5  O   UNL     1       3.077  -1.246   1.245  1.00  0.00    -0.460 OA
BRANCH   5   6
ATOM      6  C   UNL     1       2.458  -0.049   1.105  1.00  0.00     0.338 C 
ATOM      7  O   UNL     1       1.246   0.034   1.278  1.00  0.00    -0.246 OA
BRANCH   6   8
ATOM      8  C   UNL     1       3.188   1.152   0.664  1.00  0.00     0.060 A 
ATOM      9  C   UNL     1       4.957   1.260   0.628  1.00  0.00     0.016 A 
ATOM     10  C   UNL     1       2.248   2.659   0.283  1.00  0.00     0.016 A 
ATOM     11  C   UNL     1       5.860   2.716   0.274  1.00  0.00     0.010 A 
ATOM     12  C   UNL     1       3.317   4.333  -0.087  1.00  0.00     0.010 A 
ATOM     13  C   UNL     1       5.098   4.221  -0.063  1.00  0.00    -0.014 A 
BRANCH  13  14
ATOM     14  C   UNL     1       5.896   5.406  -0.180  1.00  0.00     0.031 A 
ATOM     15  C   UNL     1       6.324   6.041   1.075  1.00  0.00     0.074 A 
ATOM     16  C   UNL     1       6.106   5.857  -1.417  1.00  0.00     0.049 A 
ATOM     17  N   UNL     1       6.965   7.154   1.216  1.00  0.00    -0.248 NA
ATOM     18  C   UNL     1       6.049   5.332   2.336  1.00  0.00     0.031 C 
ATOM     19  C   UNL     1       5.797   5.115  -2.633  1.00  0.00     0.029 A 
ATOM     20  N   UNL     1       6.560   7.048  -1.869  1.00  0.00    -0.354 N 
ATOM     21  C   UNL     1       7.221   7.245   2.569  1.00  0.00     0.074 A 
ATOM     22  C   UNL     1       6.584   6.140   3.231  1.00  0.00     0.031 C 
ATOM     23  C   UNL     1       5.877   5.932  -3.692  1.00  0.00     0.029 A 
ATOM     24  C   UNL     1       6.339   7.221  -3.214  1.00  0.00     0.049 A 
ATOM     25  H   UNL     1       7.000   7.718  -1.297  1.00  0.00     0.167 HD
ATOM     26  C   UNL     1       7.994   8.168   3.163  1.00  0.00     0.037 A 
ATOM     27  C   UNL     1       6.518   8.325  -3.951  1.00  0.00     0.037 A 
ATOM     28  C   UNL     1       8.534   9.262   2.414  1.00  0.00     0.049 A 
ATOM     29  C   UNL     1       7.217   9.440  -3.237  1.00  0.00     0.074 A 
ATOM     30  C   UNL     1       9.311  10.309   2.852  1.00  0.00     0.029 A 
ATOM     31  N   UNL     1       8.307   9.456   1.050  1.00  0.00    -0.354 N 
ATOM     32  N   UNL     1       7.534   9.510  -1.961  1.00  0.00    -0.248 NA
ATOM     33  C   UNL     1       7.672  10.565  -4.045  1.00  0.00     0.031 C 
ATOM     34  C   UNL     1       9.475  11.183   1.772  1.00  0.00     0.029 A 
ATOM     35  C   UNL     1       8.885  10.635   0.637  1.00  0.00     0.049 A 
ATOM     36  H   UNL     1       7.806   8.839   0.469  1.00  0.00     0.167 HD
ATOM     37  C   UNL     1       8.290  10.655  -1.818  1.00  0.00     0.074 A 
ATOM     38  C   UNL     1       8.370  11.247  -3.147  1.00  0.00     0.031 C 
ATOM     39  C   UNL     1       8.886  11.164  -0.710  1.00  0.00     0.037 A 
BRANCH  26  40
ATOM     40  C   UNL     1       8.209   8.022   4.633  1.00  0.00     0.058 A 
ATOM     41  C   UNL     1       8.917   6.935   5.179  1.00  0.00     0.135 A 
ATOM     42  C   UNL     1       7.643   8.949   5.516  1.00  0.00     0.135 A 
ATOM     43  F   UNL     1       9.420   5.979   4.380  1.00  0.00    -0.206 F 
ATOM     44  C   UNL     1       9.055   6.776   6.551  1.00  0.00     0.059 A 
ATOM     45  C   UNL     1       7.799   8.829   6.891  1.00  0.00     0.059 A 
ATOM     46  F   UNL     1       6.910   9.970   5.046  1.00  0.00    -0.206 F 
ATOM     47  C   UNL     1       8.507   7.740   7.398  1.00  0.00     0.060 A 
BRANCH  47  48
ATOM     48  S   UNL     1       8.763   7.563   9.172  1.00  0.00     0.124 S 
ATOM     49  O   UNL     1       7.972   6.373   9.468  1.00  0.00    -0.237 OA
ATOM     50  O   UNL     1      10.211   7.399   9.254  1.00  0.00    -0.237 OA
ATOM     51  O   UNL     1       8.244   8.813   9.717  1.00  0.00    -0.744 OA
ENDBRANCH  47  48
ENDBRANCH  26  40
BRANCH  27  52
ATOM     52  C   UNL     1       6.161   8.344  -5.387  1.00  0.00     0.058 A 
ATOM     53  C   UNL     1       7.149   8.313  -6.377  1.00  0.00     0.135 A 
ATOM     54  C   UNL     1       4.818   8.337  -5.803  1.00  0.00     0.135 A 
ATOM     55  F   UNL     1       8.444   8.272  -6.029  1.00  0.00    -0.206 F 
ATOM     56  C   UNL     1       6.827   8.331  -7.729  1.00  0.00     0.059 A 
ATOM     57  C   UNL     1       4.468   8.333  -7.152  1.00  0.00     0.059 A 
ATOM     58  F   UNL     1       3.834   8.313  -4.891  1.00  0.00    -0.206 F 
ATOM     59  C   UNL     1       5.483   8.348  -8.107  1.00  0.00     0.060 A 
BRANCH  59  60
ATOM     60  S   UNL     1       5.098   8.379  -9.871  1.00  0.00     0.124 S 
ATOM     61  O   UNL     1       5.641   9.673 -10.269  1.00  0.00    -0.237 OA
ATOM     62  O   UNL     1       5.824   7.209 -10.356  1.00  0.00    -0.237 OA
ATOM     63  O   UNL     1       3.644   8.266  -9.908  1.00  0.00    -0.744 OA
ENDBRANCH  59  60
ENDBRANCH  27  52
BRANCH  39  64
ATOM     64  C   UNL     1       9.669  12.417  -0.919  1.00  0.00     0.058 A 
ATOM     65  C   UNL     1       9.034  13.629  -1.225  1.00  0.00     0.135 A 
ATOM     66  C   UNL     1      11.061  12.408  -0.747  1.00  0.00     0.135 A 
ATOM     67  F   UNL     1       7.704  13.673  -1.405  1.00  0.00    -0.206 F 
ATOM     68  C   UNL     1       9.765  14.791  -1.391  1.00  0.00     0.059 A 
ATOM     69  C   UNL     1      11.803  13.571  -0.851  1.00  0.00     0.059 A 
ATOM     70  F   UNL     1      11.702  11.268  -0.438  1.00  0.00    -0.206 F 
ATOM     71  C   UNL     1      11.146  14.753  -1.188  1.00  0.00     0.060 A 
BRANCH  71  72
ATOM     72  S   UNL     1      12.069  16.288  -1.351  1.00  0.00     0.124 S 
ATOM     73  O   UNL     1      11.975  16.533  -2.786  1.00  0.00    -0.237 OA
ATOM     74  O   UNL     1      11.305  17.194  -0.498  1.00  0.00    -0.237 OA
ATOM     75  O   UNL     1      13.398  15.940  -0.857  1.00  0.00    -0.744 OA
ENDBRANCH  71  72
ENDBRANCH  39  64
ENDBRANCH  13  14
ENDBRANCH   6   8
ENDBRANCH   5   6
ENDBRANCH   4   5
ENDBRANCH   3   4
ENDBRANCH   2   3
ENDBRANCH   1   2
BRANCH   1  76
ATOM     76  C   UNL     1       2.062  -1.377  -2.973  1.00  0.00     0.188 C 
BRANCH  76  77
ATOM     77  O   UNL     1       2.742  -2.317  -3.778  1.00  0.00    -0.376 OA
BRANCH  77  78
ATOM     78  C   UNL     1       4.145  -2.158  -3.909  1.00  0.00     0.202 C 
BRANCH  78  79
ATOM     79  C   UNL     1       4.745  -0.815  -4.392  1.00  0.00     0.261 C 
BRANCH  79  80
ATOM     80  O   UNL     1       4.160   0.417  -3.880  1.00  0.00    -0.463 OA
BRANCH  80  81
ATOM     81  C   UNL     1       3.224   0.943  -4.697  1.00  0.00     0.311 C 
ATOM     82  O   UNL     1       2.933   0.402  -5.768  1.00  0.00    -0.252 OA
BRANCH  81  83
ATOM     83  C   UNL     1       2.420   2.157  -4.211  1.00  0.00     0.128 C 
ATOM     84  C   UNL     1       2.342   2.892  -5.545  1.00  0.00     0.135 C 
ATOM     85  C   UNL     1       2.866   3.313  -3.287  1.00  0.00     0.055 C 
ATOM     86  N   UNL     1       1.859   4.200  -5.263  1.00  0.00    -0.341 N 
ATOM     87  C   UNL     1       2.364   4.621  -3.977  1.00  0.00     0.128 C 
BRANCH  85  88
ATOM     88  C   UNL     1       2.535   3.287  -1.792  1.00  0.00    -0.042 A 
ATOM     89  C   UNL     1       1.286   4.274  -1.007  1.00  0.00     0.004 A 
ATOM     90  C   UNL     1       3.832   2.634  -0.737  1.00  0.00     0.004 A 
ATOM     91  C   UNL     1       1.258   4.656   0.740  1.00  0.00     0.000 A 
ATOM     92  C   UNL     1       3.815   3.084   1.237  1.00  0.00     0.000 A 
ATOM     93  C   UNL     1       2.477   4.096   1.877  1.00  0.00     0.000 A 
ENDBRANCH  85  88
BRANCH  86  94
ATOM     94  C   UNL     1       1.115   5.005  -6.093  1.00  0.00     0.225 C 
ATOM     95  O   UNL     1       0.822   6.158  -5.769  1.00  0.00    -0.275 OA
BRANCH  94  96
ATOM     96  C   UNL     1       0.543   4.404  -7.383  1.00  0.00     0.078 C 
ATOM     97  C   UNL     1       1.553   3.829  -8.376  1.00  0.00     0.013 C 
ATOM     98  C   UNL     1      -0.464   3.288  -7.079  1.00  0.00     0.013 C 
ATOM     99  C   UNL     1       0.839   2.678  -9.071  1.00  0.00     0.001 C 
ATOM    100  C   UNL     1      -0.299   2.232  -8.163  1.00  0.00     0.001 C 
ENDBRANCH  94  96
ENDBRANCH  86  94
ENDBRANCH  81  83
ENDBRANCH  80  81
ENDBRANCH  79  80
ENDBRANCH  78  79
ENDBRANCH  77  78
ENDBRANCH  76  77
ENDBRANCH   1  76
TORSDOF 23
