REMARK SMILES Cc1cs/c(=N\S(=O)(=O)c2ccc(/C=C/C(=O)OCCOCCOCCOC(=O)c3ccc(-c4c5nc(c(-c6c(F)cc(S(=O)(=O)[O-])cc6F)c6ccc([nH]6)c(-c6c(F)cc(S(=O)(=O)[O-])cc6F)c6nc(c(-c7c(F)cc(S(=O)(=O)[O-])cc7F)c7ccc4[nH]7)C=C6)C=C5)cc3)cc2)[nH]1
REMARK SMILES IDX 22 1 21 2 20 3 19 4 18 5 16 6 17 7 15 8 14 9 13 10 10 11
REMARK SMILES IDX 11 12 97 13 12 14 96 15 7 16 8 17 9 18 6 19 1 20 2 21 3 22
REMARK SMILES IDX 98 23 4 24 5 25 23 27 24 28 25 29 26 30 27 31 28 32 29 33
REMARK SMILES IDX 30 34 31 35 95 36 32 37 94 38 33 39 34 40 35 41 88 42 36 43
REMARK SMILES IDX 93 44 87 45 89 46 37 47 92 48 86 49 85 50 38 52 72 53 51 54
REMARK SMILES IDX 71 55 52 56 55 57 70 58 90 59 53 60 54 61 69 63 91 64 56 65
REMARK SMILES IDX 39 66 40 67 49 68 41 69 42 70 48 71 50 72 43 73 44 74 45 75
REMARK SMILES IDX 46 76 47 77 73 78 74 79 83 80 75 81 76 82 82 83 84 84 77 85
REMARK SMILES IDX 78 86 79 87 80 88 81 89 57 90 58 91 67 92 59 93 60 94 66 95
REMARK SMILES IDX 68 96 61 97 62 98 63 99 64 100 65 101
REMARK H PARENT 98 26 89 51 55 62
REMARK Flexibility Score: inf
ROOT
ATOM      1  C   UNL     1     -11.011  -6.521   1.827  1.00  0.00     0.188 C 
ENDROOT
BRANCH   1   2
ATOM      2  O   UNL     1     -11.842  -7.629   1.544  1.00  0.00    -0.376 OA
BRANCH   2   3
ATOM      3  C   UNL     1     -11.432  -8.623   0.620  1.00  0.00     0.202 C 
BRANCH   3   4
ATOM      4  C   UNL     1     -10.521  -8.353  -0.592  1.00  0.00     0.261 C 
BRANCH   4   5
ATOM      5  O   UNL     1      -9.497  -7.364  -0.431  1.00  0.00    -0.460 OA
BRANCH   5   6
ATOM      6  C   UNL     1      -9.643  -6.258  -1.201  1.00  0.00     0.330 C 
ATOM      7  O   UNL     1     -10.534  -6.059  -2.013  1.00  0.00    -0.247 OA
BRANCH   6   8
ATOM      8  C   UNL     1      -8.649  -5.209  -0.895  1.00  0.00     0.094 C 
ATOM      9  C   UNL     1      -7.457  -5.384  -0.301  1.00  0.00     0.015 C 
BRANCH   9  10
ATOM     10  C   UNL     1      -6.510  -4.273  -0.091  1.00  0.00    -0.025 A 
ATOM     11  C   UNL     1      -4.657  -2.171   0.097  1.00  0.00     0.089 A 
ATOM     12  C   UNL     1      -6.020  -1.913   0.262  1.00  0.00     0.023 A 
ATOM     13  C   UNL     1      -4.203  -3.478  -0.089  1.00  0.00     0.023 A 
ATOM     14  C   UNL     1      -6.938  -2.964   0.178  1.00  0.00     0.009 A 
ATOM     15  C   UNL     1      -5.131  -4.524  -0.175  1.00  0.00     0.009 A 
BRANCH  11  16
ATOM     16  S   UNL     1      -3.539  -0.777   0.082  1.00  0.00     0.285 S 
ATOM     17  O   UNL     1      -3.751  -0.095   1.336  1.00  0.00    -0.199 OA
ATOM     18  O   UNL     1      -3.781  -0.125  -1.196  1.00  0.00    -0.199 OA
BRANCH  16  19
ATOM     19  N   UNL     1      -2.055  -1.420   0.069  1.00  0.00    -0.130 NA
ATOM     20  C   UNL     1       2.714  -0.551   0.009  1.00  0.00     0.065 C 
ATOM     21  C   UNL     1       1.278  -0.156   0.003  1.00  0.00     0.024 A 
ATOM     22  C   UNL     1       0.808   1.103  -0.017  1.00  0.00     0.089 A 
ATOM     23  N   UNL     1       0.278  -1.108   0.026  1.00  0.00    -0.334 N 
ATOM     24  S   UNL     1      -0.942   1.131  -0.009  1.00  0.00    -0.104 S 
ATOM     25  C   UNL     1      -1.020  -0.653   0.035  1.00  0.00     0.199 A 
ATOM     26  H   UNL     1       0.485  -2.070   0.036  1.00  0.00     0.169 HD
ENDBRANCH  16  19
ENDBRANCH  11  16
ENDBRANCH   9  10
ENDBRANCH   6   8
ENDBRANCH   5   6
ENDBRANCH   4   5
ENDBRANCH   3   4
ENDBRANCH   2   3
ENDBRANCH   1   2
BRANCH   1  27
ATOM     27  C   UNL     1      -9.622  -6.759   2.447  1.00  0.00     0.188 C 
BRANCH  27  28
ATOM     28  O   UNL     1      -9.131  -8.079   2.454  1.00  0.00    -0.376 OA
BRANCH  28  29
ATOM     29  C   UNL     1      -9.556  -9.000   3.446  1.00  0.00     0.202 C 
BRANCH  29  30
ATOM     30  C   UNL     1     -10.509  -8.715   4.626  1.00  0.00     0.261 C 
BRANCH  30  31
ATOM     31  O   UNL     1     -11.208  -7.471   4.662  1.00  0.00    -0.460 OA
BRANCH  31  32
ATOM     32  C   UNL     1     -10.715  -6.549   5.525  1.00  0.00     0.338 C 
ATOM     33  O   UNL     1      -9.722  -6.648   6.221  1.00  0.00    -0.246 OA
BRANCH  32  34
ATOM     34  C   UNL     1     -11.486  -5.302   5.366  1.00  0.00     0.060 A 
ATOM     35  C   UNL     1     -10.859  -4.191   4.787  1.00  0.00     0.016 A 
ATOM     36  C   UNL     1     -12.803  -5.221   5.817  1.00  0.00     0.016 A 
ATOM     37  C   UNL     1     -11.550  -2.986   4.667  1.00  0.00     0.010 A 
ATOM     38  C   UNL     1     -13.486  -4.006   5.716  1.00  0.00     0.010 A 
ATOM     39  C   UNL     1     -12.856  -2.877   5.162  1.00  0.00    -0.014 A 
BRANCH  39  40
ATOM     40  C   UNL     1     -13.509  -1.547   5.238  1.00  0.00     0.031 A 
ATOM     41  C   UNL     1     -13.516  -0.819   6.554  1.00  0.00     0.074 A 
ATOM     42  C   UNL     1     -14.076  -0.992   4.152  1.00  0.00     0.049 A 
ATOM     43  N   UNL     1     -14.076   0.319   6.870  1.00  0.00    -0.248 NA
ATOM     44  C   UNL     1     -12.797  -1.466   7.664  1.00  0.00     0.031 C 
ATOM     45  C   UNL     1     -14.100  -1.582   2.815  1.00  0.00     0.029 A 
ATOM     46  N   UNL     1     -14.755   0.193   4.009  1.00  0.00    -0.354 N 
ATOM     47  C   UNL     1     -13.786   0.523   8.214  1.00  0.00     0.074 A 
ATOM     48  C   UNL     1     -13.026  -0.624   8.661  1.00  0.00     0.031 C 
ATOM     49  C   UNL     1     -14.774  -0.763   1.989  1.00  0.00     0.029 A 
ATOM     50  C   UNL     1     -15.260   0.390   2.745  1.00  0.00     0.049 A 
ATOM     51  H   UNL     1     -14.870   0.840   4.742  1.00  0.00     0.167 HD
ATOM     52  C   UNL     1     -14.118   1.574   9.001  1.00  0.00     0.037 A 
ATOM     53  C   UNL     1     -16.046   1.374   2.264  1.00  0.00     0.037 A 
ATOM     54  C   UNL     1     -14.879   2.710   8.548  1.00  0.00     0.049 A 
ATOM     55  C   UNL     1     -16.464   2.499   3.177  1.00  0.00     0.074 A 
ATOM     56  C   UNL     1     -15.251   3.835   9.262  1.00  0.00     0.029 A 
ATOM     57  N   UNL     1     -15.393   2.863   7.268  1.00  0.00    -0.354 N 
ATOM     58  N   UNL     1     -16.164   2.693   4.440  1.00  0.00    -0.248 NA
ATOM     59  C   UNL     1     -17.326   3.540   2.600  1.00  0.00     0.031 C 
ATOM     60  C   UNL     1     -16.039   4.639   8.433  1.00  0.00     0.029 A 
ATOM     61  C   UNL     1     -16.104   4.049   7.181  1.00  0.00     0.049 A 
ATOM     62  H   UNL     1     -15.271   2.223   6.530  1.00  0.00     0.167 HD
ATOM     63  C   UNL     1     -16.773   3.893   4.798  1.00  0.00     0.074 A 
ATOM     64  C   UNL     1     -17.450   4.384   3.616  1.00  0.00     0.031 C 
ATOM     65  C   UNL     1     -16.769   4.532   5.995  1.00  0.00     0.037 A 
BRANCH  52  66
ATOM     66  C   UNL     1     -13.687   1.531  10.442  1.00  0.00     0.058 A 
ATOM     67  C   UNL     1     -12.341   1.663  10.819  1.00  0.00     0.135 A 
ATOM     68  C   UNL     1     -14.640   1.389  11.463  1.00  0.00     0.135 A 
ATOM     69  F   UNL     1     -11.385   1.782   9.884  1.00  0.00    -0.206 F 
ATOM     70  C   UNL     1     -11.953   1.630  12.155  1.00  0.00     0.059 A 
ATOM     71  C   UNL     1     -14.278   1.384  12.807  1.00  0.00     0.059 A 
ATOM     72  F   UNL     1     -15.941   1.256  11.161  1.00  0.00    -0.206 F 
ATOM     73  C   UNL     1     -12.930   1.491  13.142  1.00  0.00     0.060 A 
BRANCH  73  74
ATOM     74  S   UNL     1     -12.410   1.457  14.870  1.00  0.00     0.124 S 
ATOM     75  O   UNL     1     -11.758   0.153  14.953  1.00  0.00    -0.237 OA
ATOM     76  O   UNL     1     -11.525   2.614  14.952  1.00  0.00    -0.237 OA
ATOM     77  O   UNL     1     -13.664   1.577  15.607  1.00  0.00    -0.744 OA
ENDBRANCH  73  74
ENDBRANCH  52  66
BRANCH  53  78
ATOM     78  C   UNL     1     -16.503   1.335   0.847  1.00  0.00     0.058 A 
ATOM     79  C   UNL     1     -16.052   2.278  -0.088  1.00  0.00     0.135 A 
ATOM     80  C   UNL     1     -17.407   0.357   0.402  1.00  0.00     0.135 A 
ATOM     81  F   UNL     1     -15.200   3.243   0.290  1.00  0.00    -0.206 F 
ATOM     82  C   UNL     1     -16.490   2.263  -1.409  1.00  0.00     0.059 A 
ATOM     83  C   UNL     1     -17.837   0.303  -0.920  1.00  0.00     0.059 A 
ATOM     84  F   UNL     1     -17.865  -0.573   1.254  1.00  0.00    -0.206 F 
ATOM     85  C   UNL     1     -17.380   1.268  -1.817  1.00  0.00     0.060 A 
BRANCH  85  86
ATOM     86  S   UNL     1     -17.905   1.231  -3.544  1.00  0.00     0.124 S 
ATOM     87  O   UNL     1     -18.779   2.396  -3.611  1.00  0.00    -0.237 OA
ATOM     88  O   UNL     1     -16.633   1.344  -4.252  1.00  0.00    -0.237 OA
ATOM     89  O   UNL     1     -18.569  -0.064  -3.666  1.00  0.00    -0.744 OA
ENDBRANCH  85  86
ENDBRANCH  53  78
BRANCH  65  90
ATOM     90  C   UNL     1     -17.483   5.855   6.084  1.00  0.00     0.058 A 
ATOM     91  C   UNL     1     -18.883   5.949   6.054  1.00  0.00     0.135 A 
ATOM     92  C   UNL     1     -16.753   7.043   6.261  1.00  0.00     0.135 A 
ATOM     93  F   UNL     1     -19.630   4.847   5.883  1.00  0.00    -0.206 F 
ATOM     94  C   UNL     1     -19.533   7.174   6.169  1.00  0.00     0.059 A 
ATOM     95  C   UNL     1     -17.383   8.275   6.410  1.00  0.00     0.059 A 
ATOM     96  F   UNL     1     -15.412   7.013   6.310  1.00  0.00    -0.206 F 
ATOM     97  C   UNL     1     -18.774   8.332   6.350  1.00  0.00     0.060 A 
BRANCH  97  98
ATOM     98  S   UNL     1     -19.633   9.910   6.532  1.00  0.00     0.124 S 
ATOM     99  O   UNL     1     -20.108  10.146   5.172  1.00  0.00    -0.237 OA
ATOM    100  O   UNL     1     -20.662   9.594   7.517  1.00  0.00    -0.237 OA
ATOM    101  O   UNL     1     -18.586  10.816   6.996  1.00  0.00    -0.744 OA
ENDBRANCH  97  98
ENDBRANCH  65  90
ENDBRANCH  39  40
ENDBRANCH  32  34
ENDBRANCH  31  32
ENDBRANCH  30  31
ENDBRANCH  29  30
ENDBRANCH  28  29
ENDBRANCH  27  28
ENDBRANCH   1  27
TORSDOF 23
