REMARK SMILES C#CC[N@@H+](CC(=O)OCCOCCOCCOC(=O)c1ccc(-c2c3nc(c(-c4c(F)cc(S(=O)(=O)[O-])cc4F)c4ccc([nH]4)c(-c4c(F)cc(S(=O)(=O)[O-])cc4F)c4nc(c(-c5c(F)cc(S(=O)(=O)[O-])cc5F)c5ccc2[nH]5)C=C4)C=C3)cc1)[C@@H](C)Cc1ccco1
REMARK SMILES IDX 12 1 11 2 10 3 9 4 8 5 6 6 7 7 5 8 4 9 3 11 2 12 1 13 86 14
REMARK SMILES IDX 87 15 88 16 89 17 90 18 93 19 91 20 92 21 13 22 14 23 15 24
REMARK SMILES IDX 16 25 17 26 18 27 19 28 20 29 21 30 85 31 22 32 84 33 23 34
REMARK SMILES IDX 24 35 25 36 78 37 26 38 83 39 77 40 79 41 27 42 82 43 76 44
REMARK SMILES IDX 75 45 28 47 62 48 41 49 61 50 42 51 45 52 60 53 80 54 43 55
REMARK SMILES IDX 44 56 59 58 81 59 46 60 29 61 30 62 39 63 31 64 32 65 38 66
REMARK SMILES IDX 40 67 33 68 34 69 35 70 36 71 37 72 63 73 64 74 73 75 65 76
REMARK SMILES IDX 66 77 72 78 74 79 67 80 68 81 69 82 70 83 71 84 47 85 48 86
REMARK SMILES IDX 57 87 49 88 50 89 56 90 58 91 51 92 52 93 53 94 54 95 55 96
REMARK H PARENT 4 10 79 46 45 57
REMARK Flexibility Score: inf
ROOT
ATOM      1  C   UNL     1      -5.228  -0.657  -4.090  1.00  0.00     0.188 C 
ENDROOT
BRANCH   1   2
ATOM      2  O   UNL     1      -6.021   0.519  -3.972  1.00  0.00    -0.376 OA
BRANCH   2   3
ATOM      3  C   UNL     1      -5.433   1.595  -3.247  1.00  0.00     0.202 C 
BRANCH   3   4
ATOM      4  C   UNL     1      -5.266   1.394  -1.732  1.00  0.00     0.261 C 
BRANCH   4   5
ATOM      5  O   UNL     1      -4.339   0.357  -1.314  1.00  0.00    -0.459 OA
BRANCH   5   6
ATOM      6  C   UNL     1      -4.832  -0.567  -0.444  1.00  0.00     0.361 C 
ATOM      7  O   UNL     1      -6.031  -0.645  -0.173  1.00  0.00    -0.245 OA
BRANCH   6   8
ATOM      8  C   UNL     1      -3.839  -1.494   0.280  1.00  0.00     0.387 C 
BRANCH   8   9
ATOM      9  N   UNL     1      -2.365  -1.442   0.084  1.00  0.00    -0.313 N 
ATOM     10  H   UNL     1      -1.949  -1.821   0.935  1.00  0.00     0.349 HD
BRANCH   9  11
ATOM     11  C   UNL     1      -1.837  -0.087   0.048  1.00  0.00     0.354 C 
BRANCH  11  12
ATOM     12  C   UNL     1      -0.317  -0.087   0.048  1.00  0.00    -0.047 C 
ATOM     13  C   UNL     1       0.987  -0.087   0.048  1.00  0.00     0.010 C 
ENDBRANCH  11  12
ENDBRANCH   9  11
BRANCH   9  14
ATOM     14  C   UNL     1      -1.858  -2.381  -0.934  1.00  0.00     0.189 C 
ATOM     15  C   UNL     1      -1.988  -1.702  -2.282  1.00  0.00     0.076 C 
BRANCH  14  16
ATOM     16  C   UNL     1      -0.407  -2.952  -0.832  1.00  0.00     0.140 C 
BRANCH  16  17
ATOM     17  C   UNL     1      -0.005  -3.618   0.436  1.00  0.00     0.109 A 
ATOM     18  C   UNL     1       0.651  -3.198   1.576  1.00  0.00     0.046 A 
ATOM     19  O   UNL     1      -0.137  -4.977   0.461  1.00  0.00    -0.469 OA
ATOM     20  C   UNL     1       0.954  -4.362   2.323  1.00  0.00     0.042 A 
ATOM     21  C   UNL     1       0.452  -5.417   1.601  1.00  0.00     0.195 A 
ENDBRANCH  16  17
ENDBRANCH  14  16
ENDBRANCH   9  14
ENDBRANCH   8   9
ENDBRANCH   6   8
ENDBRANCH   5   6
ENDBRANCH   4   5
ENDBRANCH   3   4
ENDBRANCH   2   3
ENDBRANCH   1   2
BRANCH   1  22
ATOM     22  C   UNL     1      -3.910  -0.483  -4.862  1.00  0.00     0.188 C 
BRANCH  22  23
ATOM     23  O   UNL     1      -2.995   0.362  -4.173  1.00  0.00    -0.376 OA
BRANCH  23  24
ATOM     24  C   UNL     1      -1.695   0.594  -4.714  1.00  0.00     0.202 C 
BRANCH  24  25
ATOM     25  C   UNL     1      -1.272  -0.012  -6.058  1.00  0.00     0.261 C 
BRANCH  25  26
ATOM     26  O   UNL     1      -1.617  -1.395  -6.233  1.00  0.00    -0.460 OA
BRANCH  26  27
ATOM     27  C   UNL     1      -0.918  -2.324  -5.532  1.00  0.00     0.338 C 
ATOM     28  O   UNL     1       0.089  -2.132  -4.885  1.00  0.00    -0.246 OA
BRANCH  27  29
ATOM     29  C   UNL     1      -1.733  -3.576  -5.533  1.00  0.00     0.060 A 
ATOM     30  C   UNL     1      -1.935  -4.279  -4.338  1.00  0.00     0.016 A 
ATOM     31  C   UNL     1      -2.343  -4.032  -6.702  1.00  0.00     0.016 A 
ATOM     32  C   UNL     1      -2.774  -5.385  -4.278  1.00  0.00     0.010 A 
ATOM     33  C   UNL     1      -3.124  -5.191  -6.666  1.00  0.00     0.010 A 
ATOM     34  C   UNL     1      -3.328  -5.877  -5.455  1.00  0.00    -0.014 A 
BRANCH  34  35
ATOM     35  C   UNL     1      -3.855  -7.256  -5.450  1.00  0.00     0.031 A 
ATOM     36  C   UNL     1      -2.920  -8.347  -5.886  1.00  0.00     0.074 A 
ATOM     37  C   UNL     1      -5.087  -7.543  -4.997  1.00  0.00     0.049 A 
ATOM     38  N   UNL     1      -3.163  -9.610  -6.106  1.00  0.00    -0.248 NA
ATOM     39  C   UNL     1      -1.516  -7.955  -6.102  1.00  0.00     0.031 C 
ATOM     40  C   UNL     1      -6.028  -6.581  -4.423  1.00  0.00     0.029 A 
ATOM     41  N   UNL     1      -5.757  -8.738  -4.955  1.00  0.00    -0.354 N 
ATOM     42  C   UNL     1      -1.953 -10.155  -6.517  1.00  0.00     0.074 A 
ATOM     43  C   UNL     1      -0.979  -9.087  -6.526  1.00  0.00     0.031 C 
ATOM     44  C   UNL     1      -7.167  -7.224  -4.110  1.00  0.00     0.029 A 
ATOM     45  C   UNL     1      -7.052  -8.625  -4.511  1.00  0.00     0.049 A 
ATOM     46  H   UNL     1      -5.348  -9.595  -5.216  1.00  0.00     0.167 HD
ATOM     47  C   UNL     1      -1.684 -11.435  -6.859  1.00  0.00     0.037 A 
ATOM     48  C   UNL     1      -8.039  -9.543  -4.482  1.00  0.00     0.037 A 
ATOM     49  C   UNL     1      -2.664 -12.486  -6.829  1.00  0.00     0.049 A 
ATOM     50  C   UNL     1      -7.747 -10.941  -4.971  1.00  0.00     0.074 A 
ATOM     51  C   UNL     1      -2.510 -13.815  -7.176  1.00  0.00     0.029 A 
ATOM     52  N   UNL     1      -3.982 -12.324  -6.426  1.00  0.00    -0.354 N 
ATOM     53  N   UNL     1      -6.617 -11.442  -5.414  1.00  0.00    -0.248 NA
ATOM     54  C   UNL     1      -8.864 -11.895  -4.963  1.00  0.00     0.031 C 
ATOM     55  C   UNL     1      -3.749 -14.446  -7.033  1.00  0.00     0.029 A 
ATOM     56  C   UNL     1      -4.659 -13.525  -6.535  1.00  0.00     0.049 A 
ATOM     57  H   UNL     1      -4.376 -11.480  -6.108  1.00  0.00     0.167 HD
ATOM     58  C   UNL     1      -6.879 -12.778  -5.703  1.00  0.00     0.074 A 
ATOM     59  C   UNL     1      -8.273 -13.007  -5.380  1.00  0.00     0.031 C 
ATOM     60  C   UNL     1      -6.044 -13.732  -6.188  1.00  0.00     0.037 A 
BRANCH  47  61
ATOM     61  C   UNL     1      -0.298 -11.746  -7.349  1.00  0.00     0.058 A 
ATOM     62  C   UNL     1       0.815 -11.752  -6.494  1.00  0.00     0.135 A 
ATOM     63  C   UNL     1      -0.086 -12.055  -8.703  1.00  0.00     0.135 A 
ATOM     64  F   UNL     1       0.674 -11.433  -5.198  1.00  0.00    -0.206 F 
ATOM     65  C   UNL     1       2.092 -12.031  -6.968  1.00  0.00     0.059 A 
ATOM     66  C   UNL     1       1.177 -12.368  -9.192  1.00  0.00     0.059 A 
ATOM     67  F   UNL     1      -1.114 -12.050  -9.566  1.00  0.00    -0.206 F 
ATOM     68  C   UNL     1       2.263 -12.341  -8.319  1.00  0.00     0.060 A 
BRANCH  68  69
ATOM     69  S   UNL     1       3.924 -12.714  -8.917  1.00  0.00     0.124 S 
ATOM     70  O   UNL     1       4.553 -11.397  -8.868  1.00  0.00    -0.237 OA
ATOM     71  O   UNL     1       4.399 -13.680  -7.932  1.00  0.00    -0.237 OA
ATOM     72  O   UNL     1       3.693 -13.248 -10.255  1.00  0.00    -0.744 OA
ENDBRANCH  68  69
ENDBRANCH  47  61
BRANCH  48  73
ATOM     73  C   UNL     1      -9.403  -9.163  -4.022  1.00  0.00     0.058 A 
ATOM     74  C   UNL     1      -9.954  -9.706  -2.852  1.00  0.00     0.135 A 
ATOM     75  C   UNL     1     -10.191  -8.261  -4.755  1.00  0.00     0.135 A 
ATOM     76  F   UNL     1      -9.248 -10.585  -2.123  1.00  0.00    -0.206 F 
ATOM     77  C   UNL     1     -11.242  -9.383  -2.434  1.00  0.00     0.059 A 
ATOM     78  C   UNL     1     -11.469  -7.899  -4.341  1.00  0.00     0.059 A 
ATOM     79  F   UNL     1      -9.712  -7.708  -5.880  1.00  0.00    -0.206 F 
ATOM     80  C   UNL     1     -11.991  -8.476  -3.185  1.00  0.00     0.060 A 
BRANCH  80  81
ATOM     81  S   UNL     1     -13.648  -8.038  -2.614  1.00  0.00     0.124 S 
ATOM     82  O   UNL     1     -14.386  -9.266  -2.886  1.00  0.00    -0.237 OA
ATOM     83  O   UNL     1     -13.415  -7.731  -1.207  1.00  0.00    -0.237 OA
ATOM     84  O   UNL     1     -13.999  -6.893  -3.449  1.00  0.00    -0.744 OA
ENDBRANCH  80  81
ENDBRANCH  48  73
BRANCH  60  85
ATOM     85  C   UNL     1      -6.592 -15.124  -6.346  1.00  0.00     0.058 A 
ATOM     86  C   UNL     1      -7.505 -15.454  -7.359  1.00  0.00     0.135 A 
ATOM     87  C   UNL     1      -6.136 -16.158  -5.510  1.00  0.00     0.135 A 
ATOM     88  F   UNL     1      -7.974 -14.503  -8.182  1.00  0.00    -0.206 F 
ATOM     89  C   UNL     1      -7.965 -16.757  -7.524  1.00  0.00     0.059 A 
ATOM     90  C   UNL     1      -6.558 -17.473  -5.678  1.00  0.00     0.059 A 
ATOM     91  F   UNL     1      -5.252 -15.900  -4.534  1.00  0.00    -0.206 F 
ATOM     92  C   UNL     1      -7.482 -17.760  -6.681  1.00  0.00     0.060 A 
BRANCH  92  93
ATOM     93  S   UNL     1      -8.055 -19.453  -6.934  1.00  0.00     0.124 S 
ATOM     94  O   UNL     1      -9.428 -19.375  -6.445  1.00  0.00    -0.237 OA
ATOM     95  O   UNL     1      -7.905 -19.620  -8.377  1.00  0.00    -0.237 OA
ATOM     96  O   UNL     1      -7.142 -20.248  -6.119  1.00  0.00    -0.744 OA
ENDBRANCH  92  93
ENDBRANCH  60  85
ENDBRANCH  34  35
ENDBRANCH  27  29
ENDBRANCH  26  27
ENDBRANCH  25  26
ENDBRANCH  24  25
ENDBRANCH  23  24
ENDBRANCH  22  23
ENDBRANCH   1  22
TORSDOF 26
