REMARK SMILES O=C(OCCOCCOCCOC(=O)c1cc(Cl)ccc1N1C(=O)CC2(CCCC2)C1=O)c1ccc(-c2c3nc(c(-c4c(F)cc(S(=O)(=O)[O-])cc4F)c4ccc([nH]4)c(-c4c(F)cc(S(=O)(=O)[O-])cc4F)c4nc(c(-c5c(F)cc(S(=O)(=O)[O-])cc5F)c5ccc2[nH]5)C=C4)C=C3)cc1
REMARK SMILES IDX 7 1 6 2 5 3 4 4 3 5 2 6 1 7 33 8 34 9 98 10 35 11 97 12
REMARK SMILES IDX 36 13 37 14 38 15 91 16 39 17 96 18 90 19 92 20 40 21 95 22
REMARK SMILES IDX 89 23 88 24 41 26 75 27 54 28 74 29 55 30 58 31 73 32 93 33
REMARK SMILES IDX 56 34 57 35 72 37 94 38 59 39 42 40 43 41 52 42 44 43 45 44
REMARK SMILES IDX 51 45 53 46 46 47 47 48 48 49 49 50 50 51 76 52 77 53 86 54
REMARK SMILES IDX 78 55 79 56 85 57 87 58 80 59 81 60 82 61 83 62 84 63 60 64
REMARK SMILES IDX 61 65 70 66 62 67 63 68 69 69 71 70 64 71 65 72 66 73 67 74
REMARK SMILES IDX 68 75 8 76 9 77 10 78 11 79 12 80 13 81 14 82 15 83 16 84
REMARK SMILES IDX 21 85 17 86 20 87 18 88 19 89 22 90 23 91 31 92 24 93 25 94
REMARK SMILES IDX 26 95 32 96 27 97 30 98 28 99 29 100
REMARK H PARENT 92 25 58 36
REMARK Flexibility Score: inf
ROOT
ATOM      1  C   UNL     1       3.938   1.650   0.790  1.00  0.00     0.188 C 
ENDROOT
BRANCH   1   2
ATOM      2  O   UNL     1       5.306   1.623   0.393  1.00  0.00    -0.376 OA
BRANCH   2   3
ATOM      3  C   UNL     1       5.567   1.711  -1.001  1.00  0.00     0.202 C 
BRANCH   3   4
ATOM      4  C   UNL     1       5.346   0.415  -1.798  1.00  0.00     0.261 C 
BRANCH   4   5
ATOM      5  O   UNL     1       4.032  -0.123  -1.581  1.00  0.00    -0.460 OA
BRANCH   5   6
ATOM      6  C   UNL     1       3.871  -1.445  -1.305  1.00  0.00     0.338 C 
ATOM      7  O   UNL     1       3.180  -2.153  -2.029  1.00  0.00    -0.246 OA
BRANCH   6   8
ATOM      8  C   UNL     1       4.293  -1.925   0.051  1.00  0.00     0.060 A 
ATOM      9  C   UNL     1       5.408  -1.445   0.737  1.00  0.00     0.016 A 
ATOM     10  C   UNL     1       3.517  -2.925   0.663  1.00  0.00     0.016 A 
ATOM     11  C   UNL     1       5.766  -1.966   1.974  1.00  0.00     0.010 A 
ATOM     12  C   UNL     1       3.838  -3.414   1.937  1.00  0.00     0.010 A 
ATOM     13  C   UNL     1       5.007  -2.976   2.568  1.00  0.00    -0.014 A 
BRANCH  13  14
ATOM     14  C   UNL     1       5.648  -3.710   3.683  1.00  0.00     0.031 A 
ATOM     15  C   UNL     1       6.296  -5.030   3.356  1.00  0.00     0.074 A 
ATOM     16  C   UNL     1       5.867  -3.093   4.860  1.00  0.00     0.049 A 
ATOM     17  N   UNL     1       7.146  -5.731   4.056  1.00  0.00    -0.248 NA
ATOM     18  C   UNL     1       5.970  -5.623   2.046  1.00  0.00     0.031 C 
ATOM     19  C   UNL     1       5.335  -1.781   5.237  1.00  0.00     0.029 A 
ATOM     20  N   UNL     1       6.649  -3.454   5.927  1.00  0.00    -0.354 N 
ATOM     21  C   UNL     1       7.480  -6.819   3.258  1.00  0.00     0.074 A 
ATOM     22  C   UNL     1       6.697  -6.727   2.050  1.00  0.00     0.031 C 
ATOM     23  C   UNL     1       5.840  -1.431   6.433  1.00  0.00     0.029 A 
ATOM     24  C   UNL     1       6.711  -2.498   6.915  1.00  0.00     0.049 A 
ATOM     25  H   UNL     1       7.122  -4.316   5.981  1.00  0.00     0.167 HD
ATOM     26  C   UNL     1       8.387  -7.793   3.493  1.00  0.00     0.037 A 
ATOM     27  C   UNL     1       7.407  -2.485   8.069  1.00  0.00     0.037 A 
ATOM     28  C   UNL     1       9.143  -7.888   4.708  1.00  0.00     0.049 A 
ATOM     29  C   UNL     1       8.344  -3.630   8.349  1.00  0.00     0.074 A 
ATOM     30  C   UNL     1      10.021  -8.877   5.106  1.00  0.00     0.029 A 
ATOM     31  N   UNL     1       9.102  -6.946   5.728  1.00  0.00    -0.354 N 
ATOM     32  N   UNL     1       8.627  -4.666   7.592  1.00  0.00    -0.248 NA
ATOM     33  C   UNL     1       9.066  -3.603   9.627  1.00  0.00     0.031 C 
ATOM     34  C   UNL     1      10.487  -8.550   6.385  1.00  0.00     0.029 A 
ATOM     35  C   UNL     1       9.932  -7.335   6.762  1.00  0.00     0.049 A 
ATOM     36  H   UNL     1       8.562  -6.123   5.716  1.00  0.00     0.167 HD
ATOM     37  C   UNL     1       9.563  -5.410   8.300  1.00  0.00     0.074 A 
ATOM     38  C   UNL     1       9.822  -4.688   9.530  1.00  0.00     0.031 C 
ATOM     39  C   UNL     1      10.153  -6.587   7.973  1.00  0.00     0.037 A 
BRANCH  26  40
ATOM     40  C   UNL     1       8.568  -8.827   2.419  1.00  0.00     0.058 A 
ATOM     41  C   UNL     1       9.230  -8.526   1.216  1.00  0.00     0.135 A 
ATOM     42  C   UNL     1       8.037 -10.116   2.570  1.00  0.00     0.135 A 
ATOM     43  F   UNL     1       9.723  -7.295   1.004  1.00  0.00    -0.206 F 
ATOM     44  C   UNL     1       9.335  -9.461   0.191  1.00  0.00     0.059 A 
ATOM     45  C   UNL     1       8.150 -11.074   1.567  1.00  0.00     0.059 A 
ATOM     46  F   UNL     1       7.379 -10.448   3.692  1.00  0.00    -0.206 F 
ATOM     47  C   UNL     1       8.788 -10.732   0.374  1.00  0.00     0.060 A 
BRANCH  47  48
ATOM     48  S   UNL     1       8.918 -11.930  -0.970  1.00  0.00     0.124 S 
ATOM     49  O   UNL     1       7.961 -11.393  -1.933  1.00  0.00    -0.237 OA
ATOM     50  O   UNL     1      10.323 -11.823  -1.348  1.00  0.00    -0.237 OA
ATOM     51  O   UNL     1       8.535 -13.190  -0.341  1.00  0.00    -0.744 OA
ENDBRANCH  47  48
ENDBRANCH  26  40
BRANCH  27  52
ATOM     52  C   UNL     1       7.226  -1.381   9.053  1.00  0.00     0.058 A 
ATOM     53  C   UNL     1       8.250  -0.470   9.353  1.00  0.00     0.135 A 
ATOM     54  C   UNL     1       6.012  -1.242   9.747  1.00  0.00     0.135 A 
ATOM     55  F   UNL     1       9.435  -0.564   8.730  1.00  0.00    -0.206 F 
ATOM     56  C   UNL     1       8.087   0.523  10.317  1.00  0.00     0.059 A 
ATOM     57  C   UNL     1       5.816  -0.242  10.695  1.00  0.00     0.059 A 
ATOM     58  F   UNL     1       4.999  -2.087   9.501  1.00  0.00    -0.206 F 
ATOM     59  C   UNL     1       6.865   0.627  10.986  1.00  0.00     0.060 A 
BRANCH  59  60
ATOM     60  S   UNL     1       6.649   1.929  12.221  1.00  0.00     0.124 S 
ATOM     61  O   UNL     1       7.384   1.382  13.355  1.00  0.00    -0.237 OA
ATOM     62  O   UNL     1       7.257   3.083  11.565  1.00  0.00    -0.237 OA
ATOM     63  O   UNL     1       5.200   2.003  12.382  1.00  0.00    -0.744 OA
ENDBRANCH  59  60
ENDBRANCH  27  52
BRANCH  39  64
ATOM     64  C   UNL     1      11.127  -7.155   8.963  1.00  0.00     0.058 A 
ATOM     65  C   UNL     1      10.692  -7.739  10.162  1.00  0.00     0.135 A 
ATOM     66  C   UNL     1      12.503  -7.156   8.686  1.00  0.00     0.135 A 
ATOM     67  F   UNL     1       9.385  -7.759  10.469  1.00  0.00    -0.206 F 
ATOM     68  C   UNL     1      11.593  -8.278  11.071  1.00  0.00     0.059 A 
ATOM     69  C   UNL     1      13.419  -7.715   9.568  1.00  0.00     0.059 A 
ATOM     70  F   UNL     1      12.964  -6.622   7.543  1.00  0.00    -0.206 F 
ATOM     71  C   UNL     1      12.955  -8.260  10.765  1.00  0.00     0.060 A 
BRANCH  71  72
ATOM     72  S   UNL     1      14.116  -8.982  11.943  1.00  0.00     0.124 S 
ATOM     73  O   UNL     1      14.180  -7.941  12.964  1.00  0.00    -0.237 OA
ATOM     74  O   UNL     1      13.439 -10.215  12.335  1.00  0.00    -0.237 OA
ATOM     75  O   UNL     1      15.329  -9.165  11.153  1.00  0.00    -0.744 OA
ENDBRANCH  71  72
ENDBRANCH  39  64
ENDBRANCH  13  14
ENDBRANCH   6   8
ENDBRANCH   5   6
ENDBRANCH   4   5
ENDBRANCH   3   4
ENDBRANCH   2   3
ENDBRANCH   1   2
BRANCH   1  76
ATOM     76  C   UNL     1       3.112   2.892   0.418  1.00  0.00     0.188 C 
BRANCH  76  77
ATOM     77  O   UNL     1       3.608   4.199   0.669  1.00  0.00    -0.376 OA
BRANCH  77  78
ATOM     78  C   UNL     1       4.681   4.362   1.580  1.00  0.00     0.202 C 
BRANCH  78  79
ATOM     79  C   UNL     1       4.330   4.315   3.069  1.00  0.00     0.261 C 
BRANCH  79  80
ATOM     80  O   UNL     1       3.792   3.070   3.545  1.00  0.00    -0.460 OA
BRANCH  80  81
ATOM     81  C   UNL     1       2.444   2.977   3.659  1.00  0.00     0.340 C 
ATOM     82  O   UNL     1       1.609   3.764   3.237  1.00  0.00    -0.246 OA
BRANCH  81  83
ATOM     83  C   UNL     1       2.110   1.759   4.421  1.00  0.00     0.085 A 
ATOM     84  C   UNL     1       2.709   1.629   5.688  1.00  0.00     0.038 A 
ATOM     85  C   UNL     1       1.174   0.804   3.983  1.00  0.00     0.066 A 
ATOM     86  C   UNL     1       2.383   0.552   6.507  1.00  0.00     0.042 A 
ATOM     87  C   UNL     1       0.895  -0.298   4.813  1.00  0.00     0.029 A 
ATOM     88  Cl  UNL     1       3.047   0.446   8.086  1.00  0.00    -0.084 Cl
ATOM     89  C   UNL     1       1.494  -0.422   6.068  1.00  0.00     0.023 A 
BRANCH  85  90
ATOM     90  N   UNL     1       0.553   0.825   2.705  1.00  0.00    -0.249 N 
ATOM     91  C   UNL     1      -0.786   1.077   2.553  1.00  0.00     0.234 C 
ATOM     92  C   UNL     1       1.001  -0.001   1.710  1.00  0.00     0.240 C 
ATOM     93  O   UNL     1      -1.554   1.550   3.380  1.00  0.00    -0.274 OA
ATOM     94  C   UNL     1      -1.253   0.524   1.225  1.00  0.00     0.118 C 
ATOM     95  C   UNL     1       0.008  -0.021   0.564  1.00  0.00     0.059 C 
ATOM     96  O   UNL     1       2.027  -0.660   1.746  1.00  0.00    -0.273 OA
ATOM     97  C   UNL     1      -0.152  -1.420  -0.046  1.00  0.00     0.017 C 
ATOM     98  C   UNL     1       0.495   0.825  -0.613  1.00  0.00     0.017 C 
ATOM     99  C   UNL     1      -0.429  -1.230  -1.535  1.00  0.00     0.001 C 
ATOM    100  C   UNL     1      -0.135   0.226  -1.860  1.00  0.00     0.001 C 
ENDBRANCH  85  90
ENDBRANCH  81  83
ENDBRANCH  80  81
ENDBRANCH  79  80
ENDBRANCH  78  79
ENDBRANCH  77  78
ENDBRANCH  76  77
ENDBRANCH   1  76
TORSDOF 21
