REMARK SMILES C[C@H]1[C@@H](C(=O)OCCOCCOCCOC(=O)c2ccc(-c3c4nc(c(-c5c(F)cc(S(=O)(=O)[O-])cc5F)c5ccc([nH]5)c(-c5c(F)cc(S(=O)(=O)[O-])cc5F)c5nc(c(-c6c(F)cc(S(=O)(=O)[O-])cc6F)c6ccc3[nH]6)C=C5)C=C4)cc2)CC[N@@H+]1Cc1cc(F)c(F)c(F)c1
REMARK SMILES IDX 11 1 10 2 9 3 8 4 7 5 6 6 4 7 5 8 3 9 1 10 2 11 86 12 84 13
REMARK SMILES IDX 85 14 87 16 88 17 89 18 96 19 90 20 94 21 91 22 92 23 95 24
REMARK SMILES IDX 93 25 12 26 13 27 14 28 15 29 16 30 17 31 18 32 19 33 83 34
REMARK SMILES IDX 20 35 82 36 21 37 22 38 23 39 76 40 24 41 81 42 75 43 77 44
REMARK SMILES IDX 25 45 80 46 74 47 73 48 26 50 60 51 39 52 59 53 40 54 43 55
REMARK SMILES IDX 58 56 78 57 41 58 42 59 57 61 79 62 44 63 27 64 28 65 37 66
REMARK SMILES IDX 29 67 30 68 36 69 38 70 31 71 32 72 33 73 34 74 35 75 61 76
REMARK SMILES IDX 62 77 71 78 63 79 64 80 70 81 72 82 65 83 66 84 67 85 68 86
REMARK SMILES IDX 69 87 45 88 46 89 55 90 47 91 48 92 54 93 56 94 49 95 50 96
REMARK SMILES IDX 51 97 52 98 53 99
REMARK H PARENT 86 15 77 49 43 60
REMARK Flexibility Score: inf
ROOT
ATOM      1  C   UNL     1       0.310   0.333  -3.114  1.00  0.00     0.188 C 
ENDROOT
BRANCH   1   2
ATOM      2  C   UNL     1      -0.269   1.694  -3.535  1.00  0.00     0.188 C 
BRANCH   2   3
ATOM      3  O   UNL     1       0.557   2.615  -4.219  1.00  0.00    -0.376 OA
BRANCH   3   4
ATOM      4  C   UNL     1       1.859   2.855  -3.706  1.00  0.00     0.202 C 
BRANCH   4   5
ATOM      5  C   UNL     1       2.007   3.243  -2.227  1.00  0.00     0.261 C 
BRANCH   5   6
ATOM      6  O   UNL     1       1.589   2.206  -1.306  1.00  0.00    -0.463 OA
BRANCH   6   7
ATOM      7  C   UNL     1       0.839   2.596  -0.245  1.00  0.00     0.315 C 
ATOM      8  O   UNL     1       0.554   3.769  -0.019  1.00  0.00    -0.252 OA
BRANCH   7   9
ATOM      9  C   UNL     1       0.254   1.472   0.613  1.00  0.00     0.162 C 
ATOM     10  C   UNL     1       2.286  -0.151   0.226  1.00  0.00     0.076 C 
ATOM     11  C   UNL     1       1.005   0.181   0.984  1.00  0.00     0.195 C 
ATOM     12  N   UNL     1       0.044  -0.930   0.823  1.00  0.00    -0.328 N 
ATOM     13  C   UNL     1      -1.129   1.028   0.133  1.00  0.00     0.083 C 
ATOM     14  C   UNL     1      -1.053  -0.480  -0.017  1.00  0.00     0.263 C 
ATOM     15  H   UNL     1       0.556  -1.679   0.356  1.00  0.00     0.348 HD
BRANCH  12  16
ATOM     16  C   UNL     1      -0.370  -1.656   2.026  1.00  0.00     0.299 C 
BRANCH  16  17
ATOM     17  C   UNL     1      -1.166  -0.868   3.045  1.00  0.00     0.012 A 
ATOM     18  C   UNL     1      -0.542  -0.377   4.200  1.00  0.00     0.052 A 
ATOM     19  C   UNL     1      -2.531  -0.589   2.854  1.00  0.00     0.052 A 
ATOM     20  C   UNL     1      -1.253   0.418   5.097  1.00  0.00     0.162 A 
ATOM     21  C   UNL     1      -3.215   0.240   3.740  1.00  0.00     0.162 A 
ATOM     22  F   UNL     1      -0.631   0.872   6.194  1.00  0.00    -0.204 F 
ATOM     23  C   UNL     1      -2.579   0.749   4.860  1.00  0.00     0.194 A 
ATOM     24  F   UNL     1      -4.493   0.550   3.486  1.00  0.00    -0.204 F 
ATOM     25  F   UNL     1      -3.239   1.549   5.708  1.00  0.00    -0.200 F 
ENDBRANCH  16  17
ENDBRANCH  12  16
ENDBRANCH   7   9
ENDBRANCH   6   7
ENDBRANCH   5   6
ENDBRANCH   4   5
ENDBRANCH   3   4
ENDBRANCH   2   3
ENDBRANCH   1   2
BRANCH   1  26
ATOM     26  O   UNL     1       1.470  -0.216  -3.697  1.00  0.00    -0.376 OA
BRANCH  26  27
ATOM     27  C   UNL     1       1.524  -0.397  -5.096  1.00  0.00     0.202 C 
BRANCH  27  28
ATOM     28  C   UNL     1       0.369  -1.082  -5.838  1.00  0.00     0.261 C 
BRANCH  28  29
ATOM     29  O   UNL     1      -0.946  -0.598  -5.530  1.00  0.00    -0.460 OA
BRANCH  29  30
ATOM     30  C   UNL     1      -1.735  -1.453  -4.833  1.00  0.00     0.338 C 
ATOM     31  O   UNL     1      -1.429  -2.559  -4.399  1.00  0.00    -0.246 OA
BRANCH  30  32
ATOM     32  C   UNL     1      -3.005  -0.786  -4.504  1.00  0.00     0.060 A 
ATOM     33  C   UNL     1      -3.358  -0.598  -3.159  1.00  0.00     0.016 A 
ATOM     34  C   UNL     1      -3.870  -0.399  -5.524  1.00  0.00     0.016 A 
ATOM     35  C   UNL     1      -4.586  -0.024  -2.827  1.00  0.00     0.010 A 
ATOM     36  C   UNL     1      -5.109   0.150  -5.191  1.00  0.00     0.010 A 
ATOM     37  C   UNL     1      -5.482   0.321  -3.844  1.00  0.00    -0.014 A 
BRANCH  37  38
ATOM     38  C   UNL     1      -6.883   0.701  -3.544  1.00  0.00     0.031 A 
ATOM     39  C   UNL     1      -7.952  -0.337  -3.735  1.00  0.00     0.074 A 
ATOM     40  C   UNL     1      -7.206   1.955  -3.183  1.00  0.00     0.049 A 
ATOM     41  N   UNL     1      -9.248  -0.193  -3.791  1.00  0.00    -0.248 NA
ATOM     42  C   UNL     1      -7.489  -1.726  -3.898  1.00  0.00     0.031 C 
ATOM     43  C   UNL     1      -6.254   3.025  -2.894  1.00  0.00     0.029 A 
ATOM     44  N   UNL     1      -8.436   2.547  -3.035  1.00  0.00    -0.354 N 
ATOM     45  C   UNL     1      -9.757  -1.464  -4.030  1.00  0.00     0.074 A 
ATOM     46  C   UNL     1      -8.629  -2.365  -4.116  1.00  0.00     0.031 C 
ATOM     47  C   UNL     1      -6.935   4.156  -2.639  1.00  0.00     0.029 A 
ATOM     48  C   UNL     1      -8.366   3.902  -2.806  1.00  0.00     0.049 A 
ATOM     49  H   UNL     1      -9.285   2.051  -3.087  1.00  0.00     0.167 HD
ATOM     50  C   UNL     1     -11.050  -1.838  -4.175  1.00  0.00     0.037 A 
ATOM     51  C   UNL     1      -9.340   4.835  -2.790  1.00  0.00     0.037 A 
ATOM     52  C   UNL     1     -12.159  -0.926  -4.088  1.00  0.00     0.049 A 
ATOM     53  C   UNL     1     -10.768   4.413  -3.043  1.00  0.00     0.074 A 
ATOM     54  C   UNL     1     -13.509  -1.200  -4.217  1.00  0.00     0.029 A 
ATOM     55  N   UNL     1     -12.046   0.438  -3.858  1.00  0.00    -0.354 N 
ATOM     56  N   UNL     1     -11.243   3.214  -3.286  1.00  0.00    -0.248 NA
ATOM     57  C   UNL     1     -11.792   5.469  -3.030  1.00  0.00     0.031 C 
ATOM     58  C   UNL     1     -14.208   0.006  -4.124  1.00  0.00     0.029 A 
ATOM     59  C   UNL     1     -13.301   1.022  -3.864  1.00  0.00     0.049 A 
ATOM     60  H   UNL     1     -11.200   0.918  -3.713  1.00  0.00     0.167 HD
ATOM     61  C   UNL     1     -12.622   3.365  -3.408  1.00  0.00     0.074 A 
ATOM     62  C   UNL     1     -12.905   4.773  -3.223  1.00  0.00     0.031 C 
ATOM     63  C   UNL     1     -13.567   2.422  -3.643  1.00  0.00     0.037 A 
BRANCH  50  64
ATOM     64  C   UNL     1     -11.331  -3.282  -4.488  1.00  0.00     0.058 A 
ATOM     65  C   UNL     1     -11.139  -4.300  -3.542  1.00  0.00     0.135 A 
ATOM     66  C   UNL     1     -11.832  -3.647  -5.749  1.00  0.00     0.135 A 
ATOM     67  F   UNL     1     -10.643  -4.012  -2.328  1.00  0.00    -0.206 F 
ATOM     68  C   UNL     1     -11.408  -5.632  -3.842  1.00  0.00     0.059 A 
ATOM     69  C   UNL     1     -12.138  -4.967  -6.061  1.00  0.00     0.059 A 
ATOM     70  F   UNL     1     -12.030  -2.714  -6.694  1.00  0.00    -0.206 F 
ATOM     71  C   UNL     1     -11.909  -5.955  -5.105  1.00  0.00     0.060 A 
BRANCH  71  72
ATOM     72  S   UNL     1     -12.256  -7.686  -5.477  1.00  0.00     0.124 S 
ATOM     73  O   UNL     1     -10.909  -8.241  -5.565  1.00  0.00    -0.237 OA
ATOM     74  O   UNL     1     -13.037  -8.103  -4.317  1.00  0.00    -0.237 OA
ATOM     75  O   UNL     1     -12.992  -7.625  -6.736  1.00  0.00    -0.744 OA
ENDBRANCH  71  72
ENDBRANCH  50  64
BRANCH  51  76
ATOM     76  C   UNL     1      -9.000   6.267  -2.562  1.00  0.00     0.058 A 
ATOM     77  C   UNL     1      -9.409   6.931  -1.396  1.00  0.00     0.135 A 
ATOM     78  C   UNL     1      -8.261   7.002  -3.504  1.00  0.00     0.135 A 
ATOM     79  F   UNL     1     -10.130   6.278  -0.471  1.00  0.00    -0.206 F 
ATOM     80  C   UNL     1      -9.112   8.272  -1.177  1.00  0.00     0.059 A 
ATOM     81  C   UNL     1      -7.926   8.336  -3.294  1.00  0.00     0.059 A 
ATOM     82  F   UNL     1      -7.839   6.415  -4.635  1.00  0.00    -0.206 F 
ATOM     83  C   UNL     1      -8.365   8.966  -2.130  1.00  0.00     0.060 A 
BRANCH  83  84
ATOM     84  S   UNL     1      -7.950  10.695  -1.814  1.00  0.00     0.124 S 
ATOM     85  O   UNL     1      -9.248  11.342  -1.966  1.00  0.00    -0.237 OA
ATOM     86  O   UNL     1      -7.421  10.638  -0.455  1.00  0.00    -0.237 OA
ATOM     87  O   UNL     1      -6.968  11.000  -2.850  1.00  0.00    -0.744 OA
ENDBRANCH  83  84
ENDBRANCH  51  76
BRANCH  63  88
ATOM     88  C   UNL     1     -15.012   2.845  -3.640  1.00  0.00     0.058 A 
ATOM     89  C   UNL     1     -15.585   3.551  -4.707  1.00  0.00     0.135 A 
ATOM     90  C   UNL     1     -15.861   2.418  -2.603  1.00  0.00     0.135 A 
ATOM     91  F   UNL     1     -14.818   3.989  -5.718  1.00  0.00    -0.206 F 
ATOM     92  C   UNL     1     -16.951   3.814  -4.750  1.00  0.00     0.059 A 
ATOM     93  C   UNL     1     -17.232   2.645  -2.640  1.00  0.00     0.059 A 
ATOM     94  F   UNL     1     -15.363   1.731  -1.562  1.00  0.00    -0.206 F 
ATOM     95  C   UNL     1     -17.769   3.344  -3.720  1.00  0.00     0.060 A 
BRANCH  95  96
ATOM     96  S   UNL     1     -19.551   3.609  -3.838  1.00  0.00     0.124 S 
ATOM     97  O   UNL     1     -19.653   5.046  -3.604  1.00  0.00    -0.237 OA
ATOM     98  O   UNL     1     -19.841   3.167  -5.199  1.00  0.00    -0.237 OA
ATOM     99  O   UNL     1     -20.094   2.761  -2.781  1.00  0.00    -0.744 OA
ENDBRANCH  95  96
ENDBRANCH  63  88
ENDBRANCH  37  38
ENDBRANCH  30  32
ENDBRANCH  29  30
ENDBRANCH  28  29
ENDBRANCH  27  28
ENDBRANCH  26  27
ENDBRANCH   1  26
TORSDOF 22
