REMARK SMILES CC[C@](C)([NH3+])C(=O)Nc1ccc(C(F)(F)F)cc1C(=O)OCCOCCOCCOC(=O)c1ccc(-c2c3nc(c(-c4c(F)cc(S(=O)(=O)[O-])cc4F)c4ccc([nH]4)c(-c4c(F)cc(S(=O)(=O)[O-])cc4F)c4nc(c(-c5c(F)cc(S(=O)(=O)[O-])cc5F)c5ccc2[nH]5)C=C4)C=C3)cc1
REMARK SMILES IDX 25 1 24 2 23 3 22 4 21 5 19 6 20 7 18 8 9 9 10 10 11 11
REMARK SMILES IDX 17 12 12 13 8 14 6 15 7 16 3 18 4 19 2 20 1 21 5 22 13 26
REMARK SMILES IDX 14 27 15 28 16 29 26 30 27 31 28 32 29 33 30 34 31 35 32 36
REMARK SMILES IDX 33 37 34 38 98 39 35 40 97 41 36 42 37 43 38 44 91 45 39 46
REMARK SMILES IDX 96 47 90 48 92 49 40 50 95 51 89 52 88 53 41 55 75 56 54 57
REMARK SMILES IDX 74 58 55 59 58 60 73 61 93 62 56 63 57 64 72 66 94 67 59 68
REMARK SMILES IDX 42 69 43 70 52 71 44 72 45 73 51 74 53 75 46 76 47 77 48 78
REMARK SMILES IDX 49 79 50 80 76 81 77 82 86 83 78 84 79 85 85 86 87 87 80 88
REMARK SMILES IDX 81 89 82 90 83 91 84 92 60 93 61 94 70 95 62 96 63 97 69 98
REMARK SMILES IDX 71 99 64 100 65 101 66 102 67 103 68 104
REMARK H PARENT 8 17 5 23 5 24 5 25 92 54 58 65
REMARK Flexibility Score: inf
ROOT
ATOM      1  C   UNL     1       1.045  -5.588  -3.558  1.00  0.00     0.188 C 
ENDROOT
BRANCH   1   2
ATOM      2  O   UNL     1       0.804  -4.379  -4.262  1.00  0.00    -0.376 OA
BRANCH   2   3
ATOM      3  C   UNL     1      -0.122  -3.503  -3.639  1.00  0.00     0.202 C 
BRANCH   3   4
ATOM      4  C   UNL     1       0.475  -2.787  -2.439  1.00  0.00     0.261 C 
BRANCH   4   5
ATOM      5  O   UNL     1       0.898  -3.639  -1.358  1.00  0.00    -0.460 OA
BRANCH   5   6
ATOM      6  C   UNL     1       0.032  -4.416  -0.678  1.00  0.00     0.340 C 
ATOM      7  O   UNL     1      -1.136  -4.608  -0.964  1.00  0.00    -0.246 OA
BRANCH   6   8
ATOM      8  C   UNL     1       0.719  -5.018   0.505  1.00  0.00     0.084 A 
ATOM      9  C   UNL     1       1.819  -4.426   1.154  1.00  0.00     0.056 A 
ATOM     10  C   UNL     1       2.562  -5.191   2.066  1.00  0.00     0.027 A 
ATOM     11  C   UNL     1       2.153  -6.472   2.433  1.00  0.00     0.015 A 
ATOM     12  C   UNL     1       0.300  -6.308   0.891  1.00  0.00     0.031 A 
ATOM     13  C   UNL     1       1.004  -7.038   1.867  1.00  0.00     0.057 A 
BRANCH   9  14
ATOM     14  N   UNL     1       2.347  -3.154   0.893  1.00  0.00    -0.320 N 
ATOM     15  C   UNL     1       1.787  -1.944   0.600  1.00  0.00     0.285 C 
ATOM     16  O   UNL     1       2.526  -1.158  -0.012  1.00  0.00    -0.267 OA
ATOM     17  H   UNL     1       3.330  -3.128   0.929  1.00  0.00     0.170 HD
BRANCH  15  18
ATOM     18  C   UNL     1       0.428  -1.444   1.205  1.00  0.00     0.171 C 
ATOM     19  C   UNL     1       0.160  -0.038   0.632  1.00  0.00     0.090 C 
BRANCH  18  20
ATOM     20  C   UNL     1       0.478  -1.456   2.744  1.00  0.00     0.075 C 
ATOM     21  C   UNL     1       1.673  -0.750   3.361  1.00  0.00     0.011 C 
ENDBRANCH  18  20
BRANCH  18  22
ATOM     22  N   UNL     1      -0.779  -2.201   0.861  1.00  0.00    -0.345 N 
ATOM     23  H   UNL     1      -0.881  -2.236  -0.154  1.00  0.00     0.345 HD
ATOM     24  H   UNL     1      -1.595  -1.744   1.268  1.00  0.00     0.345 HD
ATOM     25  H   UNL     1      -0.702  -3.149   1.228  1.00  0.00     0.345 HD
ENDBRANCH  18  22
ENDBRANCH  15  18
ENDBRANCH   9  14
BRANCH  13  26
ATOM     26  C   UNL     1       0.556  -8.410   2.324  1.00  0.00     0.416 C 
ATOM     27  F   UNL     1       1.573  -9.315   2.299  1.00  0.00    -0.166 F 
ATOM     28  F   UNL     1       0.102  -8.393   3.607  1.00  0.00    -0.166 F 
ATOM     29  F   UNL     1      -0.439  -8.935   1.567  1.00  0.00    -0.166 F 
ENDBRANCH  13  26
ENDBRANCH   6   8
ENDBRANCH   5   6
ENDBRANCH   4   5
ENDBRANCH   3   4
ENDBRANCH   2   3
ENDBRANCH   1   2
BRANCH   1  30
ATOM     30  C   UNL     1       2.407  -5.660  -2.828  1.00  0.00     0.188 C 
BRANCH  30  31
ATOM     31  O   UNL     1       3.500  -4.840  -3.214  1.00  0.00    -0.376 OA
BRANCH  31  32
ATOM     32  C   UNL     1       3.666  -4.511  -4.583  1.00  0.00     0.202 C 
BRANCH  32  33
ATOM     33  C   UNL     1       3.895  -5.652  -5.588  1.00  0.00     0.261 C 
BRANCH  33  34
ATOM     34  O   UNL     1       2.956  -6.737  -5.500  1.00  0.00    -0.460 OA
BRANCH  34  35
ATOM     35  C   UNL     1       3.407  -7.871  -4.904  1.00  0.00     0.338 C 
ATOM     36  O   UNL     1       4.549  -8.095  -4.534  1.00  0.00    -0.246 OA
BRANCH  35  37
ATOM     37  C   UNL     1       2.253  -8.731  -4.531  1.00  0.00     0.060 A 
ATOM     38  C   UNL     1       2.181  -9.199  -3.208  1.00  0.00     0.016 A 
ATOM     39  C   UNL     1       1.239  -9.049  -5.437  1.00  0.00     0.016 A 
ATOM     40  C   UNL     1       1.116 -10.001  -2.794  1.00  0.00     0.010 A 
ATOM     41  C   UNL     1       0.190  -9.888  -5.033  1.00  0.00     0.010 A 
ATOM     42  C   UNL     1       0.144 -10.396  -3.720  1.00  0.00    -0.014 A 
BRANCH  42  43
ATOM     43  C   UNL     1      -0.727 -11.558  -3.404  1.00  0.00     0.031 A 
ATOM     44  C   UNL     1      -0.224 -12.923  -3.802  1.00  0.00     0.074 A 
ATOM     45  C   UNL     1      -1.903 -11.436  -2.762  1.00  0.00     0.049 A 
ATOM     46  N   UNL     1      -0.806 -14.089  -3.700  1.00  0.00    -0.248 NA
ATOM     47  C   UNL     1       1.123 -12.973  -4.396  1.00  0.00     0.031 C 
ATOM     48  C   UNL     1      -2.477 -10.188  -2.265  1.00  0.00     0.029 A 
ATOM     49  N   UNL     1      -2.833 -12.390  -2.425  1.00  0.00    -0.354 N 
ATOM     50  C   UNL     1       0.101 -15.007  -4.216  1.00  0.00     0.074 A 
ATOM     51  C   UNL     1       1.258 -14.263  -4.658  1.00  0.00     0.031 C 
ATOM     52  C   UNL     1      -3.671 -10.452  -1.700  1.00  0.00     0.029 A 
ATOM     53  C   UNL     1      -3.959 -11.881  -1.823  1.00  0.00     0.049 A 
ATOM     54  H   UNL     1      -2.704 -13.351  -2.599  1.00  0.00     0.167 HD
ATOM     55  C   UNL     1      -0.012 -16.352  -4.309  1.00  0.00     0.037 A 
ATOM     56  C   UNL     1      -5.097 -12.497  -1.438  1.00  0.00     0.037 A 
ATOM     57  C   UNL     1      -1.166 -17.096  -3.884  1.00  0.00     0.049 A 
ATOM     58  C   UNL     1      -5.242 -13.988  -1.642  1.00  0.00     0.074 A 
ATOM     59  C   UNL     1      -1.382 -18.461  -3.951  1.00  0.00     0.029 A 
ATOM     60  N   UNL     1      -2.300 -16.538  -3.317  1.00  0.00    -0.354 N 
ATOM     61  N   UNL     1      -4.378 -14.845  -2.132  1.00  0.00    -0.248 NA
ATOM     62  C   UNL     1      -6.522 -14.595  -1.243  1.00  0.00     0.031 C 
ATOM     63  C   UNL     1      -2.666 -18.724  -3.464  1.00  0.00     0.029 A 
ATOM     64  C   UNL     1      -3.228 -17.528  -3.046  1.00  0.00     0.049 A 
ATOM     65  H   UNL     1      -2.427 -15.579  -3.134  1.00  0.00     0.167 HD
ATOM     66  C   UNL     1      -4.995 -16.092  -2.065  1.00  0.00     0.074 A 
ATOM     67  C   UNL     1      -6.303 -15.880  -1.484  1.00  0.00     0.031 C 
ATOM     68  C   UNL     1      -4.521 -17.305  -2.448  1.00  0.00     0.037 A 
BRANCH  55  69
ATOM     69  C   UNL     1       1.138 -17.099  -4.921  1.00  0.00     0.058 A 
ATOM     70  C   UNL     1       2.353 -17.266  -4.238  1.00  0.00     0.135 A 
ATOM     71  C   UNL     1       1.020 -17.666  -6.200  1.00  0.00     0.135 A 
ATOM     72  F   UNL     1       2.527 -16.719  -3.024  1.00  0.00    -0.206 F 
ATOM     73  C   UNL     1       3.419 -17.951  -4.810  1.00  0.00     0.059 A 
ATOM     74  C   UNL     1       2.064 -18.378  -6.781  1.00  0.00     0.059 A 
ATOM     75  F   UNL     1      -0.118 -17.526  -6.898  1.00  0.00    -0.206 F 
ATOM     76  C   UNL     1       3.264 -18.504  -6.083  1.00  0.00     0.060 A 
BRANCH  76  77
ATOM     77  S   UNL     1       4.654 -19.397  -6.809  1.00  0.00     0.124 S 
ATOM     78  O   UNL     1       5.560 -18.303  -7.143  1.00  0.00    -0.237 OA
ATOM     79  O   UNL     1       5.079 -20.259  -5.710  1.00  0.00    -0.237 OA
ATOM     80  O   UNL     1       4.057 -20.088  -7.948  1.00  0.00    -0.744 OA
ENDBRANCH  76  77
ENDBRANCH  55  69
BRANCH  56  81
ATOM     81  C   UNL     1      -6.215 -11.716  -0.839  1.00  0.00     0.058 A 
ATOM     82  C   UNL     1      -6.586 -11.892   0.503  1.00  0.00     0.135 A 
ATOM     83  C   UNL     1      -6.965 -10.811  -1.607  1.00  0.00     0.135 A 
ATOM     84  F   UNL     1      -5.914 -12.759   1.276  1.00  0.00    -0.206 F 
ATOM     85  C   UNL     1      -7.671 -11.218   1.057  1.00  0.00     0.059 A 
ATOM     86  C   UNL     1      -8.038 -10.106  -1.070  1.00  0.00     0.059 A 
ATOM     87  F   UNL     1      -6.653 -10.604  -2.896  1.00  0.00    -0.206 F 
ATOM     88  C   UNL     1      -8.393 -10.327   0.261  1.00  0.00     0.060 A 
BRANCH  88  89
ATOM     89  S   UNL     1      -9.782  -9.436   0.995  1.00  0.00     0.124 S 
ATOM     90  O   UNL     1     -10.788 -10.487   1.090  1.00  0.00    -0.237 OA
ATOM     91  O   UNL     1      -9.218  -8.975   2.260  1.00  0.00    -0.237 OA
ATOM     92  O   UNL     1     -10.058  -8.384   0.021  1.00  0.00    -0.744 OA
ENDBRANCH  88  89
ENDBRANCH  56  81
BRANCH  68  93
ATOM     93  C   UNL     1      -5.391 -18.509  -2.208  1.00  0.00     0.058 A 
ATOM     94  C   UNL     1      -6.529 -18.767  -2.986  1.00  0.00     0.135 A 
ATOM     95  C   UNL     1      -5.039 -19.453  -1.229  1.00  0.00     0.135 A 
ATOM     96  F   UNL     1      -6.912 -17.897  -3.934  1.00  0.00    -0.206 F 
ATOM     97  C   UNL     1      -7.300 -19.909  -2.790  1.00  0.00     0.059 A 
ATOM     98  C   UNL     1      -5.779 -20.615  -1.033  1.00  0.00     0.059 A 
ATOM     99  F   UNL     1      -3.951 -19.262  -0.466  1.00  0.00    -0.206 F 
ATOM    100  C   UNL     1      -6.915 -20.829  -1.811  1.00  0.00     0.060 A 
BRANCH 100 101
ATOM    101  S   UNL     1      -7.901 -22.326  -1.592  1.00  0.00     0.124 S 
ATOM    102  O   UNL     1      -9.081 -21.804  -0.910  1.00  0.00    -0.237 OA
ATOM    103  O   UNL     1      -8.108 -22.770  -2.967  1.00  0.00    -0.237 OA
ATOM    104  O   UNL     1      -7.039 -23.186  -0.786  1.00  0.00    -0.744 OA
ENDBRANCH 100 101
ENDBRANCH  68  93
ENDBRANCH  42  43
ENDBRANCH  35  37
ENDBRANCH  34  35
ENDBRANCH  33  34
ENDBRANCH  32  33
ENDBRANCH  31  32
ENDBRANCH  30  31
ENDBRANCH   1  30
TORSDOF 25
