REMARK SMILES CCCc1cc(OCC(=O)OCCOCCOCCOC(=O)c2ccc(-c3c4nc(c(-c5c(F)cc(S(=O)(=O)[O-])cc5F)c5ccc([nH]5)c(-c5c(F)cc(S(=O)(=O)[O-])cc5F)c5nc(c(-c6c(F)cc(S(=O)(=O)[O-])cc6F)c6ccc3[nH]6)C=C5)C=C4)cc2)nc(Nc2ccc(C#N)cc2)n1
REMARK SMILES IDX 15 1 14 2 13 3 12 4 11 5 9 6 10 7 8 8 7 9 6 10 4 11 5 12
REMARK SMILES IDX 100 13 90 14 89 15 3 16 2 17 1 18 91 19 92 21 93 22 99 23
REMARK SMILES IDX 94 24 98 25 95 26 96 27 97 28 16 29 17 30 18 31 19 32 20 33
REMARK SMILES IDX 21 34 22 35 23 36 24 37 88 38 25 39 87 40 26 41 27 42 28 43
REMARK SMILES IDX 81 44 29 45 86 46 80 47 82 48 30 49 85 50 79 51 78 52 31 54
REMARK SMILES IDX 65 55 44 56 64 57 45 58 48 59 63 60 83 61 46 62 47 63 62 65
REMARK SMILES IDX 84 66 49 67 32 68 33 69 42 70 34 71 35 72 41 73 43 74 36 75
REMARK SMILES IDX 37 76 38 77 39 78 40 79 66 80 67 81 76 82 68 83 69 84 75 85
REMARK SMILES IDX 77 86 70 87 71 88 72 89 73 90 74 91 50 92 51 93 60 94 52 95
REMARK SMILES IDX 53 96 59 97 61 98 54 99 55 100 56 101 57 102 58 103
REMARK H PARENT 91 20 82 53 48 64
REMARK Flexibility Score: inf
ROOT
ATOM      1  C   UNL     1       0.675  -3.223  -4.981  1.00  0.00     0.188 C 
ENDROOT
BRANCH   1   2
ATOM      2  O   UNL     1       0.510  -3.284  -6.381  1.00  0.00    -0.376 OA
BRANCH   2   3
ATOM      3  C   UNL     1      -0.080  -4.444  -6.922  1.00  0.00     0.202 C 
BRANCH   3   4
ATOM      4  C   UNL     1       0.532  -5.792  -6.502  1.00  0.00     0.261 C 
BRANCH   4   5
ATOM      5  O   UNL     1       0.639  -5.988  -5.060  1.00  0.00    -0.461 OA
BRANCH   5   6
ATOM      6  C   UNL     1       1.887  -6.170  -4.540  1.00  0.00     0.344 C 
ATOM      7  O   UNL     1       2.881  -6.362  -5.236  1.00  0.00    -0.248 OA
BRANCH   6   8
ATOM      8  C   UNL     1       2.017  -5.964  -2.983  1.00  0.00     0.353 C 
BRANCH   8   9
ATOM      9  O   UNL     1       0.927  -5.954  -2.067  1.00  0.00    -0.466 OA
BRANCH   9  10
ATOM     10  C   UNL     1       0.681  -4.948  -1.152  1.00  0.00     0.218 A 
ATOM     11  C   UNL     1       0.781  -2.767  -0.243  1.00  0.00     0.050 A 
ATOM     12  C   UNL     1       1.356  -3.737  -1.060  1.00  0.00     0.092 A 
ATOM     13  N   UNL     1      -0.320  -3.009   0.440  1.00  0.00    -0.218 NA
ATOM     14  C   UNL     1      -0.924  -4.180   0.328  1.00  0.00     0.230 A 
ATOM     15  N   UNL     1      -0.442  -5.185  -0.422  1.00  0.00    -0.177 NA
BRANCH  11  16
ATOM     16  C   UNL     1       1.165  -1.320  -0.227  1.00  0.00     0.056 C 
BRANCH  16  17
ATOM     17  C   UNL     1       0.223  -0.288   0.423  1.00  0.00     0.003 C 
ATOM     18  C   UNL     1       0.518  -0.042   1.887  1.00  0.00     0.004 C 
ENDBRANCH  16  17
ENDBRANCH  11  16
BRANCH  14  19
ATOM     19  N   UNL     1      -2.124  -4.269   1.043  1.00  0.00    -0.324 N 
ATOM     20  H   UNL     1      -2.543  -5.152   1.163  1.00  0.00     0.170 HD
BRANCH  19  21
ATOM     21  C   UNL     1      -2.754  -3.133   1.600  1.00  0.00     0.041 A 
ATOM     22  C   UNL     1      -2.640  -2.825   2.961  1.00  0.00     0.027 A 
ATOM     23  C   UNL     1      -3.326  -2.166   0.752  1.00  0.00     0.027 A 
ATOM     24  C   UNL     1      -3.143  -1.615   3.469  1.00  0.00     0.021 A 
ATOM     25  C   UNL     1      -3.846  -0.967   1.256  1.00  0.00     0.021 A 
ATOM     26  C   UNL     1      -3.771  -0.697   2.622  1.00  0.00     0.052 A 
BRANCH  26  27
ATOM     27  C   UNL     1      -4.362   0.505   3.148  1.00  0.00     0.099 C 
ATOM     28  N   UNL     1      -4.894   1.445   3.557  1.00  0.00    -0.192 NA
ENDBRANCH  26  27
ENDBRANCH  19  21
ENDBRANCH  14  19
ENDBRANCH   9  10
ENDBRANCH   8   9
ENDBRANCH   6   8
ENDBRANCH   5   6
ENDBRANCH   4   5
ENDBRANCH   3   4
ENDBRANCH   2   3
ENDBRANCH   1   2
BRANCH   1  29
ATOM     29  C   UNL     1      -0.462  -3.622  -4.014  1.00  0.00     0.188 C 
BRANCH  29  30
ATOM     30  O   UNL     1      -1.691  -3.961  -4.593  1.00  0.00    -0.376 OA
BRANCH  30  31
ATOM     31  C   UNL     1      -2.610  -2.927  -4.857  1.00  0.00     0.202 C 
BRANCH  31  32
ATOM     32  C   UNL     1      -2.325  -1.447  -4.534  1.00  0.00     0.261 C 
BRANCH  32  33
ATOM     33  O   UNL     1      -0.964  -0.954  -4.635  1.00  0.00    -0.460 OA
BRANCH  33  34
ATOM     34  C   UNL     1      -0.510  -0.335  -3.510  1.00  0.00     0.338 C 
ATOM     35  O   UNL     1      -1.168  -0.202  -2.484  1.00  0.00    -0.246 OA
BRANCH  34  36
ATOM     36  C   UNL     1       0.892   0.196  -3.512  1.00  0.00     0.060 A 
ATOM     37  C   UNL     1       1.986  -0.632  -3.220  1.00  0.00     0.016 A 
ATOM     38  C   UNL     1       1.010   1.556  -3.216  1.00  0.00     0.016 A 
ATOM     39  C   UNL     1       3.064  -0.146  -2.466  1.00  0.00     0.010 A 
ATOM     40  C   UNL     1       2.138   2.056  -2.540  1.00  0.00     0.010 A 
ATOM     41  C   UNL     1       3.153   1.201  -2.095  1.00  0.00    -0.014 A 
BRANCH  41  42
ATOM     42  C   UNL     1       4.315   1.692  -1.292  1.00  0.00     0.031 A 
ATOM     43  C   UNL     1       4.159   2.449   0.015  1.00  0.00     0.074 A 
ATOM     44  C   UNL     1       5.555   1.448  -1.764  1.00  0.00     0.049 A 
ATOM     45  N   UNL     1       5.070   3.058   0.736  1.00  0.00    -0.248 NA
ATOM     46  C   UNL     1       2.816   2.509   0.605  1.00  0.00     0.031 C 
ATOM     47  C   UNL     1       5.869   0.655  -2.958  1.00  0.00     0.029 A 
ATOM     48  N   UNL     1       6.783   1.864  -1.318  1.00  0.00    -0.354 N 
ATOM     49  C   UNL     1       4.412   3.575   1.854  1.00  0.00     0.074 A 
ATOM     50  C   UNL     1       3.023   3.195   1.724  1.00  0.00     0.031 C 
ATOM     51  C   UNL     1       7.190   0.642  -3.149  1.00  0.00     0.029 A 
ATOM     52  C   UNL     1       7.799   1.541  -2.184  1.00  0.00     0.049 A 
ATOM     53  H   UNL     1       6.922   2.343  -0.469  1.00  0.00     0.167 HD
ATOM     54  C   UNL     1       4.913   4.329   2.868  1.00  0.00     0.037 A 
ATOM     55  C   UNL     1       9.061   1.992  -2.277  1.00  0.00     0.037 A 
ATOM     56  C   UNL     1       6.286   4.780   2.922  1.00  0.00     0.049 A 
ATOM     57  C   UNL     1       9.549   2.982  -1.271  1.00  0.00     0.074 A 
ATOM     58  C   UNL     1       6.893   5.595   3.864  1.00  0.00     0.029 A 
ATOM     59  N   UNL     1       7.255   4.489   1.971  1.00  0.00    -0.354 N 
ATOM     60  N   UNL     1       8.910   3.490  -0.245  1.00  0.00    -0.248 NA
ATOM     61  C   UNL     1      10.923   3.460  -1.435  1.00  0.00     0.031 C 
ATOM     62  C   UNL     1       8.194   5.874   3.430  1.00  0.00     0.029 A 
ATOM     63  C   UNL     1       8.435   5.153   2.272  1.00  0.00     0.049 A 
ATOM     64  H   UNL     1       7.124   3.898   1.195  1.00  0.00     0.167 HD
ATOM     65  C   UNL     1       9.821   4.325   0.386  1.00  0.00     0.074 A 
ATOM     66  C   UNL     1      11.053   4.245  -0.375  1.00  0.00     0.031 C 
ATOM     67  C   UNL     1       9.653   5.077   1.502  1.00  0.00     0.037 A 
BRANCH  54  68
ATOM     68  C   UNL     1       3.967   4.809   3.949  1.00  0.00     0.058 A 
ATOM     69  C   UNL     1       3.412   3.945   4.907  1.00  0.00     0.135 A 
ATOM     70  C   UNL     1       3.654   6.177   4.062  1.00  0.00     0.135 A 
ATOM     71  F   UNL     1       3.667   2.627   4.857  1.00  0.00    -0.206 F 
ATOM     72  C   UNL     1       2.563   4.411   5.913  1.00  0.00     0.059 A 
ATOM     73  C   UNL     1       2.833   6.669   5.074  1.00  0.00     0.059 A 
ATOM     74  F   UNL     1       4.158   7.058   3.183  1.00  0.00    -0.206 F 
ATOM     75  C   UNL     1       2.277   5.777   5.987  1.00  0.00     0.060 A 
BRANCH  75  76
ATOM     76  S   UNL     1       1.160   6.364   7.281  1.00  0.00     0.124 S 
ATOM     77  O   UNL     1      -0.110   5.784   6.856  1.00  0.00    -0.237 OA
ATOM     78  O   UNL     1       1.749   5.789   8.486  1.00  0.00    -0.237 OA
ATOM     79  O   UNL     1       1.248   7.818   7.176  1.00  0.00    -0.744 OA
ENDBRANCH  75  76
ENDBRANCH  54  68
BRANCH  55  80
ATOM     80  C   UNL     1       9.904   1.536  -3.412  1.00  0.00     0.058 A 
ATOM     81  C   UNL     1      10.986   0.677  -3.196  1.00  0.00     0.135 A 
ATOM     82  C   UNL     1       9.583   1.873  -4.740  1.00  0.00     0.135 A 
ATOM     83  F   UNL     1      11.328   0.330  -1.946  1.00  0.00    -0.206 F 
ATOM     84  C   UNL     1      11.721   0.160  -4.256  1.00  0.00     0.059 A 
ATOM     85  C   UNL     1      10.278   1.339  -5.817  1.00  0.00     0.059 A 
ATOM     86  F   UNL     1       8.536   2.673  -4.999  1.00  0.00    -0.206 F 
ATOM     87  C   UNL     1      11.350   0.486  -5.563  1.00  0.00     0.060 A 
BRANCH  87  88
ATOM     88  S   UNL     1      12.264  -0.262  -6.927  1.00  0.00     0.124 S 
ATOM     89  O   UNL     1      13.556   0.404  -6.813  1.00  0.00    -0.237 OA
ATOM     90  O   UNL     1      12.239  -1.676  -6.567  1.00  0.00    -0.237 OA
ATOM     91  O   UNL     1      11.470   0.094  -8.099  1.00  0.00    -0.744 OA
ENDBRANCH  87  88
ENDBRANCH  55  80
BRANCH  67  92
ATOM     92  C   UNL     1      10.854   5.835   1.996  1.00  0.00     0.058 A 
ATOM     93  C   UNL     1      11.391   6.926   1.295  1.00  0.00     0.135 A 
ATOM     94  C   UNL     1      11.471   5.463   3.202  1.00  0.00     0.135 A 
ATOM     95  F   UNL     1      10.850   7.314   0.129  1.00  0.00    -0.206 F 
ATOM     96  C   UNL     1      12.519   7.598   1.753  1.00  0.00     0.059 A 
ATOM     97  C   UNL     1      12.575   6.145   3.699  1.00  0.00     0.059 A 
ATOM     98  F   UNL     1      10.996   4.428   3.915  1.00  0.00    -0.206 F 
ATOM     99  C   UNL     1      13.101   7.202   2.958  1.00  0.00     0.060 A 
BRANCH  99 100
ATOM    100  S   UNL     1      14.550   8.098   3.552  1.00  0.00     0.124 S 
ATOM    101  O   UNL     1      15.570   7.674   2.598  1.00  0.00    -0.237 OA
ATOM    102  O   UNL     1      14.119   9.488   3.443  1.00  0.00    -0.237 OA
ATOM    103  O   UNL     1      14.722   7.604   4.915  1.00  0.00    -0.744 OA
ENDBRANCH  99 100
ENDBRANCH  67  92
ENDBRANCH  41  42
ENDBRANCH  34  36
ENDBRANCH  33  34
ENDBRANCH  32  33
ENDBRANCH  31  32
ENDBRANCH  30  31
ENDBRANCH  29  30
ENDBRANCH   1  29
TORSDOF 27
