REMARK SMILES CC1(C)CC[C@@]2(C(=O)OCCOCCOCCOC(=O)c3ccc(-c4c5nc(c(-c6c(F)cc(S(=O)(=O)[O-])cc6F)c6ccc([nH]6)c(-c6c(F)cc(S(=O)(=O)[O-])cc6F)c6nc(c(-c7c(F)cc(S(=O)(=O)[O-])cc7F)c7ccc4[nH]7)C=C6)C=C5)cc3)CC[C@@]3(C)C(=CC[C@H]4[C@@]5(C)CC[C@H](O)C(C)(C)[C@@H]5CC[C@]43C)[C@@H]2C1
REMARK SMILES IDX 14 1 13 2 12 3 11 4 10 5 9 6 7 7 8 8 6 9 1 10 2 11 3 12 4 13
REMARK SMILES IDX 110 14 5 15 109 16 91 17 87 18 89 19 92 20 88 21 90 22
REMARK SMILES IDX 107 23 93 24 94 25 106 26 108 27 95 28 105 29 96 30 97 31
REMARK SMILES IDX 104 32 98 33 101 34 99 35 102 36 103 37 100 38 15 40 16 41
REMARK SMILES IDX 17 42 18 43 19 44 20 45 21 46 22 47 86 48 23 49 85 50 24 51
REMARK SMILES IDX 25 52 26 53 79 54 27 55 84 56 78 57 80 58 28 59 83 60 77 61
REMARK SMILES IDX 76 62 29 64 63 65 42 66 62 67 43 68 46 69 61 70 81 71 44 72
REMARK SMILES IDX 45 73 60 75 82 76 47 77 30 78 31 79 40 80 32 81 33 82 39 83
REMARK SMILES IDX 41 84 34 85 35 86 36 87 37 88 38 89 64 90 65 91 74 92 66 93
REMARK SMILES IDX 67 94 73 95 75 96 68 97 69 98 70 99 71 100 72 101 48 102
REMARK SMILES IDX 49 103 58 104 50 105 51 106 57 107 59 108 52 109 53 110
REMARK SMILES IDX 54 111 55 112 56 113
REMARK H PARENT 100 39 80 63 46 74
REMARK Flexibility Score: inf
ROOT
ATOM      1  C   UNL     1      -2.218  -5.932  -0.659  1.00  0.00     0.188 C 
ENDROOT
BRANCH   1   2
ATOM      2  C   UNL     1      -1.716  -4.886   0.304  1.00  0.00     0.188 C 
BRANCH   2   3
ATOM      3  O   UNL     1      -1.830  -3.631  -0.288  1.00  0.00    -0.376 OA
BRANCH   3   4
ATOM      4  C   UNL     1      -1.286  -3.516  -1.613  1.00  0.00     0.202 C 
BRANCH   4   5
ATOM      5  C   UNL     1      -0.093  -2.582  -1.640  1.00  0.00     0.261 C 
BRANCH   5   6
ATOM      6  O   UNL     1      -0.059  -2.020  -0.372  1.00  0.00    -0.463 OA
BRANCH   6   7
ATOM      7  C   UNL     1      -1.204  -1.297  -0.290  1.00  0.00     0.312 C 
ATOM      8  O   UNL     1      -1.982  -1.244  -1.196  1.00  0.00    -0.252 OA
BRANCH   7   9
ATOM      9  C   UNL     1      -1.338  -0.522   0.965  1.00  0.00     0.075 C 
ATOM     10  C   UNL     1       2.578   1.214   0.925  1.00  0.00     0.011 C 
ATOM     11  C   UNL     1       1.474   0.352   0.267  1.00  0.00    -0.035 C 
ATOM     12  C   UNL     1       2.181  -0.121  -1.055  1.00  0.00     0.011 C 
ATOM     13  C   UNL     1       1.269  -0.807   1.283  1.00  0.00     0.007 C 
ATOM     14  C   UNL     1       0.165   1.219  -0.135  1.00  0.00     0.015 C 
ATOM     15  C   UNL     1      -0.144  -0.863   1.917  1.00  0.00     0.020 C 
ATOM     16  C   UNL     1      -1.345   0.886   0.362  1.00  0.00     0.033 C 
ATOM     17  C   UNL     1      -2.605   1.040  -0.773  1.00  0.00    -0.063 C 
ATOM     18  C   UNL     1      -2.724  -0.848   1.559  1.00  0.00     0.020 C 
ATOM     19  C   UNL     1      -3.954   0.082  -0.716  1.00  0.00    -0.006 C 
ATOM     20  C   UNL     1      -2.251   1.501  -1.994  1.00  0.00    -0.027 C 
ATOM     21  C   UNL     1      -3.896  -0.979   0.507  1.00  0.00     0.013 C 
ATOM     22  C   UNL     1      -5.007   1.086  -0.067  1.00  0.00     0.017 C 
ATOM     23  C   UNL     1      -4.463  -0.465  -2.441  1.00  0.00    -0.020 C 
ATOM     24  C   UNL     1      -2.388   0.825  -3.358  1.00  0.00     0.032 C 
ATOM     25  C   UNL     1      -3.310  -0.396  -3.590  1.00  0.00     0.006 C 
ATOM     26  C   UNL     1      -5.385  -1.712  -2.932  1.00  0.00     0.008 C 
ATOM     27  C   UNL     1      -5.491   0.711  -2.763  1.00  0.00     0.012 C 
ATOM     28  C   UNL     1      -2.755  -1.725  -4.635  1.00  0.00    -0.025 C 
ATOM     29  C   UNL     1      -5.013  -2.632  -4.285  1.00  0.00     0.005 C 
ATOM     30  C   UNL     1      -2.956  -1.230  -6.099  1.00  0.00     0.012 C 
ATOM     31  C   UNL     1      -1.243  -2.028  -4.630  1.00  0.00     0.010 C 
ATOM     32  C   UNL     1      -3.537  -3.072  -4.392  1.00  0.00     0.003 C 
ATOM     33  C   UNL     1      -0.666  -3.328  -5.219  1.00  0.00     0.033 C 
ATOM     34  C   UNL     1      -2.966  -4.452  -5.189  1.00  0.00    -0.006 C 
ATOM     35  C   UNL     1      -1.441  -4.591  -4.872  1.00  0.00     0.120 C 
ATOM     36  C   UNL     1      -3.091  -4.573  -6.723  1.00  0.00     0.014 C 
ATOM     37  C   UNL     1      -3.607  -5.778  -4.686  1.00  0.00     0.014 C 
BRANCH  35  38
ATOM     38  O   UNL     1      -0.835  -5.716  -5.529  1.00  0.00    -0.393 OA
ATOM     39  H   UNL     1      -0.873  -5.588  -6.490  1.00  0.00     0.210 HD
ENDBRANCH  35  38
ENDBRANCH   7   9
ENDBRANCH   6   7
ENDBRANCH   5   6
ENDBRANCH   4   5
ENDBRANCH   3   4
ENDBRANCH   2   3
ENDBRANCH   1   2
BRANCH   1  40
ATOM     40  O   UNL     1      -3.347  -5.568  -1.450  1.00  0.00    -0.376 OA
BRANCH  40  41
ATOM     41  C   UNL     1      -4.306  -4.618  -0.999  1.00  0.00     0.202 C 
BRANCH  41  42
ATOM     42  C   UNL     1      -5.568  -4.731  -1.862  1.00  0.00     0.261 C 
BRANCH  42  43
ATOM     43  O   UNL     1      -5.758  -5.921  -2.653  1.00  0.00    -0.460 OA
BRANCH  43  44
ATOM     44  C   UNL     1      -5.641  -7.118  -2.048  1.00  0.00     0.338 C 
ATOM     45  O   UNL     1      -5.211  -8.140  -2.548  1.00  0.00    -0.246 OA
BRANCH  44  46
ATOM     46  C   UNL     1      -6.150  -6.997  -0.693  1.00  0.00     0.060 A 
ATOM     47  C   UNL     1      -5.224  -7.074   0.352  1.00  0.00     0.016 A 
ATOM     48  C   UNL     1      -7.460  -6.521  -0.530  1.00  0.00     0.016 A 
ATOM     49  C   UNL     1      -5.595  -6.636   1.599  1.00  0.00     0.010 A 
ATOM     50  C   UNL     1      -7.865  -6.160   0.731  1.00  0.00     0.010 A 
ATOM     51  C   UNL     1      -6.946  -6.326   1.778  1.00  0.00    -0.014 A 
BRANCH  51  52
ATOM     52  C   UNL     1      -7.502  -6.839   3.021  1.00  0.00     0.031 A 
ATOM     53  C   UNL     1      -7.813  -8.312   3.008  1.00  0.00     0.074 A 
ATOM     54  C   UNL     1      -7.661  -6.001   4.044  1.00  0.00     0.049 A 
ATOM     55  N   UNL     1      -8.371  -9.046   3.921  1.00  0.00    -0.248 NA
ATOM     56  C   UNL     1      -7.452  -9.075   1.793  1.00  0.00     0.031 C 
ATOM     57  C   UNL     1      -7.297  -4.582   4.055  1.00  0.00     0.029 A 
ATOM     58  N   UNL     1      -8.192  -6.235   5.268  1.00  0.00    -0.354 N 
ATOM     59  C   UNL     1      -8.419 -10.329   3.382  1.00  0.00     0.074 A 
ATOM     60  C   UNL     1      -7.868 -10.293   2.063  1.00  0.00     0.031 C 
ATOM     61  C   UNL     1      -7.656  -4.059   5.239  1.00  0.00     0.029 A 
ATOM     62  C   UNL     1      -8.298  -5.103   6.029  1.00  0.00     0.049 A 
ATOM     63  H   UNL     1      -8.473  -7.126   5.578  1.00  0.00     0.167 HD
ATOM     64  C   UNL     1      -8.897 -11.446   3.957  1.00  0.00     0.037 A 
ATOM     65  C   UNL     1      -8.898  -4.967   7.220  1.00  0.00     0.037 A 
ATOM     66  C   UNL     1      -9.486 -11.399   5.259  1.00  0.00     0.049 A 
ATOM     67  C   UNL     1      -9.488  -6.214   7.821  1.00  0.00     0.074 A 
ATOM     68  C   UNL     1     -10.060 -12.414   5.988  1.00  0.00     0.029 A 
ATOM     69  N   UNL     1      -9.579 -10.235   6.016  1.00  0.00    -0.354 N 
ATOM     70  N   UNL     1      -9.545  -7.429   7.314  1.00  0.00    -0.248 NA
ATOM     71  C   UNL     1     -10.076  -6.085   9.153  1.00  0.00     0.031 C 
ATOM     72  C   UNL     1     -10.548 -11.849   7.171  1.00  0.00     0.029 A 
ATOM     73  C   UNL     1     -10.213 -10.499   7.207  1.00  0.00     0.049 A 
ATOM     74  H   UNL     1      -9.240  -9.352   5.739  1.00  0.00     0.167 HD
ATOM     75  C   UNL     1     -10.145  -8.222   8.281  1.00  0.00     0.074 A 
ATOM     76  C   UNL     1     -10.419  -7.341   9.405  1.00  0.00     0.031 C 
ATOM     77  C   UNL     1     -10.443  -9.548   8.267  1.00  0.00     0.037 A 
BRANCH  64  78
ATOM     78  C   UNL     1      -8.854 -12.716   3.157  1.00  0.00     0.058 A 
ATOM     79  C   UNL     1      -7.643 -13.351   2.823  1.00  0.00     0.135 A 
ATOM     80  C   UNL     1     -10.040 -13.285   2.670  1.00  0.00     0.135 A 
ATOM     81  F   UNL     1      -6.471 -12.817   3.205  1.00  0.00    -0.206 F 
ATOM     82  C   UNL     1      -7.611 -14.501   2.040  1.00  0.00     0.059 A 
ATOM     83  C   UNL     1     -10.034 -14.452   1.911  1.00  0.00     0.059 A 
ATOM     84  F   UNL     1     -11.220 -12.696   2.913  1.00  0.00    -0.206 F 
ATOM     85  C   UNL     1      -8.815 -15.051   1.598  1.00  0.00     0.060 A 
BRANCH  85  86
ATOM     86  S   UNL     1      -8.765 -16.577   0.634  1.00  0.00     0.124 S 
ATOM     87  O   UNL     1      -8.209 -16.109  -0.632  1.00  0.00    -0.237 OA
ATOM     88  O   UNL     1      -7.888 -17.421   1.438  1.00  0.00    -0.237 OA
ATOM     89  O   UNL     1     -10.163 -16.996   0.588  1.00  0.00    -0.744 OA
ENDBRANCH  85  86
ENDBRANCH  64  78
BRANCH  65  90
ATOM     90  C   UNL     1      -8.942  -3.641   7.876  1.00  0.00     0.058 A 
ATOM     91  C   UNL     1      -8.198  -3.386   9.036  1.00  0.00     0.135 A 
ATOM     92  C   UNL     1      -9.676  -2.578   7.322  1.00  0.00     0.135 A 
ATOM     93  F   UNL     1      -7.465  -4.364   9.590  1.00  0.00    -0.206 F 
ATOM     94  C   UNL     1      -8.200  -2.134   9.640  1.00  0.00     0.059 A 
ATOM     95  C   UNL     1      -9.671  -1.310   7.892  1.00  0.00     0.059 A 
ATOM     96  F   UNL     1     -10.375  -2.760   6.191  1.00  0.00    -0.206 F 
ATOM     97  C   UNL     1      -8.940  -1.102   9.060  1.00  0.00     0.060 A 
BRANCH  97  98
ATOM     98  S   UNL     1      -8.910   0.525   9.841  1.00  0.00     0.124 S 
ATOM     99  O   UNL     1      -9.676   0.279  11.057  1.00  0.00    -0.237 OA
ATOM    100  O   UNL     1      -7.479   0.750  10.021  1.00  0.00    -0.237 OA
ATOM    101  O   UNL     1      -9.553   1.385   8.852  1.00  0.00    -0.744 OA
ENDBRANCH  97  98
ENDBRANCH  65  90
BRANCH  77 102
ATOM    102  C   UNL     1     -11.042 -10.100   9.521  1.00  0.00     0.058 A 
ATOM    103  C   UNL     1     -12.356  -9.800   9.903  1.00  0.00     0.135 A 
ATOM    104  C   UNL     1     -10.290 -10.973  10.323  1.00  0.00     0.135 A 
ATOM    105  F   UNL     1     -13.106  -8.970   9.161  1.00  0.00    -0.206 F 
ATOM    106  C   UNL     1     -12.891 -10.308  11.077  1.00  0.00     0.059 A 
ATOM    107  C   UNL     1     -10.821 -11.526  11.478  1.00  0.00     0.059 A 
ATOM    108  F   UNL     1      -9.036 -11.305   9.977  1.00  0.00    -0.206 F 
ATOM    109  C   UNL     1     -12.114 -11.168  11.857  1.00  0.00     0.060 A 
BRANCH 109 110
ATOM    110  S   UNL     1     -12.820 -11.816  13.381  1.00  0.00     0.124 S 
ATOM    111  O   UNL     1     -12.775 -10.641  14.244  1.00  0.00    -0.237 OA
ATOM    112  O   UNL     1     -14.149 -12.241  12.952  1.00  0.00    -0.237 OA
ATOM    113  O   UNL     1     -11.908 -12.898  13.743  1.00  0.00    -0.744 OA
ENDBRANCH 109 110
ENDBRANCH  77 102
ENDBRANCH  51  52
ENDBRANCH  44  46
ENDBRANCH  43  44
ENDBRANCH  42  43
ENDBRANCH  41  42
ENDBRANCH  40  41
ENDBRANCH   1  40
TORSDOF 21
