REMARK SMILES O=C(CCCN1C(=O)c2ccc3c4c(ccc(c24)C1=O)C(=O)NC3=O)OCCOCCOCCOC(=O)c1ccc(-c2c3nc(c(-c4c(F)cc(S(=O)(=O)[O-])cc4F)c4ccc([nH]4)c(-c4c(F)cc(S(=O)(=O)[O-])cc4F)c4nc(c(-c5c(F)cc(S(=O)(=O)[O-])cc5F)c5ccc2[nH]5)C=C4)C=C3)cc1
REMARK SMILES IDX 30 1 29 2 28 3 27 4 26 5 2 6 1 7 3 8 4 9 5 10 6 11 19 12
REMARK SMILES IDX 7 13 20 14 17 15 9 16 8 17 16 18 18 19 10 20 15 21 13 22
REMARK SMILES IDX 11 23 14 24 12 25 21 26 24 27 23 28 22 29 25 30 31 32 32 33
REMARK SMILES IDX 33 34 34 35 35 36 36 37 37 38 38 39 39 40 103 41 40 42
REMARK SMILES IDX 102 43 41 44 42 45 43 46 96 47 44 48 101 49 95 50 97 51
REMARK SMILES IDX 45 52 100 53 94 54 93 55 46 57 80 58 59 59 79 60 60 61 63 62
REMARK SMILES IDX 78 63 98 64 61 65 62 66 77 68 99 69 64 70 47 71 48 72 57 73
REMARK SMILES IDX 49 74 50 75 56 76 58 77 51 78 52 79 53 80 54 81 55 82 81 83
REMARK SMILES IDX 82 84 91 85 83 86 84 87 90 88 92 89 85 90 86 91 87 92 88 93
REMARK SMILES IDX 89 94 65 95 66 96 75 97 67 98 68 99 74 100 76 101 69 102
REMARK SMILES IDX 70 103 71 104 72 105 73 106
REMARK H PARENT 23 31 97 56 63 67
REMARK Flexibility Score: inf
ROOT
ATOM      1  C   UNL     1       1.564  -1.277  -1.456  1.00  0.00     0.188 C 
ENDROOT
BRANCH   1   2
ATOM      2  O   UNL     1       2.858  -0.696  -1.480  1.00  0.00    -0.376 OA
BRANCH   2   3
ATOM      3  C   UNL     1       3.758  -1.107  -0.461  1.00  0.00     0.202 C 
BRANCH   3   4
ATOM      4  C   UNL     1       3.294  -1.010   0.986  1.00  0.00     0.261 C 
BRANCH   4   5
ATOM      5  O   UNL     1       2.556   0.154   1.402  1.00  0.00    -0.463 OA
BRANCH   5   6
ATOM      6  C   UNL     1       2.456   1.369   0.841  1.00  0.00     0.305 C 
ATOM      7  O   UNL     1       1.436   2.026   1.044  1.00  0.00    -0.252 OA
BRANCH   6   8
ATOM      8  C   UNL     1       3.604   1.957   0.054  1.00  0.00     0.124 C 
BRANCH   8   9
ATOM      9  C   UNL     1       4.795   2.453   0.870  1.00  0.00     0.034 C 
BRANCH   9  10
ATOM     10  C   UNL     1       5.890   1.449   1.285  1.00  0.00     0.130 C 
BRANCH  10  11
ATOM     11  N   UNL     1       6.604   0.712   0.227  1.00  0.00    -0.274 N 
ATOM     12  C   UNL     1       7.236   1.423  -0.793  1.00  0.00     0.261 C 
ATOM     13  C   UNL     1       6.843  -0.648   0.441  1.00  0.00     0.261 C 
ATOM     14  O   UNL     1       7.304   2.646  -0.838  1.00  0.00    -0.269 OA
ATOM     15  C   UNL     1       7.893   0.632  -1.870  1.00  0.00     0.049 A 
ATOM     16  C   UNL     1       7.360  -1.433  -0.705  1.00  0.00     0.049 A 
ATOM     17  O   UNL     1       6.621  -1.240   1.494  1.00  0.00    -0.269 OA
ATOM     18  C   UNL     1       8.490   1.286  -2.956  1.00  0.00     0.015 A 
ATOM     19  C   UNL     1       7.881  -0.765  -1.813  1.00  0.00     0.009 A 
ATOM     20  C   UNL     1       7.298  -2.835  -0.674  1.00  0.00     0.015 A 
ATOM     21  C   UNL     1       9.070   0.547  -3.990  1.00  0.00     0.015 A 
ATOM     22  C   UNL     1       8.412  -1.521  -2.889  1.00  0.00     0.009 A 
ATOM     23  C   UNL     1       7.756  -3.579  -1.760  1.00  0.00     0.015 A 
ATOM     24  C   UNL     1       9.019  -0.849  -3.961  1.00  0.00     0.048 A 
ATOM     25  C   UNL     1       8.319  -2.922  -2.857  1.00  0.00     0.048 A 
ATOM     26  C   UNL     1       9.624  -1.638  -5.060  1.00  0.00     0.258 C 
ATOM     27  C   UNL     1       8.811  -3.710  -4.011  1.00  0.00     0.258 C 
ATOM     28  N   UNL     1       9.437  -3.000  -5.006  1.00  0.00    -0.288 N 
ATOM     29  O   UNL     1      10.264  -1.108  -5.959  1.00  0.00    -0.269 OA
ATOM     30  O   UNL     1       8.664  -4.924  -4.064  1.00  0.00    -0.269 OA
ATOM     31  H   UNL     1       9.789  -3.522  -5.763  1.00  0.00     0.173 HD
ENDBRANCH  10  11
ENDBRANCH   9  10
ENDBRANCH   8   9
ENDBRANCH   6   8
ENDBRANCH   5   6
ENDBRANCH   4   5
ENDBRANCH   3   4
ENDBRANCH   2   3
ENDBRANCH   1   2
BRANCH   1  32
ATOM     32  C   UNL     1       1.483  -2.691  -2.042  1.00  0.00     0.188 C 
BRANCH  32  33
ATOM     33  O   UNL     1       2.502  -3.533  -1.541  1.00  0.00    -0.376 OA
BRANCH  33  34
ATOM     34  C   UNL     1       3.574  -3.951  -2.380  1.00  0.00     0.202 C 
BRANCH  34  35
ATOM     35  C   UNL     1       3.983  -3.337  -3.736  1.00  0.00     0.261 C 
BRANCH  35  36
ATOM     36  O   UNL     1       3.523  -2.026  -4.061  1.00  0.00    -0.460 OA
BRANCH  36  37
ATOM     37  C   UNL     1       2.676  -1.981  -5.123  1.00  0.00     0.338 C 
ATOM     38  O   UNL     1       2.205  -2.924  -5.734  1.00  0.00    -0.246 OA
BRANCH  37  39
ATOM     39  C   UNL     1       2.326  -0.589  -5.423  1.00  0.00     0.060 A 
ATOM     40  C   UNL     1       1.103  -0.082  -4.974  1.00  0.00     0.016 A 
ATOM     41  C   UNL     1       3.158   0.164  -6.252  1.00  0.00     0.016 A 
ATOM     42  C   UNL     1       0.712   1.204  -5.342  1.00  0.00     0.010 A 
ATOM     43  C   UNL     1       2.757   1.444  -6.633  1.00  0.00     0.010 A 
ATOM     44  C   UNL     1       1.527   1.963  -6.191  1.00  0.00    -0.014 A 
BRANCH  44  45
ATOM     45  C   UNL     1       1.058   3.265  -6.711  1.00  0.00     0.031 A 
ATOM     46  C   UNL     1       0.397   3.314  -8.058  1.00  0.00     0.074 A 
ATOM     47  C   UNL     1       1.265   4.388  -5.999  1.00  0.00     0.049 A 
ATOM     48  N   UNL     1       0.022   4.351  -8.757  1.00  0.00    -0.248 NA
ATOM     49  C   UNL     1       0.126   2.019  -8.708  1.00  0.00     0.031 C 
ATOM     50  C   UNL     1       1.868   4.441  -4.667  1.00  0.00     0.029 A 
ATOM     51  N   UNL     1       1.018   5.700  -6.310  1.00  0.00    -0.354 N 
ATOM     52  C   UNL     1      -0.518   3.841  -9.931  1.00  0.00     0.074 A 
ATOM     53  C   UNL     1      -0.415   2.401  -9.857  1.00  0.00     0.031 C 
ATOM     54  C   UNL     1       1.980   5.727  -4.291  1.00  0.00     0.029 A 
ATOM     55  C   UNL     1       1.492   6.584  -5.369  1.00  0.00     0.049 A 
ATOM     56  H   UNL     1       0.547   5.982  -7.127  1.00  0.00     0.167 HD
ATOM     57  C   UNL     1      -1.047   4.521 -10.974  1.00  0.00     0.037 A 
ATOM     58  C   UNL     1       1.561   7.930  -5.399  1.00  0.00     0.037 A 
ATOM     59  C   UNL     1      -1.139   5.957 -11.030  1.00  0.00     0.049 A 
ATOM     60  C   UNL     1       1.030   8.660  -6.608  1.00  0.00     0.074 A 
ATOM     61  C   UNL     1      -1.700   6.743 -12.021  1.00  0.00     0.029 A 
ATOM     62  N   UNL     1      -0.642   6.821 -10.066  1.00  0.00    -0.354 N 
ATOM     63  N   UNL     1       0.466   8.168  -7.688  1.00  0.00    -0.248 NA
ATOM     64  C   UNL     1       1.147  10.125  -6.609  1.00  0.00     0.031 C 
ATOM     65  C   UNL     1      -1.486   8.083 -11.686  1.00  0.00     0.029 A 
ATOM     66  C   UNL     1      -0.843   8.133 -10.459  1.00  0.00     0.049 A 
ATOM     67  H   UNL     1      -0.210   6.542  -9.226  1.00  0.00     0.167 HD
ATOM     68  C   UNL     1       0.147   9.263  -8.484  1.00  0.00     0.074 A 
ATOM     69  C   UNL     1       0.559  10.444  -7.753  1.00  0.00     0.031 C 
ATOM     70  C   UNL     1      -0.429   9.293  -9.711  1.00  0.00     0.037 A 
BRANCH  57  71
ATOM     71  C   UNL     1      -1.544   3.738 -12.156  1.00  0.00     0.058 A 
ATOM     72  C   UNL     1      -2.741   3.009 -12.110  1.00  0.00     0.135 A 
ATOM     73  C   UNL     1      -0.855   3.794 -13.379  1.00  0.00     0.135 A 
ATOM     74  F   UNL     1      -3.427   2.905 -10.960  1.00  0.00    -0.206 F 
ATOM     75  C   UNL     1      -3.242   2.365 -13.237  1.00  0.00     0.059 A 
ATOM     76  C   UNL     1      -1.349   3.177 -14.524  1.00  0.00     0.059 A 
ATOM     77  F   UNL     1       0.301   4.469 -13.473  1.00  0.00    -0.206 F 
ATOM     78  C   UNL     1      -2.544   2.464 -14.443  1.00  0.00     0.060 A 
BRANCH  78  79
ATOM     79  S   UNL     1      -3.240   1.673 -15.909  1.00  0.00     0.124 S 
ATOM     80  O   UNL     1      -3.052   0.260 -15.595  1.00  0.00    -0.237 OA
ATOM     81  O   UNL     1      -4.620   2.147 -15.891  1.00  0.00    -0.237 OA
ATOM     82  O   UNL     1      -2.417   2.188 -16.999  1.00  0.00    -0.744 OA
ENDBRANCH  78  79
ENDBRANCH  57  71
BRANCH  58  83
ATOM     83  C   UNL     1       2.203   8.679  -4.284  1.00  0.00     0.058 A 
ATOM     84  C   UNL     1       1.463   9.547  -3.468  1.00  0.00     0.135 A 
ATOM     85  C   UNL     1       3.582   8.573  -4.040  1.00  0.00     0.135 A 
ATOM     86  F   UNL     1       0.144   9.693  -3.666  1.00  0.00    -0.206 F 
ATOM     87  C   UNL     1       2.070  10.310  -2.474  1.00  0.00     0.059 A 
ATOM     88  C   UNL     1       4.207   9.302  -3.032  1.00  0.00     0.059 A 
ATOM     89  F   UNL     1       4.337   7.750  -4.783  1.00  0.00    -0.206 F 
ATOM     90  C   UNL     1       3.445  10.183  -2.267  1.00  0.00     0.060 A 
BRANCH  90  91
ATOM     91  S   UNL     1       4.224  11.178  -0.977  1.00  0.00     0.124 S 
ATOM     92  O   UNL     1       4.207  12.506  -1.581  1.00  0.00    -0.237 OA
ATOM     93  O   UNL     1       3.322  10.978   0.152  1.00  0.00    -0.237 OA
ATOM     94  O   UNL     1       5.543  10.568  -0.833  1.00  0.00    -0.744 OA
ENDBRANCH  90  91
ENDBRANCH  58  83
BRANCH  70  95
ATOM     95  C   UNL     1      -0.664  10.641 -10.337  1.00  0.00     0.058 A 
ATOM     96  C   UNL     1       0.395  11.408 -10.846  1.00  0.00     0.135 A 
ATOM     97  C   UNL     1      -1.968  11.137 -10.494  1.00  0.00     0.135 A 
ATOM     98  F   UNL     1       1.662  10.982 -10.715  1.00  0.00    -0.206 F 
ATOM     99  C   UNL     1       0.171  12.628 -11.475  1.00  0.00     0.059 A 
ATOM    100  C   UNL     1      -2.218  12.340 -11.146  1.00  0.00     0.059 A 
ATOM    101  F   UNL     1      -3.018  10.437 -10.035  1.00  0.00    -0.206 F 
ATOM    102  C   UNL     1      -1.140  13.083 -11.626  1.00  0.00     0.060 A 
BRANCH 102 103
ATOM    103  S   UNL     1      -1.418  14.643 -12.489  1.00  0.00     0.124 S 
ATOM    104  O   UNL     1      -0.942  15.612 -11.507  1.00  0.00    -0.237 OA
ATOM    105  O   UNL     1      -0.591  14.491 -13.682  1.00  0.00    -0.237 OA
ATOM    106  O   UNL     1      -2.858  14.649 -12.729  1.00  0.00    -0.744 OA
ENDBRANCH 102 103
ENDBRANCH  70  95
ENDBRANCH  44  45
ENDBRANCH  37  39
ENDBRANCH  36  37
ENDBRANCH  35  36
ENDBRANCH  34  35
ENDBRANCH  33  34
ENDBRANCH  32  33
ENDBRANCH   1  32
TORSDOF 23
