REMARK SMILES Cc1cccc(-n2ncc(C(=O)Nc3cccc(C(=O)OCCOCCOCCOC(=O)c4ccc(-c5c6nc(c(-c7c(F)cc(S(=O)(=O)[O-])cc7F)c7ccc([nH]7)c(-c7c(F)cc(S(=O)(=O)[O-])cc7F)c7nc(c(-c8c(F)cc(S(=O)(=O)[O-])cc8F)c8ccc5[nH]8)C=C7)C=C6)cc4)c3C)c2C)c1
REMARK SMILES IDX 25 1 24 2 23 3 22 4 21 5 19 6 20 7 18 8 14 9 15 10 99 11
REMARK SMILES IDX 16 12 100 13 17 14 13 15 11 16 12 17 10 19 7 20 8 21 101 22
REMARK SMILES IDX 9 23 102 24 6 25 1 26 2 27 3 28 103 29 4 30 5 31 26 32 27 33
REMARK SMILES IDX 28 34 29 35 30 36 31 37 32 38 33 39 34 40 98 41 35 42 97 43
REMARK SMILES IDX 36 44 37 45 38 46 91 47 39 48 96 49 90 50 92 51 40 52 95 53
REMARK SMILES IDX 89 54 88 55 41 57 75 58 54 59 74 60 55 61 58 62 73 63 93 64
REMARK SMILES IDX 56 65 57 66 72 68 94 69 59 70 42 71 43 72 52 73 44 74 45 75
REMARK SMILES IDX 51 76 53 77 46 78 47 79 48 80 49 81 50 82 76 83 77 84 86 85
REMARK SMILES IDX 78 86 79 87 85 88 87 89 80 90 81 91 82 92 83 93 84 94 60 95
REMARK SMILES IDX 61 96 70 97 62 98 63 99 69 100 71 101 64 102 65 103 66 104
REMARK SMILES IDX 67 105 68 106
REMARK H PARENT 13 18 92 56 58 67
REMARK Flexibility Score: inf
ROOT
ATOM      1  C   UNL     1      -2.857  11.865  -4.088  1.00  0.00     0.188 C 
ENDROOT
BRANCH   1   2
ATOM      2  O   UNL     1      -2.088  12.779  -3.337  1.00  0.00    -0.376 OA
BRANCH   2   3
ATOM      3  C   UNL     1      -0.660  12.589  -3.250  1.00  0.00     0.202 C 
BRANCH   3   4
ATOM      4  C   UNL     1       0.224  11.113  -3.015  1.00  0.00     0.261 C 
BRANCH   4   5
ATOM      5  O   UNL     1       0.239   9.946  -1.599  1.00  0.00    -0.460 OA
BRANCH   5   6
ATOM      6  C   UNL     1      -0.325   8.781  -0.792  1.00  0.00     0.338 C 
ATOM      7  O   UNL     1       0.180   8.406   0.269  1.00  0.00    -0.246 OA
BRANCH   6   8
ATOM      8  C   UNL     1      -1.472   7.727  -0.913  1.00  0.00     0.065 A 
ATOM      9  C   UNL     1      -3.383   6.527   0.046  1.00  0.00     0.045 A 
ATOM     10  C   UNL     1      -3.587   5.834  -1.149  1.00  0.00     0.026 A 
ATOM     11  C   UNL     1      -2.425   7.567   0.137  1.00  0.00    -0.013 A 
ATOM     12  C   UNL     1      -2.632   5.926  -2.138  1.00  0.00     0.003 A 
ATOM     13  C   UNL     1      -2.426   8.431   1.364  1.00  0.00     0.047 C 
ATOM     14  C   UNL     1      -1.518   6.736  -1.919  1.00  0.00     0.016 A 
BRANCH   9  15
ATOM     15  N   UNL     1      -3.995   6.028   1.211  1.00  0.00    -0.322 N 
ATOM     16  C   UNL     1      -3.868   4.725   1.685  1.00  0.00     0.259 C 
ATOM     17  O   UNL     1      -4.586   4.355   2.615  1.00  0.00    -0.269 OA
ATOM     18  H   UNL     1      -4.557   6.648   1.730  1.00  0.00     0.170 HD
BRANCH  16  19
ATOM     19  C   UNL     1      -2.854   3.847   1.090  1.00  0.00     0.081 A 
ATOM     20  N   UNL     1      -1.664   2.098   0.397  1.00  0.00    -0.237 N 
ATOM     21  N   UNL     1      -1.081   3.167  -0.171  1.00  0.00    -0.175 NA
ATOM     22  C   UNL     1      -2.690   2.472   1.256  1.00  0.00     0.054 A 
ATOM     23  C   UNL     1      -1.675   4.195   0.403  1.00  0.00     0.149 A 
ATOM     24  C   UNL     1      -3.251   1.611   2.328  1.00  0.00     0.068 C 
BRANCH  20  25
ATOM     25  C   UNL     1      -1.041   0.853   0.187  1.00  0.00     0.065 A 
ATOM     26  C   UNL     1       2.582  -0.207  -0.068  1.00  0.00     0.044 C 
ATOM     27  C   UNL     1       1.087  -0.290  -0.047  1.00  0.00    -0.049 A 
ATOM     28  C   UNL     1       0.398  -1.505  -0.040  1.00  0.00     0.003 A 
ATOM     29  C   UNL     1       0.352   0.884   0.024  1.00  0.00     0.031 A 
ATOM     30  C   UNL     1      -1.002  -1.536   0.046  1.00  0.00     0.002 A 
ATOM     31  C   UNL     1      -1.733  -0.353   0.176  1.00  0.00     0.028 A 
ENDBRANCH  20  25
ENDBRANCH  16  19
ENDBRANCH   9  15
ENDBRANCH   6   8
ENDBRANCH   5   6
ENDBRANCH   4   5
ENDBRANCH   3   4
ENDBRANCH   2   3
ENDBRANCH   1   2
BRANCH   1  32
ATOM     32  C   UNL     1      -3.969  12.224  -5.106  1.00  0.00     0.188 C 
BRANCH  32  33
ATOM     33  O   UNL     1      -3.973  13.533  -5.606  1.00  0.00    -0.376 OA
BRANCH  33  34
ATOM     34  C   UNL     1      -3.952  14.488  -4.536  1.00  0.00     0.202 C 
BRANCH  34  35
ATOM     35  C   UNL     1      -4.921  14.264  -3.277  1.00  0.00     0.261 C 
BRANCH  35  36
ATOM     36  O   UNL     1      -5.163  12.791  -3.007  1.00  0.00    -0.460 OA
BRANCH  36  37
ATOM     37  C   UNL     1      -5.846  11.942  -2.224  1.00  0.00     0.338 C 
ATOM     38  O   UNL     1      -6.084  12.145  -1.028  1.00  0.00    -0.246 OA
BRANCH  37  39
ATOM     39  C   UNL     1      -6.055  10.457  -2.641  1.00  0.00     0.060 A 
ATOM     40  C   UNL     1      -5.934   9.660  -1.510  1.00  0.00     0.016 A 
ATOM     41  C   UNL     1      -5.407   9.861  -3.708  1.00  0.00     0.016 A 
ATOM     42  C   UNL     1      -4.625   9.325  -1.188  1.00  0.00     0.010 A 
ATOM     43  C   UNL     1      -4.264   9.133  -3.422  1.00  0.00     0.010 A 
ATOM     44  C   UNL     1      -3.683   9.374  -2.198  1.00  0.00    -0.014 A 
BRANCH  44  45
ATOM     45  C   UNL     1      -2.248   9.933  -2.167  1.00  0.00     0.031 A 
ATOM     46  C   UNL     1      -1.264   9.065  -3.391  1.00  0.00     0.074 A 
ATOM     47  C   UNL     1      -1.898  10.989  -1.194  1.00  0.00     0.049 A 
ATOM     48  N   UNL     1      -0.069   8.596  -3.120  1.00  0.00    -0.248 NA
ATOM     49  C   UNL     1      -1.509   8.600  -4.773  1.00  0.00     0.031 C 
ATOM     50  C   UNL     1      -0.591  11.828  -0.821  1.00  0.00     0.029 A 
ATOM     51  N   UNL     1      -2.687  11.601  -0.204  1.00  0.00    -0.354 N 
ATOM     52  C   UNL     1       0.670   8.067  -4.099  1.00  0.00     0.074 A 
ATOM     53  C   UNL     1      -0.360   7.954  -5.116  1.00  0.00     0.031 C 
ATOM     54  C   UNL     1      -0.675  12.706   0.156  1.00  0.00     0.029 A 
ATOM     55  C   UNL     1      -1.866  12.299   0.745  1.00  0.00     0.049 A 
ATOM     56  H   UNL     1      -3.670  11.557  -0.168  1.00  0.00     0.167 HD
ATOM     57  C   UNL     1       2.019   7.878  -3.852  1.00  0.00     0.037 A 
ATOM     58  C   UNL     1      -1.806  12.013   2.058  1.00  0.00     0.037 A 
ATOM     59  C   UNL     1       2.563   8.566  -2.559  1.00  0.00     0.049 A 
ATOM     60  C   UNL     1      -0.494  11.061   2.382  1.00  0.00     0.074 A 
ATOM     61  C   UNL     1       3.236   9.776  -2.377  1.00  0.00     0.029 A 
ATOM     62  N   UNL     1       2.329   8.161  -1.217  1.00  0.00    -0.354 N 
ATOM     63  N   UNL     1       0.540  10.802   1.554  1.00  0.00    -0.248 NA
ATOM     64  C   UNL     1      -0.298  10.314   3.626  1.00  0.00     0.031 C 
ATOM     65  C   UNL     1       3.260  10.153  -0.979  1.00  0.00     0.029 A 
ATOM     66  C   UNL     1       2.657   9.170  -0.213  1.00  0.00     0.049 A 
ATOM     67  H   UNL     1       1.974   7.273  -0.983  1.00  0.00     0.167 HD
ATOM     68  C   UNL     1       1.378   9.751   2.018  1.00  0.00     0.074 A 
ATOM     69  C   UNL     1       0.779   9.538   3.357  1.00  0.00     0.031 C 
ATOM     70  C   UNL     1       2.376   8.989   1.312  1.00  0.00     0.037 A 
BRANCH  57  71
ATOM     71  C   UNL     1       2.948   7.372  -4.976  1.00  0.00     0.058 A 
ATOM     72  C   UNL     1       4.336   7.630  -4.965  1.00  0.00     0.135 A 
ATOM     73  C   UNL     1       2.517   6.649  -6.116  1.00  0.00     0.135 A 
ATOM     74  F   UNL     1       4.930   8.189  -3.903  1.00  0.00    -0.206 F 
ATOM     75  C   UNL     1       5.187   7.328  -6.043  1.00  0.00     0.059 A 
ATOM     76  C   UNL     1       3.334   6.377  -7.225  1.00  0.00     0.059 A 
ATOM     77  F   UNL     1       1.286   6.126  -6.186  1.00  0.00    -0.206 F 
ATOM     78  C   UNL     1       4.670   6.739  -7.189  1.00  0.00     0.060 A 
BRANCH  78  79
ATOM     79  S   UNL     1       5.757   6.436  -8.602  1.00  0.00     0.124 S 
ATOM     80  O   UNL     1       6.211   7.784  -8.932  1.00  0.00    -0.237 OA
ATOM     81  O   UNL     1       6.764   5.547  -8.035  1.00  0.00    -0.237 OA
ATOM     82  O   UNL     1       4.872   5.824  -9.590  1.00  0.00    -0.744 OA
ENDBRANCH  78  79
ENDBRANCH  57  71
BRANCH  58  83
ATOM     83  C   UNL     1      -3.220  12.507   2.429  1.00  0.00     0.058 A 
ATOM     84  C   UNL     1      -3.437  13.899   2.092  1.00  0.00     0.135 A 
ATOM     85  C   UNL     1      -4.383  11.727   2.240  1.00  0.00     0.135 A 
ATOM     86  F   UNL     1      -2.403  14.760   2.167  1.00  0.00    -0.206 F 
ATOM     87  C   UNL     1      -4.590  14.394   1.436  1.00  0.00     0.059 A 
ATOM     88  C   UNL     1      -5.596  12.234   1.643  1.00  0.00     0.059 A 
ATOM     89  F   UNL     1      -4.331  10.418   2.522  1.00  0.00    -0.206 F 
ATOM     90  C   UNL     1      -5.687  13.568   1.208  1.00  0.00     0.060 A 
BRANCH  90  91
ATOM     91  S   UNL     1      -7.176  14.377   0.371  1.00  0.00     0.124 S 
ATOM     92  O   UNL     1      -7.894  14.865   1.544  1.00  0.00    -0.237 OA
ATOM     93  O   UNL     1      -6.543  15.418  -0.448  1.00  0.00    -0.237 OA
ATOM     94  O   UNL     1      -7.943  13.400  -0.395  1.00  0.00    -0.744 OA
ENDBRANCH  90  91
ENDBRANCH  58  83
BRANCH  70  95
ATOM     95  C   UNL     1       3.150   7.800   1.991  1.00  0.00     0.058 A 
ATOM     96  C   UNL     1       3.432   7.740   3.369  1.00  0.00     0.135 A 
ATOM     97  C   UNL     1       3.720   6.711   1.267  1.00  0.00     0.135 A 
ATOM     98  F   UNL     1       3.223   8.802   4.162  1.00  0.00    -0.206 F 
ATOM     99  C   UNL     1       4.025   6.630   3.995  1.00  0.00     0.059 A 
ATOM    100  C   UNL     1       4.386   5.627   1.858  1.00  0.00     0.059 A 
ATOM    101  F   UNL     1       3.702   6.643  -0.068  1.00  0.00    -0.206 F 
ATOM    102  C   UNL     1       4.493   5.569   3.232  1.00  0.00     0.060 A 
BRANCH 102 103
ATOM    103  S   UNL     1       5.346   4.201   4.043  1.00  0.00     0.124 S 
ATOM    104  O   UNL     1       6.266   4.899   4.938  1.00  0.00    -0.237 OA
ATOM    105  O   UNL     1       4.244   3.501   4.694  1.00  0.00    -0.237 OA
ATOM    106  O   UNL     1       5.981   3.483   2.942  1.00  0.00    -0.744 OA
ENDBRANCH 102 103
ENDBRANCH  70  95
ENDBRANCH  44  45
ENDBRANCH  37  39
ENDBRANCH  36  37
ENDBRANCH  35  36
ENDBRANCH  34  35
ENDBRANCH  33  34
ENDBRANCH  32  33
ENDBRANCH   1  32
TORSDOF 23
