REMARK SMILES O=CN[C@@H](Cc1cc(Cl)ccc1[N+](=O)[O-])C(=O)OCCOCCOCCOC(=O)c1ccc(-c2c3nc(c(-c4c(F)cc(S(=O)(=O)[O-])cc4F)c4ccc([nH]4)c(-c4c(F)cc(S(=O)(=O)[O-])cc4F)c4nc(c(-c5c(F)cc(S(=O)(=O)[O-])cc5F)c5ccc2[nH]5)C=C4)C=C3)cc1
REMARK SMILES IDX 22 1 21 2 20 3 19 4 18 5 16 6 17 7 4 8 3 9 1 10 2 11 5 13
REMARK SMILES IDX 6 14 7 15 12 16 8 17 11 18 9 19 10 20 13 21 14 22 15 23
REMARK SMILES IDX 23 24 24 25 25 26 26 27 27 28 28 29 29 30 30 31 31 32 95 33
REMARK SMILES IDX 32 34 94 35 33 36 34 37 35 38 88 39 36 40 93 41 87 42 89 43
REMARK SMILES IDX 37 44 92 45 86 46 85 47 38 49 72 50 51 51 71 52 52 53 55 54
REMARK SMILES IDX 70 55 90 56 53 57 54 58 69 60 91 61 56 62 39 63 40 64 49 65
REMARK SMILES IDX 41 66 42 67 48 68 50 69 43 70 44 71 45 72 46 73 47 74 73 75
REMARK SMILES IDX 74 76 83 77 75 78 76 79 82 80 84 81 77 82 78 83 79 84 80 85
REMARK SMILES IDX 81 86 57 87 58 88 67 89 59 90 60 91 66 92 68 93 61 94 62 95
REMARK SMILES IDX 63 96 64 97 65 98
REMARK H PARENT 3 12 89 48 55 59
REMARK Flexibility Score: inf
ROOT
ATOM      1  C   UNL     1       4.873   3.708  -1.232  1.00  0.00     0.188 C 
ENDROOT
BRANCH   1   2
ATOM      2  O   UNL     1       5.614   4.444  -2.201  1.00  0.00    -0.376 OA
BRANCH   2   3
ATOM      3  C   UNL     1       5.786   3.879  -3.498  1.00  0.00     0.202 C 
BRANCH   3   4
ATOM      4  C   UNL     1       6.282   2.429  -3.574  1.00  0.00     0.261 C 
BRANCH   4   5
ATOM      5  O   UNL     1       5.399   1.492  -2.919  1.00  0.00    -0.462 OA
BRANCH   5   6
ATOM      6  C   UNL     1       5.979   0.443  -2.282  1.00  0.00     0.329 C 
ATOM      7  O   UNL     1       7.184   0.216  -2.301  1.00  0.00    -0.250 OA
BRANCH   6   8
ATOM      8  C   UNL     1       4.964  -0.528  -1.612  1.00  0.00     0.196 C 
BRANCH   8   9
ATOM      9  N   UNL     1       3.559  -0.176  -1.386  1.00  0.00    -0.345 N 
ATOM     10  O   UNL     1       1.698  -0.105  -0.098  1.00  0.00    -0.279 OA
ATOM     11  C   UNL     1       2.886  -0.370  -0.216  1.00  0.00     0.337 C 
ATOM     12  H   UNL     1       3.065   0.231  -2.134  1.00  0.00     0.164 HD
ENDBRANCH   8   9
BRANCH   8  13
ATOM     13  C   UNL     1       5.017  -1.870  -2.366  1.00  0.00     0.079 C 
BRANCH  13  14
ATOM     14  C   UNL     1       4.443  -1.973  -3.779  1.00  0.00     0.034 A 
ATOM     15  C   UNL     1       3.956  -0.845  -4.477  1.00  0.00     0.031 A 
ATOM     16  C   UNL     1       4.396  -3.208  -4.471  1.00  0.00     0.272 A 
ATOM     17  C   UNL     1       3.503  -0.922  -5.797  1.00  0.00     0.041 A 
ATOM     18  C   UNL     1       3.940  -3.279  -5.805  1.00  0.00     0.087 A 
ATOM     19  Cl  UNL     1       2.948   0.501  -6.592  1.00  0.00    -0.084 Cl
ATOM     20  C   UNL     1       3.506  -2.133  -6.469  1.00  0.00     0.027 A 
BRANCH  16  21
ATOM     21  N   UNL     1       4.781  -4.487  -3.844  1.00  0.00     0.062 N 
ATOM     22  O   UNL     1       4.212  -5.509  -4.255  1.00  0.00    -0.258 OA
ATOM     23  O   UNL     1       5.650  -4.480  -2.965  1.00  0.00    -0.258 OA
ENDBRANCH  16  21
ENDBRANCH  13  14
ENDBRANCH   8  13
ENDBRANCH   6   8
ENDBRANCH   5   6
ENDBRANCH   4   5
ENDBRANCH   3   4
ENDBRANCH   2   3
ENDBRANCH   1   2
BRANCH   1  24
ATOM     24  C   UNL     1       3.518   3.116  -1.655  1.00  0.00     0.188 C 
BRANCH  24  25
ATOM     25  O   UNL     1       3.111   3.446  -2.966  1.00  0.00    -0.376 OA
BRANCH  25  26
ATOM     26  C   UNL     1       1.962   4.268  -3.078  1.00  0.00     0.202 C 
BRANCH  26  27
ATOM     27  C   UNL     1       1.956   5.614  -2.329  1.00  0.00     0.261 C 
BRANCH  27  28
ATOM     28  O   UNL     1       2.438   5.605  -0.972  1.00  0.00    -0.460 OA
BRANCH  28  29
ATOM     29  C   UNL     1       1.622   5.102  -0.014  1.00  0.00     0.338 C 
ATOM     30  O   UNL     1       0.488   4.684  -0.177  1.00  0.00    -0.246 OA
BRANCH  29  31
ATOM     31  C   UNL     1       2.429   4.921   1.222  1.00  0.00     0.060 A 
ATOM     32  C   UNL     1       2.575   3.635   1.769  1.00  0.00     0.016 A 
ATOM     33  C   UNL     1       3.076   6.006   1.817  1.00  0.00     0.016 A 
ATOM     34  C   UNL     1       3.345   3.440   2.922  1.00  0.00     0.010 A 
ATOM     35  C   UNL     1       3.823   5.813   2.986  1.00  0.00     0.010 A 
ATOM     36  C   UNL     1       3.940   4.535   3.563  1.00  0.00    -0.014 A 
BRANCH  36  37
ATOM     37  C   UNL     1       4.503   4.396   4.934  1.00  0.00     0.031 A 
ATOM     38  C   UNL     1       3.631   4.783   6.101  1.00  0.00     0.074 A 
ATOM     39  C   UNL     1       5.756   3.954   5.156  1.00  0.00     0.049 A 
ATOM     40  N   UNL     1       3.921   4.849   7.374  1.00  0.00    -0.248 NA
ATOM     41  C   UNL     1       2.242   5.152   5.780  1.00  0.00     0.031 C 
ATOM     42  C   UNL     1       6.692   3.507   4.128  1.00  0.00     0.029 A 
ATOM     43  N   UNL     1       6.461   3.827   6.330  1.00  0.00    -0.354 N 
ATOM     44  C   UNL     1       2.759   5.278   8.005  1.00  0.00     0.074 A 
ATOM     45  C   UNL     1       1.767   5.482   6.971  1.00  0.00     0.031 C 
ATOM     46  C   UNL     1       7.857   3.172   4.714  1.00  0.00     0.029 A 
ATOM     47  C   UNL     1       7.762   3.416   6.154  1.00  0.00     0.049 A 
ATOM     48  H   UNL     1       6.071   4.014   7.215  1.00  0.00     0.167 HD
ATOM     49  C   UNL     1       2.532   5.478   9.325  1.00  0.00     0.037 A 
ATOM     50  C   UNL     1       8.767   3.281   7.046  1.00  0.00     0.037 A 
ATOM     51  C   UNL     1       3.519   5.281  10.354  1.00  0.00     0.049 A 
ATOM     52  C   UNL     1       8.516   3.585   8.504  1.00  0.00     0.074 A 
ATOM     53  C   UNL     1       3.380   5.446  11.721  1.00  0.00     0.029 A 
ATOM     54  N   UNL     1       4.830   4.886  10.131  1.00  0.00    -0.354 N 
ATOM     55  N   UNL     1       7.407   3.972   9.090  1.00  0.00    -0.248 NA
ATOM     56  C   UNL     1       9.654   3.433   9.424  1.00  0.00     0.031 C 
ATOM     57  C   UNL     1       4.621   5.204  12.320  1.00  0.00     0.029 A 
ATOM     58  C   UNL     1       5.517   4.826  11.333  1.00  0.00     0.049 A 
ATOM     59  H   UNL     1       5.215   4.678   9.249  1.00  0.00     0.167 HD
ATOM     60  C   UNL     1       7.707   4.077  10.447  1.00  0.00     0.074 A 
ATOM     61  C   UNL     1       9.098   3.705  10.596  1.00  0.00     0.031 C 
ATOM     62  C   UNL     1       6.901   4.444  11.475  1.00  0.00     0.037 A 
BRANCH  49  63
ATOM     63  C   UNL     1       1.167   5.967   9.729  1.00  0.00     0.058 A 
ATOM     64  C   UNL     1       0.032   5.145   9.649  1.00  0.00     0.135 A 
ATOM     65  C   UNL     1       0.998   7.269  10.226  1.00  0.00     0.135 A 
ATOM     66  F   UNL     1       0.133   3.897   9.163  1.00  0.00    -0.206 F 
ATOM     67  C   UNL     1      -1.227   5.606  10.020  1.00  0.00     0.059 A 
ATOM     68  C   UNL     1      -0.247   7.741  10.632  1.00  0.00     0.059 A 
ATOM     69  F   UNL     1       2.049   8.099  10.322  1.00  0.00    -0.206 F 
ATOM     70  C   UNL     1      -1.356   6.907  10.510  1.00  0.00     0.060 A 
BRANCH  70  71
ATOM     71  S   UNL     1      -2.996   7.489  10.988  1.00  0.00     0.124 S 
ATOM     72  O   UNL     1      -3.642   7.639   9.688  1.00  0.00    -0.237 OA
ATOM     73  O   UNL     1      -3.487   6.392  11.816  1.00  0.00    -0.237 OA
ATOM     74  O   UNL     1      -2.723   8.733  11.700  1.00  0.00    -0.744 OA
ENDBRANCH  70  71
ENDBRANCH  49  63
BRANCH  50  75
ATOM     75  C   UNL     1      10.118   2.848   6.591  1.00  0.00     0.058 A 
ATOM     76  C   UNL     1      10.643   1.600   6.959  1.00  0.00     0.135 A 
ATOM     77  C   UNL     1      10.919   3.680   5.792  1.00  0.00     0.135 A 
ATOM     78  F   UNL     1       9.926   0.775   7.738  1.00  0.00    -0.206 F 
ATOM     79  C   UNL     1      11.914   1.196   6.563  1.00  0.00     0.059 A 
ATOM     80  C   UNL     1      12.182   3.287   5.359  1.00  0.00     0.059 A 
ATOM     81  F   UNL     1      10.466   4.884   5.409  1.00  0.00    -0.206 F 
ATOM     82  C   UNL     1      12.675   2.045   5.757  1.00  0.00     0.060 A 
BRANCH  82  83
ATOM     83  S   UNL     1      14.300   1.485   5.202  1.00  0.00     0.124 S 
ATOM     84  O   UNL     1      15.074   1.557   6.436  1.00  0.00    -0.237 OA
ATOM     85  O   UNL     1      14.008   0.143   4.708  1.00  0.00    -0.237 OA
ATOM     86  O   UNL     1      14.658   2.459   4.175  1.00  0.00    -0.744 OA
ENDBRANCH  82  83
ENDBRANCH  50  75
BRANCH  62  87
ATOM     87  C   UNL     1       7.479   4.419  12.866  1.00  0.00     0.058 A 
ATOM     88  C   UNL     1       8.420   5.366  13.299  1.00  0.00     0.135 A 
ATOM     89  C   UNL     1       7.035   3.467  13.801  1.00  0.00     0.135 A 
ATOM     90  F   UNL     1       8.883   6.296  12.448  1.00  0.00    -0.206 F 
ATOM     91  C   UNL     1       8.918   5.356  14.599  1.00  0.00     0.059 A 
ATOM     92  C   UNL     1       7.496   3.458  15.114  1.00  0.00     0.059 A 
ATOM     93  F   UNL     1       6.126   2.545  13.447  1.00  0.00    -0.206 F 
ATOM     94  C   UNL     1       8.448   4.400  15.501  1.00  0.00     0.060 A 
BRANCH  94  95
ATOM     95  S   UNL     1       9.077   4.420  17.194  1.00  0.00     0.124 S 
ATOM     96  O   UNL     1      10.434   3.918  17.010  1.00  0.00    -0.237 OA
ATOM     97  O   UNL     1       8.966   5.831  17.550  1.00  0.00    -0.237 OA
ATOM     98  O   UNL     1       8.168   3.527  17.906  1.00  0.00    -0.744 OA
ENDBRANCH  94  95
ENDBRANCH  62  87
ENDBRANCH  36  37
ENDBRANCH  29  31
ENDBRANCH  28  29
ENDBRANCH  27  28
ENDBRANCH  26  27
ENDBRANCH  25  26
ENDBRANCH  24  25
ENDBRANCH   1  24
TORSDOF 24
