REMARK SMILES Cc1cc(C(=O)N[C@H]2C=C[C@H](C(=O)OCCOCCOCCOC(=O)c3ccc(-c4c5nc(c(-c6c(F)cc(S(=O)(=O)[O-])cc6F)c6ccc([nH]6)c(-c6c(F)cc(S(=O)(=O)[O-])cc6F)c6nc(c(-c7c(F)cc(S(=O)(=O)[O-])cc7F)c7ccc4[nH]7)C=C6)C=C5)cc3)C2)ccc1F
REMARK SMILES IDX 19 1 18 2 17 3 16 4 15 5 14 6 12 7 13 8 11 9 8 10 9 11 92 12
REMARK SMILES IDX 10 13 7 14 5 15 6 16 4 18 1 19 2 20 3 21 95 22 94 23 96 24
REMARK SMILES IDX 93 25 20 26 21 27 22 28 23 29 24 30 25 31 26 32 27 33 91 34
REMARK SMILES IDX 28 35 90 36 29 37 30 38 31 39 84 40 32 41 89 42 83 43 85 44
REMARK SMILES IDX 33 45 88 46 82 47 81 48 34 50 68 51 47 52 67 53 48 54 51 55
REMARK SMILES IDX 66 56 86 57 49 58 50 59 65 61 87 62 52 63 35 64 36 65 45 66
REMARK SMILES IDX 37 67 38 68 44 69 46 70 39 71 40 72 41 73 42 74 43 75 69 76
REMARK SMILES IDX 70 77 79 78 71 79 72 80 78 81 80 82 73 83 74 84 75 85 76 86
REMARK SMILES IDX 77 87 53 88 54 89 63 90 55 91 56 92 62 93 64 94 57 95 58 96
REMARK SMILES IDX 59 97 60 98 61 99
REMARK H PARENT 7 17 85 49 51 60
REMARK Flexibility Score: inf
ROOT
ATOM      1  C   UNL     1       1.336   5.544   3.157  1.00  0.00     0.188 C 
ENDROOT
BRANCH   1   2
ATOM      2  C   UNL     1       1.625   4.175   2.490  1.00  0.00     0.188 C 
BRANCH   2   3
ATOM      3  O   UNL     1       2.838   3.961   1.770  1.00  0.00    -0.376 OA
BRANCH   3   4
ATOM      4  C   UNL     1       3.222   4.952   0.822  1.00  0.00     0.202 C 
BRANCH   4   5
ATOM      5  C   UNL     1       2.178   5.376  -0.228  1.00  0.00     0.261 C 
BRANCH   5   6
ATOM      6  O   UNL     1       0.903   5.731   0.341  1.00  0.00    -0.463 OA
BRANCH   6   7
ATOM      7  C   UNL     1      -0.204   5.250  -0.283  1.00  0.00     0.312 C 
ATOM      8  O   UNL     1      -0.195   4.763  -1.409  1.00  0.00    -0.252 OA
BRANCH   7   9
ATOM      9  C   UNL     1      -1.425   5.245   0.657  1.00  0.00     0.124 C 
ATOM     10  C   UNL     1      -2.716   3.468  -0.304  1.00  0.00     0.106 C 
ATOM     11  C   UNL     1      -3.434   4.772  -0.472  1.00  0.00    -0.006 C 
ATOM     12  C   UNL     1      -1.854   3.792   0.919  1.00  0.00     0.048 C 
ATOM     13  C   UNL     1      -2.680   5.771   0.014  1.00  0.00    -0.014 C 
BRANCH  10  14
ATOM     14  N   UNL     1      -3.601   2.352  -0.156  1.00  0.00    -0.346 N 
ATOM     15  C   UNL     1      -3.355   1.002  -0.253  1.00  0.00     0.251 C 
ATOM     16  O   UNL     1      -4.341   0.260  -0.292  1.00  0.00    -0.269 OA
ATOM     17  H   UNL     1      -4.534   2.589   0.048  1.00  0.00     0.164 HD
BRANCH  15  18
ATOM     18  C   UNL     1      -1.987   0.371  -0.260  1.00  0.00     0.040 A 
ATOM     19  C   UNL     1       1.755   1.112  -0.516  1.00  0.00     0.047 C 
ATOM     20  C   UNL     1       0.465   0.355  -0.387  1.00  0.00    -0.015 A 
ATOM     21  C   UNL     1      -0.771   1.011  -0.538  1.00  0.00     0.020 A 
ATOM     22  C   UNL     1       0.472  -0.990  -0.030  1.00  0.00     0.126 A 
ATOM     23  C   UNL     1      -0.716  -1.675   0.180  1.00  0.00     0.040 A 
ATOM     24  F   UNL     1       1.635  -1.640   0.113  1.00  0.00    -0.207 F 
ATOM     25  C   UNL     1      -1.935  -0.996   0.076  1.00  0.00     0.017 A 
ENDBRANCH  15  18
ENDBRANCH  10  14
ENDBRANCH   7   9
ENDBRANCH   6   7
ENDBRANCH   5   6
ENDBRANCH   4   5
ENDBRANCH   3   4
ENDBRANCH   2   3
ENDBRANCH   1   2
BRANCH   1  26
ATOM     26  O   UNL     1       2.161   6.619   2.707  1.00  0.00    -0.376 OA
BRANCH  26  27
ATOM     27  C   UNL     1       2.723   7.383   3.775  1.00  0.00     0.202 C 
BRANCH  27  28
ATOM     28  C   UNL     1       3.989   6.745   4.361  1.00  0.00     0.261 C 
BRANCH  28  29
ATOM     29  O   UNL     1       3.838   5.338   4.563  1.00  0.00    -0.460 OA
BRANCH  29  30
ATOM     30  C   UNL     1       3.201   5.048   5.712  1.00  0.00     0.338 C 
ATOM     31  O   UNL     1       2.962   5.795   6.644  1.00  0.00    -0.246 OA
BRANCH  30  32
ATOM     32  C   UNL     1       2.848   3.617   5.724  1.00  0.00     0.060 A 
ATOM     33  C   UNL     1       1.490   3.371   6.013  1.00  0.00     0.016 A 
ATOM     34  C   UNL     1       3.872   2.874   6.294  1.00  0.00     0.016 A 
ATOM     35  C   UNL     1       1.172   2.712   7.176  1.00  0.00     0.010 A 
ATOM     36  C   UNL     1       3.564   2.255   7.475  1.00  0.00     0.010 A 
ATOM     37  C   UNL     1       2.238   2.303   7.953  1.00  0.00    -0.014 A 
BRANCH  37  38
ATOM     38  C   UNL     1       2.117   2.070   9.371  1.00  0.00     0.031 A 
ATOM     39  C   UNL     1       2.166   0.688   9.842  1.00  0.00     0.074 A 
ATOM     40  C   UNL     1       2.285   3.139  10.176  1.00  0.00     0.049 A 
ATOM     41  N   UNL     1       2.144   0.343  11.078  1.00  0.00    -0.248 NA
ATOM     42  C   UNL     1       2.172  -0.442   8.915  1.00  0.00     0.031 C 
ATOM     43  C   UNL     1       2.846   3.158  11.518  1.00  0.00     0.029 A 
ATOM     44  N   UNL     1       1.803   4.432   9.986  1.00  0.00    -0.354 N 
ATOM     45  C   UNL     1       2.465  -0.991  11.121  1.00  0.00     0.074 A 
ATOM     46  C   UNL     1       2.300  -1.460   9.769  1.00  0.00     0.031 C 
ATOM     47  C   UNL     1       2.520   4.319  12.111  1.00  0.00     0.029 A 
ATOM     48  C   UNL     1       1.549   4.984  11.254  1.00  0.00     0.049 A 
ATOM     49  H   UNL     1       1.665   4.878   9.120  1.00  0.00     0.167 HD
ATOM     50  C   UNL     1       2.988  -1.480  12.277  1.00  0.00     0.037 A 
ATOM     51  C   UNL     1       0.252   5.216  11.635  1.00  0.00     0.037 A 
ATOM     52  C   UNL     1       2.752  -0.534  13.374  1.00  0.00     0.049 A 
ATOM     53  C   UNL     1      -0.264   4.292  12.730  1.00  0.00     0.074 A 
ATOM     54  C   UNL     1       3.515   0.419  14.024  1.00  0.00     0.029 A 
ATOM     55  N   UNL     1       1.437  -0.274  13.726  1.00  0.00    -0.354 N 
ATOM     56  N   UNL     1       0.415   3.312  13.262  1.00  0.00    -0.248 NA
ATOM     57  C   UNL     1      -1.627   4.368  13.263  1.00  0.00     0.031 C 
ATOM     58  C   UNL     1       2.616   1.334  14.663  1.00  0.00     0.029 A 
ATOM     59  C   UNL     1       1.319   0.910  14.429  1.00  0.00     0.049 A 
ATOM     60  H   UNL     1       0.679  -0.861  13.502  1.00  0.00     0.167 HD
ATOM     61  C   UNL     1      -0.394   2.592  14.095  1.00  0.00     0.074 A 
ATOM     62  C   UNL     1      -1.658   3.308  14.089  1.00  0.00     0.031 C 
ATOM     63  C   UNL     1      -0.013   1.430  14.699  1.00  0.00     0.037 A 
BRANCH  50  64
ATOM     64  C   UNL     1       3.854  -2.716  12.392  1.00  0.00     0.058 A 
ATOM     65  C   UNL     1       4.391  -3.072  13.649  1.00  0.00     0.135 A 
ATOM     66  C   UNL     1       4.300  -3.523  11.320  1.00  0.00     0.135 A 
ATOM     67  F   UNL     1       4.072  -2.389  14.758  1.00  0.00    -0.206 F 
ATOM     68  C   UNL     1       5.302  -4.117  13.820  1.00  0.00     0.059 A 
ATOM     69  C   UNL     1       5.176  -4.597  11.473  1.00  0.00     0.059 A 
ATOM     70  F   UNL     1       3.967  -3.292  10.047  1.00  0.00    -0.206 F 
ATOM     71  C   UNL     1       5.692  -4.875  12.725  1.00  0.00     0.060 A 
BRANCH  71  72
ATOM     72  S   UNL     1       6.892  -6.198  12.940  1.00  0.00     0.124 S 
ATOM     73  O   UNL     1       8.100  -5.454  13.283  1.00  0.00    -0.237 OA
ATOM     74  O   UNL     1       6.297  -6.983  14.016  1.00  0.00    -0.237 OA
ATOM     75  O   UNL     1       6.916  -6.854  11.634  1.00  0.00    -0.744 OA
ENDBRANCH  71  72
ENDBRANCH  50  64
BRANCH  51  76
ATOM     76  C   UNL     1      -0.584   5.739  10.514  1.00  0.00     0.058 A 
ATOM     77  C   UNL     1      -0.302   7.026  10.019  1.00  0.00     0.135 A 
ATOM     78  C   UNL     1      -1.310   4.870   9.688  1.00  0.00     0.135 A 
ATOM     79  F   UNL     1       0.372   7.906  10.778  1.00  0.00    -0.206 F 
ATOM     80  C   UNL     1      -0.594   7.383   8.704  1.00  0.00     0.059 A 
ATOM     81  C   UNL     1      -1.614   5.209   8.368  1.00  0.00     0.059 A 
ATOM     82  F   UNL     1      -1.617   3.634  10.109  1.00  0.00    -0.206 F 
ATOM     83  C   UNL     1      -1.205   6.447   7.870  1.00  0.00     0.060 A 
BRANCH  83  84
ATOM     84  S   UNL     1      -1.280   6.774   6.092  1.00  0.00     0.124 S 
ATOM     85  O   UNL     1      -2.536   7.502   5.966  1.00  0.00    -0.237 OA
ATOM     86  O   UNL     1      -0.074   7.559   5.852  1.00  0.00    -0.237 OA
ATOM     87  O   UNL     1      -1.259   5.440   5.493  1.00  0.00    -0.744 OA
ENDBRANCH  83  84
ENDBRANCH  51  76
BRANCH  63  88
ATOM     88  C   UNL     1      -0.945   0.687  15.602  1.00  0.00     0.058 A 
ATOM     89  C   UNL     1      -1.494   1.300  16.738  1.00  0.00     0.135 A 
ATOM     90  C   UNL     1      -1.230  -0.678  15.412  1.00  0.00     0.135 A 
ATOM     91  F   UNL     1      -1.252   2.596  16.996  1.00  0.00    -0.206 F 
ATOM     92  C   UNL     1      -2.305   0.603  17.628  1.00  0.00     0.059 A 
ATOM     93  C   UNL     1      -2.000  -1.407  16.312  1.00  0.00     0.059 A 
ATOM     94  F   UNL     1      -0.784  -1.334  14.329  1.00  0.00    -0.206 F 
ATOM     95  C   UNL     1      -2.552  -0.751  17.407  1.00  0.00     0.060 A 
BRANCH  95  96
ATOM     96  S   UNL     1      -3.592  -1.662  18.564  1.00  0.00     0.124 S 
ATOM     97  O   UNL     1      -3.278  -1.033  19.844  1.00  0.00    -0.237 OA
ATOM     98  O   UNL     1      -4.923  -1.385  18.034  1.00  0.00    -0.237 OA
ATOM     99  O   UNL     1      -3.128  -3.038  18.420  1.00  0.00    -0.744 OA
ENDBRANCH  95  96
ENDBRANCH  63  88
ENDBRANCH  37  38
ENDBRANCH  30  32
ENDBRANCH  29  30
ENDBRANCH  28  29
ENDBRANCH  27  28
ENDBRANCH  26  27
ENDBRANCH   1  26
TORSDOF 22
