REMARK SMILES O=C(C[C@H]([NH2+]Cc1ccccc1C1CC1)c1cccs1)OCCOCCOCCOC(=O)c1ccc(-c2c3nc(c(-c4c(F)cc(S(=O)(=O)[O-])cc4F)c4ccc([nH]4)c(-c4c(F)cc(S(=O)(=O)[O-])cc4F)c4nc(c(-c5c(F)cc(S(=O)(=O)[O-])cc5F)c5ccc2[nH]5)C=C4)C=C3)cc1
REMARK SMILES IDX 25 1 24 2 23 3 22 4 21 5 2 6 1 7 3 8 4 9 16 10 17 11 20 12
REMARK SMILES IDX 18 13 19 14 5 15 6 18 7 19 8 20 12 21 9 22 11 23 10 24 13 25
REMARK SMILES IDX 14 26 15 27 26 28 27 29 28 30 29 31 30 32 31 33 32 34 33 35
REMARK SMILES IDX 34 36 98 37 35 38 97 39 36 40 37 41 38 42 91 43 39 44 96 45
REMARK SMILES IDX 90 46 92 47 40 48 95 49 89 50 88 51 41 53 75 54 54 55 74 56
REMARK SMILES IDX 55 57 58 58 73 59 93 60 56 61 57 62 72 64 94 65 59 66 42 67
REMARK SMILES IDX 43 68 52 69 44 70 45 71 51 72 53 73 46 74 47 75 48 76 49 77
REMARK SMILES IDX 50 78 76 79 77 80 86 81 78 82 79 83 85 84 87 85 80 86 81 87
REMARK SMILES IDX 82 88 83 89 84 90 60 91 61 92 70 93 62 94 63 95 69 96 71 97
REMARK SMILES IDX 64 98 65 99 66 100 67 101 68 102
REMARK H PARENT 5 16 5 17 92 52 58 63
REMARK Flexibility Score: inf
ROOT
ATOM      1  C   UNL     1       5.781  -1.019  -1.285  1.00  0.00     0.188 C 
ENDROOT
BRANCH   1   2
ATOM      2  O   UNL     1       4.567  -0.277  -1.313  1.00  0.00    -0.376 OA
BRANCH   2   3
ATOM      3  C   UNL     1       4.620   1.097  -1.688  1.00  0.00     0.202 C 
BRANCH   3   4
ATOM      4  C   UNL     1       5.335   1.978  -0.672  1.00  0.00     0.261 C 
BRANCH   4   5
ATOM      5  O   UNL     1       4.724   1.729   0.599  1.00  0.00    -0.463 OA
BRANCH   5   6
ATOM      6  C   UNL     1       5.414   0.901   1.430  1.00  0.00     0.312 C 
ATOM      7  O   UNL     1       6.632   0.763   1.417  1.00  0.00    -0.252 OA
BRANCH   6   8
ATOM      8  C   UNL     1       4.478   0.011   2.214  1.00  0.00     0.193 C 
BRANCH   8   9
ATOM      9  C   UNL     1       3.237   0.737   2.777  1.00  0.00     0.235 C 
BRANCH   9  10
ATOM     10  C   UNL     1       3.729   1.911   3.617  1.00  0.00     0.062 A 
ATOM     11  C   UNL     1       3.798   3.257   3.300  1.00  0.00     0.021 A 
ATOM     12  S   UNL     1       4.468   1.606   5.143  1.00  0.00    -0.143 S 
ATOM     13  C   UNL     1       4.595   3.994   4.222  1.00  0.00     0.012 A 
ATOM     14  C   UNL     1       5.053   3.206   5.252  1.00  0.00     0.065 A 
ENDBRANCH   9  10
BRANCH   9  15
ATOM     15  N   UNL     1       2.262   1.195   1.758  1.00  0.00    -0.335 N 
ATOM     16  H   UNL     1       2.740   1.830   1.119  1.00  0.00     0.347 HD
ATOM     17  H   UNL     1       1.498   1.647   2.261  1.00  0.00     0.347 HD
BRANCH  15  18
ATOM     18  C   UNL     1       1.667   0.101   0.969  1.00  0.00     0.298 C 
BRANCH  18  19
ATOM     19  C   UNL     1       0.747   0.609  -0.132  1.00  0.00     0.010 A 
ATOM     20  C   UNL     1      -0.084   1.717   0.158  1.00  0.00     0.010 A 
ATOM     21  C   UNL     1       0.668   0.002  -1.411  1.00  0.00    -0.036 A 
ATOM     22  C   UNL     1      -0.919   2.282  -0.804  1.00  0.00     0.001 A 
ATOM     23  C   UNL     1      -0.191   0.610  -2.361  1.00  0.00     0.004 A 
ATOM     24  C   UNL     1      -0.963   1.735  -2.075  1.00  0.00     0.000 A 
BRANCH  21  25
ATOM     25  C   UNL     1       1.450  -1.202  -1.916  1.00  0.00     0.020 C 
ATOM     26  C   UNL     1       1.966  -2.377  -1.129  1.00  0.00     0.009 C 
ATOM     27  C   UNL     1       0.719  -2.533  -1.935  1.00  0.00     0.009 C 
ENDBRANCH  21  25
ENDBRANCH  18  19
ENDBRANCH  15  18
ENDBRANCH   9  15
ENDBRANCH   8   9
ENDBRANCH   6   8
ENDBRANCH   5   6
ENDBRANCH   4   5
ENDBRANCH   3   4
ENDBRANCH   2   3
ENDBRANCH   1   2
BRANCH   1  28
ATOM     28  C   UNL     1       6.699  -0.902  -2.505  1.00  0.00     0.188 C 
BRANCH  28  29
ATOM     29  O   UNL     1       6.079  -0.729  -3.775  1.00  0.00    -0.376 OA
BRANCH  29  30
ATOM     30  C   UNL     1       4.966  -1.563  -4.092  1.00  0.00     0.202 C 
BRANCH  30  31
ATOM     31  C   UNL     1       5.299  -3.043  -4.252  1.00  0.00     0.261 C 
BRANCH  31  32
ATOM     32  O   UNL     1       5.291  -3.705  -2.971  1.00  0.00    -0.460 OA
BRANCH  32  33
ATOM     33  C   UNL     1       6.370  -4.476  -2.721  1.00  0.00     0.338 C 
ATOM     34  O   UNL     1       7.315  -4.680  -3.471  1.00  0.00    -0.246 OA
BRANCH  33  35
ATOM     35  C   UNL     1       6.346  -4.977  -1.336  1.00  0.00     0.060 A 
ATOM     36  C   UNL     1       7.466  -4.712  -0.542  1.00  0.00     0.016 A 
ATOM     37  C   UNL     1       5.331  -5.821  -0.874  1.00  0.00     0.016 A 
ATOM     38  C   UNL     1       7.619  -5.362   0.681  1.00  0.00     0.010 A 
ATOM     39  C   UNL     1       5.488  -6.474   0.357  1.00  0.00     0.010 A 
ATOM     40  C   UNL     1       6.661  -6.292   1.111  1.00  0.00    -0.014 A 
BRANCH  40  41
ATOM     41  C   UNL     1       7.012  -7.189   2.244  1.00  0.00     0.031 A 
ATOM     42  C   UNL     1       7.567  -8.560   1.947  1.00  0.00     0.074 A 
ATOM     43  C   UNL     1       6.945  -6.756   3.516  1.00  0.00     0.049 A 
ATOM     44  N   UNL     1       8.065  -9.448   2.769  1.00  0.00    -0.248 NA
ATOM     45  C   UNL     1       7.567  -8.982   0.536  1.00  0.00     0.031 C 
ATOM     46  C   UNL     1       6.439  -5.452   3.940  1.00  0.00     0.029 A 
ATOM     47  N   UNL     1       7.321  -7.369   4.685  1.00  0.00    -0.354 N 
ATOM     48  C   UNL     1       8.461 -10.520   1.976  1.00  0.00     0.074 A 
ATOM     49  C   UNL     1       8.097 -10.194   0.614  1.00  0.00     0.031 C 
ATOM     50  C   UNL     1       6.536  -5.362   5.279  1.00  0.00     0.029 A 
ATOM     51  C   UNL     1       7.110  -6.600   5.804  1.00  0.00     0.049 A 
ATOM     52  H   UNL     1       7.705  -8.275   4.718  1.00  0.00     0.167 HD
ATOM     53  C   UNL     1       9.094 -11.661   2.340  1.00  0.00     0.037 A 
ATOM     54  C   UNL     1       7.358  -6.862   7.103  1.00  0.00     0.037 A 
ATOM     55  C   UNL     1       9.451 -11.999   3.693  1.00  0.00     0.049 A 
ATOM     56  C   UNL     1       8.027  -8.155   7.489  1.00  0.00     0.074 A 
ATOM     57  C   UNL     1      10.092 -13.134   4.158  1.00  0.00     0.029 A 
ATOM     58  N   UNL     1       9.195 -11.205   4.800  1.00  0.00    -0.354 N 
ATOM     59  N   UNL     1       8.428  -9.140   6.721  1.00  0.00    -0.248 NA
ATOM     60  C   UNL     1       8.293  -8.364   8.920  1.00  0.00     0.031 C 
ATOM     61  C   UNL     1      10.196 -13.041   5.551  1.00  0.00     0.029 A 
ATOM     62  C   UNL     1       9.652 -11.831   5.949  1.00  0.00     0.049 A 
ATOM     63  H   UNL     1       8.753 -10.325   4.774  1.00  0.00     0.167 HD
ATOM     64  C   UNL     1       9.008 -10.076   7.574  1.00  0.00     0.074 A 
ATOM     65  C   UNL     1       8.925  -9.530   8.912  1.00  0.00     0.031 C 
ATOM     66  C   UNL     1       9.557 -11.280   7.276  1.00  0.00     0.037 A 
BRANCH  53  67
ATOM     67  C   UNL     1       9.447 -12.633   1.250  1.00  0.00     0.058 A 
ATOM     68  C   UNL     1      10.507 -12.382   0.365  1.00  0.00     0.135 A 
ATOM     69  C   UNL     1       8.747 -13.842   1.110  1.00  0.00     0.135 A 
ATOM     70  F   UNL     1      11.196 -11.232   0.445  1.00  0.00    -0.206 F 
ATOM     71  C   UNL     1      10.852 -13.288  -0.632  1.00  0.00     0.059 A 
ATOM     72  C   UNL     1       9.088 -14.772   0.133  1.00  0.00     0.059 A 
ATOM     73  F   UNL     1       7.722 -14.128   1.929  1.00  0.00    -0.206 F 
ATOM     74  C   UNL     1      10.135 -14.481  -0.741  1.00  0.00     0.060 A 
BRANCH  74  75
ATOM     75  S   UNL     1      10.600 -15.653  -2.033  1.00  0.00     0.124 S 
ATOM     76  O   UNL     1      10.065 -15.000  -3.224  1.00  0.00    -0.237 OA
ATOM     77  O   UNL     1      12.055 -15.679  -1.925  1.00  0.00    -0.237 OA
ATOM     78  O   UNL     1       9.924 -16.883  -1.635  1.00  0.00    -0.744 OA
ENDBRANCH  74  75
ENDBRANCH  53  67
BRANCH  54  79
ATOM     79  C   UNL     1       6.971  -5.875   8.144  1.00  0.00     0.058 A 
ATOM     80  C   UNL     1       7.934  -5.138   8.848  1.00  0.00     0.135 A 
ATOM     81  C   UNL     1       5.621  -5.670   8.469  1.00  0.00     0.135 A 
ATOM     82  F   UNL     1       9.237  -5.309   8.579  1.00  0.00    -0.206 F 
ATOM     83  C   UNL     1       7.575  -4.247   9.855  1.00  0.00     0.059 A 
ATOM     84  C   UNL     1       5.237  -4.769   9.456  1.00  0.00     0.059 A 
ATOM     85  F   UNL     1       4.662  -6.345   7.816  1.00  0.00    -0.206 F 
ATOM     86  C   UNL     1       6.223  -4.072  10.153  1.00  0.00     0.060 A 
BRANCH  86  87
ATOM     87  S   UNL     1       5.758  -2.893  11.440  1.00  0.00     0.124 S 
ATOM     88  O   UNL     1       6.046  -3.652  12.651  1.00  0.00    -0.237 OA
ATOM     89  O   UNL     1       6.646  -1.768  11.165  1.00  0.00    -0.237 OA
ATOM     90  O   UNL     1       4.345  -2.646  11.169  1.00  0.00    -0.744 OA
ENDBRANCH  86  87
ENDBRANCH  54  79
BRANCH  66  91
ATOM     91  C   UNL     1      10.121 -12.080   8.418  1.00  0.00     0.058 A 
ATOM     92  C   UNL     1       9.286 -12.721   9.347  1.00  0.00     0.135 A 
ATOM     93  C   UNL     1      11.509 -12.220   8.579  1.00  0.00     0.135 A 
ATOM     94  F   UNL     1       7.952 -12.618   9.240  1.00  0.00    -0.206 F 
ATOM     95  C   UNL     1       9.807 -13.442  10.417  1.00  0.00     0.059 A 
ATOM     96  C   UNL     1      12.052 -12.956   9.628  1.00  0.00     0.059 A 
ATOM     97  F   UNL     1      12.352 -11.639   7.710  1.00  0.00    -0.206 F 
ATOM     98  C   UNL     1      11.193 -13.547  10.553  1.00  0.00     0.060 A 
BRANCH  98  99
ATOM     99  S   UNL     1      11.862 -14.482  11.946  1.00  0.00     0.124 S 
ATOM    100  O   UNL     1      11.720 -13.524  13.037  1.00  0.00    -0.237 OA
ATOM    101  O   UNL     1      10.979 -15.643  12.003  1.00  0.00    -0.237 OA
ATOM    102  O   UNL     1      13.233 -14.767  11.533  1.00  0.00    -0.744 OA
ENDBRANCH  98  99
ENDBRANCH  66  91
ENDBRANCH  40  41
ENDBRANCH  33  35
ENDBRANCH  32  33
ENDBRANCH  31  32
ENDBRANCH  30  31
ENDBRANCH  29  30
ENDBRANCH  28  29
ENDBRANCH   1  28
TORSDOF 26
