REMARK SMILES O=C(OCCOCCOCCOC(=O)[C@H]1CC[C@@H](CNC(=O)[C@@H]2C[C@H]3CC[C@@H]2[NH2+]3)O1)c1ccc(-c2c3nc(c(-c4c(F)cc(S(=O)(=O)[O-])cc4F)c4ccc([nH]4)c(-c4c(F)cc(S(=O)(=O)[O-])cc4F)c4nc(c(-c5c(F)cc(S(=O)(=O)[O-])cc5F)c5ccc2[nH]5)C=C4)C=C3)cc1
REMARK SMILES IDX 7 1 6 2 5 3 4 4 3 5 2 6 1 7 31 8 32 9 96 10 33 11 95 12
REMARK SMILES IDX 34 13 35 14 36 15 89 16 37 17 94 18 88 19 90 20 38 21 93 22
REMARK SMILES IDX 87 23 86 24 39 26 73 27 52 28 72 29 53 30 56 31 71 32 91 33
REMARK SMILES IDX 54 34 55 35 70 37 92 38 57 39 40 40 41 41 50 42 42 43 43 44
REMARK SMILES IDX 49 45 51 46 44 47 45 48 46 49 47 50 48 51 74 52 75 53 84 54
REMARK SMILES IDX 76 55 77 56 83 57 85 58 78 59 79 60 80 61 81 62 82 63 58 64
REMARK SMILES IDX 59 65 68 66 60 67 61 68 67 69 69 70 62 71 63 72 64 73 65 74
REMARK SMILES IDX 66 75 8 76 9 77 10 78 11 79 12 80 13 81 14 82 15 83 16 84
REMARK SMILES IDX 30 85 17 86 18 87 19 88 20 89 21 90 22 92 23 93 24 94 28 95
REMARK SMILES IDX 25 96 27 97 29 98 26 99
REMARK H PARENT 90 25 56 36 20 91 29 100 29 101
REMARK Flexibility Score: inf
ROOT
ATOM      1  C   UNL     1      -1.585  -1.858  -3.218  1.00  0.00     0.188 C 
ENDROOT
BRANCH   1   2
ATOM      2  O   UNL     1      -1.223  -3.150  -2.745  1.00  0.00    -0.376 OA
BRANCH   2   3
ATOM      3  C   UNL     1      -2.339  -3.888  -2.249  1.00  0.00     0.202 C 
BRANCH   3   4
ATOM      4  C   UNL     1      -2.912  -3.411  -0.900  1.00  0.00     0.261 C 
BRANCH   4   5
ATOM      5  O   UNL     1      -2.839  -1.994  -0.650  1.00  0.00    -0.460 OA
BRANCH   5   6
ATOM      6  C   UNL     1      -1.855  -1.243  -0.097  1.00  0.00     0.338 C 
ATOM      7  O   UNL     1      -2.132  -0.086   0.221  1.00  0.00    -0.246 OA
BRANCH   6   8
ATOM      8  C   UNL     1      -0.427  -1.682   0.055  1.00  0.00     0.060 A 
ATOM      9  C   UNL     1       0.057  -2.970  -0.178  1.00  0.00     0.016 A 
ATOM     10  C   UNL     1       0.505  -0.698   0.450  1.00  0.00     0.016 A 
ATOM     11  C   UNL     1       1.406  -3.281  -0.047  1.00  0.00     0.010 A 
ATOM     12  C   UNL     1       1.855  -1.011   0.645  1.00  0.00     0.010 A 
ATOM     13  C   UNL     1       2.293  -2.319   0.426  1.00  0.00    -0.014 A 
BRANCH  13  14
ATOM     14  C   UNL     1       3.564  -2.805   0.987  1.00  0.00     0.031 A 
ATOM     15  C   UNL     1       3.523  -3.308   2.401  1.00  0.00     0.074 A 
ATOM     16  C   UNL     1       4.665  -2.902   0.228  1.00  0.00     0.049 A 
ATOM     17  N   UNL     1       4.474  -3.823   3.128  1.00  0.00    -0.248 NA
ATOM     18  C   UNL     1       2.213  -3.245   3.078  1.00  0.00     0.031 C 
ATOM     19  C   UNL     1       4.748  -2.533  -1.185  1.00  0.00     0.029 A 
ATOM     20  N   UNL     1       5.921  -3.347   0.537  1.00  0.00    -0.354 N 
ATOM     21  C   UNL     1       3.880  -4.141   4.343  1.00  0.00     0.074 A 
ATOM     22  C   UNL     1       2.487  -3.772   4.258  1.00  0.00     0.031 C 
ATOM     23  C   UNL     1       6.002  -2.750  -1.617  1.00  0.00     0.029 A 
ATOM     24  C   UNL     1       6.814  -3.231  -0.500  1.00  0.00     0.049 A 
ATOM     25  H   UNL     1       6.162  -3.714   1.418  1.00  0.00     0.167 HD
ATOM     26  C   UNL     1       4.458  -4.671   5.444  1.00  0.00     0.037 A 
ATOM     27  C   UNL     1       8.143  -3.452  -0.517  1.00  0.00     0.037 A 
ATOM     28  C   UNL     1       5.862  -4.953   5.522  1.00  0.00     0.049 A 
ATOM     29  C   UNL     1       8.796  -3.943   0.749  1.00  0.00     0.074 A 
ATOM     30  C   UNL     1       6.597  -5.403   6.600  1.00  0.00     0.029 A 
ATOM     31  N   UNL     1       6.750  -4.779   4.466  1.00  0.00    -0.354 N 
ATOM     32  N   UNL     1       8.236  -4.217   1.907  1.00  0.00    -0.248 NA
ATOM     33  C   UNL     1      10.249  -4.148   0.722  1.00  0.00     0.031 C 
ATOM     34  C   UNL     1       7.940  -5.453   6.208  1.00  0.00     0.029 A 
ATOM     35  C   UNL     1       8.032  -5.089   4.871  1.00  0.00     0.049 A 
ATOM     36  H   UNL     1       6.500  -4.478   3.562  1.00  0.00     0.167 HD
ATOM     37  C   UNL     1       9.264  -4.639   2.742  1.00  0.00     0.074 A 
ATOM     38  C   UNL     1      10.480  -4.589   1.953  1.00  0.00     0.031 C 
ATOM     39  C   UNL     1       9.211  -5.033   4.039  1.00  0.00     0.037 A 
BRANCH  26  40
ATOM     40  C   UNL     1       3.575  -4.850   6.646  1.00  0.00     0.058 A 
ATOM     41  C   UNL     1       2.576  -5.837   6.694  1.00  0.00     0.135 A 
ATOM     42  C   UNL     1       3.656  -3.948   7.718  1.00  0.00     0.135 A 
ATOM     43  F   UNL     1       2.429  -6.701   5.677  1.00  0.00    -0.206 F 
ATOM     44  C   UNL     1       1.656  -5.889   7.737  1.00  0.00     0.059 A 
ATOM     45  C   UNL     1       2.762  -3.996   8.783  1.00  0.00     0.059 A 
ATOM     46  F   UNL     1       4.581  -2.975   7.714  1.00  0.00    -0.206 F 
ATOM     47  C   UNL     1       1.747  -4.952   8.769  1.00  0.00     0.060 A 
BRANCH  47  48
ATOM     48  S   UNL     1       0.498  -4.972  10.072  1.00  0.00     0.124 S 
ATOM     49  O   UNL     1      -0.648  -4.388   9.383  1.00  0.00    -0.237 OA
ATOM     50  O   UNL     1       0.391  -6.394  10.383  1.00  0.00    -0.237 OA
ATOM     51  O   UNL     1       1.089  -4.146  11.121  1.00  0.00    -0.744 OA
ENDBRANCH  47  48
ENDBRANCH  26  40
BRANCH  27  52
ATOM     52  C   UNL     1       8.920  -3.154  -1.750  1.00  0.00     0.058 A 
ATOM     53  C   UNL     1       9.480  -4.171  -2.535  1.00  0.00     0.135 A 
ATOM     54  C   UNL     1       9.057  -1.831  -2.206  1.00  0.00     0.135 A 
ATOM     55  F   UNL     1       9.389  -5.450  -2.140  1.00  0.00    -0.206 F 
ATOM     56  C   UNL     1      10.132  -3.892  -3.735  1.00  0.00     0.059 A 
ATOM     57  C   UNL     1       9.684  -1.529  -3.410  1.00  0.00     0.059 A 
ATOM     58  F   UNL     1       8.532  -0.819  -1.498  1.00  0.00    -0.206 F 
ATOM     59  C   UNL     1      10.217  -2.567  -4.170  1.00  0.00     0.060 A 
BRANCH  59  60
ATOM     60  S   UNL     1      10.971  -2.221  -5.776  1.00  0.00     0.124 S 
ATOM     61  O   UNL     1      12.385  -2.428  -5.488  1.00  0.00    -0.237 OA
ATOM     62  O   UNL     1      10.339  -3.222  -6.630  1.00  0.00    -0.237 OA
ATOM     63  O   UNL     1      10.574  -0.842  -6.040  1.00  0.00    -0.744 OA
ENDBRANCH  59  60
ENDBRANCH  27  52
BRANCH  39  64
ATOM     64  C   UNL     1      10.492  -5.473   4.684  1.00  0.00     0.058 A 
ATOM     65  C   UNL     1      11.431  -4.543   5.153  1.00  0.00     0.135 A 
ATOM     66  C   UNL     1      10.703  -6.832   4.964  1.00  0.00     0.135 A 
ATOM     67  F   UNL     1      11.270  -3.234   4.904  1.00  0.00    -0.206 F 
ATOM     68  C   UNL     1      12.535  -4.948   5.893  1.00  0.00     0.059 A 
ATOM     69  C   UNL     1      11.789  -7.256   5.720  1.00  0.00     0.059 A 
ATOM     70  F   UNL     1       9.822  -7.753   4.544  1.00  0.00    -0.206 F 
ATOM     71  C   UNL     1      12.697  -6.305   6.183  1.00  0.00     0.060 A 
BRANCH  71  72
ATOM     72  S   UNL     1      14.077  -6.806   7.234  1.00  0.00     0.124 S 
ATOM     73  O   UNL     1      15.203  -6.694   6.312  1.00  0.00    -0.237 OA
ATOM     74  O   UNL     1      14.031  -5.814   8.304  1.00  0.00    -0.237 OA
ATOM     75  O   UNL     1      13.723  -8.165   7.633  1.00  0.00    -0.744 OA
ENDBRANCH  71  72
ENDBRANCH  39  64
ENDBRANCH  13  14
ENDBRANCH   6   8
ENDBRANCH   5   6
ENDBRANCH   4   5
ENDBRANCH   3   4
ENDBRANCH   2   3
ENDBRANCH   1   2
BRANCH   1  76
ATOM     76  C   UNL     1      -1.423  -1.659  -4.712  1.00  0.00     0.188 C 
BRANCH  76  77
ATOM     77  O   UNL     1      -2.002  -2.630  -5.574  1.00  0.00    -0.376 OA
BRANCH  77  78
ATOM     78  C   UNL     1      -1.336  -3.893  -5.657  1.00  0.00     0.202 C 
BRANCH  78  79
ATOM     79  C   UNL     1       0.116  -3.893  -6.160  1.00  0.00     0.261 C 
BRANCH  79  80
ATOM     80  O   UNL     1       0.998  -3.182  -5.274  1.00  0.00    -0.461 OA
BRANCH  80  81
ATOM     81  C   UNL     1       2.007  -2.488  -5.893  1.00  0.00     0.335 C 
ATOM     82  O   UNL     1       2.261  -2.560  -7.077  1.00  0.00    -0.249 OA
BRANCH  81  83
ATOM     83  C   UNL     1       2.744  -1.588  -4.877  1.00  0.00     0.228 C 
ATOM     84  C   UNL     1       4.098  -1.131  -5.413  1.00  0.00     0.047 C 
ATOM     85  O   UNL     1       2.004  -0.389  -4.547  1.00  0.00    -0.361 OA
ATOM     86  C   UNL     1       3.804   0.268  -5.907  1.00  0.00     0.037 C 
ATOM     87  C   UNL     1       2.840   0.758  -4.843  1.00  0.00     0.138 C 
BRANCH  87  88
ATOM     88  C   UNL     1       2.014   2.030  -5.167  1.00  0.00     0.147 C 
BRANCH  88  89
ATOM     89  N   UNL     1       2.120   2.529  -6.539  1.00  0.00    -0.353 N 
ATOM     90  C   UNL     1       1.264   2.514  -7.603  1.00  0.00     0.229 C 
ATOM     91  H   UNL     1       2.983   2.962  -6.735  1.00  0.00     0.163 HD
ATOM     92  O   UNL     1       1.611   3.152  -8.602  1.00  0.00    -0.275 OA
BRANCH  90  93
ATOM     93  C   UNL     1      -0.117   1.882  -7.511  1.00  0.00     0.142 C 
ATOM     94  C   UNL     1      -0.158   0.539  -6.793  1.00  0.00     0.084 C 
ATOM     95  C   UNL     1      -0.693   1.494  -8.892  1.00  0.00     0.195 C 
ATOM     96  C   UNL     1      -0.809  -0.405  -7.794  1.00  0.00     0.183 C 
ATOM     97  C   UNL     1      -2.206   1.235  -8.793  1.00  0.00     0.072 C 
ATOM     98  N   UNL     1      -0.206   0.106  -9.028  1.00  0.00    -0.341 N 
ATOM     99  C   UNL     1      -2.282  -0.064  -7.985  1.00  0.00     0.071 C 
ATOM    100  H   UNL     1      -0.569  -0.356  -9.862  1.00  0.00     0.346 HD
ATOM    101  H   UNL     1       0.800  -0.020  -9.136  1.00  0.00     0.346 HD
ENDBRANCH  90  93
ENDBRANCH  88  89
ENDBRANCH  87  88
ENDBRANCH  81  83
ENDBRANCH  80  81
ENDBRANCH  79  80
ENDBRANCH  78  79
ENDBRANCH  77  78
ENDBRANCH  76  77
ENDBRANCH   1  76
TORSDOF 23
