REMARK SMILES O=C(OCCOCCOCCOC(=O)c1ccc(-c2c3nc(c(-c4c(F)cc(S(=O)(=O)[O-])cc4F)c4ccc([nH]4)c(-c4c(F)cc(S(=O)(=O)[O-])cc4F)c4nc(c(-c5c(F)cc(S(=O)(=O)[O-])cc5F)c5ccc2[nH]5)C=C4)C=C3)cc1)c1ccc(Cn2cc(Cl)c(=O)[nH]c2=O)cc1
REMARK SMILES IDX 8 1 7 2 6 3 5 4 4 5 3 6 2 7 1 8 81 9 82 10 96 11 83 12 95 13
REMARK SMILES IDX 84 14 85 15 86 16 87 17 93 18 88 19 92 20 94 21 89 22 90 23
REMARK SMILES IDX 91 25 9 26 10 27 11 28 12 29 13 30 14 31 15 32 16 33 80 34
REMARK SMILES IDX 17 35 79 36 18 37 19 38 20 39 73 40 21 41 78 42 72 43 74 44
REMARK SMILES IDX 22 45 77 46 71 47 70 48 23 50 57 51 36 52 56 53 37 54 40 55
REMARK SMILES IDX 55 56 75 57 38 58 39 59 54 61 76 62 41 63 24 64 25 65 34 66
REMARK SMILES IDX 26 67 27 68 33 69 35 70 28 71 29 72 30 73 31 74 32 75 58 76
REMARK SMILES IDX 59 77 68 78 60 79 61 80 67 81 69 82 62 83 63 84 64 85 65 86
REMARK SMILES IDX 66 87 42 88 43 89 52 90 44 91 45 92 51 93 53 94 46 95 47 96
REMARK SMILES IDX 48 97 49 98 50 99
REMARK H PARENT 92 24 74 49 40 60
REMARK Flexibility Score: inf
ROOT
ATOM      1  C   UNL     1       2.143   0.428   3.255  1.00  0.00     0.188 C 
ENDROOT
BRANCH   1   2
ATOM      2  C   UNL     1       2.702   0.999   1.948  1.00  0.00     0.188 C 
BRANCH   2   3
ATOM      3  O   UNL     1       3.752   0.142   1.482  1.00  0.00    -0.376 OA
BRANCH   3   4
ATOM      4  C   UNL     1       4.686   0.772   0.614  1.00  0.00     0.202 C 
BRANCH   4   5
ATOM      5  C   UNL     1       4.234   0.937  -0.841  1.00  0.00     0.261 C 
BRANCH   5   6
ATOM      6  O   UNL     1       2.825   0.740  -1.039  1.00  0.00    -0.460 OA
BRANCH   6   7
ATOM      7  C   UNL     1       2.266  -0.418  -1.475  1.00  0.00     0.338 C 
ATOM      8  O   UNL     1       1.082  -0.481  -1.780  1.00  0.00    -0.246 OA
BRANCH   7   9
ATOM      9  C   UNL     1       3.123  -1.612  -1.620  1.00  0.00     0.060 A 
ATOM     10  C   UNL     1       3.604  -2.285  -0.495  1.00  0.00     0.016 A 
ATOM     11  C   UNL     1       3.387  -2.103  -2.900  1.00  0.00     0.016 A 
ATOM     12  C   UNL     1       4.421  -3.405  -0.650  1.00  0.00     0.006 A 
ATOM     13  C   UNL     1       4.196  -3.232  -3.053  1.00  0.00     0.006 A 
ATOM     14  C   UNL     1       4.736  -3.881  -1.930  1.00  0.00    -0.028 A 
BRANCH  14  15
ATOM     15  C   UNL     1       5.702  -5.035  -2.107  1.00  0.00     0.162 C 
BRANCH  15  16
ATOM     16  N   UNL     1       7.061  -4.537  -2.349  1.00  0.00    -0.295 N 
ATOM     17  C   UNL     1       7.819  -4.074  -1.288  1.00  0.00     0.117 A 
ATOM     18  C   UNL     1       7.518  -4.469  -3.659  1.00  0.00     0.328 A 
ATOM     19  C   UNL     1       9.019  -3.513  -1.460  1.00  0.00     0.122 A 
ATOM     20  N   UNL     1       8.770  -3.932  -3.820  1.00  0.00    -0.273 N 
ATOM     21  O   UNL     1       6.874  -4.821  -4.641  1.00  0.00    -0.248 OA
ATOM     22  Cl  UNL     1       9.930  -2.890  -0.146  1.00  0.00    -0.077 Cl
ATOM     23  C   UNL     1       9.561  -3.401  -2.836  1.00  0.00     0.272 A 
ATOM     24  H   UNL     1       9.137  -3.929  -4.734  1.00  0.00     0.175 HD
ATOM     25  O   UNL     1      10.631  -2.858  -3.092  1.00  0.00    -0.268 OA
ENDBRANCH  15  16
ENDBRANCH  14  15
ENDBRANCH   7   9
ENDBRANCH   6   7
ENDBRANCH   5   6
ENDBRANCH   4   5
ENDBRANCH   3   4
ENDBRANCH   2   3
ENDBRANCH   1   2
BRANCH   1  26
ATOM     26  O   UNL     1       2.897   0.786   4.417  1.00  0.00    -0.376 OA
BRANCH  26  27
ATOM     27  C   UNL     1       4.269   0.397   4.441  1.00  0.00     0.202 C 
BRANCH  27  28
ATOM     28  C   UNL     1       4.546  -1.056   4.840  1.00  0.00     0.261 C 
BRANCH  28  29
ATOM     29  O   UNL     1       4.127  -2.032   3.869  1.00  0.00    -0.460 OA
BRANCH  29  30
ATOM     30  C   UNL     1       3.063  -2.779   4.250  1.00  0.00     0.338 C 
ATOM     31  O   UNL     1       2.369  -2.630   5.240  1.00  0.00    -0.246 OA
BRANCH  30  32
ATOM     32  C   UNL     1       2.828  -3.874   3.294  1.00  0.00     0.060 A 
ATOM     33  C   UNL     1       1.649  -3.881   2.542  1.00  0.00     0.016 A 
ATOM     34  C   UNL     1       3.665  -4.992   3.316  1.00  0.00     0.016 A 
ATOM     35  C   UNL     1       1.271  -5.038   1.853  1.00  0.00     0.010 A 
ATOM     36  C   UNL     1       3.285  -6.147   2.627  1.00  0.00     0.010 A 
ATOM     37  C   UNL     1       2.063  -6.193   1.931  1.00  0.00    -0.014 A 
BRANCH  37  38
ATOM     38  C   UNL     1       1.564  -7.501   1.432  1.00  0.00     0.031 A 
ATOM     39  C   UNL     1       1.035  -8.510   2.418  1.00  0.00     0.074 A 
ATOM     40  C   UNL     1       1.618  -7.811   0.125  1.00  0.00     0.049 A 
ATOM     41  N   UNL     1       0.698  -9.760   2.228  1.00  0.00    -0.248 NA
ATOM     42  C   UNL     1       0.871  -8.046   3.805  1.00  0.00     0.031 C 
ATOM     43  C   UNL     1       2.061  -6.915  -0.941  1.00  0.00     0.029 A 
ATOM     44  N   UNL     1       1.315  -8.984  -0.522  1.00  0.00    -0.354 N 
ATOM     45  C   UNL     1       0.304 -10.240   3.473  1.00  0.00     0.074 A 
ATOM     46  C   UNL     1       0.457  -9.149   4.412  1.00  0.00     0.031 C 
ATOM     47  C   UNL     1       2.027  -7.580  -2.109  1.00  0.00     0.029 A 
ATOM     48  C   UNL     1       1.593  -8.956  -1.867  1.00  0.00     0.049 A 
ATOM     49  H   UNL     1       0.935  -9.769  -0.066  1.00  0.00     0.167 HD
ATOM     50  C   UNL     1      -0.145 -11.475   3.804  1.00  0.00     0.037 A 
ATOM     51  C   UNL     1       1.531  -9.935  -2.792  1.00  0.00     0.037 A 
ATOM     52  C   UNL     1      -0.313 -12.558   2.871  1.00  0.00     0.049 A 
ATOM     53  C   UNL     1       1.074 -11.315  -2.397  1.00  0.00     0.074 A 
ATOM     54  C   UNL     1      -0.777 -13.840   3.113  1.00  0.00     0.029 A 
ATOM     55  N   UNL     1      -0.023 -12.487   1.517  1.00  0.00    -0.354 N 
ATOM     56  N   UNL     1       0.709 -11.756  -1.217  1.00  0.00    -0.248 NA
ATOM     57  C   UNL     1       1.023 -12.331  -3.459  1.00  0.00     0.031 C 
ATOM     58  C   UNL     1      -0.737 -14.554   1.910  1.00  0.00     0.029 A 
ATOM     59  C   UNL     1      -0.282 -13.706   0.913  1.00  0.00     0.049 A 
ATOM     60  H   UNL     1       0.317 -11.688   1.054  1.00  0.00     0.167 HD
ATOM     61  C   UNL     1       0.357 -13.091  -1.401  1.00  0.00     0.074 A 
ATOM     62  C   UNL     1       0.556 -13.386  -2.804  1.00  0.00     0.031 C 
ATOM     63  C   UNL     1      -0.095 -13.986  -0.489  1.00  0.00     0.037 A 
BRANCH  50  64
ATOM     64  C   UNL     1      -0.457 -11.729   5.252  1.00  0.00     0.058 A 
ATOM     65  C   UNL     1      -1.610 -11.210   5.861  1.00  0.00     0.135 A 
ATOM     66  C   UNL     1       0.405 -12.512   6.037  1.00  0.00     0.135 A 
ATOM     67  F   UNL     1      -2.459 -10.443   5.158  1.00  0.00    -0.206 F 
ATOM     68  C   UNL     1      -1.882 -11.431   7.208  1.00  0.00     0.059 A 
ATOM     69  C   UNL     1       0.142 -12.764   7.379  1.00  0.00     0.059 A 
ATOM     70  F   UNL     1       1.520 -13.032   5.501  1.00  0.00    -0.206 F 
ATOM     71  C   UNL     1      -0.994 -12.202   7.961  1.00  0.00     0.060 A 
BRANCH  71  72
ATOM     72  S   UNL     1      -1.341 -12.465   9.713  1.00  0.00     0.124 S 
ATOM     73  O   UNL     1      -0.915 -11.191  10.286  1.00  0.00    -0.237 OA
ATOM     74  O   UNL     1      -2.779 -12.712   9.718  1.00  0.00    -0.237 OA
ATOM     75  O   UNL     1      -0.510 -13.616  10.053  1.00  0.00    -0.744 OA
ENDBRANCH  71  72
ENDBRANCH  50  64
BRANCH  51  76
ATOM     76  C   UNL     1       1.930  -9.640  -4.192  1.00  0.00     0.058 A 
ATOM     77  C   UNL     1       0.970  -9.535  -5.207  1.00  0.00     0.135 A 
ATOM     78  C   UNL     1       3.275  -9.430  -4.534  1.00  0.00     0.135 A 
ATOM     79  F   UNL     1      -0.327  -9.739  -4.928  1.00  0.00    -0.206 F 
ATOM     80  C   UNL     1       1.328  -9.236  -6.517  1.00  0.00     0.059 A 
ATOM     81  C   UNL     1       3.656  -9.110  -5.832  1.00  0.00     0.059 A 
ATOM     82  F   UNL     1       4.228  -9.506  -3.591  1.00  0.00    -0.206 F 
ATOM     83  C   UNL     1       2.675  -9.021  -6.819  1.00  0.00     0.060 A 
BRANCH  83  84
ATOM     84  S   UNL     1       3.120  -8.574  -8.511  1.00  0.00     0.124 S 
ATOM     85  O   UNL     1       2.953  -9.846  -9.204  1.00  0.00    -0.237 OA
ATOM     86  O   UNL     1       2.136  -7.542  -8.824  1.00  0.00    -0.237 OA
ATOM     87  O   UNL     1       4.495  -8.101  -8.383  1.00  0.00    -0.744 OA
ENDBRANCH  83  84
ENDBRANCH  51  76
BRANCH  63  88
ATOM     88  C   UNL     1      -0.447 -15.365  -0.975  1.00  0.00     0.058 A 
ATOM     89  C   UNL     1       0.540 -16.321  -1.257  1.00  0.00     0.135 A 
ATOM     90  C   UNL     1      -1.791 -15.755  -1.086  1.00  0.00     0.135 A 
ATOM     91  F   UNL     1       1.839 -15.997  -1.170  1.00  0.00    -0.206 F 
ATOM     92  C   UNL     1       0.206 -17.616  -1.643  1.00  0.00     0.059 A 
ATOM     93  C   UNL     1      -2.148 -17.050  -1.453  1.00  0.00     0.059 A 
ATOM     94  F   UNL     1      -2.773 -14.880  -0.818  1.00  0.00    -0.206 F 
ATOM     95  C   UNL     1      -1.141 -17.972  -1.736  1.00  0.00     0.060 A 
BRANCH  95  96
ATOM     96  S   UNL     1      -1.565 -19.670  -2.186  1.00  0.00     0.124 S 
ATOM     97  O   UNL     1      -1.343 -19.655  -3.628  1.00  0.00    -0.237 OA
ATOM     98  O   UNL     1      -0.611 -20.451  -1.406  1.00  0.00    -0.237 OA
ATOM     99  O   UNL     1      -2.958 -19.794  -1.766  1.00  0.00    -0.744 OA
ENDBRANCH  95  96
ENDBRANCH  63  88
ENDBRANCH  37  38
ENDBRANCH  30  32
ENDBRANCH  29  30
ENDBRANCH  28  29
ENDBRANCH  27  28
ENDBRANCH  26  27
ENDBRANCH   1  26
TORSDOF 22
