REMARK SMILES O=C(CCN1C(=O)/C(=C/c2cc(Br)cc(Br)c2O)SC1=S)OCCOCCOCCOC(=O)c1ccc(-c2c3nc(c(-c4c(F)cc(S(=O)(=O)[O-])cc4F)c4ccc([nH]4)c(-c4c(F)cc(S(=O)(=O)[O-])cc4F)c4nc(c(-c5c(F)cc(S(=O)(=O)[O-])cc5F)c5ccc2[nH]5)C=C4)C=C3)cc1
REMARK SMILES IDX 26 1 25 2 24 3 23 4 22 5 2 6 1 7 3 8 4 9 5 10 6 11 20 12
REMARK SMILES IDX 7 13 8 14 19 15 21 16 9 17 10 18 11 19 17 20 12 21 15 22
REMARK SMILES IDX 13 23 14 24 16 25 18 26 27 28 28 29 29 30 30 31 31 32 32 33
REMARK SMILES IDX 33 34 34 35 35 36 99 37 36 38 98 39 37 40 38 41 39 42 92 43
REMARK SMILES IDX 40 44 97 45 91 46 93 47 41 48 96 49 90 50 89 51 42 53 76 54
REMARK SMILES IDX 55 55 75 56 56 57 59 58 74 59 94 60 57 61 58 62 73 64 95 65
REMARK SMILES IDX 60 66 43 67 44 68 53 69 45 70 46 71 52 72 54 73 47 74 48 75
REMARK SMILES IDX 49 76 50 77 51 78 77 79 78 80 87 81 79 82 80 83 86 84 88 85
REMARK SMILES IDX 81 86 82 87 83 88 84 89 85 90 61 91 62 92 71 93 63 94 64 95
REMARK SMILES IDX 70 96 72 97 65 98 66 99 67 100 68 101 69 102
REMARK H PARENT 18 27 93 52 59 63
REMARK Flexibility Score: inf
ROOT
ATOM      1  C   UNL     1       3.400  -0.015  -2.223  1.00  0.00     0.188 C 
ENDROOT
BRANCH   1   2
ATOM      2  O   UNL     1       4.782  -0.226  -2.013  1.00  0.00    -0.376 OA
BRANCH   2   3
ATOM      3  C   UNL     1       5.262  -0.222  -0.684  1.00  0.00     0.202 C 
BRANCH   3   4
ATOM      4  C   UNL     1       4.470  -1.024   0.342  1.00  0.00     0.261 C 
BRANCH   4   5
ATOM      5  O   UNL     1       3.106  -0.634   0.648  1.00  0.00    -0.463 OA
BRANCH   5   6
ATOM      6  C   UNL     1       2.519   0.521   1.006  1.00  0.00     0.307 C 
ATOM      7  O   UNL     1       1.312   0.535   1.236  1.00  0.00    -0.252 OA
BRANCH   6   8
ATOM      8  C   UNL     1       3.313   1.788   1.097  1.00  0.00     0.144 C 
BRANCH   8   9
ATOM      9  C   UNL     1       3.817   2.088   2.500  1.00  0.00     0.139 C 
BRANCH   9  10
ATOM     10  N   UNL     1       4.800   1.119   2.995  1.00  0.00    -0.292 N 
ATOM     11  C   UNL     1       6.108   1.206   2.547  1.00  0.00     0.266 C 
ATOM     12  C   UNL     1       4.515   0.095   3.878  1.00  0.00     0.148 C 
ATOM     13  O   UNL     1       6.545   2.015   1.742  1.00  0.00    -0.268 OA
ATOM     14  C   UNL     1       6.915   0.080   3.088  1.00  0.00     0.081 C 
ATOM     15  S   UNL     1       5.960  -0.871   4.150  1.00  0.00    -0.054 SA
ATOM     16  S   UNL     1       3.067  -0.281   4.609  1.00  0.00    -0.052 S 
ATOM     17  C   UNL     1       8.168  -0.163   2.674  1.00  0.00     0.033 C 
BRANCH  17  18
ATOM     18  C   UNL     1       8.933  -1.379   2.998  1.00  0.00     0.020 A 
ATOM     19  C   UNL     1       9.166  -2.276   1.943  1.00  0.00     0.027 A 
ATOM     20  C   UNL     1       9.387  -1.711   4.286  1.00  0.00     0.137 A 
ATOM     21  C   UNL     1       9.802  -3.495   2.182  1.00  0.00     0.019 A 
ATOM     22  C   UNL     1      10.012  -2.945   4.514  1.00  0.00     0.061 A 
ATOM     23  Br  UNL     1      10.082  -4.699   0.750  1.00  0.00    -0.051 Br
ATOM     24  C   UNL     1      10.216  -3.841   3.464  1.00  0.00     0.035 A 
ATOM     25  Br  UNL     1      10.587  -3.459   6.249  1.00  0.00    -0.047 Br
BRANCH  20  26
ATOM     26  O   UNL     1       9.233  -0.855   5.345  1.00  0.00    -0.506 OA
ATOM     27  H   UNL     1       8.818  -0.024   5.220  1.00  0.00     0.293 HD
ENDBRANCH  20  26
ENDBRANCH  17  18
ENDBRANCH   9  10
ENDBRANCH   8   9
ENDBRANCH   6   8
ENDBRANCH   5   6
ENDBRANCH   4   5
ENDBRANCH   3   4
ENDBRANCH   2   3
ENDBRANCH   1   2
BRANCH   1  28
ATOM     28  C   UNL     1       2.549  -1.297  -2.338  1.00  0.00     0.188 C 
BRANCH  28  29
ATOM     29  O   UNL     1       3.171  -2.570  -2.488  1.00  0.00    -0.376 OA
BRANCH  29  30
ATOM     30  C   UNL     1       4.353  -2.712  -3.261  1.00  0.00     0.202 C 
BRANCH  30  31
ATOM     31  C   UNL     1       4.319  -2.342  -4.748  1.00  0.00     0.261 C 
BRANCH  31  32
ATOM     32  O   UNL     1       3.953  -0.979  -5.011  1.00  0.00    -0.460 OA
BRANCH  32  33
ATOM     33  C   UNL     1       2.734  -0.802  -5.586  1.00  0.00     0.338 C 
ATOM     34  O   UNL     1       1.949  -1.666  -5.920  1.00  0.00    -0.246 OA
BRANCH  33  35
ATOM     35  C   UNL     1       2.395   0.640  -5.580  1.00  0.00     0.060 A 
ATOM     36  C   UNL     1       1.173   1.024  -5.009  1.00  0.00     0.016 A 
ATOM     37  C   UNL     1       3.256   1.602  -6.112  1.00  0.00     0.016 A 
ATOM     38  C   UNL     1       0.798   2.368  -4.989  1.00  0.00     0.010 A 
ATOM     39  C   UNL     1       2.866   2.946  -6.117  1.00  0.00     0.010 A 
ATOM     40  C   UNL     1       1.625   3.332  -5.578  1.00  0.00    -0.014 A 
BRANCH  40  41
ATOM     41  C   UNL     1       1.115   4.708  -5.798  1.00  0.00     0.031 A 
ATOM     42  C   UNL     1       0.474   5.026  -7.122  1.00  0.00     0.074 A 
ATOM     43  C   UNL     1       1.212   5.655  -4.847  1.00  0.00     0.049 A 
ATOM     44  N   UNL     1       0.022   6.167  -7.572  1.00  0.00    -0.248 NA
ATOM     45  C   UNL     1       0.326   3.905  -8.066  1.00  0.00     0.031 C 
ATOM     46  C   UNL     1       1.773   5.461  -3.511  1.00  0.00     0.029 A 
ATOM     47  N   UNL     1       0.854   6.981  -4.871  1.00  0.00    -0.354 N 
ATOM     48  C   UNL     1      -0.457   5.905  -8.850  1.00  0.00     0.074 A 
ATOM     49  C   UNL     1      -0.225   4.502  -9.113  1.00  0.00     0.031 C 
ATOM     50  C   UNL     1       1.746   6.634  -2.852  1.00  0.00     0.029 A 
ATOM     51  C   UNL     1       1.195   7.667  -3.728  1.00  0.00     0.049 A 
ATOM     52  H   UNL     1       0.395   7.402  -5.634  1.00  0.00     0.167 HD
ATOM     53  C   UNL     1      -1.040   6.758  -9.725  1.00  0.00     0.037 A 
ATOM     54  C   UNL     1       1.102   8.982  -3.439  1.00  0.00     0.037 A 
ATOM     55  C   UNL     1      -1.270   8.153  -9.461  1.00  0.00     0.049 A 
ATOM     56  C   UNL     1       0.515   9.925  -4.462  1.00  0.00     0.074 A 
ATOM     57  C   UNL     1      -1.881   9.091 -10.275  1.00  0.00     0.029 A 
ATOM     58  N   UNL     1      -0.889   8.815  -8.304  1.00  0.00    -0.354 N 
ATOM     59  N   UNL     1       0.032   9.658  -5.652  1.00  0.00    -0.248 NA
ATOM     60  C   UNL     1       0.463  11.351  -4.103  1.00  0.00     0.031 C 
ATOM     61  C   UNL     1      -1.822  10.331  -9.632  1.00  0.00     0.029 A 
ATOM     62  C   UNL     1      -1.222  10.155  -8.396  1.00  0.00     0.049 A 
ATOM     63  H   UNL     1      -0.448   8.394  -7.532  1.00  0.00     0.167 HD
ATOM     64  C   UNL     1      -0.400  10.875  -6.172  1.00  0.00     0.074 A 
ATOM     65  C   UNL     1      -0.138  11.877  -5.161  1.00  0.00     0.031 C 
ATOM     66  C   UNL     1      -0.961  11.141  -7.377  1.00  0.00     0.037 A 
BRANCH  53  67
ATOM     67  C   UNL     1      -1.451   6.216 -11.064  1.00  0.00     0.058 A 
ATOM     68  C   UNL     1      -2.573   5.386 -11.211  1.00  0.00     0.135 A 
ATOM     69  C   UNL     1      -0.751   6.588 -12.223  1.00  0.00     0.135 A 
ATOM     70  F   UNL     1      -3.263   4.983 -10.133  1.00  0.00    -0.206 F 
ATOM     71  C   UNL     1      -2.984   4.939 -12.463  1.00  0.00     0.059 A 
ATOM     72  C   UNL     1      -1.159   6.173 -13.486  1.00  0.00     0.059 A 
ATOM     73  F   UNL     1       0.334   7.373 -12.134  1.00  0.00    -0.206 F 
ATOM     74  C   UNL     1      -2.274   5.344 -13.595  1.00  0.00     0.060 A 
BRANCH  74  75
ATOM     75  S   UNL     1      -2.847   4.790 -15.215  1.00  0.00     0.124 S 
ATOM     76  O   UNL     1      -2.486   3.376 -15.184  1.00  0.00    -0.237 OA
ATOM     77  O   UNL     1      -4.276   5.081 -15.155  1.00  0.00    -0.237 OA
ATOM     78  O   UNL     1      -2.081   5.612 -16.147  1.00  0.00    -0.744 OA
ENDBRANCH  74  75
ENDBRANCH  53  67
BRANCH  54  79
ATOM     79  C   UNL     1       1.612   9.507  -2.142  1.00  0.00     0.058 A 
ATOM     80  C   UNL     1       0.744  10.045  -1.180  1.00  0.00     0.135 A 
ATOM     81  C   UNL     1       2.987   9.521  -1.858  1.00  0.00     0.135 A 
ATOM     82  F   UNL     1      -0.578  10.070  -1.409  1.00  0.00    -0.206 F 
ATOM     83  C   UNL     1       1.220  10.601   0.004  1.00  0.00     0.059 A 
ATOM     84  C   UNL     1       3.485  10.046  -0.670  1.00  0.00     0.059 A 
ATOM     85  F   UNL     1       3.862   9.012  -2.740  1.00  0.00    -0.206 F 
ATOM     86  C   UNL     1       2.595  10.598   0.249  1.00  0.00     0.060 A 
BRANCH  86  87
ATOM     87  S   UNL     1       3.204  11.293   1.801  1.00  0.00     0.124 S 
ATOM     88  O   UNL     1       3.054  12.723   1.560  1.00  0.00    -0.237 OA
ATOM     89  O   UNL     1       2.291  10.709   2.778  1.00  0.00    -0.237 OA
ATOM     90  O   UNL     1       4.578  10.803   1.869  1.00  0.00    -0.744 OA
ENDBRANCH  86  87
ENDBRANCH  54  79
BRANCH  66  91
ATOM     91  C   UNL     1      -1.357  12.564  -7.666  1.00  0.00     0.058 A 
ATOM     92  C   UNL     1      -0.400  13.556  -7.929  1.00  0.00     0.135 A 
ATOM     93  C   UNL     1      -2.713  12.926  -7.739  1.00  0.00     0.135 A 
ATOM     94  F   UNL     1       0.909  13.265  -7.867  1.00  0.00    -0.206 F 
ATOM     95  C   UNL     1      -0.772  14.862  -8.233  1.00  0.00     0.059 A 
ATOM     96  C   UNL     1      -3.108  14.219  -8.069  1.00  0.00     0.059 A 
ATOM     97  F   UNL     1      -3.670  12.013  -7.509  1.00  0.00    -0.206 F 
ATOM     98  C   UNL     1      -2.129  15.183  -8.303  1.00  0.00     0.060 A 
BRANCH  98  99
ATOM     99  S   UNL     1      -2.597  16.873  -8.731  1.00  0.00     0.124 S 
ATOM    100  O   UNL     1      -2.279  17.588  -7.499  1.00  0.00    -0.237 OA
ATOM    101  O   UNL     1      -1.732  17.159  -9.871  1.00  0.00    -0.237 OA
ATOM    102  O   UNL     1      -4.019  16.764  -9.044  1.00  0.00    -0.744 OA
ENDBRANCH  98  99
ENDBRANCH  66  91
ENDBRANCH  40  41
ENDBRANCH  33  35
ENDBRANCH  32  33
ENDBRANCH  31  32
ENDBRANCH  30  31
ENDBRANCH  29  30
ENDBRANCH  28  29
ENDBRANCH   1  28
TORSDOF 24
