REMARK SMILES C[C@H]1CC[C@H]([NH2+]Cc2c(C(=O)OCCOCCOCCOC(=O)c3ccc(-c4c5nc(c(-c6c(F)cc(S(=O)(=O)[O-])cc6F)c6ccc([nH]6)c(-c6c(F)cc(S(=O)(=O)[O-])cc6F)c6nc(c(-c7c(F)cc(S(=O)(=O)[O-])cc7F)c7ccc4[nH]7)C=C6)C=C5)cc3)n(Cc3ccccc3F)c3ccccc23)CC1
REMARK SMILES IDX 16 1 15 2 14 3 13 4 12 5 10 6 11 7 9 8 8 9 104 10 90 11
REMARK SMILES IDX 99 12 103 13 100 14 102 15 101 16 7 17 6 18 5 21 1 22 2 23
REMARK SMILES IDX 3 24 106 25 4 26 105 27 91 28 92 29 93 30 97 31 94 32 96 33
REMARK SMILES IDX 98 34 95 35 17 36 18 37 19 38 20 39 21 40 22 41 23 42 24 43
REMARK SMILES IDX 25 44 89 45 26 46 88 47 27 48 28 49 29 50 82 51 30 52 87 53
REMARK SMILES IDX 81 54 83 55 31 56 86 57 80 58 79 59 32 61 66 62 45 63 65 64
REMARK SMILES IDX 46 65 49 66 64 67 84 68 47 69 48 70 63 72 85 73 50 74 33 75
REMARK SMILES IDX 34 76 43 77 35 78 36 79 42 80 44 81 37 82 38 83 39 84 40 85
REMARK SMILES IDX 41 86 67 87 68 88 77 89 69 90 70 91 76 92 78 93 71 94 72 95
REMARK SMILES IDX 73 96 74 97 75 98 51 99 52 100 61 101 53 102 54 103 60 104
REMARK SMILES IDX 62 105 55 106 56 107 57 108 58 109 59 110
REMARK H PARENT 6 19 6 20 83 60 49 71
REMARK Flexibility Score: inf
ROOT
ATOM      1  C   UNL     1      -1.659  -0.124   4.315  1.00  0.00     0.188 C 
ENDROOT
BRANCH   1   2
ATOM      2  O   UNL     1      -1.675   1.233   3.920  1.00  0.00    -0.376 OA
BRANCH   2   3
ATOM      3  C   UNL     1      -1.098   1.370   2.659  1.00  0.00     0.202 C 
BRANCH   3   4
ATOM      4  C   UNL     1      -2.136   1.144   1.584  1.00  0.00     0.261 C 
BRANCH   4   5
ATOM      5  O   UNL     1      -3.172   0.132   1.598  1.00  0.00    -0.459 OA
BRANCH   5   6
ATOM      6  C   UNL     1      -2.788  -1.170   1.469  1.00  0.00     0.355 C 
ATOM      7  O   UNL     1      -1.712  -1.565   1.867  1.00  0.00    -0.244 OA
BRANCH   6   8
ATOM      8  C   UNL     1      -3.795  -2.000   0.830  1.00  0.00     0.137 A 
ATOM      9  C   UNL     1      -4.462  -1.758  -0.380  1.00  0.00     0.047 A 
ATOM     10  C   UNL     1      -5.340  -2.899  -0.583  1.00  0.00     0.009 A 
ATOM     11  N   UNL     1      -4.102  -3.329   1.213  1.00  0.00    -0.330 N 
ATOM     12  C   UNL     1      -4.926  -3.913   0.277  1.00  0.00     0.050 A 
ATOM     13  C   UNL     1      -6.329  -3.224  -1.541  1.00  0.00     0.011 A 
ATOM     14  C   UNL     1      -5.283  -5.258   0.062  1.00  0.00     0.027 A 
ATOM     15  C   UNL     1      -6.787  -4.546  -1.668  1.00  0.00     0.001 A 
ATOM     16  C   UNL     1      -6.219  -5.562  -0.917  1.00  0.00     0.002 A 
BRANCH   9  17
ATOM     17  C   UNL     1      -4.298  -0.673  -1.455  1.00  0.00     0.300 C 
BRANCH  17  18
ATOM     18  N   UNL     1      -3.433   0.477  -1.176  1.00  0.00    -0.340 N 
ATOM     19  H   UNL     1      -3.956   1.308  -1.455  1.00  0.00     0.346 HD
ATOM     20  H   UNL     1      -3.211   0.359  -0.188  1.00  0.00     0.346 HD
BRANCH  18  21
ATOM     21  C   UNL     1      -2.088   0.591  -1.806  1.00  0.00     0.182 C 
ATOM     22  C   UNL     1       2.285   0.946  -0.712  1.00  0.00     0.007 C 
ATOM     23  C   UNL     1       0.761   0.801  -0.763  1.00  0.00    -0.014 C 
ATOM     24  C   UNL     1       0.331  -0.365  -1.643  1.00  0.00     0.009 C 
ATOM     25  C   UNL     1       0.084   2.069  -1.283  1.00  0.00     0.009 C 
ATOM     26  C   UNL     1      -1.171  -0.604  -1.535  1.00  0.00     0.065 C 
ATOM     27  C   UNL     1      -1.447   1.980  -1.476  1.00  0.00     0.065 C 
ENDBRANCH  18  21
ENDBRANCH  17  18
ENDBRANCH   9  17
BRANCH  11  28
ATOM     28  C   UNL     1      -3.386  -4.114   2.225  1.00  0.00     0.161 C 
BRANCH  28  29
ATOM     29  C   UNL     1      -4.088  -5.135   3.113  1.00  0.00     0.008 A 
ATOM     30  C   UNL     1      -3.890  -6.521   2.906  1.00  0.00     0.008 A 
ATOM     31  C   UNL     1      -4.651  -4.747   4.329  1.00  0.00     0.128 A 
ATOM     32  C   UNL     1      -4.219  -7.467   3.886  1.00  0.00     0.001 A 
ATOM     33  C   UNL     1      -4.939  -5.683   5.330  1.00  0.00     0.039 A 
ATOM     34  F   UNL     1      -4.759  -3.446   4.625  1.00  0.00    -0.207 F 
ATOM     35  C   UNL     1      -4.715  -7.043   5.113  1.00  0.00     0.003 A 
ENDBRANCH  28  29
ENDBRANCH  11  28
ENDBRANCH   6   8
ENDBRANCH   5   6
ENDBRANCH   4   5
ENDBRANCH   3   4
ENDBRANCH   2   3
ENDBRANCH   1   2
BRANCH   1  36
ATOM     36  C   UNL     1      -3.062  -0.660   4.630  1.00  0.00     0.188 C 
BRANCH  36  37
ATOM     37  O   UNL     1      -3.975   0.284   5.175  1.00  0.00    -0.376 OA
BRANCH  37  38
ATOM     38  C   UNL     1      -3.442   1.110   6.203  1.00  0.00     0.202 C 
BRANCH  38  39
ATOM     39  C   UNL     1      -2.801   0.353   7.393  1.00  0.00     0.261 C 
BRANCH  39  40
ATOM     40  O   UNL     1      -1.568  -0.357   7.047  1.00  0.00    -0.460 OA
BRANCH  40  41
ATOM     41  C   UNL     1      -1.438  -1.671   7.391  1.00  0.00     0.338 C 
ATOM     42  O   UNL     1      -2.031  -2.185   8.329  1.00  0.00    -0.246 OA
BRANCH  41  43
ATOM     43  C   UNL     1      -0.790  -2.501   6.282  1.00  0.00     0.060 A 
ATOM     44  C   UNL     1       0.363  -2.226   5.519  1.00  0.00     0.016 A 
ATOM     45  C   UNL     1      -1.547  -3.586   5.867  1.00  0.00     0.016 A 
ATOM     46  C   UNL     1       0.662  -2.946   4.294  1.00  0.00     0.010 A 
ATOM     47  C   UNL     1      -1.239  -4.270   4.677  1.00  0.00     0.010 A 
ATOM     48  C   UNL     1      -0.180  -3.955   3.804  1.00  0.00    -0.014 A 
BRANCH  48  49
ATOM     49  C   UNL     1       0.033  -4.879   2.598  1.00  0.00     0.031 A 
ATOM     50  C   UNL     1       0.432  -6.250   3.001  1.00  0.00     0.074 A 
ATOM     51  C   UNL     1      -0.203  -4.796   1.240  1.00  0.00     0.049 A 
ATOM     52  N   UNL     1       1.609  -6.739   2.796  1.00  0.00    -0.248 NA
ATOM     53  C   UNL     1      -0.466  -7.159   3.723  1.00  0.00     0.031 C 
ATOM     54  C   UNL     1      -0.636  -3.643   0.471  1.00  0.00     0.029 A 
ATOM     55  N   UNL     1      -0.258  -5.783   0.238  1.00  0.00    -0.354 N 
ATOM     56  C   UNL     1       1.518  -8.074   3.132  1.00  0.00     0.074 A 
ATOM     57  C   UNL     1       0.301  -8.237   3.874  1.00  0.00     0.031 C 
ATOM     58  C   UNL     1      -1.226  -4.007  -0.694  1.00  0.00     0.029 A 
ATOM     59  C   UNL     1      -0.954  -5.408  -0.943  1.00  0.00     0.049 A 
ATOM     60  H   UNL     1       0.156  -6.669   0.347  1.00  0.00     0.167 HD
ATOM     61  C   UNL     1       2.315  -8.996   2.539  1.00  0.00     0.037 A 
ATOM     62  C   UNL     1      -1.129  -6.033  -2.155  1.00  0.00     0.037 A 
ATOM     63  C   UNL     1       3.346  -8.381   1.745  1.00  0.00     0.049 A 
ATOM     64  C   UNL     1       0.103  -6.811  -2.354  1.00  0.00     0.074 A 
ATOM     65  C   UNL     1       4.386  -7.519   2.013  1.00  0.00     0.029 A 
ATOM     66  N   UNL     1       3.109  -8.319   0.395  1.00  0.00    -0.354 N 
ATOM     67  N   UNL     1       1.240  -6.264  -2.674  1.00  0.00    -0.248 NA
ATOM     68  C   UNL     1       0.152  -8.234  -2.052  1.00  0.00     0.031 C 
ATOM     69  C   UNL     1       4.556  -6.732   0.841  1.00  0.00     0.029 A 
ATOM     70  C   UNL     1       3.672  -7.181  -0.139  1.00  0.00     0.049 A 
ATOM     71  H   UNL     1       2.608  -8.993  -0.119  1.00  0.00     0.167 HD
ATOM     72  C   UNL     1       2.156  -7.091  -2.082  1.00  0.00     0.074 A 
ATOM     73  C   UNL     1       1.477  -8.376  -1.981  1.00  0.00     0.031 C 
ATOM     74  C   UNL     1       3.184  -6.555  -1.363  1.00  0.00     0.037 A 
BRANCH  61  75
ATOM     75  C   UNL     1       1.938 -10.435   2.401  1.00  0.00     0.058 A 
ATOM     76  C   UNL     1       2.947 -11.400   2.273  1.00  0.00     0.135 A 
ATOM     77  C   UNL     1       0.612 -10.873   2.181  1.00  0.00     0.135 A 
ATOM     78  F   UNL     1       4.236 -11.059   2.425  1.00  0.00    -0.206 F 
ATOM     79  C   UNL     1       2.662 -12.722   1.942  1.00  0.00     0.059 A 
ATOM     80  C   UNL     1       0.299 -12.197   1.904  1.00  0.00     0.059 A 
ATOM     81  F   UNL     1      -0.415 -10.011   2.150  1.00  0.00    -0.206 F 
ATOM     82  C   UNL     1       1.335 -13.108   1.758  1.00  0.00     0.060 A 
BRANCH  82  83
ATOM     83  S   UNL     1       0.980 -14.806   1.275  1.00  0.00     0.124 S 
ATOM     84  O   UNL     1       1.449 -14.816  -0.106  1.00  0.00    -0.237 OA
ATOM     85  O   UNL     1       1.780 -15.567   2.229  1.00  0.00    -0.237 OA
ATOM     86  O   UNL     1      -0.465 -14.909   1.455  1.00  0.00    -0.744 OA
ENDBRANCH  82  83
ENDBRANCH  61  75
BRANCH  62  87
ATOM     87  C   UNL     1      -2.069  -5.925  -3.338  1.00  0.00     0.058 A 
ATOM     88  C   UNL     1      -1.853  -6.655  -4.534  1.00  0.00     0.135 A 
ATOM     89  C   UNL     1      -3.348  -5.375  -3.225  1.00  0.00     0.135 A 
ATOM     90  F   UNL     1      -0.644  -7.155  -4.824  1.00  0.00    -0.206 F 
ATOM     91  C   UNL     1      -2.877  -6.970  -5.441  1.00  0.00     0.059 A 
ATOM     92  C   UNL     1      -4.398  -5.689  -4.106  1.00  0.00     0.059 A 
ATOM     93  F   UNL     1      -3.611  -4.541  -2.220  1.00  0.00    -0.206 F 
ATOM     94  C   UNL     1      -4.169  -6.539  -5.181  1.00  0.00     0.060 A 
BRANCH  94  95
ATOM     95  S   UNL     1      -5.562  -7.237  -6.110  1.00  0.00     0.124 S 
ATOM     96  O   UNL     1      -5.696  -6.301  -7.220  1.00  0.00    -0.237 OA
ATOM     97  O   UNL     1      -5.082  -8.571  -6.462  1.00  0.00    -0.237 OA
ATOM     98  O   UNL     1      -6.649  -7.217  -5.134  1.00  0.00    -0.744 OA
ENDBRANCH  94  95
ENDBRANCH  62  87
BRANCH  74  99
ATOM     99  C   UNL     1       3.685  -5.156  -1.714  1.00  0.00     0.058 A 
ATOM    100  C   UNL     1       2.906  -3.987  -1.851  1.00  0.00     0.135 A 
ATOM    101  C   UNL     1       5.076  -4.973  -1.828  1.00  0.00     0.135 A 
ATOM    102  F   UNL     1       1.576  -3.996  -1.716  1.00  0.00    -0.206 F 
ATOM    103  C   UNL     1       3.474  -2.731  -2.081  1.00  0.00     0.059 A 
ATOM    104  C   UNL     1       5.666  -3.718  -1.983  1.00  0.00     0.059 A 
ATOM    105  F   UNL     1       5.903  -6.028  -1.738  1.00  0.00    -0.206 F 
ATOM    106  C   UNL     1       4.855  -2.596  -2.097  1.00  0.00     0.060 A 
BRANCH 106 107
ATOM    107  S   UNL     1       5.589  -0.957  -2.257  1.00  0.00     0.124 S 
ATOM    108  O   UNL     1       4.684  -0.277  -3.179  1.00  0.00    -0.237 OA
ATOM    109  O   UNL     1       5.560  -0.479  -0.877  1.00  0.00    -0.237 OA
ATOM    110  O   UNL     1       6.919  -1.237  -2.792  1.00  0.00    -0.744 OA
ENDBRANCH 106 107
ENDBRANCH  74  99
ENDBRANCH  48  49
ENDBRANCH  41  43
ENDBRANCH  40  41
ENDBRANCH  39  40
ENDBRANCH  38  39
ENDBRANCH  37  38
ENDBRANCH  36  37
ENDBRANCH   1  36
TORSDOF 25
