REMARK SMILES CCCSc1nc2n(n1)[C@@H](c1ccccc1C(=O)OCCOCCOCCOC(=O)c1ccc(-c3c4nc(c(-c5c(F)cc(S(=O)(=O)[O-])cc5F)c5ccc([nH]5)c(-c5c(F)cc(S(=O)(=O)[O-])cc5F)c5nc(c(-c6c(F)cc(S(=O)(=O)[O-])cc6F)c6ccc3[nH]6)C=C5)C=C4)cc1)C(C(=O)Nc1cccc(C)c1C)=C(C)N2
REMARK SMILES IDX 23 1 22 2 21 3 20 4 19 5 17 6 18 7 16 8 11 9 12 10 13 11
REMARK SMILES IDX 15 12 14 13 10 14 5 15 6 16 9 17 7 18 8 19 111 20 109 21
REMARK SMILES IDX 97 23 110 24 4 25 3 26 2 27 1 28 98 29 99 30 100 31 101 33
REMARK SMILES IDX 102 34 107 35 103 36 105 37 108 38 104 39 106 40 24 41 25 42
REMARK SMILES IDX 26 43 27 44 28 45 29 46 30 47 31 48 32 49 96 50 33 51 95 52
REMARK SMILES IDX 34 53 35 54 36 55 89 56 37 57 94 58 88 59 90 60 38 61 93 62
REMARK SMILES IDX 87 63 86 64 39 66 73 67 52 68 72 69 53 70 56 71 71 72 91 73
REMARK SMILES IDX 54 74 55 75 70 77 92 78 57 79 40 80 41 81 50 82 42 83 43 84
REMARK SMILES IDX 49 85 51 86 44 87 45 88 46 89 47 90 48 91 74 92 75 93 84 94
REMARK SMILES IDX 76 95 77 96 83 97 85 98 78 99 79 100 80 101 81 102 82 103
REMARK SMILES IDX 58 104 59 105 68 106 60 107 61 108 67 109 69 110 62 111
REMARK SMILES IDX 63 112 64 113 65 114 66 115
REMARK H PARENT 111 22 100 32 90 65 56 76
REMARK Flexibility Score: inf
ROOT
ATOM      1  C   UNL     1       1.700  -4.128  -5.263  1.00  0.00     0.188 C 
ENDROOT
BRANCH   1   2
ATOM      2  O   UNL     1       3.077  -4.220  -5.589  1.00  0.00    -0.376 OA
BRANCH   2   3
ATOM      3  C   UNL     1       3.450  -3.473  -6.738  1.00  0.00     0.202 C 
BRANCH   3   4
ATOM      4  C   UNL     1       3.449  -1.946  -6.581  1.00  0.00     0.261 C 
BRANCH   4   5
ATOM      5  O   UNL     1       2.346  -1.350  -5.867  1.00  0.00    -0.460 OA
BRANCH   5   6
ATOM      6  C   UNL     1       1.176  -1.226  -6.529  1.00  0.00     0.338 C 
ATOM      7  O   UNL     1       0.973  -1.657  -7.656  1.00  0.00    -0.246 OA
BRANCH   6   8
ATOM      8  C   UNL     1       0.121  -0.599  -5.662  1.00  0.00     0.065 A 
ATOM      9  C   UNL     1       0.308   0.427  -4.692  1.00  0.00    -0.004 A 
ATOM     10  C   UNL     1      -0.854   0.867  -4.003  1.00  0.00     0.007 A 
ATOM     11  C   UNL     1      -2.117   0.318  -4.227  1.00  0.00     0.000 A 
ATOM     12  C   UNL     1      -1.173  -1.117  -5.898  1.00  0.00     0.016 A 
ATOM     13  C   UNL     1      -2.280  -0.671  -5.181  1.00  0.00     0.001 A 
BRANCH   9  14
ATOM     14  C   UNL     1       1.666   1.132  -4.431  1.00  0.00     0.180 C 
ATOM     15  C   UNL     1       1.199   2.484  -1.201  1.00  0.00     0.210 A 
ATOM     16  N   UNL     1       1.411   3.663  -1.867  1.00  0.00    -0.185 NA
ATOM     17  N   UNL     1       1.430   1.373  -1.917  1.00  0.00    -0.141 NA
ATOM     18  C   UNL     1       1.674   3.270  -3.082  1.00  0.00     0.227 A 
ATOM     19  N   UNL     1       1.667   1.897  -3.148  1.00  0.00    -0.218 N 
ATOM     20  N   UNL     1       1.835   3.995  -4.199  1.00  0.00    -0.328 N 
ATOM     21  C   UNL     1       2.016   3.433  -5.449  1.00  0.00     0.026 C 
ATOM     22  H   UNL     1       1.823   4.976  -4.125  1.00  0.00     0.169 HD
ATOM     23  C   UNL     1       2.031   2.086  -5.582  1.00  0.00     0.065 C 
ATOM     24  C   UNL     1       2.155   4.412  -6.585  1.00  0.00     0.065 C 
BRANCH  15  25
ATOM     25  S   UNL     1       0.336   2.504   0.316  1.00  0.00    -0.084 SA
BRANCH  25  26
ATOM     26  C   UNL     1       1.290   1.389   1.369  1.00  0.00     0.078 C 
BRANCH  26  27
ATOM     27  C   UNL     1       0.617   0.032   1.566  1.00  0.00     0.008 C 
ATOM     28  C   UNL     1       0.749  -0.893   0.367  1.00  0.00     0.005 C 
ENDBRANCH  26  27
ENDBRANCH  25  26
ENDBRANCH  15  25
BRANCH  23  29
ATOM     29  C   UNL     1       2.282   1.500  -6.907  1.00  0.00     0.255 C 
ATOM     30  O   UNL     1       1.353   1.334  -7.694  1.00  0.00    -0.269 OA
ATOM     31  N   UNL     1       3.560   1.131  -7.262  1.00  0.00    -0.322 N 
ATOM     32  H   UNL     1       3.761   0.189  -7.461  1.00  0.00     0.170 HD
BRANCH  31  33
ATOM     33  C   UNL     1       4.582   2.101  -7.339  1.00  0.00     0.044 A 
ATOM     34  C   UNL     1       4.794   2.623  -8.622  1.00  0.00     0.026 A 
ATOM     35  C   UNL     1       5.215   2.654  -6.215  1.00  0.00    -0.025 A 
ATOM     36  C   UNL     1       5.495   3.808  -8.781  1.00  0.00     0.002 A 
ATOM     37  C   UNL     1       5.856   3.901  -6.372  1.00  0.00    -0.046 A 
ATOM     38  C   UNL     1       5.245   1.930  -4.895  1.00  0.00     0.047 C 
ATOM     39  C   UNL     1       5.977   4.467  -7.656  1.00  0.00     0.004 A 
ATOM     40  C   UNL     1       6.309   4.734  -5.203  1.00  0.00     0.044 C 
ENDBRANCH  31  33
ENDBRANCH  23  29
ENDBRANCH   9  14
ENDBRANCH   6   8
ENDBRANCH   5   6
ENDBRANCH   4   5
ENDBRANCH   3   4
ENDBRANCH   2   3
ENDBRANCH   1   2
BRANCH   1  41
ATOM     41  C   UNL     1       1.403  -3.413  -3.929  1.00  0.00     0.188 C 
BRANCH  41  42
ATOM     42  O   UNL     1       2.389  -2.638  -3.252  1.00  0.00    -0.376 OA
BRANCH  42  43
ATOM     43  C   UNL     1       3.736  -3.083  -3.125  1.00  0.00     0.202 C 
BRANCH  43  44
ATOM     44  C   UNL     1       4.055  -4.405  -2.429  1.00  0.00     0.261 C 
BRANCH  44  45
ATOM     45  O   UNL     1       3.344  -5.500  -2.980  1.00  0.00    -0.460 OA
BRANCH  45  46
ATOM     46  C   UNL     1       2.226  -5.823  -2.299  1.00  0.00     0.338 C 
ATOM     47  O   UNL     1       1.811  -5.303  -1.276  1.00  0.00    -0.246 OA
BRANCH  46  48
ATOM     48  C   UNL     1       1.517  -6.890  -3.017  1.00  0.00     0.060 A 
ATOM     49  C   UNL     1       0.256  -7.238  -2.528  1.00  0.00     0.016 A 
ATOM     50  C   UNL     1       2.145  -7.620  -4.039  1.00  0.00     0.016 A 
ATOM     51  C   UNL     1      -0.257  -8.465  -2.869  1.00  0.00     0.010 A 
ATOM     52  C   UNL     1       1.628  -8.847  -4.387  1.00  0.00     0.010 A 
ATOM     53  C   UNL     1       0.505  -9.294  -3.696  1.00  0.00    -0.014 A 
BRANCH  53  54
ATOM     54  C   UNL     1       0.212 -10.709  -3.623  1.00  0.00     0.031 A 
ATOM     55  C   UNL     1      -0.927 -11.178  -4.426  1.00  0.00     0.074 A 
ATOM     56  C   UNL     1       0.980 -11.514  -2.864  1.00  0.00     0.049 A 
ATOM     57  N   UNL     1      -2.043 -11.678  -4.012  1.00  0.00    -0.248 NA
ATOM     58  C   UNL     1      -0.846 -10.974  -5.878  1.00  0.00     0.031 C 
ATOM     59  C   UNL     1       2.285 -11.205  -2.265  1.00  0.00     0.029 A 
ATOM     60  N   UNL     1       0.803 -12.826  -2.559  1.00  0.00    -0.354 N 
ATOM     61  C   UNL     1      -2.717 -12.063  -5.163  1.00  0.00     0.074 A 
ATOM     62  C   UNL     1      -2.020 -11.463  -6.274  1.00  0.00     0.031 C 
ATOM     63  C   UNL     1       2.871 -12.355  -1.869  1.00  0.00     0.029 A 
ATOM     64  C   UNL     1       1.942 -13.452  -2.076  1.00  0.00     0.049 A 
ATOM     65  H   UNL     1      -0.057 -13.291  -2.672  1.00  0.00     0.167 HD
ATOM     66  C   UNL     1      -3.643 -13.057  -5.150  1.00  0.00     0.037 A 
ATOM     67  C   UNL     1       2.131 -14.789  -1.962  1.00  0.00     0.037 A 
ATOM     68  C   UNL     1      -4.167 -13.305  -3.834  1.00  0.00     0.049 A 
ATOM     69  C   UNL     1       0.788 -15.430  -1.962  1.00  0.00     0.074 A 
ATOM     70  C   UNL     1      -4.799 -12.522  -2.886  1.00  0.00     0.029 A 
ATOM     71  N   UNL     1      -3.764 -14.438  -3.169  1.00  0.00    -0.354 N 
ATOM     72  N   UNL     1      -0.088 -15.315  -1.001  1.00  0.00    -0.248 NA
ATOM     73  C   UNL     1       0.251 -15.885  -3.236  1.00  0.00     0.031 C 
ATOM     74  C   UNL     1      -4.336 -13.004  -1.628  1.00  0.00     0.029 A 
ATOM     75  C   UNL     1      -3.471 -14.070  -1.878  1.00  0.00     0.049 A 
ATOM     76  H   UNL     1      -3.698 -15.344  -3.547  1.00  0.00     0.167 HD
ATOM     77  C   UNL     1      -1.320 -15.286  -1.638  1.00  0.00     0.074 A 
ATOM     78  C   UNL     1      -1.055 -15.751  -2.995  1.00  0.00     0.031 C 
ATOM     79  C   UNL     1      -2.389 -14.630  -1.096  1.00  0.00     0.037 A 
BRANCH  66  80
ATOM     80  C   UNL     1      -3.798 -14.013  -6.300  1.00  0.00     0.058 A 
ATOM     81  C   UNL     1      -4.961 -14.791  -6.426  1.00  0.00     0.135 A 
ATOM     82  C   UNL     1      -2.723 -14.363  -7.151  1.00  0.00     0.135 A 
ATOM     83  F   UNL     1      -6.020 -14.566  -5.632  1.00  0.00    -0.206 F 
ATOM     84  C   UNL     1      -5.042 -15.859  -7.320  1.00  0.00     0.059 A 
ATOM     85  C   UNL     1      -2.804 -15.380  -8.091  1.00  0.00     0.059 A 
ATOM     86  F   UNL     1      -1.515 -13.793  -7.040  1.00  0.00    -0.206 F 
ATOM     87  C   UNL     1      -3.953 -16.150  -8.140  1.00  0.00     0.060 A 
BRANCH  87  88
ATOM     88  S   UNL     1      -4.010 -17.584  -9.227  1.00  0.00     0.124 S 
ATOM     89  O   UNL     1      -3.805 -18.670  -8.276  1.00  0.00    -0.237 OA
ATOM     90  O   UNL     1      -5.347 -17.481  -9.803  1.00  0.00    -0.237 OA
ATOM     91  O   UNL     1      -2.913 -17.339 -10.159  1.00  0.00    -0.744 OA
ENDBRANCH  87  88
ENDBRANCH  66  80
BRANCH  67  92
ATOM     92  C   UNL     1       3.385 -15.545  -2.216  1.00  0.00     0.058 A 
ATOM     93  C   UNL     1       3.487 -16.903  -1.869  1.00  0.00     0.135 A 
ATOM     94  C   UNL     1       4.410 -15.038  -3.043  1.00  0.00     0.135 A 
ATOM     95  F   UNL     1       2.545 -17.477  -1.105  1.00  0.00    -0.206 F 
ATOM     96  C   UNL     1       4.511 -17.722  -2.356  1.00  0.00     0.059 A 
ATOM     97  C   UNL     1       5.451 -15.828  -3.522  1.00  0.00     0.059 A 
ATOM     98  F   UNL     1       4.383 -13.776  -3.497  1.00  0.00    -0.206 F 
ATOM     99  C   UNL     1       5.479 -17.177  -3.199  1.00  0.00     0.060 A 
BRANCH  99 100
ATOM    100  S   UNL     1       6.693 -18.264  -3.979  1.00  0.00     0.124 S 
ATOM    101  O   UNL     1       7.533 -18.638  -2.847  1.00  0.00    -0.237 OA
ATOM    102  O   UNL     1       5.851 -19.322  -4.528  1.00  0.00    -0.237 OA
ATOM    103  O   UNL     1       7.331 -17.403  -4.972  1.00  0.00    -0.744 OA
ENDBRANCH  99 100
ENDBRANCH  67  92
BRANCH  79 104
ATOM    104  C   UNL     1      -2.316 -14.227   0.355  1.00  0.00     0.058 A 
ATOM    105  C   UNL     1      -1.382 -13.312   0.874  1.00  0.00     0.135 A 
ATOM    106  C   UNL     1      -3.321 -14.676   1.227  1.00  0.00     0.135 A 
ATOM    107  F   UNL     1      -0.458 -12.748   0.082  1.00  0.00    -0.206 F 
ATOM    108  C   UNL     1      -1.415 -12.903   2.209  1.00  0.00     0.059 A 
ATOM    109  C   UNL     1      -3.392 -14.256   2.554  1.00  0.00     0.059 A 
ATOM    110  F   UNL     1      -4.283 -15.499   0.778  1.00  0.00    -0.206 F 
ATOM    111  C   UNL     1      -2.425 -13.381   3.043  1.00  0.00     0.060 A 
BRANCH 111 112
ATOM    112  S   UNL     1      -2.515 -12.786   4.747  1.00  0.00     0.124 S 
ATOM    113  O   UNL     1      -1.422 -13.512   5.383  1.00  0.00    -0.237 OA
ATOM    114  O   UNL     1      -2.316 -11.347   4.595  1.00  0.00    -0.237 OA
ATOM    115  O   UNL     1      -3.857 -13.177   5.174  1.00  0.00    -0.744 OA
ENDBRANCH 111 112
ENDBRANCH  79 104
ENDBRANCH  53  54
ENDBRANCH  46  48
ENDBRANCH  45  46
ENDBRANCH  44  45
ENDBRANCH  43  44
ENDBRANCH  42  43
ENDBRANCH  41  42
ENDBRANCH   1  41
TORSDOF 26
