REMARK SMILES O=C(OCCOCCOCCOC(=O)[C@@H]1[C@H](C(=O)Nc2ccccc2OC(F)F)[C@@H]2C=C[C@H]1C2)c1ccc(-c2c3nc(c(-c4c(F)cc(S(=O)(=O)[O-])cc4F)c4ccc([nH]4)c(-c4c(F)cc(S(=O)(=O)[O-])cc4F)c4nc(c(-c5c(F)cc(S(=O)(=O)[O-])cc5F)c5ccc2[nH]5)C=C4)C=C3)cc1
REMARK SMILES IDX 8 1 7 2 6 3 5 4 4 5 3 6 2 7 1 8 35 9 36 10 100 11 37 12
REMARK SMILES IDX 99 13 38 14 39 15 40 16 93 17 41 18 98 19 92 20 94 21 42 22
REMARK SMILES IDX 97 23 91 24 90 25 43 27 77 28 56 29 76 30 57 31 60 32 75 33
REMARK SMILES IDX 95 34 58 35 59 36 74 38 96 39 61 40 44 41 45 42 54 43 46 44
REMARK SMILES IDX 47 45 53 46 55 47 48 48 49 49 50 50 51 51 52 52 78 53 79 54
REMARK SMILES IDX 88 55 80 56 81 57 87 58 89 59 82 60 83 61 84 62 85 63 86 64
REMARK SMILES IDX 62 65 63 66 72 67 64 68 65 69 71 70 73 71 66 72 67 73 68 74
REMARK SMILES IDX 69 75 70 76 9 77 10 78 11 79 12 80 13 81 14 82 15 83 16 84
REMARK SMILES IDX 33 85 30 86 32 87 34 88 31 89 17 90 18 91 19 92 20 94 21 95
REMARK SMILES IDX 25 96 22 97 24 98 23 99 26 100 27 101 28 102 29 103
REMARK H PARENT 94 26 60 37 19 93
REMARK Flexibility Score: inf
ROOT
ATOM      1  C   UNL     1       3.639  -3.802  -1.181  1.00  0.00     0.188 C 
ENDROOT
BRANCH   1   2
ATOM      2  C   UNL     1       4.139  -2.595  -0.366  1.00  0.00     0.188 C 
BRANCH   2   3
ATOM      3  O   UNL     1       5.367  -2.793   0.337  1.00  0.00    -0.376 OA
BRANCH   3   4
ATOM      4  C   UNL     1       5.992  -1.546   0.715  1.00  0.00     0.202 C 
BRANCH   4   5
ATOM      5  C   UNL     1       5.213  -0.705   1.750  1.00  0.00     0.261 C 
BRANCH   5   6
ATOM      6  O   UNL     1       4.087  -0.098   1.092  1.00  0.00    -0.460 OA
BRANCH   6   7
ATOM      7  C   UNL     1       3.719   1.131   1.534  1.00  0.00     0.338 C 
ATOM      8  O   UNL     1       3.013   1.341   2.498  1.00  0.00    -0.246 OA
BRANCH   7   9
ATOM      9  C   UNL     1       4.075   2.134   0.499  1.00  0.00     0.060 A 
ATOM     10  C   UNL     1       5.292   2.040  -0.196  1.00  0.00     0.016 A 
ATOM     11  C   UNL     1       3.155   3.132   0.169  1.00  0.00     0.016 A 
ATOM     12  C   UNL     1       5.560   2.876  -1.274  1.00  0.00     0.010 A 
ATOM     13  C   UNL     1       3.428   3.983  -0.906  1.00  0.00     0.010 A 
ATOM     14  C   UNL     1       4.634   3.860  -1.627  1.00  0.00    -0.014 A 
BRANCH  14  15
ATOM     15  C   UNL     1       5.098   4.976  -2.480  1.00  0.00     0.031 A 
ATOM     16  C   UNL     1       5.638   6.161  -1.735  1.00  0.00     0.074 A 
ATOM     17  C   UNL     1       5.103   4.928  -3.825  1.00  0.00     0.049 A 
ATOM     18  N   UNL     1       6.124   7.281  -2.189  1.00  0.00    -0.248 NA
ATOM     19  C   UNL     1       5.645   6.053  -0.263  1.00  0.00     0.031 C 
ATOM     20  C   UNL     1       4.689   3.789  -4.638  1.00  0.00     0.029 A 
ATOM     21  N   UNL     1       5.454   5.878  -4.751  1.00  0.00    -0.354 N 
ATOM     22  C   UNL     1       6.508   7.994  -1.061  1.00  0.00     0.074 A 
ATOM     23  C   UNL     1       6.136   7.221   0.097  1.00  0.00     0.031 C 
ATOM     24  C   UNL     1       4.731   4.128  -5.939  1.00  0.00     0.029 A 
ATOM     25  C   UNL     1       5.197   5.505  -6.052  1.00  0.00     0.049 A 
ATOM     26  H   UNL     1       5.853   6.745  -4.508  1.00  0.00     0.167 HD
ATOM     27  C   UNL     1       7.144   9.183  -0.997  1.00  0.00     0.037 A 
ATOM     28  C   UNL     1       5.319   6.211  -7.194  1.00  0.00     0.037 A 
ATOM     29  C   UNL     1       7.449   9.959  -2.160  1.00  0.00     0.049 A 
ATOM     30  C   UNL     1       5.912   7.595  -7.103  1.00  0.00     0.074 A 
ATOM     31  C   UNL     1       8.029  11.208  -2.241  1.00  0.00     0.029 A 
ATOM     32  N   UNL     1       7.164   9.553  -3.459  1.00  0.00    -0.354 N 
ATOM     33  N   UNL     1       6.303   8.252  -6.034  1.00  0.00    -0.248 NA
ATOM     34  C   UNL     1       6.116   8.323  -8.362  1.00  0.00     0.031 C 
ATOM     35  C   UNL     1       8.051  11.579  -3.590  1.00  0.00     0.029 A 
ATOM     36  C   UNL     1       7.540  10.536  -4.352  1.00  0.00     0.049 A 
ATOM     37  H   UNL     1       6.755   8.692  -3.705  1.00  0.00     0.167 HD
ATOM     38  C   UNL     1       6.846   9.445  -6.492  1.00  0.00     0.074 A 
ATOM     39  C   UNL     1       6.718   9.428  -7.937  1.00  0.00     0.031 C 
ATOM     40  C   UNL     1       7.416  10.455  -5.788  1.00  0.00     0.037 A 
BRANCH  27  41
ATOM     41  C   UNL     1       7.461   9.684   0.381  1.00  0.00     0.058 A 
ATOM     42  C   UNL     1       8.418   9.043   1.190  1.00  0.00     0.135 A 
ATOM     43  C   UNL     1       6.694  10.706   0.957  1.00  0.00     0.135 A 
ATOM     44  F   UNL     1       9.147   8.027   0.700  1.00  0.00    -0.206 F 
ATOM     45  C   UNL     1       8.551   9.352   2.539  1.00  0.00     0.059 A 
ATOM     46  C   UNL     1       6.832  11.052   2.297  1.00  0.00     0.059 A 
ATOM     47  F   UNL     1       5.755  11.336   0.233  1.00  0.00    -0.206 F 
ATOM     48  C   UNL     1       7.738  10.345   3.087  1.00  0.00     0.060 A 
BRANCH  48  49
ATOM     49  S   UNL     1       7.850  10.671   4.859  1.00  0.00     0.124 S 
ATOM     50  O   UNL     1       7.148   9.515   5.411  1.00  0.00    -0.237 OA
ATOM     51  O   UNL     1       9.292  10.700   5.083  1.00  0.00    -0.237 OA
ATOM     52  O   UNL     1       7.168  11.952   5.012  1.00  0.00    -0.744 OA
ENDBRANCH  48  49
ENDBRANCH  27  41
BRANCH  28  53
ATOM     53  C   UNL     1       4.909   5.617  -8.499  1.00  0.00     0.058 A 
ATOM     54  C   UNL     1       5.857   5.226  -9.456  1.00  0.00     0.135 A 
ATOM     55  C   UNL     1       3.555   5.407  -8.809  1.00  0.00     0.135 A 
ATOM     56  F   UNL     1       7.164   5.412  -9.219  1.00  0.00    -0.206 F 
ATOM     57  C   UNL     1       5.482   4.652 -10.670  1.00  0.00     0.059 A 
ATOM     58  C   UNL     1       3.155   4.819 -10.010  1.00  0.00     0.059 A 
ATOM     59  F   UNL     1       2.602   5.757  -7.932  1.00  0.00    -0.206 F 
ATOM     60  C   UNL     1       4.127   4.447 -10.936  1.00  0.00     0.060 A 
BRANCH  60  61
ATOM     61  S   UNL     1       3.661   3.640 -12.486  1.00  0.00     0.124 S 
ATOM     62  O   UNL     1       3.992   4.667 -13.467  1.00  0.00    -0.237 OA
ATOM     63  O   UNL     1       4.518   2.459 -12.484  1.00  0.00    -0.237 OA
ATOM     64  O   UNL     1       2.236   3.371 -12.311  1.00  0.00    -0.744 OA
ENDBRANCH  60  61
ENDBRANCH  28  53
BRANCH  40  65
ATOM     65  C   UNL     1       8.003  11.598  -6.561  1.00  0.00     0.058 A 
ATOM     66  C   UNL     1       7.199  12.601  -7.117  1.00  0.00     0.135 A 
ATOM     67  C   UNL     1       9.398  11.760  -6.606  1.00  0.00     0.135 A 
ATOM     68  F   UNL     1       5.862  12.485  -7.101  1.00  0.00    -0.206 F 
ATOM     69  C   UNL     1       7.760  13.739  -7.684  1.00  0.00     0.059 A 
ATOM     70  C   UNL     1       9.978  12.900  -7.144  1.00  0.00     0.059 A 
ATOM     71  F   UNL     1      10.205  10.828  -6.073  1.00  0.00    -0.206 F 
ATOM     72  C   UNL     1       9.150  13.886  -7.679  1.00  0.00     0.060 A 
BRANCH  72  73
ATOM     73  S   UNL     1       9.859  15.417  -8.318  1.00  0.00     0.124 S 
ATOM     74  O   UNL     1       9.702  15.235  -9.757  1.00  0.00    -0.237 OA
ATOM     75  O   UNL     1       9.007  16.434  -7.709  1.00  0.00    -0.237 OA
ATOM     76  O   UNL     1      11.234  15.385  -7.826  1.00  0.00    -0.744 OA
ENDBRANCH  72  73
ENDBRANCH  40  65
ENDBRANCH  14  15
ENDBRANCH   7   9
ENDBRANCH   6   7
ENDBRANCH   5   6
ENDBRANCH   4   5
ENDBRANCH   3   4
ENDBRANCH   2   3
ENDBRANCH   1   2
BRANCH   1  77
ATOM     77  O   UNL     1       4.437  -4.344  -2.233  1.00  0.00    -0.376 OA
BRANCH  77  78
ATOM     78  C   UNL     1       4.773  -3.558  -3.386  1.00  0.00     0.202 C 
BRANCH  78  79
ATOM     79  C   UNL     1       3.736  -3.439  -4.559  1.00  0.00     0.261 C 
BRANCH  79  80
ATOM     80  O   UNL     1       3.305  -2.068  -4.909  1.00  0.00    -0.463 OA
BRANCH  80  81
ATOM     81  C   UNL     1       1.956  -1.873  -5.146  1.00  0.00     0.310 C 
ATOM     82  O   UNL     1       1.188  -2.830  -5.240  1.00  0.00    -0.252 OA
BRANCH  81  83
ATOM     83  C   UNL     1       1.489  -0.401  -5.434  1.00  0.00     0.119 C 
ATOM     84  C   UNL     1       1.483   1.035  -4.699  1.00  0.00     0.100 C 
ATOM     85  C   UNL     1      -0.017  -0.468  -5.889  1.00  0.00     0.027 C 
ATOM     86  C   UNL     1       0.045   1.573  -5.016  1.00  0.00     0.025 C 
ATOM     87  C   UNL     1      -0.933  -0.462  -4.680  1.00  0.00    -0.027 C 
ATOM     88  C   UNL     1      -0.253   0.965  -6.372  1.00  0.00     0.017 C 
ATOM     89  C   UNL     1      -0.925   0.779  -4.178  1.00  0.00    -0.027 C 
BRANCH  84  90
ATOM     90  C   UNL     1       1.756   1.746  -3.343  1.00  0.00     0.229 C 
ATOM     91  O   UNL     1       2.084   2.944  -3.396  1.00  0.00    -0.274 OA
ATOM     92  N   UNL     1       1.452   1.336  -2.088  1.00  0.00    -0.323 N 
ATOM     93  H   UNL     1       1.476   2.045  -1.406  1.00  0.00     0.170 HD
BRANCH  92  94
ATOM     94  C   UNL     1       1.114   0.086  -1.609  1.00  0.00     0.084 A 
ATOM     95  C   UNL     1       0.202  -0.018  -0.557  1.00  0.00     0.030 A 
ATOM     96  C   UNL     1       1.585  -1.050  -2.207  1.00  0.00     0.149 A 
ATOM     97  C   UNL     1      -0.461  -1.226  -0.336  1.00  0.00     0.002 A 
ATOM     98  C   UNL     1       0.799  -2.202  -2.119  1.00  0.00     0.049 A 
ATOM     99  C   UNL     1      -0.230  -2.295  -1.189  1.00  0.00     0.004 A 
BRANCH  96 100
ATOM    100  O   UNL     1       2.778  -1.172  -2.835  1.00  0.00    -0.433 OA
BRANCH 100 101
ATOM    101  C   UNL     1       3.875  -0.254  -2.795  1.00  0.00     0.542 C 
ATOM    102  F   UNL     1       3.878   0.525  -3.895  1.00  0.00    -0.167 F 
ATOM    103  F   UNL     1       3.830   0.499  -1.694  1.00  0.00    -0.167 F 
ENDBRANCH 100 101
ENDBRANCH  96 100
ENDBRANCH  92  94
ENDBRANCH  84  90
ENDBRANCH  81  83
ENDBRANCH  80  81
ENDBRANCH  79  80
ENDBRANCH  78  79
ENDBRANCH  77  78
ENDBRANCH   1  77
TORSDOF 24
