REMARK SMILES COc1ncccc1C[C@H](C(=O)OCCOCCOCCOC(=O)c1ccc(-c2c3nc(c(-c4c(F)cc(S(=O)(=O)[O-])cc4F)c4ccc([nH]4)c(-c4c(F)cc(S(=O)(=O)[O-])cc4F)c4nc(c(-c5c(F)cc(S(=O)(=O)[O-])cc5F)c5ccc2[nH]5)C=C4)C=C3)cc1)c1ccc(F)cc1
REMARK SMILES IDX 17 1 16 2 15 3 14 4 13 5 11 6 12 7 10 8 9 9 8 10 3 11 4 12
REMARK SMILES IDX 5 13 7 14 6 15 2 16 1 17 91 18 92 19 97 20 93 21 96 22 94 23
REMARK SMILES IDX 95 24 18 25 19 26 20 27 21 28 22 29 23 30 24 31 25 32 26 33
REMARK SMILES IDX 90 34 27 35 89 36 28 37 29 38 30 39 83 40 31 41 88 42 82 43
REMARK SMILES IDX 84 44 32 45 87 46 81 47 80 48 33 50 67 51 46 52 66 53 47 54
REMARK SMILES IDX 50 55 65 56 85 57 48 58 49 59 64 61 86 62 51 63 34 64 35 65
REMARK SMILES IDX 44 66 36 67 37 68 43 69 45 70 38 71 39 72 40 73 41 74 42 75
REMARK SMILES IDX 68 76 69 77 78 78 70 79 71 80 77 81 79 82 72 83 73 84 74 85
REMARK SMILES IDX 75 86 76 87 52 88 53 89 62 90 54 91 55 92 61 93 63 94 56 95
REMARK SMILES IDX 57 96 58 97 59 98 60 99
REMARK H PARENT 84 49 50 60
REMARK Flexibility Score: inf
ROOT
ATOM      1  C   UNL     1       3.594   2.715  -2.927  1.00  0.00     0.188 C 
ENDROOT
BRANCH   1   2
ATOM      2  O   UNL     1       4.258   1.881  -3.871  1.00  0.00    -0.376 OA
BRANCH   2   3
ATOM      3  C   UNL     1       3.658   0.676  -4.316  1.00  0.00     0.202 C 
BRANCH   3   4
ATOM      4  C   UNL     1       3.450  -0.439  -3.282  1.00  0.00     0.261 C 
BRANCH   4   5
ATOM      5  O   UNL     1       2.821  -0.014  -2.055  1.00  0.00    -0.463 OA
BRANCH   5   6
ATOM      6  C   UNL     1       3.570  -0.168  -0.930  1.00  0.00     0.313 C 
ATOM      7  O   UNL     1       4.643  -0.763  -0.923  1.00  0.00    -0.252 OA
BRANCH   6   8
ATOM      8  C   UNL     1       2.992   0.580   0.300  1.00  0.00     0.134 C 
BRANCH   8   9
ATOM      9  C   UNL     1       1.497   0.285   0.634  1.00  0.00     0.061 C 
BRANCH   9  10
ATOM     10  C   UNL     1       0.507   1.371   0.248  1.00  0.00     0.015 A 
ATOM     11  C   UNL     1       0.418   2.586   0.932  1.00  0.00     0.216 A 
ATOM     12  N   UNL     1      -0.357   3.628   0.556  1.00  0.00    -0.222 NA
ATOM     13  C   UNL     1      -1.151   3.433  -0.518  1.00  0.00     0.115 A 
ATOM     14  C   UNL     1      -0.374   1.195  -0.824  1.00  0.00     0.011 A 
ATOM     15  C   UNL     1      -1.228   2.231  -1.202  1.00  0.00     0.021 A 
BRANCH  11  16
ATOM     16  O   UNL     1       0.953   2.659   2.193  1.00  0.00    -0.481 OA
ATOM     17  C   UNL     1       2.117   3.467   2.235  1.00  0.00     0.280 C 
ENDBRANCH  11  16
ENDBRANCH   9  10
ENDBRANCH   8   9
BRANCH   8  18
ATOM     18  C   UNL     1       3.892   0.252   1.499  1.00  0.00    -0.033 A 
ATOM     19  C   UNL     1       3.889  -1.043   2.051  1.00  0.00     0.007 A 
ATOM     20  C   UNL     1       4.827   1.190   1.970  1.00  0.00     0.007 A 
ATOM     21  C   UNL     1       4.791  -1.384   3.056  1.00  0.00     0.039 A 
ATOM     22  C   UNL     1       5.712   0.851   2.994  1.00  0.00     0.039 A 
ATOM     23  C   UNL     1       5.688  -0.433   3.523  1.00  0.00     0.123 A 
ATOM     24  F   UNL     1       6.553  -0.768   4.489  1.00  0.00    -0.207 F 
ENDBRANCH   8  18
ENDBRANCH   6   8
ENDBRANCH   5   6
ENDBRANCH   4   5
ENDBRANCH   3   4
ENDBRANCH   2   3
ENDBRANCH   1   2
BRANCH   1  25
ATOM     25  C   UNL     1       2.074   2.632  -2.719  1.00  0.00     0.188 C 
BRANCH  25  26
ATOM     26  O   UNL     1       1.350   2.048  -3.786  1.00  0.00    -0.376 OA
BRANCH  26  27
ATOM     27  C   UNL     1       0.340   2.849  -4.376  1.00  0.00     0.202 C 
BRANCH  27  28
ATOM     28  C   UNL     1       0.881   4.003  -5.222  1.00  0.00     0.261 C 
BRANCH  28  29
ATOM     29  O   UNL     1       1.705   4.939  -4.504  1.00  0.00    -0.460 OA
BRANCH  29  30
ATOM     30  C   UNL     1       1.109   5.661  -3.528  1.00  0.00     0.338 C 
ATOM     31  O   UNL     1      -0.075   5.623  -3.212  1.00  0.00    -0.246 OA
BRANCH  30  32
ATOM     32  C   UNL     1       2.167   6.356  -2.767  1.00  0.00     0.060 A 
ATOM     33  C   UNL     1       2.271   6.157  -1.383  1.00  0.00     0.016 A 
ATOM     34  C   UNL     1       3.065   7.200  -3.426  1.00  0.00     0.016 A 
ATOM     35  C   UNL     1       3.259   6.826  -0.653  1.00  0.00     0.010 A 
ATOM     36  C   UNL     1       4.040   7.880  -2.691  1.00  0.00     0.010 A 
ATOM     37  C   UNL     1       4.127   7.721  -1.297  1.00  0.00    -0.014 A 
BRANCH  37  38
ATOM     38  C   UNL     1       5.012   8.619  -0.509  1.00  0.00     0.031 A 
ATOM     39  C   UNL     1       4.566  10.040  -0.274  1.00  0.00     0.074 A 
ATOM     40  C   UNL     1       6.189   8.194  -0.013  1.00  0.00     0.049 A 
ATOM     41  N   UNL     1       5.205  11.029   0.295  1.00  0.00    -0.248 NA
ATOM     42  C   UNL     1       3.217  10.391  -0.749  1.00  0.00     0.031 C 
ATOM     43  C   UNL     1       6.725   6.840  -0.139  1.00  0.00     0.029 A 
ATOM     44  N   UNL     1       7.158   8.873   0.688  1.00  0.00    -0.354 N 
ATOM     45  C   UNL     1       4.338  12.115   0.253  1.00  0.00     0.074 A 
ATOM     46  C   UNL     1       3.143  11.676  -0.433  1.00  0.00     0.031 C 
ATOM     47  C   UNL     1       7.933   6.791   0.451  1.00  0.00     0.029 A 
ATOM     48  C   UNL     1       8.274   8.117   0.966  1.00  0.00     0.049 A 
ATOM     49  H   UNL     1       7.062   9.812   0.966  1.00  0.00     0.167 HD
ATOM     50  C   UNL     1       4.514  13.361   0.753  1.00  0.00     0.037 A 
ATOM     51  C   UNL     1       9.444   8.464   1.542  1.00  0.00     0.037 A 
ATOM     52  C   UNL     1       5.704  13.803   1.432  1.00  0.00     0.049 A 
ATOM     53  C   UNL     1       9.648   9.886   2.013  1.00  0.00     0.074 A 
ATOM     54  C   UNL     1       5.978  15.052   1.962  1.00  0.00     0.029 A 
ATOM     55  N   UNL     1       6.816  13.013   1.679  1.00  0.00    -0.354 N 
ATOM     56  N   UNL     1       8.815  10.900   1.971  1.00  0.00    -0.248 NA
ATOM     57  C   UNL     1      10.952  10.210   2.611  1.00  0.00     0.031 C 
ATOM     58  C   UNL     1       7.271  15.029   2.494  1.00  0.00     0.029 A 
ATOM     59  C   UNL     1       7.782  13.751   2.343  1.00  0.00     0.049 A 
ATOM     60  H   UNL     1       6.906  12.067   1.420  1.00  0.00     0.167 HD
ATOM     61  C   UNL     1       9.482  11.965   2.573  1.00  0.00     0.074 A 
ATOM     62  C   UNL     1      10.779  11.471   2.981  1.00  0.00     0.031 C 
ATOM     63  C   UNL     1       9.060  13.240   2.769  1.00  0.00     0.037 A 
BRANCH  50  64
ATOM     64  C   UNL     1       3.390  14.347   0.590  1.00  0.00     0.058 A 
ATOM     65  C   UNL     1       2.209  14.240   1.342  1.00  0.00     0.135 A 
ATOM     66  C   UNL     1       3.522  15.450  -0.269  1.00  0.00     0.135 A 
ATOM     67  F   UNL     1       2.023  13.194   2.163  1.00  0.00    -0.206 F 
ATOM     68  C   UNL     1       1.196  15.188   1.244  1.00  0.00     0.059 A 
ATOM     69  C   UNL     1       2.533  16.424  -0.364  1.00  0.00     0.059 A 
ATOM     70  F   UNL     1       4.628  15.597  -1.015  1.00  0.00    -0.206 F 
ATOM     71  C   UNL     1       1.371  16.281   0.393  1.00  0.00     0.060 A 
BRANCH  71  72
ATOM     72  S   UNL     1       0.064  17.523   0.311  1.00  0.00     0.124 S 
ATOM     73  O   UNL     1      -0.989  16.794  -0.390  1.00  0.00    -0.237 OA
ATOM     74  O   UNL     1      -0.189  17.801   1.722  1.00  0.00    -0.237 OA
ATOM     75  O   UNL     1       0.676  18.615  -0.440  1.00  0.00    -0.744 OA
ENDBRANCH  71  72
ENDBRANCH  50  64
BRANCH  51  76
ATOM     76  C   UNL     1      10.544   7.470   1.692  1.00  0.00     0.058 A 
ATOM     77  C   UNL     1      10.982   7.057   2.960  1.00  0.00     0.135 A 
ATOM     78  C   UNL     1      11.229   6.970   0.574  1.00  0.00     0.135 A 
ATOM     79  F   UNL     1      10.370   7.515   4.063  1.00  0.00    -0.206 F 
ATOM     80  C   UNL     1      12.085   6.223   3.117  1.00  0.00     0.059 A 
ATOM     81  C   UNL     1      12.314   6.108   0.703  1.00  0.00     0.059 A 
ATOM     82  F   UNL     1      10.847   7.323  -0.663  1.00  0.00    -0.206 F 
ATOM     83  C   UNL     1      12.750   5.759   1.981  1.00  0.00     0.060 A 
BRANCH  83  84
ATOM     84  S   UNL     1      14.188   4.687   2.192  1.00  0.00     0.124 S 
ATOM     85  O   UNL     1      15.197   5.637   2.646  1.00  0.00    -0.237 OA
ATOM     86  O   UNL     1      13.714   3.732   3.190  1.00  0.00    -0.237 OA
ATOM     87  O   UNL     1      14.393   4.136   0.856  1.00  0.00    -0.744 OA
ENDBRANCH  83  84
ENDBRANCH  51  76
BRANCH  63  88
ATOM     88  C   UNL     1       9.980  14.175   3.508  1.00  0.00     0.058 A 
ATOM     89  C   UNL     1      11.159  14.670   2.930  1.00  0.00     0.135 A 
ATOM     90  C   UNL     1       9.653  14.616   4.802  1.00  0.00     0.135 A 
ATOM     91  F   UNL     1      11.522  14.281   1.697  1.00  0.00    -0.206 F 
ATOM     92  C   UNL     1      11.998  15.542   3.619  1.00  0.00     0.059 A 
ATOM     93  C   UNL     1      10.460  15.511   5.497  1.00  0.00     0.059 A 
ATOM     94  F   UNL     1       8.529  14.187   5.399  1.00  0.00    -0.206 F 
ATOM     95  C   UNL     1      11.640  15.956   4.903  1.00  0.00     0.060 A 
BRANCH  95  96
ATOM     96  S   UNL     1      12.726  17.103   5.778  1.00  0.00     0.124 S 
ATOM     97  O   UNL     1      13.842  16.235   6.138  1.00  0.00    -0.237 OA
ATOM     98  O   UNL     1      13.008  18.107   4.757  1.00  0.00    -0.237 OA
ATOM     99  O   UNL     1      11.906  17.566   6.894  1.00  0.00    -0.744 OA
ENDBRANCH  95  96
ENDBRANCH  63  88
ENDBRANCH  37  38
ENDBRANCH  30  32
ENDBRANCH  29  30
ENDBRANCH  28  29
ENDBRANCH  27  28
ENDBRANCH  26  27
ENDBRANCH  25  26
ENDBRANCH   1  25
TORSDOF 24
