REMARK SMILES COc1ccc(-n2c(SCC(=O)OCCOCCOCCOC(=O)c3ccc(-c4c5nc(c(-c6c(F)cc(S(=O)(=O)[O-])cc6F)c6ccc([nH]6)c(-c6c(F)cc(S(=O)(=O)[O-])cc6F)c6nc(c(-c7c(F)cc(S(=O)(=O)[O-])cc7F)c7ccc4[nH]7)C=C6)C=C5)cc3)nc3sc4c(c3c2=O)CC[N@H+](C)C4)cc1
REMARK SMILES IDX 17 1 16 2 15 3 14 4 13 5 11 6 12 7 10 8 9 9 8 10 7 11 97 12
REMARK SMILES IDX 91 13 96 14 98 15 92 16 95 17 93 18 94 19 99 20 103 21
REMARK SMILES IDX 100 22 101 23 102 24 6 26 3 27 4 28 105 29 5 30 104 31 2 32
REMARK SMILES IDX 1 33 18 34 19 35 20 36 21 37 22 38 23 39 24 40 25 41 26 42
REMARK SMILES IDX 90 43 27 44 89 45 28 46 29 47 30 48 83 49 31 50 88 51 82 52
REMARK SMILES IDX 84 53 32 54 87 55 81 56 80 57 33 59 67 60 46 61 66 62 47 63
REMARK SMILES IDX 50 64 65 65 85 66 48 67 49 68 64 70 86 71 51 72 34 73 35 74
REMARK SMILES IDX 44 75 36 76 37 77 43 78 45 79 38 80 39 81 40 82 41 83 42 84
REMARK SMILES IDX 68 85 69 86 78 87 70 88 71 89 77 90 79 91 72 92 73 93 74 94
REMARK SMILES IDX 75 95 76 96 52 97 53 98 62 99 54 100 55 101 61 102 63 103
REMARK SMILES IDX 56 104 57 105 58 106 59 107 60 108
REMARK H PARENT 101 25 84 58 50 69
REMARK Flexibility Score: inf
ROOT
ATOM      1  C   UNL     1       3.619  -1.758  -3.529  1.00  0.00     0.188 C 
ENDROOT
BRANCH   1   2
ATOM      2  O   UNL     1       4.664  -0.885  -3.111  1.00  0.00    -0.376 OA
BRANCH   2   3
ATOM      3  C   UNL     1       5.750  -1.496  -2.401  1.00  0.00     0.202 C 
BRANCH   3   4
ATOM      4  C   UNL     1       5.402  -2.356  -1.165  1.00  0.00     0.261 C 
BRANCH   4   5
ATOM      5  O   UNL     1       5.078  -3.725  -1.518  1.00  0.00    -0.463 OA
BRANCH   5   6
ATOM      6  C   UNL     1       4.736  -4.536  -0.463  1.00  0.00     0.316 C 
ATOM      7  O   UNL     1       4.796  -4.159   0.705  1.00  0.00    -0.251 OA
BRANCH   6   8
ATOM      8  C   UNL     1       4.170  -5.918  -0.840  1.00  0.00     0.200 C 
BRANCH   8   9
ATOM      9  S   UNL     1       4.551  -6.475  -2.484  1.00  0.00    -0.076 SA
BRANCH   9  10
ATOM     10  C   UNL     1       3.249  -6.549  -3.675  1.00  0.00     0.177 A 
ATOM     11  N   UNL     1       1.916  -6.053  -3.619  1.00  0.00    -0.255 N 
ATOM     12  C   UNL     1       1.103  -6.271  -4.766  1.00  0.00     0.267 A 
ATOM     13  N   UNL     1       3.752  -7.172  -4.714  1.00  0.00    -0.212 NA
ATOM     14  C   UNL     1       1.839  -6.520  -5.996  1.00  0.00     0.081 A 
ATOM     15  O   UNL     1      -0.098  -6.379  -4.763  1.00  0.00    -0.268 OA
ATOM     16  C   UNL     1       3.047  -7.127  -5.862  1.00  0.00     0.132 A 
ATOM     17  C   UNL     1       1.655  -6.132  -7.357  1.00  0.00    -0.008 A 
ATOM     18  S   UNL     1       3.583  -7.776  -7.359  1.00  0.00    -0.114 S 
ATOM     19  C   UNL     1       2.354  -6.951  -8.216  1.00  0.00     0.065 A 
ATOM     20  C   UNL     1       0.863  -5.024  -7.928  1.00  0.00     0.099 C 
ATOM     21  C   UNL     1       2.180  -6.967  -9.719  1.00  0.00     0.310 C 
ATOM     22  C   UNL     1       1.193  -4.747  -9.412  1.00  0.00     0.267 C 
ATOM     23  N   UNL     1       1.204  -5.967 -10.229  1.00  0.00    -0.333 N 
ATOM     24  C   UNL     1      -0.161  -6.482 -10.349  1.00  0.00     0.333 C 
ATOM     25  H   UNL     1       1.530  -5.744 -11.170  1.00  0.00     0.348 HD
BRANCH  11  26
ATOM     26  C   UNL     1       1.293  -5.269  -2.559  1.00  0.00     0.052 A 
ATOM     27  C   UNL     1       0.167  -3.259  -0.816  1.00  0.00     0.119 A 
ATOM     28  C   UNL     1      -0.625  -4.266  -1.358  1.00  0.00     0.048 A 
ATOM     29  C   UNL     1       1.520  -3.318  -1.061  1.00  0.00     0.048 A 
ATOM     30  C   UNL     1      -0.067  -5.266  -2.205  1.00  0.00     0.030 A 
ATOM     31  C   UNL     1       2.027  -4.264  -1.962  1.00  0.00     0.030 A 
BRANCH  27  32
ATOM     32  O   UNL     1      -0.432  -2.268  -0.089  1.00  0.00    -0.497 OA
ATOM     33  C   UNL     1       0.239  -1.001  -0.122  1.00  0.00     0.278 C 
ENDBRANCH  27  32
ENDBRANCH  11  26
ENDBRANCH   9  10
ENDBRANCH   8   9
ENDBRANCH   6   8
ENDBRANCH   5   6
ENDBRANCH   4   5
ENDBRANCH   3   4
ENDBRANCH   2   3
ENDBRANCH   1   2
BRANCH   1  34
ATOM     34  C   UNL     1       4.035  -2.865  -4.516  1.00  0.00     0.188 C 
BRANCH  34  35
ATOM     35  O   UNL     1       4.040  -2.604  -5.916  1.00  0.00    -0.376 OA
BRANCH  35  36
ATOM     36  C   UNL     1       3.565  -1.356  -6.395  1.00  0.00     0.202 C 
BRANCH  36  37
ATOM     37  C   UNL     1       2.308  -1.469  -7.277  1.00  0.00     0.261 C 
BRANCH  37  38
ATOM     38  O   UNL     1       0.950  -1.436  -6.750  1.00  0.00    -0.460 OA
BRANCH  38  39
ATOM     39  C   UNL     1       0.554  -2.294  -5.789  1.00  0.00     0.338 C 
ATOM     40  O   UNL     1       1.262  -2.730  -4.894  1.00  0.00    -0.246 OA
BRANCH  39  41
ATOM     41  C   UNL     1      -0.813  -2.873  -6.017  1.00  0.00     0.060 A 
ATOM     42  C   UNL     1      -1.327  -3.653  -4.979  1.00  0.00     0.016 A 
ATOM     43  C   UNL     1      -1.393  -2.997  -7.282  1.00  0.00     0.016 A 
ATOM     44  C   UNL     1      -2.213  -4.707  -5.231  1.00  0.00     0.010 A 
ATOM     45  C   UNL     1      -2.287  -4.065  -7.532  1.00  0.00     0.010 A 
ATOM     46  C   UNL     1      -2.611  -5.004  -6.530  1.00  0.00    -0.014 A 
BRANCH  46  47
ATOM     47  C   UNL     1      -3.555  -6.143  -6.710  1.00  0.00     0.031 A 
ATOM     48  C   UNL     1      -4.844  -5.633  -7.231  1.00  0.00     0.074 A 
ATOM     49  C   UNL     1      -3.356  -7.465  -6.935  1.00  0.00     0.049 A 
ATOM     50  N   UNL     1      -5.004  -5.413  -8.501  1.00  0.00    -0.248 NA
ATOM     51  C   UNL     1      -5.806  -4.967  -6.361  1.00  0.00     0.031 C 
ATOM     52  C   UNL     1      -2.172  -8.085  -7.534  1.00  0.00     0.029 A 
ATOM     53  N   UNL     1      -4.271  -8.502  -6.896  1.00  0.00    -0.354 N 
ATOM     54  C   UNL     1      -5.966  -4.436  -8.596  1.00  0.00     0.074 A 
ATOM     55  C   UNL     1      -6.467  -4.219  -7.255  1.00  0.00     0.031 C 
ATOM     56  C   UNL     1      -2.529  -9.279  -8.063  1.00  0.00     0.029 A 
ATOM     57  C   UNL     1      -3.881  -9.618  -7.627  1.00  0.00     0.049 A 
ATOM     58  H   UNL     1      -5.119  -8.454  -6.398  1.00  0.00     0.167 HD
ATOM     59  C   UNL     1      -6.237  -3.798  -9.758  1.00  0.00     0.037 A 
ATOM     60  C   UNL     1      -4.707 -10.509  -8.245  1.00  0.00     0.037 A 
ATOM     61  C   UNL     1      -5.565  -4.274 -10.930  1.00  0.00     0.049 A 
ATOM     62  C   UNL     1      -5.328  -9.691  -9.346  1.00  0.00     0.074 A 
ATOM     63  C   UNL     1      -4.506  -3.893 -11.724  1.00  0.00     0.029 A 
ATOM     64  N   UNL     1      -6.033  -5.433 -11.505  1.00  0.00    -0.354 N 
ATOM     65  N   UNL     1      -4.842  -9.512 -10.549  1.00  0.00    -0.248 NA
ATOM     66  C   UNL     1      -6.404  -8.770  -8.988  1.00  0.00     0.031 C 
ATOM     67  C   UNL     1      -4.152  -5.053 -12.484  1.00  0.00     0.029 A 
ATOM     68  C   UNL     1      -4.961  -6.100 -12.044  1.00  0.00     0.049 A 
ATOM     69  H   UNL     1      -6.971  -5.731 -11.526  1.00  0.00     0.167 HD
ATOM     70  C   UNL     1      -5.363  -8.288 -10.983  1.00  0.00     0.074 A 
ATOM     71  C   UNL     1      -6.348  -7.910  -9.993  1.00  0.00     0.031 C 
ATOM     72  C   UNL     1      -4.835  -7.549 -12.006  1.00  0.00     0.037 A 
BRANCH  59  73
ATOM     73  C   UNL     1      -7.266  -2.761  -9.864  1.00  0.00     0.058 A 
ATOM     74  C   UNL     1      -8.495  -3.127 -10.422  1.00  0.00     0.135 A 
ATOM     75  C   UNL     1      -7.020  -1.415  -9.577  1.00  0.00     0.135 A 
ATOM     76  F   UNL     1      -8.755  -4.418 -10.686  1.00  0.00    -0.206 F 
ATOM     77  C   UNL     1      -9.442  -2.176 -10.749  1.00  0.00     0.059 A 
ATOM     78  C   UNL     1      -7.961  -0.441  -9.889  1.00  0.00     0.059 A 
ATOM     79  F   UNL     1      -5.854  -1.036  -9.029  1.00  0.00    -0.206 F 
ATOM     80  C   UNL     1      -9.155  -0.833 -10.502  1.00  0.00     0.060 A 
BRANCH  80  81
ATOM     81  S   UNL     1     -10.365   0.389 -11.040  1.00  0.00     0.124 S 
ATOM     82  O   UNL     1     -10.296   0.252 -12.491  1.00  0.00    -0.237 OA
ATOM     83  O   UNL     1     -11.587  -0.102 -10.411  1.00  0.00    -0.237 OA
ATOM     84  O   UNL     1      -9.844   1.641 -10.500  1.00  0.00    -0.744 OA
ENDBRANCH  80  81
ENDBRANCH  59  73
BRANCH  60  85
ATOM     85  C   UNL     1      -5.465 -11.396  -7.300  1.00  0.00     0.058 A 
ATOM     86  C   UNL     1      -4.692 -12.294  -6.531  1.00  0.00     0.135 A 
ATOM     87  C   UNL     1      -6.843 -11.394  -7.029  1.00  0.00     0.135 A 
ATOM     88  F   UNL     1      -3.386 -12.454  -6.800  1.00  0.00    -0.206 F 
ATOM     89  C   UNL     1      -5.218 -13.019  -5.464  1.00  0.00     0.059 A 
ATOM     90  C   UNL     1      -7.392 -12.092  -5.948  1.00  0.00     0.059 A 
ATOM     91  F   UNL     1      -7.706 -10.699  -7.780  1.00  0.00    -0.206 F 
ATOM     92  C   UNL     1      -6.563 -12.869  -5.145  1.00  0.00     0.060 A 
BRANCH  92  93
ATOM     93  S   UNL     1      -7.179 -13.620  -3.623  1.00  0.00     0.124 S 
ATOM     94  O   UNL     1      -7.057 -15.044  -3.912  1.00  0.00    -0.237 OA
ATOM     95  O   UNL     1      -6.250 -13.090  -2.630  1.00  0.00    -0.237 OA
ATOM     96  O   UNL     1      -8.545 -13.112  -3.523  1.00  0.00    -0.744 OA
ENDBRANCH  92  93
ENDBRANCH  60  85
BRANCH  72  97
ATOM     97  C   UNL     1      -3.898  -8.265 -12.928  1.00  0.00     0.058 A 
ATOM     98  C   UNL     1      -4.361  -9.283 -13.774  1.00  0.00     0.135 A 
ATOM     99  C   UNL     1      -2.550  -7.903 -13.050  1.00  0.00     0.135 A 
ATOM    100  F   UNL     1      -5.648  -9.664 -13.732  1.00  0.00    -0.206 F 
ATOM    101  C   UNL     1      -3.528  -9.890 -14.714  1.00  0.00     0.059 A 
ATOM    102  C   UNL     1      -1.700  -8.480 -13.988  1.00  0.00     0.059 A 
ATOM    103  F   UNL     1      -2.042  -6.938 -12.278  1.00  0.00    -0.206 F 
ATOM    104  C   UNL     1      -2.202  -9.468 -14.826  1.00  0.00     0.060 A 
BRANCH 104 105
ATOM    105  S   UNL     1      -1.166 -10.175 -16.123  1.00  0.00     0.124 S 
ATOM    106  O   UNL     1      -1.131 -11.587 -15.758  1.00  0.00    -0.237 OA
ATOM    107  O   UNL     1      -1.923  -9.851 -17.328  1.00  0.00    -0.237 OA
ATOM    108  O   UNL     1       0.102  -9.463 -15.981  1.00  0.00    -0.744 OA
ENDBRANCH 104 105
ENDBRANCH  72  97
ENDBRANCH  46  47
ENDBRANCH  39  41
ENDBRANCH  38  39
ENDBRANCH  37  38
ENDBRANCH  36  37
ENDBRANCH  35  36
ENDBRANCH  34  35
ENDBRANCH   1  34
TORSDOF 24
