REMARK SMILES O=C(Cn1nc(-c2ccc(Br)cc2)ccc1=O)N[C@H](C(=O)OCCOCCOCCOC(=O)c1ccc(-c2c3nc(c(-c4c(F)cc(S(=O)(=O)[O-])cc4F)c4ccc([nH]4)c(-c4c(F)cc(S(=O)(=O)[O-])cc4F)c4nc(c(-c5c(F)cc(S(=O)(=O)[O-])cc5F)c5ccc2[nH]5)C=C4)C=C3)cc1)c1ccccc1
REMARK SMILES IDX 26 1 25 2 24 3 23 4 22 5 20 6 21 7 19 8 18 9 1 10 2 11 3 13
REMARK SMILES IDX 4 14 5 15 16 16 6 17 15 18 17 19 14 20 7 21 8 22 13 23 9 24
REMARK SMILES IDX 12 25 10 26 11 27 100 28 101 29 105 30 102 31 104 32 103 33
REMARK SMILES IDX 27 34 28 35 29 36 30 37 31 38 32 39 33 40 34 41 35 42 99 43
REMARK SMILES IDX 36 44 98 45 37 46 38 47 39 48 92 49 40 50 97 51 91 52 93 53
REMARK SMILES IDX 41 54 96 55 90 56 89 57 42 59 76 60 55 61 75 62 56 63 59 64
REMARK SMILES IDX 74 65 94 66 57 67 58 68 73 70 95 71 60 72 43 73 44 74 53 75
REMARK SMILES IDX 45 76 46 77 52 78 54 79 47 80 48 81 49 82 50 83 51 84 77 85
REMARK SMILES IDX 78 86 87 87 79 88 80 89 86 90 88 91 81 92 82 93 83 94 84 95
REMARK SMILES IDX 85 96 61 97 62 98 71 99 63 100 64 101 70 102 72 103 65 104
REMARK SMILES IDX 66 105 67 106 68 107 69 108
REMARK H PARENT 18 12 93 58 59 69
REMARK Flexibility Score: inf
ROOT
ATOM      1  C   UNL     1       2.146  -1.199  -0.384  1.00  0.00     0.188 C 
ENDROOT
BRANCH   1   2
ATOM      2  O   UNL     1       2.883  -1.755   0.690  1.00  0.00    -0.376 OA
BRANCH   2   3
ATOM      3  C   UNL     1       4.252  -1.388   0.773  1.00  0.00     0.202 C 
BRANCH   3   4
ATOM      4  C   UNL     1       4.497   0.049   1.254  1.00  0.00     0.261 C 
BRANCH   4   5
ATOM      5  O   UNL     1       3.866   1.084   0.487  1.00  0.00    -0.461 OA
BRANCH   5   6
ATOM      6  C   UNL     1       4.273   1.234  -0.815  1.00  0.00     0.333 C 
ATOM      7  O   UNL     1       5.075   0.491  -1.363  1.00  0.00    -0.249 OA
BRANCH   6   8
ATOM      8  C   UNL     1       3.368   2.290  -1.498  1.00  0.00     0.223 C 
BRANCH   8   9
ATOM      9  N   UNL     1       3.301   3.564  -0.792  1.00  0.00    -0.337 N 
ATOM     10  O   UNL     1       5.523   3.634  -0.230  1.00  0.00    -0.273 OA
ATOM     11  C   UNL     1       4.408   4.145  -0.206  1.00  0.00     0.242 C 
ATOM     12  H   UNL     1       2.435   4.028  -0.732  1.00  0.00     0.164 HD
BRANCH  11  13
ATOM     13  C   UNL     1       4.132   5.492   0.455  1.00  0.00     0.248 C 
BRANCH  13  14
ATOM     14  N   UNL     1       4.161   6.476  -0.612  1.00  0.00    -0.220 N 
ATOM     15  N   UNL     1       3.024   6.554  -1.386  1.00  0.00    -0.169 NA
ATOM     16  C   UNL     1       5.352   7.124  -0.901  1.00  0.00     0.267 A 
ATOM     17  C   UNL     1       3.106   7.203  -2.505  1.00  0.00     0.091 A 
ATOM     18  C   UNL     1       5.388   7.852  -2.186  1.00  0.00     0.075 A 
ATOM     19  O   UNL     1       6.349   7.125  -0.186  1.00  0.00    -0.268 OA
ATOM     20  C   UNL     1       4.320   7.893  -2.985  1.00  0.00     0.036 A 
BRANCH  17  21
ATOM     21  C   UNL     1       1.918   7.210  -3.392  1.00  0.00     0.002 A 
ATOM     22  C   UNL     1       0.651   7.384  -2.823  1.00  0.00     0.011 A 
ATOM     23  C   UNL     1       2.041   6.894  -4.750  1.00  0.00     0.011 A 
ATOM     24  C   UNL     1      -0.492   7.241  -3.611  1.00  0.00     0.016 A 
ATOM     25  C   UNL     1       0.894   6.725  -5.530  1.00  0.00     0.016 A 
ATOM     26  C   UNL     1      -0.365   6.899  -4.957  1.00  0.00     0.018 A 
ATOM     27  Br  UNL     1      -1.915   6.643  -6.007  1.00  0.00    -0.051 Br
ENDBRANCH  17  21
ENDBRANCH  13  14
ENDBRANCH  11  13
ENDBRANCH   8   9
BRANCH   8  28
ATOM     28  C   UNL     1       3.356   2.315  -3.019  1.00  0.00    -0.014 A 
ATOM     29  C   UNL     1       3.341   3.501  -3.760  1.00  0.00     0.006 A 
ATOM     30  C   UNL     1       3.196   1.104  -3.726  1.00  0.00     0.006 A 
ATOM     31  C   UNL     1       3.185   3.475  -5.152  1.00  0.00     0.000 A 
ATOM     32  C   UNL     1       3.040   1.083  -5.112  1.00  0.00     0.000 A 
ATOM     33  C   UNL     1       3.033   2.269  -5.827  1.00  0.00     0.000 A 
ENDBRANCH   8  28
ENDBRANCH   6   8
ENDBRANCH   5   6
ENDBRANCH   4   5
ENDBRANCH   3   4
ENDBRANCH   2   3
ENDBRANCH   1   2
BRANCH   1  34
ATOM     34  C   UNL     1       0.985  -0.290   0.071  1.00  0.00     0.188 C 
BRANCH  34  35
ATOM     35  O   UNL     1       0.570  -0.272   1.429  1.00  0.00    -0.376 OA
BRANCH  35  36
ATOM     36  C   UNL     1       0.536  -1.492   2.151  1.00  0.00     0.202 C 
BRANCH  36  37
ATOM     37  C   UNL     1      -0.319  -2.648   1.608  1.00  0.00     0.261 C 
BRANCH  37  38
ATOM     38  O   UNL     1      -0.103  -2.995   0.227  1.00  0.00    -0.460 OA
BRANCH  38  39
ATOM     39  C   UNL     1      -1.098  -2.668  -0.638  1.00  0.00     0.338 C 
ATOM     40  O   UNL     1      -2.160  -2.132  -0.362  1.00  0.00    -0.246 OA
BRANCH  39  41
ATOM     41  C   UNL     1      -0.642  -2.885  -2.032  1.00  0.00     0.060 A 
ATOM     42  C   UNL     1      -0.244  -4.146  -2.475  1.00  0.00     0.016 A 
ATOM     43  C   UNL     1      -0.640  -1.798  -2.920  1.00  0.00     0.016 A 
ATOM     44  C   UNL     1       0.126  -4.323  -3.816  1.00  0.00     0.010 A 
ATOM     45  C   UNL     1      -0.247  -1.972  -4.252  1.00  0.00     0.010 A 
ATOM     46  C   UNL     1       0.114  -3.243  -4.719  1.00  0.00    -0.014 A 
BRANCH  46  47
ATOM     47  C   UNL     1       0.309  -3.483  -6.175  1.00  0.00     0.031 A 
ATOM     48  C   UNL     1       1.608  -3.192  -6.868  1.00  0.00     0.074 A 
ATOM     49  C   UNL     1      -0.729  -3.970  -6.881  1.00  0.00     0.049 A 
ATOM     50  N   UNL     1       1.927  -3.361  -8.127  1.00  0.00    -0.248 NA
ATOM     51  C   UNL     1       2.684  -2.626  -6.047  1.00  0.00     0.031 C 
ATOM     52  C   UNL     1      -2.049  -4.275  -6.325  1.00  0.00     0.029 A 
ATOM     53  N   UNL     1      -0.839  -4.308  -8.207  1.00  0.00    -0.354 N 
ATOM     54  C   UNL     1       3.241  -2.927  -8.255  1.00  0.00     0.074 A 
ATOM     55  C   UNL     1       3.644  -2.445  -6.948  1.00  0.00     0.031 C 
ATOM     56  C   UNL     1      -2.824  -4.788  -7.293  1.00  0.00     0.029 A 
ATOM     57  C   UNL     1      -2.070  -4.819  -8.543  1.00  0.00     0.049 A 
ATOM     58  H   UNL     1      -0.106  -4.194  -8.855  1.00  0.00     0.167 HD
ATOM     59  C   UNL     1       4.039  -2.949  -9.352  1.00  0.00     0.037 A 
ATOM     60  C   UNL     1      -2.540  -5.271  -9.722  1.00  0.00     0.037 A 
ATOM     61  C   UNL     1       3.635  -3.455 -10.644  1.00  0.00     0.049 A 
ATOM     62  C   UNL     1      -1.639  -5.277 -10.926  1.00  0.00     0.074 A 
ATOM     63  C   UNL     1       4.392  -3.564 -11.800  1.00  0.00     0.029 A 
ATOM     64  N   UNL     1       2.373  -3.942 -10.955  1.00  0.00    -0.354 N 
ATOM     65  N   UNL     1      -0.387  -4.898 -11.019  1.00  0.00    -0.248 NA
ATOM     66  C   UNL     1      -2.212  -5.778 -12.182  1.00  0.00     0.031 C 
ATOM     67  C   UNL     1       3.578  -4.071 -12.818  1.00  0.00     0.029 A 
ATOM     68  C   UNL     1       2.326  -4.331 -12.287  1.00  0.00     0.049 A 
ATOM     69  H   UNL     1       1.620  -4.002 -10.323  1.00  0.00     0.167 HD
ATOM     70  C   UNL     1      -0.017  -5.134 -12.339  1.00  0.00     0.074 A 
ATOM     71  C   UNL     1      -1.171  -5.706 -13.001  1.00  0.00     0.031 C 
ATOM     72  C   UNL     1       1.172  -4.894 -12.946  1.00  0.00     0.037 A 
BRANCH  59  73
ATOM     73  C   UNL     1       5.446  -2.425  -9.217  1.00  0.00     0.058 A 
ATOM     74  C   UNL     1       6.423  -3.122  -8.488  1.00  0.00     0.135 A 
ATOM     75  C   UNL     1       5.849  -1.264  -9.899  1.00  0.00     0.135 A 
ATOM     76  F   UNL     1       6.095  -4.235  -7.812  1.00  0.00    -0.206 F 
ATOM     77  C   UNL     1       7.740  -2.679  -8.423  1.00  0.00     0.059 A 
ATOM     78  C   UNL     1       7.169  -0.818  -9.872  1.00  0.00     0.059 A 
ATOM     79  F   UNL     1       4.961  -0.559 -10.618  1.00  0.00    -0.206 F 
ATOM     80  C   UNL     1       8.106  -1.528  -9.123  1.00  0.00     0.060 A 
BRANCH  80  81
ATOM     81  S   UNL     1       9.827  -0.987  -9.052  1.00  0.00     0.124 S 
ATOM     82  O   UNL     1       9.940  -0.550  -7.664  1.00  0.00    -0.237 OA
ATOM     83  O   UNL     1      10.550  -2.208  -9.393  1.00  0.00    -0.237 OA
ATOM     84  O   UNL     1       9.893   0.076 -10.050  1.00  0.00    -0.744 OA
ENDBRANCH  80  81
ENDBRANCH  59  73
BRANCH  60  85
ATOM     85  C   UNL     1      -3.930  -5.792  -9.805  1.00  0.00     0.058 A 
ATOM     86  C   UNL     1      -4.175  -7.162  -9.979  1.00  0.00     0.135 A 
ATOM     87  C   UNL     1      -5.037  -4.940  -9.675  1.00  0.00     0.135 A 
ATOM     88  F   UNL     1      -3.148  -8.015 -10.114  1.00  0.00    -0.206 F 
ATOM     89  C   UNL     1      -5.468  -7.669 -10.030  1.00  0.00     0.059 A 
ATOM     90  C   UNL     1      -6.340  -5.426  -9.695  1.00  0.00     0.059 A 
ATOM     91  F   UNL     1      -4.854  -3.623  -9.491  1.00  0.00    -0.206 F 
ATOM     92  C   UNL     1      -6.545  -6.793  -9.879  1.00  0.00     0.060 A 
BRANCH  92  93
ATOM     93  S   UNL     1      -8.217  -7.474  -9.887  1.00  0.00     0.124 S 
ATOM     94  O   UNL     1      -8.363  -7.879 -11.280  1.00  0.00    -0.237 OA
ATOM     95  O   UNL     1      -8.108  -8.556  -8.914  1.00  0.00    -0.237 OA
ATOM     96  O   UNL     1      -9.042  -6.345  -9.469  1.00  0.00    -0.744 OA
ENDBRANCH  92  93
ENDBRANCH  60  85
BRANCH  72  97
ATOM     97  C   UNL     1       1.295  -5.260 -14.402  1.00  0.00     0.058 A 
ATOM     98  C   UNL     1       0.637  -4.529 -15.404  1.00  0.00     0.135 A 
ATOM     99  C   UNL     1       2.115  -6.327 -14.806  1.00  0.00     0.135 A 
ATOM    100  F   UNL     1      -0.165  -3.503 -15.075  1.00  0.00    -0.206 F 
ATOM    101  C   UNL     1       0.764  -4.859 -16.750  1.00  0.00     0.059 A 
ATOM    102  C   UNL     1       2.280  -6.657 -16.149  1.00  0.00     0.059 A 
ATOM    103  F   UNL     1       2.776  -7.056 -13.893  1.00  0.00    -0.206 F 
ATOM    104  C   UNL     1       1.591  -5.923 -17.113  1.00  0.00     0.060 A 
BRANCH 104 105
ATOM    105  S   UNL     1       1.764  -6.321 -18.866  1.00  0.00     0.124 S 
ATOM    106  O   UNL     1       0.448  -6.872 -19.175  1.00  0.00    -0.237 OA
ATOM    107  O   UNL     1       2.059  -5.018 -19.453  1.00  0.00    -0.237 OA
ATOM    108  O   UNL     1       2.865  -7.279 -18.892  1.00  0.00    -0.744 OA
ENDBRANCH 104 105
ENDBRANCH  72  97
ENDBRANCH  46  47
ENDBRANCH  39  41
ENDBRANCH  38  39
ENDBRANCH  37  38
ENDBRANCH  36  37
ENDBRANCH  35  36
ENDBRANCH  34  35
ENDBRANCH   1  34
TORSDOF 25
