REMARK SMILES C[NH2+][C@](C)(C(=O)OCCOCCOCCOC(=O)c1ccc(-c2c3nc(c(-c4c(F)cc(S(=O)(=O)[O-])cc4F)c4ccc([nH]4)c(-c4c(F)cc(S(=O)(=O)[O-])cc4F)c4nc(c(-c5c(F)cc(S(=O)(=O)[O-])cc5F)c5ccc2[nH]5)C=C4)C=C3)cc1)c1cccc(Cl)c1
REMARK SMILES IDX 12 1 11 2 10 3 9 4 8 5 7 6 5 7 6 8 3 9 4 10 2 11 1 12 85 15
REMARK SMILES IDX 86 16 91 17 87 18 89 19 88 20 90 21 13 22 14 23 15 24 16 25
REMARK SMILES IDX 17 26 18 27 19 28 20 29 84 30 21 31 83 32 22 33 23 34 24 35
REMARK SMILES IDX 77 36 25 37 82 38 76 39 78 40 26 41 81 42 75 43 74 44 27 46
REMARK SMILES IDX 61 47 40 48 60 49 41 50 44 51 59 52 79 53 42 54 43 55 58 57
REMARK SMILES IDX 80 58 45 59 28 60 29 61 38 62 30 63 31 64 37 65 39 66 32 67
REMARK SMILES IDX 33 68 34 69 35 70 36 71 62 72 63 73 72 74 64 75 65 76 71 77
REMARK SMILES IDX 73 78 66 79 67 80 68 81 69 82 70 83 46 84 47 85 56 86 48 87
REMARK SMILES IDX 49 88 55 89 57 90 50 91 51 92 52 93 53 94 54 95
REMARK H PARENT 2 13 2 14 78 45 44 56
REMARK Flexibility Score: inf
ROOT
ATOM      1  C   UNL     1       0.133  -2.326  -3.706  1.00  0.00     0.188 C 
ENDROOT
BRANCH   1   2
ATOM      2  C   UNL     1      -1.270  -2.841  -4.052  1.00  0.00     0.188 C 
BRANCH   2   3
ATOM      3  O   UNL     1      -1.810  -2.453  -5.305  1.00  0.00    -0.376 OA
BRANCH   3   4
ATOM      4  C   UNL     1      -1.809  -1.062  -5.622  1.00  0.00     0.202 C 
BRANCH   4   5
ATOM      5  C   UNL     1      -2.253  -0.025  -4.564  1.00  0.00     0.261 C 
BRANCH   5   6
ATOM      6  O   UNL     1      -1.434   0.082  -3.370  1.00  0.00    -0.458 OA
BRANCH   6   7
ATOM      7  C   UNL     1      -2.101   0.350  -2.201  1.00  0.00     0.372 C 
ATOM      8  O   UNL     1      -3.327   0.444  -2.144  1.00  0.00    -0.244 OA
BRANCH   7   9
ATOM      9  C   UNL     1      -1.170   0.506  -0.883  1.00  0.00     0.216 C 
ATOM     10  C   UNL     1       0.347   0.480  -1.185  1.00  0.00     0.098 C 
BRANCH   9  11
ATOM     11  N   UNL     1      -1.556   1.844  -0.354  1.00  0.00    -0.331 N 
ATOM     12  C   UNL     1      -0.726   2.451   0.666  1.00  0.00     0.332 C 
ATOM     13  H   UNL     1      -1.578   2.486  -1.146  1.00  0.00     0.347 HD
ATOM     14  H   UNL     1      -2.447   1.679   0.115  1.00  0.00     0.347 HD
ENDBRANCH   9  11
BRANCH   9  15
ATOM     15  C   UNL     1      -1.546  -0.657   0.081  1.00  0.00     0.025 A 
ATOM     16  C   UNL     1      -1.922  -0.550   1.431  1.00  0.00     0.011 A 
ATOM     17  C   UNL     1      -1.609  -1.942  -0.453  1.00  0.00     0.031 A 
ATOM     18  C   UNL     1      -2.319  -1.672   2.186  1.00  0.00     0.002 A 
ATOM     19  C   UNL     1      -2.128  -3.022   0.245  1.00  0.00     0.041 A 
ATOM     20  C   UNL     1      -2.443  -2.920   1.584  1.00  0.00     0.020 A 
ATOM     21  Cl  UNL     1      -2.509  -4.394  -0.690  1.00  0.00    -0.084 Cl
ENDBRANCH   9  15
ENDBRANCH   7   9
ENDBRANCH   6   7
ENDBRANCH   5   6
ENDBRANCH   4   5
ENDBRANCH   3   4
ENDBRANCH   2   3
ENDBRANCH   1   2
BRANCH   1  22
ATOM     22  O   UNL     1       0.761  -1.592  -4.727  1.00  0.00    -0.376 OA
BRANCH  22  23
ATOM     23  C   UNL     1       1.735  -2.228  -5.530  1.00  0.00     0.202 C 
BRANCH  23  24
ATOM     24  C   UNL     1       1.644  -3.721  -5.899  1.00  0.00     0.261 C 
BRANCH  24  25
ATOM     25  O   UNL     1       1.201  -4.644  -4.890  1.00  0.00    -0.460 OA
BRANCH  25  26
ATOM     26  C   UNL     1       2.050  -4.900  -3.862  1.00  0.00     0.338 C 
ATOM     27  O   UNL     1       3.158  -4.432  -3.712  1.00  0.00    -0.246 OA
BRANCH  26  28
ATOM     28  C   UNL     1       1.301  -5.669  -2.825  1.00  0.00     0.060 A 
ATOM     29  C   UNL     1       1.329  -5.214  -1.501  1.00  0.00     0.016 A 
ATOM     30  C   UNL     1       0.587  -6.829  -3.146  1.00  0.00     0.016 A 
ATOM     31  C   UNL     1       0.698  -5.952  -0.491  1.00  0.00     0.010 A 
ATOM     32  C   UNL     1      -0.028  -7.578  -2.129  1.00  0.00     0.010 A 
ATOM     33  C   UNL     1       0.059  -7.168  -0.789  1.00  0.00    -0.014 A 
BRANCH  33  34
ATOM     34  C   UNL     1      -0.262  -8.100   0.332  1.00  0.00     0.031 A 
ATOM     35  C   UNL     1       0.810  -9.050   0.777  1.00  0.00     0.074 A 
ATOM     36  C   UNL     1      -1.436  -8.086   0.991  1.00  0.00     0.049 A 
ATOM     37  N   UNL     1       0.797  -9.905   1.764  1.00  0.00    -0.248 NA
ATOM     38  C   UNL     1       2.040  -9.073  -0.030  1.00  0.00     0.031 C 
ATOM     39  C   UNL     1      -2.595  -7.319   0.584  1.00  0.00     0.029 A 
ATOM     40  N   UNL     1      -1.852  -8.708   2.144  1.00  0.00    -0.354 N 
ATOM     41  C   UNL     1       2.000 -10.590   1.680  1.00  0.00     0.074 A 
ATOM     42  C   UNL     1       2.715 -10.059   0.539  1.00  0.00     0.031 C 
ATOM     43  C   UNL     1      -3.537  -7.371   1.538  1.00  0.00     0.029 A 
ATOM     44  C   UNL     1      -3.103  -8.309   2.568  1.00  0.00     0.049 A 
ATOM     45  H   UNL     1      -1.309  -9.375   2.622  1.00  0.00     0.167 HD
ATOM     46  C   UNL     1       2.458 -11.583   2.475  1.00  0.00     0.037 A 
ATOM     47  C   UNL     1      -3.835  -8.689   3.637  1.00  0.00     0.037 A 
ATOM     48  C   UNL     1       1.727 -12.124   3.591  1.00  0.00     0.049 A 
ATOM     49  C   UNL     1      -3.291  -9.782   4.519  1.00  0.00     0.074 A 
ATOM     50  C   UNL     1       2.108 -13.132   4.458  1.00  0.00     0.029 A 
ATOM     51  N   UNL     1       0.462 -11.713   3.988  1.00  0.00    -0.354 N 
ATOM     52  N   UNL     1      -2.139 -10.407   4.441  1.00  0.00    -0.248 NA
ATOM     53  C   UNL     1      -4.159 -10.257   5.604  1.00  0.00     0.031 C 
ATOM     54  C   UNL     1       1.054 -13.365   5.348  1.00  0.00     0.029 A 
ATOM     55  C   UNL     1       0.042 -12.458   5.080  1.00  0.00     0.049 A 
ATOM     56  H   UNL     1      -0.061 -10.998   3.558  1.00  0.00     0.167 HD
ATOM     57  C   UNL     1      -2.147 -11.350   5.462  1.00  0.00     0.074 A 
ATOM     58  C   UNL     1      -3.399 -11.184   6.171  1.00  0.00     0.031 C 
ATOM     59  C   UNL     1      -1.211 -12.282   5.773  1.00  0.00     0.037 A 
BRANCH  46  60
ATOM     60  C   UNL     1       3.795 -12.173   2.127  1.00  0.00     0.058 A 
ATOM     61  C   UNL     1       4.987 -11.449   2.284  1.00  0.00     0.135 A 
ATOM     62  C   UNL     1       3.883 -13.482   1.626  1.00  0.00     0.135 A 
ATOM     63  F   UNL     1       4.957 -10.182   2.729  1.00  0.00    -0.206 F 
ATOM     64  C   UNL     1       6.218 -11.992   1.932  1.00  0.00     0.059 A 
ATOM     65  C   UNL     1       5.107 -14.057   1.298  1.00  0.00     0.059 A 
ATOM     66  F   UNL     1       2.773 -14.213   1.443  1.00  0.00    -0.206 F 
ATOM     67  C   UNL     1       6.267 -13.298   1.442  1.00  0.00     0.060 A 
BRANCH  67  68
ATOM     68  S   UNL     1       7.874 -13.990   1.002  1.00  0.00     0.124 S 
ATOM     69  O   UNL     1       8.193 -13.240  -0.209  1.00  0.00    -0.237 OA
ATOM     70  O   UNL     1       8.680 -13.672   2.176  1.00  0.00    -0.237 OA
ATOM     71  O   UNL     1       7.591 -15.408   0.804  1.00  0.00    -0.744 OA
ENDBRANCH  67  68
ENDBRANCH  46  60
BRANCH  47  72
ATOM     72  C   UNL     1      -5.177  -8.090   3.910  1.00  0.00     0.058 A 
ATOM     73  C   UNL     1      -5.421  -7.356   5.083  1.00  0.00     0.135 A 
ATOM     74  C   UNL     1      -6.253  -8.258   3.023  1.00  0.00     0.135 A 
ATOM     75  F   UNL     1      -4.438  -7.181   5.981  1.00  0.00    -0.206 F 
ATOM     76  C   UNL     1      -6.676  -6.825   5.372  1.00  0.00     0.059 A 
ATOM     77  C   UNL     1      -7.505  -7.702   3.268  1.00  0.00     0.059 A 
ATOM     78  F   UNL     1      -6.086  -8.953   1.887  1.00  0.00    -0.206 F 
ATOM     79  C   UNL     1      -7.712  -6.998   4.453  1.00  0.00     0.060 A 
BRANCH  79  80
ATOM     80  S   UNL     1      -9.324  -6.263   4.807  1.00  0.00     0.124 S 
ATOM     81  O   UNL     1      -9.820  -7.137   5.863  1.00  0.00    -0.237 OA
ATOM     82  O   UNL     1      -8.960  -4.910   5.217  1.00  0.00    -0.237 OA
ATOM     83  O   UNL     1     -10.023  -6.356   3.529  1.00  0.00    -0.744 OA
ENDBRANCH  79  80
ENDBRANCH  47  72
BRANCH  59  84
ATOM     84  C   UNL     1      -1.494 -13.167   6.957  1.00  0.00     0.058 A 
ATOM     85  C   UNL     1      -2.496 -14.150   6.930  1.00  0.00     0.135 A 
ATOM     86  C   UNL     1      -0.739 -13.034   8.134  1.00  0.00     0.135 A 
ATOM     87  F   UNL     1      -3.251 -14.317   5.832  1.00  0.00    -0.206 F 
ATOM     88  C   UNL     1      -2.771 -14.938   8.043  1.00  0.00     0.059 A 
ATOM     89  C   UNL     1      -0.973 -13.836   9.247  1.00  0.00     0.059 A 
ATOM     90  F   UNL     1       0.241 -12.121   8.211  1.00  0.00    -0.206 F 
ATOM     91  C   UNL     1      -2.006 -14.770   9.199  1.00  0.00     0.060 A 
BRANCH  91  92
ATOM     92  S   UNL     1      -2.377 -15.792  10.640  1.00  0.00     0.124 S 
ATOM     93  O   UNL     1      -3.626 -15.200  11.106  1.00  0.00    -0.237 OA
ATOM     94  O   UNL     1      -2.485 -17.126  10.058  1.00  0.00    -0.237 OA
ATOM     95  O   UNL     1      -1.222 -15.585  11.509  1.00  0.00    -0.744 OA
ENDBRANCH  91  92
ENDBRANCH  59  84
ENDBRANCH  33  34
ENDBRANCH  26  28
ENDBRANCH  25  26
ENDBRANCH  24  25
ENDBRANCH  23  24
ENDBRANCH  22  23
ENDBRANCH   1  22
TORSDOF 22
