REMARK SMILES COc1ccc2cc([C@@H](C)C(=O)OCCOCCOCCOC(=O)c3ccc(-c4c5nc(c(-c6c(F)cc(S(=O)(=O)[O-])cc6F)c6ccc([nH]6)c(-c6c(F)cc(S(=O)(=O)[O-])cc6F)c6nc(c(-c7c(F)cc(S(=O)(=O)[O-])cc7F)c7ccc4[nH]7)C=C6)C=C5)cc3)ccc2c1
REMARK SMILES IDX 18 1 17 2 16 3 15 4 14 5 13 6 11 7 12 8 9 9 10 10 8 11 3 12
REMARK SMILES IDX 4 13 94 14 5 15 93 16 6 17 92 18 7 19 91 20 2 21 1 22 19 23
REMARK SMILES IDX 20 24 21 25 22 26 23 27 24 28 25 29 26 30 90 31 27 32 89 33
REMARK SMILES IDX 28 34 29 35 30 36 83 37 31 38 88 39 82 40 84 41 32 42 87 43
REMARK SMILES IDX 81 44 80 45 33 47 67 48 46 49 66 50 47 51 50 52 65 53 85 54
REMARK SMILES IDX 48 55 49 56 64 58 86 59 51 60 34 61 35 62 44 63 36 64 37 65
REMARK SMILES IDX 43 66 45 67 38 68 39 69 40 70 41 71 42 72 68 73 69 74 78 75
REMARK SMILES IDX 70 76 71 77 77 78 79 79 72 80 73 81 74 82 75 83 76 84 52 85
REMARK SMILES IDX 53 86 62 87 54 88 55 89 61 90 63 91 56 92 57 93 58 94 59 95
REMARK SMILES IDX 60 96
REMARK H PARENT 84 46 50 57
REMARK Flexibility Score: inf
ROOT
ATOM      1  C   UNL     1       1.952   1.488   8.468  1.00  0.00     0.188 C 
ENDROOT
BRANCH   1   2
ATOM      2  C   UNL     1       2.016   1.472  10.004  1.00  0.00     0.188 C 
BRANCH   2   3
ATOM      3  O   UNL     1       3.246   1.787  10.647  1.00  0.00    -0.376 OA
BRANCH   3   4
ATOM      4  C   UNL     1       4.463   1.300  10.094  1.00  0.00     0.202 C 
BRANCH   4   5
ATOM      5  C   UNL     1       4.596  -0.206   9.807  1.00  0.00     0.261 C 
BRANCH   5   6
ATOM      6  O   UNL     1       3.571  -0.779   8.962  1.00  0.00    -0.463 OA
BRANCH   6   7
ATOM      7  C   UNL     1       2.864  -1.811   9.488  1.00  0.00     0.313 C 
ATOM      8  O   UNL     1       3.112  -2.299  10.590  1.00  0.00    -0.252 OA
BRANCH   7   9
ATOM      9  C   UNL     1       1.696  -2.340   8.650  1.00  0.00     0.126 C 
ATOM     10  C   UNL     1       1.881  -3.845   8.460  1.00  0.00     0.025 C 
BRANCH   9  11
ATOM     11  C   UNL     1       1.304  -1.704   7.317  1.00  0.00    -0.033 A 
ATOM     12  C   UNL     1       0.939   0.164   2.579  1.00  0.00     0.119 A 
ATOM     13  C   UNL     1       2.282  -0.145   2.774  1.00  0.00     0.047 A 
ATOM     14  C   UNL     1       0.032  -0.012   3.624  1.00  0.00     0.055 A 
ATOM     15  C   UNL     1       2.707  -0.682   3.995  1.00  0.00     0.012 A 
ATOM     16  C   UNL     1       0.444  -0.564   4.852  1.00  0.00    -0.015 A 
ATOM     17  C   UNL     1       1.799  -0.916   5.042  1.00  0.00    -0.018 A 
ATOM     18  C   UNL     1      -0.465  -0.782   5.894  1.00  0.00     0.009 A 
ATOM     19  C   UNL     1       2.211  -1.486   6.268  1.00  0.00     0.013 A 
ATOM     20  C   UNL     1      -0.043  -1.351   7.102  1.00  0.00     0.005 A 
BRANCH  12  21
ATOM     21  O   UNL     1       0.447   0.702   1.420  1.00  0.00    -0.497 OA
ATOM     22  C   UNL     1       0.890   0.027   0.245  1.00  0.00     0.278 C 
ENDBRANCH  12  21
ENDBRANCH   9  11
ENDBRANCH   7   9
ENDBRANCH   6   7
ENDBRANCH   5   6
ENDBRANCH   4   5
ENDBRANCH   3   4
ENDBRANCH   2   3
ENDBRANCH   1   2
BRANCH   1  23
ATOM     23  O   UNL     1       3.130   1.947   7.843  1.00  0.00    -0.376 OA
BRANCH  23  24
ATOM     24  C   UNL     1       3.019   3.096   7.028  1.00  0.00     0.202 C 
BRANCH  24  25
ATOM     25  C   UNL     1       2.518   4.386   7.698  1.00  0.00     0.261 C 
BRANCH  25  26
ATOM     26  O   UNL     1       1.370   4.263   8.558  1.00  0.00    -0.460 OA
BRANCH  26  27
ATOM     27  C   UNL     1       0.161   4.126   7.968  1.00  0.00     0.338 C 
ATOM     28  O   UNL     1      -0.067   4.103   6.766  1.00  0.00    -0.246 OA
BRANCH  27  29
ATOM     29  C   UNL     1      -0.828   3.800   9.021  1.00  0.00     0.060 A 
ATOM     30  C   UNL     1      -1.485   2.560   8.995  1.00  0.00     0.016 A 
ATOM     31  C   UNL     1      -1.103   4.717  10.037  1.00  0.00     0.016 A 
ATOM     32  C   UNL     1      -2.438   2.248   9.970  1.00  0.00     0.010 A 
ATOM     33  C   UNL     1      -2.073   4.412  10.998  1.00  0.00     0.010 A 
ATOM     34  C   UNL     1      -2.767   3.188  10.956  1.00  0.00    -0.014 A 
BRANCH  34  35
ATOM     35  C   UNL     1      -3.955   2.990  11.828  1.00  0.00     0.031 A 
ATOM     36  C   UNL     1      -5.231   3.708  11.468  1.00  0.00     0.074 A 
ATOM     37  C   UNL     1      -3.914   2.198  12.916  1.00  0.00     0.049 A 
ATOM     38  N   UNL     1      -6.355   3.790  12.130  1.00  0.00    -0.248 NA
ATOM     39  C   UNL     1      -5.233   4.435  10.187  1.00  0.00     0.031 C 
ATOM     40  C   UNL     1      -2.762   1.407  13.348  1.00  0.00     0.029 A 
ATOM     41  N   UNL     1      -4.870   1.943  13.870  1.00  0.00    -0.354 N 
ATOM     42  C   UNL     1      -7.197   4.577  11.351  1.00  0.00     0.074 A 
ATOM     43  C   UNL     1      -6.442   4.978  10.184  1.00  0.00     0.031 C 
ATOM     44  C   UNL     1      -3.074   0.769  14.491  1.00  0.00     0.029 A 
ATOM     45  C   UNL     1      -4.430   1.137  14.896  1.00  0.00     0.049 A 
ATOM     46  H   UNL     1      -5.785   2.304  13.825  1.00  0.00     0.167 HD
ATOM     47  C   UNL     1      -8.486   4.923  11.579  1.00  0.00     0.037 A 
ATOM     48  C   UNL     1      -5.041   0.768  16.041  1.00  0.00     0.037 A 
ATOM     49  C   UNL     1      -9.234   4.528  12.743  1.00  0.00     0.049 A 
ATOM     50  C   UNL     1      -6.445   1.255  16.322  1.00  0.00     0.074 A 
ATOM     51  C   UNL     1     -10.542   4.841  13.071  1.00  0.00     0.029 A 
ATOM     52  N   UNL     1      -8.744   3.735  13.770  1.00  0.00    -0.354 N 
ATOM     53  N   UNL     1      -7.230   1.997  15.575  1.00  0.00    -0.248 NA
ATOM     54  C   UNL     1      -7.046   0.855  17.603  1.00  0.00     0.031 C 
ATOM     55  C   UNL     1     -10.828   4.276  14.318  1.00  0.00     0.029 A 
ATOM     56  C   UNL     1      -9.719   3.561  14.738  1.00  0.00     0.049 A 
ATOM     57  H   UNL     1      -7.838   3.352  13.805  1.00  0.00     0.167 HD
ATOM     58  C   UNL     1      -8.428   2.111  16.277  1.00  0.00     0.074 A 
ATOM     59  C   UNL     1      -8.269   1.356  17.501  1.00  0.00     0.031 C 
ATOM     60  C   UNL     1      -9.559   2.780  15.939  1.00  0.00     0.037 A 
BRANCH  47  61
ATOM     61  C   UNL     1      -9.175   5.778  10.551  1.00  0.00     0.058 A 
ATOM     62  C   UNL     1      -9.542   5.265   9.297  1.00  0.00     0.135 A 
ATOM     63  C   UNL     1      -9.530   7.104  10.845  1.00  0.00     0.135 A 
ATOM     64  F   UNL     1      -9.208   4.010   8.955  1.00  0.00    -0.206 F 
ATOM     65  C   UNL     1     -10.229   6.039   8.367  1.00  0.00     0.059 A 
ATOM     66  C   UNL     1     -10.243   7.888   9.941  1.00  0.00     0.059 A 
ATOM     67  F   UNL     1      -9.198   7.647  12.027  1.00  0.00    -0.206 F 
ATOM     68  C   UNL     1     -10.582   7.347   8.702  1.00  0.00     0.060 A 
BRANCH  68  69
ATOM     69  S   UNL     1     -11.507   8.322   7.497  1.00  0.00     0.124 S 
ATOM     70  O   UNL     1     -10.498   8.544   6.465  1.00  0.00    -0.237 OA
ATOM     71  O   UNL     1     -12.593   7.418   7.136  1.00  0.00    -0.237 OA
ATOM     72  O   UNL     1     -11.904   9.508   8.250  1.00  0.00    -0.744 OA
ENDBRANCH  68  69
ENDBRANCH  47  61
BRANCH  48  73
ATOM     73  C   UNL     1      -4.339  -0.090  17.039  1.00  0.00     0.058 A 
ATOM     74  C   UNL     1      -4.809  -1.377  17.346  1.00  0.00     0.135 A 
ATOM     75  C   UNL     1      -3.228   0.383  17.755  1.00  0.00     0.135 A 
ATOM     76  F   UNL     1      -5.877  -1.872  16.701  1.00  0.00    -0.206 F 
ATOM     77  C   UNL     1      -4.232  -2.146  18.352  1.00  0.00     0.059 A 
ATOM     78  C   UNL     1      -2.612  -0.382  18.742  1.00  0.00     0.059 A 
ATOM     79  F   UNL     1      -2.731   1.603  17.499  1.00  0.00    -0.206 F 
ATOM     80  C   UNL     1      -3.135  -1.637  19.049  1.00  0.00     0.060 A 
BRANCH  80  81
ATOM     81  S   UNL     1      -2.397  -2.641  20.356  1.00  0.00     0.124 S 
ATOM     82  O   UNL     1      -3.411  -2.553  21.401  1.00  0.00    -0.237 OA
ATOM     83  O   UNL     1      -2.262  -3.940  19.705  1.00  0.00    -0.237 OA
ATOM     84  O   UNL     1      -1.140  -1.954  20.638  1.00  0.00    -0.744 OA
ENDBRANCH  80  81
ENDBRANCH  48  73
BRANCH  60  85
ATOM     85  C   UNL     1     -10.741   2.675  16.867  1.00  0.00     0.058 A 
ATOM     86  C   UNL     1     -10.762   3.303  18.122  1.00  0.00     0.135 A 
ATOM     87  C   UNL     1     -11.896   1.982  16.465  1.00  0.00     0.135 A 
ATOM     88  F   UNL     1      -9.686   3.976  18.559  1.00  0.00    -0.206 F 
ATOM     89  C   UNL     1     -11.873   3.223  18.957  1.00  0.00     0.059 A 
ATOM     90  C   UNL     1     -13.030   1.917  17.269  1.00  0.00     0.059 A 
ATOM     91  F   UNL     1     -11.937   1.373  15.269  1.00  0.00    -0.206 F 
ATOM     92  C   UNL     1     -13.004   2.531  18.520  1.00  0.00     0.060 A 
BRANCH  92  93
ATOM     93  S   UNL     1     -14.451   2.467  19.599  1.00  0.00     0.124 S 
ATOM     94  O   UNL     1     -13.997   1.559  20.647  1.00  0.00    -0.237 OA
ATOM     95  O   UNL     1     -14.607   3.864  19.994  1.00  0.00    -0.237 OA
ATOM     96  O   UNL     1     -15.502   1.947  18.730  1.00  0.00    -0.744 OA
ENDBRANCH  92  93
ENDBRANCH  60  85
ENDBRANCH  34  35
ENDBRANCH  27  29
ENDBRANCH  26  27
ENDBRANCH  25  26
ENDBRANCH  24  25
ENDBRANCH  23  24
ENDBRANCH   1  23
TORSDOF 22
