REMARK SMILES C[NH2+][C@@]1(C(=O)OCCOCCOCCOC(=O)c2ccc(-c3c4nc(c(-c5c(F)cc(S(=O)(=O)[O-])cc5F)c5ccc([nH]5)c(-c5c(F)cc(S(=O)(=O)[O-])cc5F)c5nc(c(-c6c(F)cc(S(=O)(=O)[O-])cc6F)c6ccc3[nH]6)C=C5)C=C4)cc2)CC[C@H]([NH+]2CC[NH+](C)CC2)C1
REMARK SMILES IDX 11 1 10 2 9 3 8 4 7 5 6 6 4 7 5 8 3 9 84 10 94 11 85 12
REMARK SMILES IDX 86 13 2 14 1 15 87 18 88 19 93 20 89 22 92 23 90 24 91 25
REMARK SMILES IDX 12 27 13 28 14 29 15 30 16 31 17 32 18 33 19 34 83 35 20 36
REMARK SMILES IDX 82 37 21 38 22 39 23 40 76 41 24 42 81 43 75 44 77 45 25 46
REMARK SMILES IDX 80 47 74 48 73 49 26 51 60 52 39 53 59 54 40 55 43 56 58 57
REMARK SMILES IDX 78 58 41 59 42 60 57 62 79 63 44 64 27 65 28 66 37 67 29 68
REMARK SMILES IDX 30 69 36 70 38 71 31 72 32 73 33 74 34 75 35 76 61 77 62 78
REMARK SMILES IDX 71 79 63 80 64 81 70 82 72 83 65 84 66 85 67 86 68 87 69 88
REMARK SMILES IDX 45 89 46 90 55 91 47 92 48 93 54 94 56 95 49 96 50 97 51 98
REMARK SMILES IDX 52 99 53 100
REMARK H PARENT 2 16 2 17 87 21 90 26 77 50 43 61
REMARK Flexibility Score: inf
ROOT
ATOM      1  C   UNL     1      -1.149  -1.173   2.426  1.00  0.00     0.188 C 
ENDROOT
BRANCH   1   2
ATOM      2  C   UNL     1      -0.291  -0.373   3.414  1.00  0.00     0.188 C 
BRANCH   2   3
ATOM      3  O   UNL     1      -0.887   0.043   4.628  1.00  0.00    -0.376 OA
BRANCH   3   4
ATOM      4  C   UNL     1      -2.040   0.874   4.533  1.00  0.00     0.202 C 
BRANCH   4   5
ATOM      5  C   UNL     1      -2.012   2.039   3.535  1.00  0.00     0.261 C 
BRANCH   5   6
ATOM      6  O   UNL     1      -1.939   1.600   2.154  1.00  0.00    -0.459 OA
BRANCH   6   7
ATOM      7  C   UNL     1      -1.337   2.461   1.297  1.00  0.00     0.368 C 
ATOM      8  O   UNL     1      -0.908   3.556   1.661  1.00  0.00    -0.245 OA
BRANCH   7   9
ATOM      9  C   UNL     1      -1.116   1.938  -0.175  1.00  0.00     0.200 C 
ATOM     10  C   UNL     1      -1.649   3.035  -1.121  1.00  0.00     0.087 C 
ATOM     11  C   UNL     1      -1.900   0.718  -0.705  1.00  0.00     0.146 C 
ATOM     12  C   UNL     1      -3.135   2.731  -1.299  1.00  0.00     0.072 C 
ATOM     13  C   UNL     1      -3.266   1.206  -1.231  1.00  0.00     0.191 C 
BRANCH   9  14
ATOM     14  N   UNL     1       0.361   1.894  -0.380  1.00  0.00    -0.334 N 
ATOM     15  C   UNL     1       1.000   0.597  -0.463  1.00  0.00     0.331 C 
ATOM     16  H   UNL     1       0.560   2.386  -1.251  1.00  0.00     0.347 HD
ATOM     17  H   UNL     1       0.747   2.314   0.465  1.00  0.00     0.347 HD
ENDBRANCH   9  14
BRANCH  13  18
ATOM     18  N   UNL     1      -4.442   0.563  -0.624  1.00  0.00    -0.323 N 
ATOM     19  C   UNL     1      -5.744   0.965  -1.171  1.00  0.00     0.324 C 
ATOM     20  C   UNL     1      -4.550   0.563   0.838  1.00  0.00     0.324 C 
ATOM     21  H   UNL     1      -4.226  -0.392  -0.910  1.00  0.00     0.348 HD
ATOM     22  C   UNL     1      -6.328   2.276  -0.588  1.00  0.00     0.324 C 
ATOM     23  C   UNL     1      -5.007   1.896   1.448  1.00  0.00     0.324 C 
ATOM     24  N   UNL     1      -6.267   2.407   0.883  1.00  0.00    -0.328 N 
ATOM     25  C   UNL     1      -6.453   3.804   1.278  1.00  0.00     0.333 C 
ATOM     26  H   UNL     1      -7.024   1.836   1.259  1.00  0.00     0.348 HD
ENDBRANCH  13  18
ENDBRANCH   7   9
ENDBRANCH   6   7
ENDBRANCH   5   6
ENDBRANCH   4   5
ENDBRANCH   3   4
ENDBRANCH   2   3
ENDBRANCH   1   2
BRANCH   1  27
ATOM     27  O   UNL     1      -2.522  -1.388   2.637  1.00  0.00    -0.376 OA
BRANCH  27  28
ATOM     28  C   UNL     1      -2.982  -2.363   3.555  1.00  0.00     0.202 C 
BRANCH  28  29
ATOM     29  C   UNL     1      -2.208  -3.636   3.941  1.00  0.00     0.261 C 
BRANCH  29  30
ATOM     30  O   UNL     1      -0.781  -3.563   3.890  1.00  0.00    -0.460 OA
BRANCH  30  31
ATOM     31  C   UNL     1      -0.210  -4.234   2.854  1.00  0.00     0.338 C 
ATOM     32  O   UNL     1      -0.776  -4.917   2.013  1.00  0.00    -0.246 OA
BRANCH  31  33
ATOM     33  C   UNL     1       1.190  -3.783   2.728  1.00  0.00     0.060 A 
ATOM     34  C   UNL     1       1.573  -3.122   1.549  1.00  0.00     0.016 A 
ATOM     35  C   UNL     1       2.102  -3.977   3.763  1.00  0.00     0.016 A 
ATOM     36  C   UNL     1       2.873  -2.647   1.403  1.00  0.00     0.010 A 
ATOM     37  C   UNL     1       3.418  -3.541   3.596  1.00  0.00     0.010 A 
ATOM     38  C   UNL     1       3.813  -2.895   2.408  1.00  0.00    -0.014 A 
BRANCH  38  39
ATOM     39  C   UNL     1       5.253  -2.707   2.121  1.00  0.00     0.031 A 
ATOM     40  C   UNL     1       6.033  -3.911   1.669  1.00  0.00     0.074 A 
ATOM     41  C   UNL     1       5.852  -1.509   2.235  1.00  0.00     0.049 A 
ATOM     42  N   UNL     1       7.318  -4.044   1.476  1.00  0.00    -0.248 NA
ATOM     43  C   UNL     1       5.252  -5.131   1.403  1.00  0.00     0.031 C 
ATOM     44  C   UNL     1       5.185  -0.256   2.583  1.00  0.00     0.029 A 
ATOM     45  N   UNL     1       7.170  -1.158   2.079  1.00  0.00    -0.354 N 
ATOM     46  C   UNL     1       7.501  -5.365   1.086  1.00  0.00     0.074 A 
ATOM     47  C   UNL     1       6.201  -5.997   1.087  1.00  0.00     0.031 C 
ATOM     48  C   UNL     1       6.104   0.725   2.636  1.00  0.00     0.029 A 
ATOM     49  C   UNL     1       7.428   0.160   2.373  1.00  0.00     0.049 A 
ATOM     50  H   UNL     1       7.865  -1.790   1.784  1.00  0.00     0.167 HD
ATOM     51  C   UNL     1       8.653  -5.995   0.757  1.00  0.00     0.037 A 
ATOM     52  C   UNL     1       8.602   0.819   2.457  1.00  0.00     0.037 A 
ATOM     53  C   UNL     1       9.943  -5.358   0.763  1.00  0.00     0.049 A 
ATOM     54  C   UNL     1       9.886   0.072   2.178  1.00  0.00     0.074 A 
ATOM     55  C   UNL     1      11.174  -5.908   0.456  1.00  0.00     0.029 A 
ATOM     56  N   UNL     1      10.169  -4.032   1.102  1.00  0.00    -0.354 N 
ATOM     57  N   UNL     1      10.054  -1.181   1.825  1.00  0.00    -0.248 NA
ATOM     58  C   UNL     1      11.139   0.828   2.315  1.00  0.00     0.031 C 
ATOM     59  C   UNL     1      12.151  -4.930   0.663  1.00  0.00     0.029 A 
ATOM     60  C   UNL     1      11.523  -3.751   1.035  1.00  0.00     0.049 A 
ATOM     61  H   UNL     1       9.470  -3.386   1.353  1.00  0.00     0.167 HD
ATOM     62  C   UNL     1      11.427  -1.353   1.665  1.00  0.00     0.074 A 
ATOM     63  C   UNL     1      12.042  -0.074   1.953  1.00  0.00     0.031 C 
ATOM     64  C   UNL     1      12.117  -2.466   1.311  1.00  0.00     0.037 A 
BRANCH  51  65
ATOM     65  C   UNL     1       8.570  -7.456   0.413  1.00  0.00     0.058 A 
ATOM     66  C   UNL     1       7.976  -7.909  -0.775  1.00  0.00     0.135 A 
ATOM     67  C   UNL     1       9.107  -8.418   1.285  1.00  0.00     0.135 A 
ATOM     68  F   UNL     1       7.424  -7.035  -1.632  1.00  0.00    -0.206 F 
ATOM     69  C   UNL     1       7.894  -9.265  -1.075  1.00  0.00     0.059 A 
ATOM     70  C   UNL     1       9.064  -9.776   0.991  1.00  0.00     0.059 A 
ATOM     71  F   UNL     1       9.678  -8.040   2.439  1.00  0.00    -0.206 F 
ATOM     72  C   UNL     1       8.442 -10.191  -0.186  1.00  0.00     0.060 A 
BRANCH  72  73
ATOM     73  S   UNL     1       8.331 -11.946  -0.591  1.00  0.00     0.124 S 
ATOM     74  O   UNL     1       6.905 -12.199  -0.401  1.00  0.00    -0.237 OA
ATOM     75  O   UNL     1       8.801 -11.976  -1.972  1.00  0.00    -0.237 OA
ATOM     76  O   UNL     1       9.214 -12.578   0.383  1.00  0.00    -0.744 OA
ENDBRANCH  72  73
ENDBRANCH  51  65
BRANCH  52  77
ATOM     77  C   UNL     1       8.632   2.254   2.855  1.00  0.00     0.058 A 
ATOM     78  C   UNL     1       9.046   3.250   1.959  1.00  0.00     0.135 A 
ATOM     79  C   UNL     1       8.265   2.657   4.149  1.00  0.00     0.135 A 
ATOM     80  F   UNL     1       9.425   2.918   0.715  1.00  0.00    -0.206 F 
ATOM     81  C   UNL     1       9.112   4.590   2.333  1.00  0.00     0.059 A 
ATOM     82  C   UNL     1       8.293   3.993   4.538  1.00  0.00     0.059 A 
ATOM     83  F   UNL     1       7.858   1.746   5.048  1.00  0.00    -0.206 F 
ATOM     84  C   UNL     1       8.728   4.952   3.626  1.00  0.00     0.060 A 
BRANCH  84  85
ATOM     85  S   UNL     1       8.776   6.697   4.087  1.00  0.00     0.124 S 
ATOM     86  O   UNL     1      10.211   6.944   4.162  1.00  0.00    -0.237 OA
ATOM     87  O   UNL     1       8.077   7.326   2.970  1.00  0.00    -0.237 OA
ATOM     88  O   UNL     1       8.062   6.728   5.360  1.00  0.00    -0.744 OA
ENDBRANCH  84  85
ENDBRANCH  52  77
BRANCH  64  89
ATOM     89  C   UNL     1      13.612  -2.348   1.162  1.00  0.00     0.058 A 
ATOM     90  C   UNL     1      14.461  -2.201   2.269  1.00  0.00     0.135 A 
ATOM     91  C   UNL     1      14.205  -2.454  -0.108  1.00  0.00     0.135 A 
ATOM     92  F   UNL     1      13.948  -2.092   3.505  1.00  0.00    -0.206 F 
ATOM     93  C   UNL     1      15.844  -2.139   2.122  1.00  0.00     0.059 A 
ATOM     94  C   UNL     1      15.586  -2.427  -0.276  1.00  0.00     0.059 A 
ATOM     95  F   UNL     1      13.441  -2.610  -1.201  1.00  0.00    -0.206 F 
ATOM     96  C   UNL     1      16.397  -2.258   0.845  1.00  0.00     0.060 A 
BRANCH  96  97
ATOM     97  S   UNL     1      18.194  -2.214   0.672  1.00  0.00     0.124 S 
ATOM     98  O   UNL     1      18.481  -0.807   0.932  1.00  0.00    -0.237 OA
ATOM     99  O   UNL     1      18.629  -3.151   1.704  1.00  0.00    -0.237 OA
ATOM    100  O   UNL     1      18.416  -2.656  -0.701  1.00  0.00    -0.744 OA
ENDBRANCH  96  97
ENDBRANCH  64  89
ENDBRANCH  38  39
ENDBRANCH  31  33
ENDBRANCH  30  31
ENDBRANCH  29  30
ENDBRANCH  28  29
ENDBRANCH  27  28
ENDBRANCH   1  27
TORSDOF 22
