REMARK SMILES O=C(OCCOCCOCCOC(=O)c1cc(-c2ccccc2)nc(Nc2nc3ccccc3s2)n1)c1ccc(-c2c3nc(c(-c4c(F)cc(S(=O)(=O)[O-])cc4F)c4ccc([nH]4)c(-c4c(F)cc(S(=O)(=O)[O-])cc4F)c4nc(c(-c5c(F)cc(S(=O)(=O)[O-])cc5F)c5ccc2[nH]5)C=C4)C=C3)cc1
REMARK SMILES IDX 7 1 6 2 5 3 4 4 3 5 2 6 1 7 37 8 38 9 102 10 39 11 101 12
REMARK SMILES IDX 40 13 41 14 42 15 95 16 43 17 100 18 94 19 96 20 44 21 99 22
REMARK SMILES IDX 93 23 92 24 45 26 79 27 58 28 78 29 59 30 62 31 77 32 97 33
REMARK SMILES IDX 60 34 61 35 76 37 98 38 63 39 46 40 47 41 56 42 48 43 49 44
REMARK SMILES IDX 55 45 57 46 50 47 51 48 52 49 53 50 54 51 80 52 81 53 90 54
REMARK SMILES IDX 82 55 83 56 89 57 91 58 84 59 85 60 86 61 87 62 88 63 64 64
REMARK SMILES IDX 65 65 74 66 66 67 67 68 73 69 75 70 68 71 69 72 70 73 71 74
REMARK SMILES IDX 72 75 8 76 9 77 10 78 11 79 12 80 13 81 14 82 15 83 16 84
REMARK SMILES IDX 36 85 17 86 25 87 24 88 18 89 19 90 23 91 20 92 22 93 21 94
REMARK SMILES IDX 26 95 27 97 28 98 35 99 29 100 34 101 30 102 33 103 31 104
REMARK SMILES IDX 32 105
REMARK H PARENT 96 25 62 36 26 96
REMARK Flexibility Score: inf
ROOT
ATOM      1  C   UNL     1       2.824  -1.235  -1.618  1.00  0.00     0.188 C 
ENDROOT
BRANCH   1   2
ATOM      2  O   UNL     1       4.146  -0.707  -1.694  1.00  0.00    -0.376 OA
BRANCH   2   3
ATOM      3  C   UNL     1       5.150  -1.403  -0.941  1.00  0.00     0.202 C 
BRANCH   3   4
ATOM      4  C   UNL     1       4.841  -1.658   0.542  1.00  0.00     0.261 C 
BRANCH   4   5
ATOM      5  O   UNL     1       4.677  -0.412   1.220  1.00  0.00    -0.460 OA
BRANCH   5   6
ATOM      6  C   UNL     1       3.410   0.085   1.247  1.00  0.00     0.338 C 
ATOM      7  O   UNL     1       2.399  -0.550   1.446  1.00  0.00    -0.246 OA
BRANCH   6   8
ATOM      8  C   UNL     1       3.536   1.529   0.934  1.00  0.00     0.060 A 
ATOM      9  C   UNL     1       4.554   1.897   0.050  1.00  0.00     0.016 A 
ATOM     10  C   UNL     1       2.760   2.507   1.555  1.00  0.00     0.016 A 
ATOM     11  C   UNL     1       4.946   3.204  -0.058  1.00  0.00     0.010 A 
ATOM     12  C   UNL     1       3.119   3.853   1.400  1.00  0.00     0.010 A 
ATOM     13  C   UNL     1       4.266   4.187   0.657  1.00  0.00    -0.014 A 
BRANCH  13  14
ATOM     14  C   UNL     1       4.976   5.477   0.763  1.00  0.00     0.031 A 
ATOM     15  C   UNL     1       5.695   5.777   2.052  1.00  0.00     0.074 A 
ATOM     16  C   UNL     1       5.213   6.186  -0.357  1.00  0.00     0.049 A 
ATOM     17  N   UNL     1       6.459   6.791   2.354  1.00  0.00    -0.248 NA
ATOM     18  C   UNL     1       5.565   4.785   3.137  1.00  0.00     0.031 C 
ATOM     19  C   UNL     1       4.713   5.844  -1.695  1.00  0.00     0.029 A 
ATOM     20  N   UNL     1       5.987   7.290  -0.575  1.00  0.00    -0.354 N 
ATOM     21  C   UNL     1       6.880   6.571   3.661  1.00  0.00     0.074 A 
ATOM     22  C   UNL     1       6.280   5.336   4.106  1.00  0.00     0.031 C 
ATOM     23  C   UNL     1       5.218   6.704  -2.594  1.00  0.00     0.029 A 
ATOM     24  C   UNL     1       6.010   7.695  -1.889  1.00  0.00     0.049 A 
ATOM     25  H   UNL     1       6.480   7.752   0.141  1.00  0.00     0.167 HD
ATOM     26  C   UNL     1       7.697   7.341   4.416  1.00  0.00     0.037 A 
ATOM     27  C   UNL     1       6.576   8.781  -2.439  1.00  0.00     0.037 A 
ATOM     28  C   UNL     1       8.280   8.563   3.932  1.00  0.00     0.049 A 
ATOM     29  C   UNL     1       7.317   9.711  -1.532  1.00  0.00     0.074 A 
ATOM     30  C   UNL     1       9.078   9.470   4.603  1.00  0.00     0.029 A 
ATOM     31  N   UNL     1       8.114   9.049   2.641  1.00  0.00    -0.354 N 
ATOM     32  N   UNL     1       7.589   9.571  -0.257  1.00  0.00    -0.248 NA
ATOM     33  C   UNL     1       7.814  10.950  -2.136  1.00  0.00     0.031 C 
ATOM     34  C   UNL     1       9.342  10.535   3.736  1.00  0.00     0.029 A 
ATOM     35  C   UNL     1       8.765  10.260   2.505  1.00  0.00     0.049 A 
ATOM     36  H   UNL     1       7.607   8.597   1.928  1.00  0.00     0.167 HD
ATOM     37  C   UNL     1       8.294  10.708   0.098  1.00  0.00     0.074 A 
ATOM     38  C   UNL     1       8.409  11.520  -1.099  1.00  0.00     0.031 C 
ATOM     39  C   UNL     1       8.816  11.048   1.300  1.00  0.00     0.037 A 
BRANCH  26  40
ATOM     40  C   UNL     1       7.919   6.929   5.845  1.00  0.00     0.058 A 
ATOM     41  C   UNL     1       8.685   5.806   6.199  1.00  0.00     0.135 A 
ATOM     42  C   UNL     1       7.324   7.664   6.883  1.00  0.00     0.135 A 
ATOM     43  F   UNL     1       9.255   5.048   5.248  1.00  0.00    -0.206 F 
ATOM     44  C   UNL     1       8.824   5.409   7.527  1.00  0.00     0.059 A 
ATOM     45  C   UNL     1       7.472   7.302   8.219  1.00  0.00     0.059 A 
ATOM     46  F   UNL     1       6.573   8.741   6.604  1.00  0.00    -0.206 F 
ATOM     47  C   UNL     1       8.209   6.161   8.530  1.00  0.00     0.060 A 
BRANCH  47  48
ATOM     48  S   UNL     1       8.375   5.622  10.245  1.00  0.00     0.124 S 
ATOM     49  O   UNL     1       7.527   4.434  10.261  1.00  0.00    -0.237 OA
ATOM     50  O   UNL     1       9.809   5.379  10.358  1.00  0.00    -0.237 OA
ATOM     51  O   UNL     1       7.873   6.760  11.010  1.00  0.00    -0.744 OA
ENDBRANCH  47  48
ENDBRANCH  26  40
BRANCH  27  52
ATOM     52  C   UNL     1       6.366   9.143  -3.860  1.00  0.00     0.058 A 
ATOM     53  C   UNL     1       7.255   8.757  -4.870  1.00  0.00     0.135 A 
ATOM     54  C   UNL     1       5.302   9.988  -4.205  1.00  0.00     0.135 A 
ATOM     55  F   UNL     1       8.300   7.967  -4.581  1.00  0.00    -0.206 F 
ATOM     56  C   UNL     1       7.094   9.198  -6.183  1.00  0.00     0.059 A 
ATOM     57  C   UNL     1       5.138  10.462  -5.501  1.00  0.00     0.059 A 
ATOM     58  F   UNL     1       4.421  10.373  -3.269  1.00  0.00    -0.206 F 
ATOM     59  C   UNL     1       6.034  10.055  -6.487  1.00  0.00     0.060 A 
BRANCH  59  60
ATOM     60  S   UNL     1       5.776  10.567  -8.201  1.00  0.00     0.124 S 
ATOM     61  O   UNL     1       6.762  11.630  -8.345  1.00  0.00    -0.237 OA
ATOM     62  O   UNL     1       6.046   9.336  -8.938  1.00  0.00    -0.237 OA
ATOM     63  O   UNL     1       4.379  10.995  -8.215  1.00  0.00    -0.744 OA
ENDBRANCH  59  60
ENDBRANCH  27  52
BRANCH  39  64
ATOM     64  C   UNL     1       9.570  12.338   1.344  1.00  0.00     0.058 A 
ATOM     65  C   UNL     1       8.915  13.576   1.308  1.00  0.00     0.135 A 
ATOM     66  C   UNL     1      10.970  12.323   1.425  1.00  0.00     0.135 A 
ATOM     67  F   UNL     1       7.577  13.633   1.204  1.00  0.00    -0.206 F 
ATOM     68  C   UNL     1       9.629  14.766   1.329  1.00  0.00     0.059 A 
ATOM     69  C   UNL     1      11.702  13.499   1.479  1.00  0.00     0.059 A 
ATOM     70  F   UNL     1      11.635  11.157   1.456  1.00  0.00    -0.206 F 
ATOM     71  C   UNL     1      11.022  14.716   1.419  1.00  0.00     0.060 A 
BRANCH  71  72
ATOM     72  S   UNL     1      11.938  16.266   1.482  1.00  0.00     0.124 S 
ATOM     73  O   UNL     1      11.833  16.725   0.102  1.00  0.00    -0.237 OA
ATOM     74  O   UNL     1      11.180  17.033   2.467  1.00  0.00    -0.237 OA
ATOM     75  O   UNL     1      13.272  15.855   1.909  1.00  0.00    -0.744 OA
ENDBRANCH  71  72
ENDBRANCH  39  64
ENDBRANCH  13  14
ENDBRANCH   6   8
ENDBRANCH   5   6
ENDBRANCH   4   5
ENDBRANCH   3   4
ENDBRANCH   2   3
ENDBRANCH   1   2
BRANCH   1  76
ATOM     76  C   UNL     1       2.078  -1.290  -2.954  1.00  0.00     0.188 C 
BRANCH  76  77
ATOM     77  O   UNL     1       2.660  -2.050  -4.010  1.00  0.00    -0.376 OA
BRANCH  77  78
ATOM     78  C   UNL     1       4.016  -1.792  -4.351  1.00  0.00     0.202 C 
BRANCH  78  79
ATOM     79  C   UNL     1       4.388  -0.422  -4.936  1.00  0.00     0.261 C 
BRANCH  79  80
ATOM     80  O   UNL     1       3.981   0.710  -4.157  1.00  0.00    -0.459 OA
BRANCH  80  81
ATOM     81  C   UNL     1       2.856   1.315  -4.605  1.00  0.00     0.357 C 
ATOM     82  O   UNL     1       2.182   0.991  -5.572  1.00  0.00    -0.244 OA
BRANCH  81  83
ATOM     83  C   UNL     1       2.593   2.558  -3.854  1.00  0.00     0.154 A 
ATOM     84  C   UNL     1       3.110   3.659  -4.471  1.00  0.00     0.065 A 
ATOM     85  N   UNL     1       1.571   2.572  -2.968  1.00  0.00    -0.206 NA
ATOM     86  C   UNL     1       2.387   4.806  -4.287  1.00  0.00     0.077 A 
ATOM     87  C   UNL     1       1.040   3.775  -2.709  1.00  0.00     0.230 A 
ATOM     88  N   UNL     1       1.387   4.885  -3.382  1.00  0.00    -0.213 NA
BRANCH  86  89
ATOM     89  C   UNL     1       2.556   5.941  -5.201  1.00  0.00     0.000 A 
ATOM     90  C   UNL     1       2.400   7.264  -4.774  1.00  0.00     0.010 A 
ATOM     91  C   UNL     1       2.868   5.713  -6.560  1.00  0.00     0.010 A 
ATOM     92  C   UNL     1       2.571   8.318  -5.672  1.00  0.00     0.001 A 
ATOM     93  C   UNL     1       3.072   6.765  -7.446  1.00  0.00     0.001 A 
ATOM     94  C   UNL     1       2.921   8.068  -6.998  1.00  0.00     0.000 A 
ENDBRANCH  86  89
BRANCH  87  95
ATOM     95  N   UNL     1      -0.053   3.945  -1.865  1.00  0.00    -0.300 N 
ATOM     96  H   UNL     1      -0.416   4.856  -1.780  1.00  0.00     0.172 HD
BRANCH  95  97
ATOM     97  C   UNL     1      -0.657   2.978  -1.157  1.00  0.00     0.190 A 
ATOM     98  N   UNL     1      -0.088   2.220  -0.248  1.00  0.00    -0.220 NA
ATOM     99  S   UNL     1      -2.351   2.708  -1.353  1.00  0.00    -0.097 S 
ATOM    100  C   UNL     1      -0.983   1.282   0.232  1.00  0.00     0.084 A 
ATOM    101  C   UNL     1      -2.258   1.331  -0.328  1.00  0.00     0.056 A 
ATOM    102  C   UNL     1      -0.709   0.288   1.190  1.00  0.00     0.030 A 
ATOM    103  C   UNL     1      -3.236   0.367  -0.029  1.00  0.00     0.021 A 
ATOM    104  C   UNL     1      -1.660  -0.694   1.476  1.00  0.00     0.002 A 
ATOM    105  C   UNL     1      -2.903  -0.664   0.856  1.00  0.00     0.002 A 
ENDBRANCH  95  97
ENDBRANCH  87  95
ENDBRANCH  81  83
ENDBRANCH  80  81
ENDBRANCH  79  80
ENDBRANCH  78  79
ENDBRANCH  77  78
ENDBRANCH  76  77
ENDBRANCH   1  76
TORSDOF 23
