REMARK SMILES Cc1cc(C)c(C(N)=O)c(N[C@H]2C=C[C@H](C(=O)OCCOCCOCCOC(=O)c3ccc(-c4c5nc(c(-c6c(F)cc(S(=O)(=O)[O-])cc6F)c6ccc([nH]6)c(-c6c(F)cc(S(=O)(=O)[O-])cc6F)c6nc(c(-c7c(F)cc(S(=O)(=O)[O-])cc7F)c7ccc4[nH]7)C=C6)C=C5)cc3)C2)n1
REMARK SMILES IDX 22 1 21 2 20 3 19 4 18 5 16 6 17 7 15 8 12 9 13 10 96 11
REMARK SMILES IDX 14 12 11 13 10 15 1 16 2 17 3 18 97 19 4 20 5 21 6 22 7 23
REMARK SMILES IDX 8 24 9 25 23 28 24 29 25 30 26 31 27 32 28 33 29 34 30 35
REMARK SMILES IDX 31 36 95 37 32 38 94 39 33 40 34 41 35 42 88 43 36 44 93 45
REMARK SMILES IDX 87 46 89 47 37 48 92 49 86 50 85 51 38 53 72 54 51 55 71 56
REMARK SMILES IDX 52 57 55 58 70 59 90 60 53 61 54 62 69 64 91 65 56 66 39 67
REMARK SMILES IDX 40 68 49 69 41 70 42 71 48 72 50 73 43 74 44 75 45 76 46 77
REMARK SMILES IDX 47 78 73 79 74 80 83 81 75 82 76 83 82 84 84 85 77 86 78 87
REMARK SMILES IDX 79 88 80 89 81 90 57 91 58 92 67 93 59 94 60 95 66 96 68 97
REMARK SMILES IDX 61 98 62 99 63 100 64 101 65 102
REMARK H PARENT 11 14 8 26 8 27 89 52 55 63
REMARK Flexibility Score: inf
ROOT
ATOM      1  C   UNL     1      -4.976  -4.538  -3.475  1.00  0.00     0.188 C 
ENDROOT
BRANCH   1   2
ATOM      2  O   UNL     1      -5.971  -5.507  -3.725  1.00  0.00    -0.376 OA
BRANCH   2   3
ATOM      3  C   UNL     1      -6.789  -5.981  -2.665  1.00  0.00     0.202 C 
BRANCH   3   4
ATOM      4  C   UNL     1      -6.442  -5.841  -1.172  1.00  0.00     0.261 C 
BRANCH   4   5
ATOM      5  O   UNL     1      -5.782  -4.626  -0.802  1.00  0.00    -0.463 OA
BRANCH   5   6
ATOM      6  C   UNL     1      -4.622  -4.769  -0.094  1.00  0.00     0.312 C 
ATOM      7  O   UNL     1      -4.174  -5.836   0.307  1.00  0.00    -0.252 OA
BRANCH   6   8
ATOM      8  C   UNL     1      -3.899  -3.434   0.027  1.00  0.00     0.124 C 
ATOM      9  C   UNL     1      -1.493  -3.748   0.250  1.00  0.00     0.104 C 
ATOM     10  C   UNL     1      -2.113  -3.348   1.550  1.00  0.00    -0.006 C 
ATOM     11  C   UNL     1      -2.589  -3.472  -0.782  1.00  0.00     0.048 C 
ATOM     12  C   UNL     1      -3.436  -3.187   1.430  1.00  0.00    -0.014 C 
BRANCH   9  13
ATOM     13  N   UNL     1      -0.236  -3.078  -0.022  1.00  0.00    -0.363 N 
ATOM     14  H   UNL     1       0.539  -3.640  -0.249  1.00  0.00     0.162 HD
BRANCH  13  15
ATOM     15  C   UNL     1      -0.043  -1.701   0.012  1.00  0.00     0.139 A 
ATOM     16  C   UNL     1      -2.317   1.197   0.050  1.00  0.00     0.067 C 
ATOM     17  C   UNL     1      -1.044   0.409   0.062  1.00  0.00     0.040 A 
ATOM     18  C   UNL     1       0.183   1.045   0.046  1.00  0.00     0.028 A 
ATOM     19  N   UNL     1      -1.155  -0.932   0.071  1.00  0.00    -0.236 NA
ATOM     20  C   UNL     1       1.360   0.281   0.033  1.00  0.00    -0.033 A 
ATOM     21  C   UNL     1       2.649   1.058   0.038  1.00  0.00     0.045 C 
ATOM     22  C   UNL     1       1.250  -1.129  -0.007  1.00  0.00     0.084 A 
BRANCH  22  23
ATOM     23  C   UNL     1       2.476  -1.988  -0.100  1.00  0.00     0.252 C 
ATOM     24  N   UNL     1       2.417  -3.254   0.414  1.00  0.00    -0.365 N 
ATOM     25  O   UNL     1       3.515  -1.603  -0.621  1.00  0.00    -0.269 OA
ATOM     26  H   UNL     1       1.587  -3.576   0.836  1.00  0.00     0.159 HD
ATOM     27  H   UNL     1       3.204  -3.844   0.364  1.00  0.00     0.159 HD
ENDBRANCH  22  23
ENDBRANCH  13  15
ENDBRANCH   9  13
ENDBRANCH   6   8
ENDBRANCH   5   6
ENDBRANCH   4   5
ENDBRANCH   3   4
ENDBRANCH   2   3
ENDBRANCH   1   2
BRANCH   1  28
ATOM     28  C   UNL     1      -5.411  -3.074  -3.262  1.00  0.00     0.188 C 
BRANCH  28  29
ATOM     29  O   UNL     1      -6.765  -2.769  -3.009  1.00  0.00    -0.376 OA
BRANCH  29  30
ATOM     30  C   UNL     1      -7.740  -3.000  -4.013  1.00  0.00     0.202 C 
BRANCH  30  31
ATOM     31  C   UNL     1      -7.468  -2.983  -5.531  1.00  0.00     0.261 C 
BRANCH  31  32
ATOM     32  O   UNL     1      -6.158  -3.346  -5.977  1.00  0.00    -0.460 OA
BRANCH  32  33
ATOM     33  C   UNL     1      -5.391  -2.321  -6.415  1.00  0.00     0.338 C 
ATOM     34  O   UNL     1      -5.695  -1.132  -6.450  1.00  0.00    -0.246 OA
BRANCH  33  35
ATOM     35  C   UNL     1      -4.030  -2.813  -6.681  1.00  0.00     0.060 A 
ATOM     36  C   UNL     1      -2.974  -2.355  -5.878  1.00  0.00     0.016 A 
ATOM     37  C   UNL     1      -3.789  -3.679  -7.747  1.00  0.00     0.016 A 
ATOM     38  C   UNL     1      -1.664  -2.747  -6.155  1.00  0.00     0.010 A 
ATOM     39  C   UNL     1      -2.474  -4.048  -8.039  1.00  0.00     0.010 A 
ATOM     40  C   UNL     1      -1.405  -3.559  -7.265  1.00  0.00    -0.014 A 
BRANCH  40  41
ATOM     41  C   UNL     1      -0.016  -3.729  -7.756  1.00  0.00     0.031 A 
ATOM     42  C   UNL     1       0.445  -2.850  -8.887  1.00  0.00     0.074 A 
ATOM     43  C   UNL     1       0.810  -4.650  -7.229  1.00  0.00     0.049 A 
ATOM     44  N   UNL     1       1.551  -2.900  -9.580  1.00  0.00    -0.248 NA
ATOM     45  C   UNL     1      -0.475  -1.774  -9.295  1.00  0.00     0.031 C 
ATOM     46  C   UNL     1       0.497  -5.521  -6.098  1.00  0.00     0.029 A 
ATOM     47  N   UNL     1       2.080  -5.018  -7.598  1.00  0.00    -0.354 N 
ATOM     48  C   UNL     1       1.454  -1.876 -10.516  1.00  0.00     0.074 A 
ATOM     49  C   UNL     1       0.172  -1.237 -10.318  1.00  0.00     0.031 C 
ATOM     50  C   UNL     1       1.540  -6.342  -5.881  1.00  0.00     0.029 A 
ATOM     51  C   UNL     1       2.574  -6.083  -6.883  1.00  0.00     0.049 A 
ATOM     52  H   UNL     1       2.588  -4.563  -8.307  1.00  0.00     0.167 HD
ATOM     53  C   UNL     1       2.355  -1.502 -11.454  1.00  0.00     0.037 A 
ATOM     54  C   UNL     1       3.713  -6.787  -7.044  1.00  0.00     0.037 A 
ATOM     55  C   UNL     1       3.628  -2.146 -11.645  1.00  0.00     0.049 A 
ATOM     56  C   UNL     1       4.670  -6.402  -8.147  1.00  0.00     0.074 A 
ATOM     57  C   UNL     1       4.614  -1.842 -12.566  1.00  0.00     0.029 A 
ATOM     58  N   UNL     1       4.089  -3.225 -10.906  1.00  0.00    -0.354 N 
ATOM     59  N   UNL     1       4.570  -5.434  -9.027  1.00  0.00    -0.248 NA
ATOM     60  C   UNL     1       5.894  -7.206  -8.281  1.00  0.00     0.031 C 
ATOM     61  C   UNL     1       5.649  -2.770 -12.419  1.00  0.00     0.029 A 
ATOM     62  C   UNL     1       5.337  -3.611 -11.362  1.00  0.00     0.049 A 
ATOM     63  H   UNL     1       3.600  -3.652 -10.165  1.00  0.00     0.167 HD
ATOM     64  C   UNL     1       5.737  -5.484  -9.786  1.00  0.00     0.074 A 
ATOM     65  C   UNL     1       6.525  -6.581  -9.266  1.00  0.00     0.031 C 
ATOM     66  C   UNL     1       6.124  -4.688 -10.814  1.00  0.00     0.037 A 
BRANCH  53  67
ATOM     67  C   UNL     1       1.984  -0.366 -12.366  1.00  0.00     0.058 A 
ATOM     68  C   UNL     1       1.912   0.959 -11.908  1.00  0.00     0.135 A 
ATOM     69  C   UNL     1       1.730  -0.603 -13.727  1.00  0.00     0.135 A 
ATOM     70  F   UNL     1       2.123   1.239 -10.612  1.00  0.00    -0.206 F 
ATOM     71  C   UNL     1       1.581   2.006 -12.762  1.00  0.00     0.059 A 
ATOM     72  C   UNL     1       1.427   0.433 -14.605  1.00  0.00     0.059 A 
ATOM     73  F   UNL     1       1.780  -1.852 -14.217  1.00  0.00    -0.206 F 
ATOM     74  C   UNL     1       1.342   1.733 -14.110  1.00  0.00     0.060 A 
BRANCH  74  75
ATOM     75  S   UNL     1       0.926   3.105 -15.207  1.00  0.00     0.124 S 
ATOM     76  O   UNL     1      -0.425   3.433 -14.763  1.00  0.00    -0.237 OA
ATOM     77  O   UNL     1       1.955   4.087 -14.881  1.00  0.00    -0.237 OA
ATOM     78  O   UNL     1       1.022   2.518 -16.539  1.00  0.00    -0.744 OA
ENDBRANCH  74  75
ENDBRANCH  53  67
BRANCH  54  79
ATOM     79  C   UNL     1       4.011  -7.943  -6.154  1.00  0.00     0.058 A 
ATOM     80  C   UNL     1       5.075  -7.899  -5.241  1.00  0.00     0.135 A 
ATOM     81  C   UNL     1       3.250  -9.121  -6.210  1.00  0.00     0.135 A 
ATOM     82  F   UNL     1       5.843  -6.802  -5.158  1.00  0.00    -0.206 F 
ATOM     83  C   UNL     1       5.386  -8.985  -4.428  1.00  0.00     0.059 A 
ATOM     84  C   UNL     1       3.522 -10.210  -5.387  1.00  0.00     0.059 A 
ATOM     85  F   UNL     1       2.216  -9.215  -7.060  1.00  0.00    -0.206 F 
ATOM     86  C   UNL     1       4.601 -10.136  -4.507  1.00  0.00     0.060 A 
BRANCH  86  87
ATOM     87  S   UNL     1       4.987 -11.524  -3.417  1.00  0.00     0.124 S 
ATOM     88  O   UNL     1       6.224 -12.025  -4.005  1.00  0.00    -0.237 OA
ATOM     89  O   UNL     1       5.116 -10.866  -2.121  1.00  0.00    -0.237 OA
ATOM     90  O   UNL     1       3.824 -12.395  -3.557  1.00  0.00    -0.744 OA
ENDBRANCH  86  87
ENDBRANCH  54  79
BRANCH  66  91
ATOM     91  C   UNL     1       7.488  -4.914 -11.409  1.00  0.00     0.058 A 
ATOM     92  C   UNL     1       7.769  -6.014 -12.234  1.00  0.00     0.135 A 
ATOM     93  C   UNL     1       8.502  -3.959 -11.223  1.00  0.00     0.135 A 
ATOM     94  F   UNL     1       6.839  -6.959 -12.442  1.00  0.00    -0.206 F 
ATOM     95  C   UNL     1       9.012  -6.164 -12.844  1.00  0.00     0.059 A 
ATOM     96  C   UNL     1       9.740  -4.074 -11.846  1.00  0.00     0.059 A 
ATOM     97  F   UNL     1       8.281  -2.881 -10.453  1.00  0.00    -0.206 F 
ATOM     98  C   UNL     1       9.988  -5.184 -12.650  1.00  0.00     0.060 A 
BRANCH  98  99
ATOM     99  S   UNL     1      11.573  -5.360 -13.498  1.00  0.00     0.124 S 
ATOM    100  O   UNL     1      12.188  -6.452 -12.751  1.00  0.00    -0.237 OA
ATOM    101  O   UNL     1      11.163  -5.677 -14.862  1.00  0.00    -0.237 OA
ATOM    102  O   UNL     1      12.199  -4.052 -13.326  1.00  0.00    -0.744 OA
ENDBRANCH  98  99
ENDBRANCH  66  91
ENDBRANCH  40  41
ENDBRANCH  33  35
ENDBRANCH  32  33
ENDBRANCH  31  32
ENDBRANCH  30  31
ENDBRANCH  29  30
ENDBRANCH  28  29
ENDBRANCH   1  28
TORSDOF 23
