REMARK SMILES CC(C)(C)OC(=O)N1CCN(N[C@@H](C(=O)OCCOCCOCCOC(=O)c2ccc(-c3c4nc(c(-c5c(F)cc(S(=O)(=O)[O-])cc5F)c5ccc([nH]5)c(-c5c(F)cc(S(=O)(=O)[O-])cc5F)c5nc(c(-c6c(F)cc(S(=O)(=O)[O-])cc6F)c6ccc3[nH]6)C=C5)C=C4)cc2)c2ccccc2Cl)CC1
REMARK SMILES IDX 20 1 19 2 18 3 17 4 16 5 14 6 15 7 13 8 12 9 11 11 6 12 7 13
REMARK SMILES IDX 8 14 9 15 102 16 10 17 101 18 5 19 2 20 1 21 3 22 4 23 94 24
REMARK SMILES IDX 95 25 99 26 96 27 98 28 100 29 97 30 21 31 22 32 23 33 24 34
REMARK SMILES IDX 25 35 26 36 27 37 28 38 29 39 93 40 30 41 92 42 31 43 32 44
REMARK SMILES IDX 33 45 86 46 34 47 91 48 85 49 87 50 35 51 90 52 84 53 83 54
REMARK SMILES IDX 36 56 70 57 49 58 69 59 50 60 53 61 68 62 88 63 51 64 52 65
REMARK SMILES IDX 67 67 89 68 54 69 37 70 38 71 47 72 39 73 40 74 46 75 48 76
REMARK SMILES IDX 41 77 42 78 43 79 44 80 45 81 71 82 72 83 81 84 73 85 74 86
REMARK SMILES IDX 80 87 82 88 75 89 76 90 77 91 78 92 79 93 55 94 56 95 65 96
REMARK SMILES IDX 57 97 58 98 64 99 66 100 59 101 60 102 61 103 62 104 63 105
REMARK H PARENT 12 10 87 55 53 66
REMARK Flexibility Score: inf
ROOT
ATOM      1  C   UNL     1       3.052   5.532  -9.244  1.00  0.00     0.188 C 
ENDROOT
BRANCH   1   2
ATOM      2  O   UNL     1       2.536   6.836  -9.103  1.00  0.00    -0.376 OA
BRANCH   2   3
ATOM      3  C   UNL     1       1.133   7.031  -9.125  1.00  0.00     0.202 C 
BRANCH   3   4
ATOM      4  C   UNL     1       0.146   6.006  -8.538  1.00  0.00     0.261 C 
BRANCH   4   5
ATOM      5  O   UNL     1       0.589   4.643  -8.582  1.00  0.00    -0.462 OA
BRANCH   5   6
ATOM      6  C   UNL     1      -0.130   3.716  -9.261  1.00  0.00     0.329 C 
ATOM      7  O   UNL     1      -1.142   3.988  -9.902  1.00  0.00    -0.250 OA
BRANCH   6   8
ATOM      8  C   UNL     1       0.418   2.275  -9.133  1.00  0.00     0.211 C 
BRANCH   8   9
ATOM      9  N   UNL     1       1.289   1.978  -7.927  1.00  0.00    -0.237 NA
ATOM     10  H   UNL     1       1.310   0.967  -7.798  1.00  0.00     0.143 HD
BRANCH   9  11
ATOM     11  N   UNL     1       0.858   2.583  -6.668  1.00  0.00    -0.240 NA
ATOM     12  C   UNL     1       0.344  -0.446  -3.704  1.00  0.00     0.410 C 
ATOM     13  O   UNL     1      -0.521  -1.315  -3.797  1.00  0.00    -0.224 OA
ATOM     14  N   UNL     1       0.681   0.367  -4.753  1.00  0.00    -0.306 N 
ATOM     15  C   UNL     1      -0.267   0.513  -5.844  1.00  0.00     0.140 C 
ATOM     16  C   UNL     1       1.987   0.993  -4.958  1.00  0.00     0.140 C 
ATOM     17  C   UNL     1      -0.410   1.993  -6.202  1.00  0.00     0.124 C 
ATOM     18  C   UNL     1       1.898   2.394  -5.609  1.00  0.00     0.124 C 
BRANCH  12  19
ATOM     19  O   UNL     1       0.966  -0.105  -2.546  1.00  0.00    -0.444 OA
BRANCH  19  20
ATOM     20  C   UNL     1       0.500  -0.699  -1.305  1.00  0.00     0.106 C 
ATOM     21  C   UNL     1       1.171   0.104  -0.180  1.00  0.00     0.056 C 
ATOM     22  C   UNL     1       0.961  -2.157  -1.222  1.00  0.00     0.056 C 
ATOM     23  C   UNL     1      -1.023  -0.563  -1.111  1.00  0.00     0.056 C 
ENDBRANCH  19  20
ENDBRANCH  12  19
ENDBRANCH   9  11
ENDBRANCH   8   9
BRANCH   8  24
ATOM     24  C   UNL     1       1.095   1.636 -10.358  1.00  0.00     0.000 A 
ATOM     25  C   UNL     1       1.351   0.242 -10.237  1.00  0.00     0.007 A 
ATOM     26  C   UNL     1       1.529   2.253 -11.543  1.00  0.00     0.046 A 
ATOM     27  C   UNL     1       2.049  -0.480 -11.205  1.00  0.00     0.000 A 
ATOM     28  C   UNL     1       2.240   1.520 -12.508  1.00  0.00     0.021 A 
ATOM     29  Cl  UNL     1       1.236   3.897 -11.967  1.00  0.00    -0.084 Cl
ATOM     30  C   UNL     1       2.513   0.166 -12.337  1.00  0.00     0.002 A 
ENDBRANCH   8  24
ENDBRANCH   6   8
ENDBRANCH   5   6
ENDBRANCH   4   5
ENDBRANCH   3   4
ENDBRANCH   2   3
ENDBRANCH   1   2
BRANCH   1  31
ATOM     31  C   UNL     1       3.391   4.864  -7.903  1.00  0.00     0.188 C 
BRANCH  31  32
ATOM     32  O   UNL     1       3.362   5.604  -6.694  1.00  0.00    -0.376 OA
BRANCH  32  33
ATOM     33  C   UNL     1       3.978   6.880  -6.690  1.00  0.00     0.202 C 
BRANCH  33  34
ATOM     34  C   UNL     1       5.441   6.987  -7.149  1.00  0.00     0.261 C 
BRANCH  34  35
ATOM     35  O   UNL     1       5.747   6.407  -8.434  1.00  0.00    -0.460 OA
BRANCH  35  36
ATOM     36  C   UNL     1       6.506   5.278  -8.422  1.00  0.00     0.338 C 
ATOM     37  O   UNL     1       6.963   4.715  -7.441  1.00  0.00    -0.246 OA
BRANCH  36  38
ATOM     38  C   UNL     1       6.564   4.689  -9.782  1.00  0.00     0.060 A 
ATOM     39  C   UNL     1       6.003   3.421 -10.011  1.00  0.00     0.016 A 
ATOM     40  C   UNL     1       7.212   5.361 -10.818  1.00  0.00     0.016 A 
ATOM     41  C   UNL     1       6.086   2.826 -11.276  1.00  0.00     0.010 A 
ATOM     42  C   UNL     1       7.324   4.749 -12.072  1.00  0.00     0.010 A 
ATOM     43  C   UNL     1       6.776   3.475 -12.308  1.00  0.00    -0.014 A 
BRANCH  43  44
ATOM     44  C   UNL     1       7.038   2.795 -13.604  1.00  0.00     0.031 A 
ATOM     45  C   UNL     1       8.363   2.117 -13.817  1.00  0.00     0.074 A 
ATOM     46  C   UNL     1       6.133   2.823 -14.600  1.00  0.00     0.049 A 
ATOM     47  N   UNL     1       8.869   1.611 -14.912  1.00  0.00    -0.248 NA
ATOM     48  C   UNL     1       9.240   2.012 -12.641  1.00  0.00     0.031 C 
ATOM     49  C   UNL     1       4.806   3.424 -14.510  1.00  0.00     0.029 A 
ATOM     50  N   UNL     1       6.203   2.351 -15.889  1.00  0.00    -0.354 N 
ATOM     51  C   UNL     1      10.136   1.157 -14.568  1.00  0.00     0.074 A 
ATOM     52  C   UNL     1      10.320   1.448 -13.161  1.00  0.00     0.031 C 
ATOM     53  C   UNL     1       4.182   3.282 -15.693  1.00  0.00     0.029 A 
ATOM     54  C   UNL     1       5.089   2.640 -16.643  1.00  0.00     0.049 A 
ATOM     55  H   UNL     1       6.976   1.853 -16.239  1.00  0.00     0.167 HD
ATOM     56  C   UNL     1      11.066   0.565 -15.357  1.00  0.00     0.037 A 
ATOM     57  C   UNL     1       4.846   2.449 -17.958  1.00  0.00     0.037 A 
ATOM     58  C   UNL     1      10.882   0.292 -16.759  1.00  0.00     0.049 A 
ATOM     59  C   UNL     1       5.922   1.848 -18.831  1.00  0.00     0.074 A 
ATOM     60  C   UNL     1      11.764  -0.311 -17.640  1.00  0.00     0.029 A 
ATOM     61  N   UNL     1       9.748   0.615 -17.491  1.00  0.00    -0.354 N 
ATOM     62  N   UNL     1       7.114   1.414 -18.494  1.00  0.00    -0.248 NA
ATOM     63  C   UNL     1       5.631   1.735 -20.269  1.00  0.00     0.031 C 
ATOM     64  C   UNL     1      11.189  -0.297 -18.914  1.00  0.00     0.029 A 
ATOM     65  C   UNL     1       9.921   0.253 -18.817  1.00  0.00     0.049 A 
ATOM     66  H   UNL     1       8.940   1.039 -17.122  1.00  0.00     0.167 HD
ATOM     67  C   UNL     1       7.705   0.964 -19.672  1.00  0.00     0.074 A 
ATOM     68  C   UNL     1       6.734   1.159 -20.727  1.00  0.00     0.031 C 
ATOM     69  C   UNL     1       8.944   0.444 -19.862  1.00  0.00     0.037 A 
BRANCH  56  70
ATOM     70  C   UNL     1      12.390   0.216 -14.732  1.00  0.00     0.058 A 
ATOM     71  C   UNL     1      12.520  -0.822 -13.797  1.00  0.00     0.135 A 
ATOM     72  C   UNL     1      13.553   0.914 -15.101  1.00  0.00     0.135 A 
ATOM     73  F   UNL     1      11.440  -1.511 -13.396  1.00  0.00    -0.206 F 
ATOM     74  C   UNL     1      13.750  -1.137 -13.227  1.00  0.00     0.059 A 
ATOM     75  C   UNL     1      14.798   0.595 -14.568  1.00  0.00     0.059 A 
ATOM     76  F   UNL     1      13.486   1.917 -15.991  1.00  0.00    -0.206 F 
ATOM     77  C   UNL     1      14.883  -0.422 -13.619  1.00  0.00     0.060 A 
BRANCH  77  78
ATOM     78  S   UNL     1      16.470  -0.843 -12.868  1.00  0.00     0.124 S 
ATOM     79  O   UNL     1      16.286  -0.350 -11.506  1.00  0.00    -0.237 OA
ATOM     80  O   UNL     1      16.508  -2.295 -13.016  1.00  0.00    -0.237 OA
ATOM     81  O   UNL     1      17.437  -0.107 -13.675  1.00  0.00    -0.744 OA
ENDBRANCH  77  78
ENDBRANCH  56  70
BRANCH  57  82
ATOM     82  C   UNL     1       3.542   2.865 -18.549  1.00  0.00     0.058 A 
ATOM     83  C   UNL     1       2.646   1.914 -19.061  1.00  0.00     0.135 A 
ATOM     84  C   UNL     1       3.169   4.216 -18.625  1.00  0.00     0.135 A 
ATOM     85  F   UNL     1       2.962   0.610 -19.031  1.00  0.00    -0.206 F 
ATOM     86  C   UNL     1       1.434   2.286 -19.635  1.00  0.00     0.059 A 
ATOM     87  C   UNL     1       1.948   4.611 -19.163  1.00  0.00     0.059 A 
ATOM     88  F   UNL     1       3.987   5.168 -18.151  1.00  0.00    -0.206 F 
ATOM     89  C   UNL     1       1.091   3.639 -19.675  1.00  0.00     0.060 A 
BRANCH  89  90
ATOM     90  S   UNL     1      -0.508   4.106 -20.374  1.00  0.00     0.124 S 
ATOM     91  O   UNL     1      -0.290   3.864 -21.795  1.00  0.00    -0.237 OA
ATOM     92  O   UNL     1      -1.417   3.183 -19.701  1.00  0.00    -0.237 OA
ATOM     93  O   UNL     1      -0.647   5.507 -19.986  1.00  0.00    -0.744 OA
ENDBRANCH  89  90
ENDBRANCH  57  82
BRANCH  69  94
ATOM     94  C   UNL     1       9.324   0.015 -21.256  1.00  0.00     0.058 A 
ATOM     95  C   UNL     1       9.603   0.948 -22.268  1.00  0.00     0.135 A 
ATOM     96  C   UNL     1       9.497  -1.346 -21.559  1.00  0.00     0.135 A 
ATOM     97  F   UNL     1       9.446   2.261 -22.038  1.00  0.00    -0.206 F 
ATOM     98  C   UNL     1      10.030   0.547 -23.531  1.00  0.00     0.059 A 
ATOM     99  C   UNL     1       9.952  -1.768 -22.805  1.00  0.00     0.059 A 
ATOM    100  F   UNL     1       9.254  -2.282 -20.627  1.00  0.00    -0.206 F 
ATOM    101  C   UNL     1      10.211  -0.814 -23.787  1.00  0.00     0.060 A 
BRANCH 101 102
ATOM    102  S   UNL     1      10.828  -1.315 -25.409  1.00  0.00     0.124 S 
ATOM    103  O   UNL     1       9.677  -1.037 -26.262  1.00  0.00    -0.237 OA
ATOM    104  O   UNL     1      11.978  -0.434 -25.590  1.00  0.00    -0.237 OA
ATOM    105  O   UNL     1      11.150  -2.727 -25.231  1.00  0.00    -0.744 OA
ENDBRANCH 101 102
ENDBRANCH  69  94
ENDBRANCH  43  44
ENDBRANCH  36  38
ENDBRANCH  35  36
ENDBRANCH  34  35
ENDBRANCH  33  34
ENDBRANCH  32  33
ENDBRANCH  31  32
ENDBRANCH   1  31
TORSDOF 25
