REMARK SMILES CS(=O)(=O)c1ccc(-n2nc(C(F)(F)F)cc2-c2ccc(CC(=O)OCCOCCOCCOC(=O)c3ccc(-c4c5nc(c(-c6c(F)cc(S(=O)(=O)[O-])cc6F)c6ccc([nH]6)c(-c6c(F)cc(S(=O)(=O)[O-])cc6F)c6nc(c(-c7c(F)cc(S(=O)(=O)[O-])cc7F)c7ccc4[nH]7)C=C6)C=C5)cc3)cc2)cc1
REMARK SMILES IDX 29 1 28 2 27 3 26 4 25 5 23 6 24 7 22 8 21 9 18 10 19 11
REMARK SMILES IDX 104 12 20 13 103 14 17 15 9 16 10 17 11 18 16 19 8 20 5 21
REMARK SMILES IDX 6 22 106 23 7 24 105 25 2 26 1 27 3 28 4 29 12 30 13 31
REMARK SMILES IDX 14 32 15 33 30 34 31 35 32 36 33 37 34 38 35 39 36 40 37 41
REMARK SMILES IDX 38 42 102 43 39 44 101 45 40 46 41 47 42 48 95 49 43 50
REMARK SMILES IDX 100 51 94 52 96 53 44 54 99 55 93 56 92 57 45 59 79 60 58 61
REMARK SMILES IDX 78 62 59 63 62 64 77 65 97 66 60 67 61 68 76 70 98 71 63 72
REMARK SMILES IDX 46 73 47 74 56 75 48 76 49 77 55 78 57 79 50 80 51 81 52 82
REMARK SMILES IDX 53 83 54 84 80 85 81 86 90 87 82 88 83 89 89 90 91 91 84 92
REMARK SMILES IDX 85 93 86 94 87 95 88 96 64 97 65 98 74 99 66 100 67 101
REMARK SMILES IDX 73 102 75 103 68 104 69 105 70 106 71 107 72 108
REMARK H PARENT 96 58 62 69
REMARK Flexibility Score: inf
ROOT
ATOM      1  C   UNL     1      -2.003  -2.009  -7.548  1.00  0.00     0.188 C 
ENDROOT
BRANCH   1   2
ATOM      2  O   UNL     1      -1.913  -3.112  -8.450  1.00  0.00    -0.376 OA
BRANCH   2   3
ATOM      3  C   UNL     1      -0.761  -3.926  -8.351  1.00  0.00     0.202 C 
BRANCH   3   4
ATOM      4  C   UNL     1       0.264  -3.594  -9.442  1.00  0.00     0.261 C 
BRANCH   4   5
ATOM      5  O   UNL     1       0.423  -2.178  -9.695  1.00  0.00    -0.463 OA
BRANCH   5   6
ATOM      6  C   UNL     1      -0.356  -1.655 -10.677  1.00  0.00     0.310 C 
ATOM      7  O   UNL     1      -1.028  -2.339 -11.448  1.00  0.00    -0.252 OA
BRANCH   6   8
ATOM      8  C   UNL     1      -0.285  -0.147 -10.848  1.00  0.00     0.158 C 
BRANCH   8   9
ATOM      9  C   UNL     1       0.247   0.770  -9.760  1.00  0.00    -0.037 A 
ATOM     10  C   UNL     1       1.220   2.661  -7.859  1.00  0.00     0.000 A 
ATOM     11  C   UNL     1      -0.152   2.421  -7.991  1.00  0.00     0.010 A 
ATOM     12  C   UNL     1       2.100   1.937  -8.674  1.00  0.00     0.010 A 
ATOM     13  C   UNL     1      -0.632   1.503  -8.941  1.00  0.00     0.005 A 
ATOM     14  C   UNL     1       1.622   0.991  -9.599  1.00  0.00     0.005 A 
BRANCH  10  15
ATOM     15  C   UNL     1       1.703   3.766  -7.019  1.00  0.00     0.075 A 
ATOM     16  N   UNL     1       1.601   3.892  -5.634  1.00  0.00    -0.233 N 
ATOM     17  N   UNL     1       1.868   5.163  -5.226  1.00  0.00    -0.163 NA
ATOM     18  C   UNL     1       2.296   5.815  -6.317  1.00  0.00     0.167 A 
ATOM     19  C   UNL     1       2.184   4.989  -7.460  1.00  0.00     0.064 A 
BRANCH  16  20
ATOM     20  C   UNL     1       1.394   2.910  -4.630  1.00  0.00     0.065 A 
ATOM     21  C   UNL     1       1.053   1.061  -2.567  1.00  0.00     0.067 A 
ATOM     22  C   UNL     1       1.762   0.703  -3.724  1.00  0.00     0.022 A 
ATOM     23  C   UNL     1       0.527   2.345  -2.427  1.00  0.00     0.022 A 
ATOM     24  C   UNL     1       1.903   1.616  -4.773  1.00  0.00     0.030 A 
ATOM     25  C   UNL     1       0.735   3.280  -3.443  1.00  0.00     0.030 A 
BRANCH  21  26
ATOM     26  S   UNL     1       0.673  -0.175  -1.342  1.00  0.00     0.175 S 
ATOM     27  C   UNL     1       1.402   0.398   0.160  1.00  0.00     0.163 C 
ATOM     28  O   UNL     1       1.369  -1.393  -1.724  1.00  0.00    -0.224 OA
ATOM     29  O   UNL     1      -0.769  -0.186  -1.182  1.00  0.00    -0.224 OA
ENDBRANCH  21  26
ENDBRANCH  16  20
BRANCH  18  30
ATOM     30  C   UNL     1       2.809   7.229  -6.271  1.00  0.00     0.435 C 
ATOM     31  F   UNL     1       2.155   8.021  -5.384  1.00  0.00    -0.164 F 
ATOM     32  F   UNL     1       4.130   7.271  -5.939  1.00  0.00    -0.164 F 
ATOM     33  F   UNL     1       2.709   7.841  -7.485  1.00  0.00    -0.164 F 
ENDBRANCH  18  30
ENDBRANCH  10  15
ENDBRANCH   8   9
ENDBRANCH   6   8
ENDBRANCH   5   6
ENDBRANCH   4   5
ENDBRANCH   3   4
ENDBRANCH   2   3
ENDBRANCH   1   2
BRANCH   1  34
ATOM     34  C   UNL     1      -0.720  -1.275  -7.112  1.00  0.00     0.188 C 
BRANCH  34  35
ATOM     35  O   UNL     1       0.289  -1.928  -6.355  1.00  0.00    -0.376 OA
BRANCH  35  36
ATOM     36  C   UNL     1      -0.038  -2.563  -5.129  1.00  0.00     0.202 C 
BRANCH  36  37
ATOM     37  C   UNL     1      -0.835  -1.781  -4.114  1.00  0.00     0.261 C 
BRANCH  37  38
ATOM     38  O   UNL     1      -2.107  -1.385  -4.589  1.00  0.00    -0.460 OA
BRANCH  38  39
ATOM     39  C   UNL     1      -2.284  -0.049  -4.617  1.00  0.00     0.338 C 
ATOM     40  O   UNL     1      -1.438   0.822  -4.808  1.00  0.00    -0.246 OA
BRANCH  39  41
ATOM     41  C   UNL     1      -3.652   0.245  -4.237  1.00  0.00     0.060 A 
ATOM     42  C   UNL     1      -4.077   1.570  -4.359  1.00  0.00     0.016 A 
ATOM     43  C   UNL     1      -4.389  -0.728  -3.545  1.00  0.00     0.016 A 
ATOM     44  C   UNL     1      -5.199   1.955  -3.668  1.00  0.00     0.010 A 
ATOM     45  C   UNL     1      -5.499  -0.338  -2.846  1.00  0.00     0.010 A 
ATOM     46  C   UNL     1      -5.856   1.008  -2.876  1.00  0.00    -0.014 A 
BRANCH  46  47
ATOM     47  C   UNL     1      -7.002   1.446  -2.116  1.00  0.00     0.031 A 
ATOM     48  C   UNL     1      -8.223   1.605  -2.928  1.00  0.00     0.074 A 
ATOM     49  C   UNL     1      -6.962   1.548  -0.776  1.00  0.00     0.049 A 
ATOM     50  N   UNL     1      -8.901   2.681  -3.139  1.00  0.00    -0.248 NA
ATOM     51  C   UNL     1      -8.671   0.443  -3.715  1.00  0.00     0.031 C 
ATOM     52  C   UNL     1      -5.882   1.079   0.099  1.00  0.00     0.029 A 
ATOM     53  N   UNL     1      -7.921   1.968   0.095  1.00  0.00    -0.354 N 
ATOM     54  C   UNL     1     -10.005   2.272  -3.877  1.00  0.00     0.074 A 
ATOM     55  C   UNL     1      -9.711   0.955  -4.371  1.00  0.00     0.031 C 
ATOM     56  C   UNL     1      -6.333   1.044   1.370  1.00  0.00     0.029 A 
ATOM     57  C   UNL     1      -7.676   1.603   1.410  1.00  0.00     0.049 A 
ATOM     58  H   UNL     1      -8.714   2.481  -0.183  1.00  0.00     0.167 HD
ATOM     59  C   UNL     1     -11.193   2.918  -3.757  1.00  0.00     0.037 A 
ATOM     60  C   UNL     1      -8.532   1.692   2.453  1.00  0.00     0.037 A 
ATOM     61  C   UNL     1     -11.033   4.209  -3.142  1.00  0.00     0.049 A 
ATOM     62  C   UNL     1      -9.579   2.689   2.116  1.00  0.00     0.074 A 
ATOM     63  C   UNL     1     -10.599   5.454  -3.537  1.00  0.00     0.029 A 
ATOM     64  N   UNL     1     -11.067   4.201  -1.773  1.00  0.00    -0.354 N 
ATOM     65  N   UNL     1      -9.347   3.964   1.960  1.00  0.00    -0.248 NA
ATOM     66  C   UNL     1     -10.883   2.234   1.641  1.00  0.00     0.031 C 
ATOM     67  C   UNL     1     -10.241   6.153  -2.348  1.00  0.00     0.029 A 
ATOM     68  C   UNL     1     -10.461   5.317  -1.256  1.00  0.00     0.049 A 
ATOM     69  H   UNL     1     -11.474   3.487  -1.230  1.00  0.00     0.167 HD
ATOM     70  C   UNL     1     -10.274   4.373   1.022  1.00  0.00     0.074 A 
ATOM     71  C   UNL     1     -11.289   3.332   0.998  1.00  0.00     0.031 C 
ATOM     72  C   UNL     1      -9.974   5.338   0.109  1.00  0.00     0.037 A 
BRANCH  59  73
ATOM     73  C   UNL     1     -12.534   2.221  -3.764  1.00  0.00     0.058 A 
ATOM     74  C   UNL     1     -13.705   3.003  -3.800  1.00  0.00     0.135 A 
ATOM     75  C   UNL     1     -12.719   0.859  -3.429  1.00  0.00     0.135 A 
ATOM     76  F   UNL     1     -13.645   4.310  -4.104  1.00  0.00    -0.206 F 
ATOM     77  C   UNL     1     -14.955   2.490  -3.453  1.00  0.00     0.059 A 
ATOM     78  C   UNL     1     -13.963   0.315  -3.137  1.00  0.00     0.059 A 
ATOM     79  F   UNL     1     -11.695   0.014  -3.263  1.00  0.00    -0.206 F 
ATOM     80  C   UNL     1     -15.068   1.148  -3.103  1.00  0.00     0.060 A 
BRANCH  80  81
ATOM     81  S   UNL     1     -16.650   0.506  -2.533  1.00  0.00     0.124 S 
ATOM     82  O   UNL     1     -16.731   1.083  -1.197  1.00  0.00    -0.237 OA
ATOM     83  O   UNL     1     -17.575   1.047  -3.523  1.00  0.00    -0.237 OA
ATOM     84  O   UNL     1     -16.461  -0.941  -2.587  1.00  0.00    -0.744 OA
ENDBRANCH  80  81
ENDBRANCH  59  73
BRANCH  60  85
ATOM     85  C   UNL     1      -8.608   0.821   3.649  1.00  0.00     0.058 A 
ATOM     86  C   UNL     1      -9.309   1.225   4.796  1.00  0.00     0.135 A 
ATOM     87  C   UNL     1      -8.202  -0.530   3.607  1.00  0.00     0.135 A 
ATOM     88  F   UNL     1      -9.755   2.485   4.907  1.00  0.00    -0.206 F 
ATOM     89  C   UNL     1      -9.628   0.334   5.823  1.00  0.00     0.059 A 
ATOM     90  C   UNL     1      -8.490  -1.431   4.628  1.00  0.00     0.059 A 
ATOM     91  F   UNL     1      -7.590  -1.038   2.526  1.00  0.00    -0.206 F 
ATOM     92  C   UNL     1      -9.227  -0.998   5.722  1.00  0.00     0.060 A 
BRANCH  92  93
ATOM     93  S   UNL     1      -9.784  -2.185   6.963  1.00  0.00     0.124 S 
ATOM     94  O   UNL     1      -9.029  -1.767   8.139  1.00  0.00    -0.237 OA
ATOM     95  O   UNL     1     -11.221  -1.933   7.004  1.00  0.00    -0.237 OA
ATOM     96  O   UNL     1      -9.397  -3.475   6.397  1.00  0.00    -0.744 OA
ENDBRANCH  92  93
ENDBRANCH  60  85
BRANCH  72  97
ATOM     97  C   UNL     1      -8.955   6.368   0.494  1.00  0.00     0.058 A 
ATOM     98  C   UNL     1      -7.590   6.109   0.693  1.00  0.00     0.135 A 
ATOM     99  C   UNL     1      -9.382   7.701   0.603  1.00  0.00     0.135 A 
ATOM    100  F   UNL     1      -7.092   4.874   0.527  1.00  0.00    -0.206 F 
ATOM    101  C   UNL     1      -6.696   7.128   1.026  1.00  0.00     0.059 A 
ATOM    102  C   UNL     1      -8.504   8.737   0.902  1.00  0.00     0.059 A 
ATOM    103  F   UNL     1     -10.669   8.017   0.378  1.00  0.00    -0.206 F 
ATOM    104  C   UNL     1      -7.162   8.440   1.128  1.00  0.00     0.060 A 
BRANCH 104 105
ATOM    105  S   UNL     1      -5.993   9.770   1.482  1.00  0.00     0.124 S 
ATOM    106  O   UNL     1      -5.759   9.600   2.912  1.00  0.00    -0.237 OA
ATOM    107  O   UNL     1      -4.866   9.445   0.612  1.00  0.00    -0.237 OA
ATOM    108  O   UNL     1      -6.728  10.976   1.108  1.00  0.00    -0.744 OA
ENDBRANCH 104 105
ENDBRANCH  72  97
ENDBRANCH  46  47
ENDBRANCH  39  41
ENDBRANCH  38  39
ENDBRANCH  37  38
ENDBRANCH  36  37
ENDBRANCH  35  36
ENDBRANCH  34  35
ENDBRANCH   1  34
TORSDOF 25
