REMARK SMILES CS(=O)(=O)c1ccc(C2=NN(c3ccc(C(=O)OCCOCCOCCOC(=O)c4ccc(-c5c6nc(c(-c7c(F)cc(S(=O)(=O)[O-])cc7F)c7ccc([nH]7)c(-c7c(F)cc(S(=O)(=O)[O-])cc7F)c7nc(c(-c8c(F)cc(S(=O)(=O)[O-])cc8F)c8ccc5[nH]8)C=C7)C=C6)cc4)cc3)[C@H](c3ccccc3)C2)cc1
REMARK SMILES IDX 22 1 21 2 20 3 19 4 18 5 16 6 17 7 15 8 12 9 13 10 97 11
REMARK SMILES IDX 14 12 96 13 11 14 9 15 10 16 105 17 98 18 8 19 5 20 6 21
REMARK SMILES IDX 107 22 7 23 106 24 2 25 1 26 3 27 4 28 99 29 100 30 104 31
REMARK SMILES IDX 101 32 103 33 102 34 23 35 24 36 25 37 26 38 27 39 28 40
REMARK SMILES IDX 29 41 30 42 31 43 95 44 32 45 94 46 33 47 34 48 35 49 88 50
REMARK SMILES IDX 36 51 93 52 87 53 89 54 37 55 92 56 86 57 85 58 38 60 72 61
REMARK SMILES IDX 51 62 71 63 52 64 55 65 70 66 90 67 53 68 54 69 69 71 91 72
REMARK SMILES IDX 56 73 39 74 40 75 49 76 41 77 42 78 48 79 50 80 43 81 44 82
REMARK SMILES IDX 45 83 46 84 47 85 73 86 74 87 83 88 75 89 76 90 82 91 84 92
REMARK SMILES IDX 77 93 78 94 79 95 80 96 81 97 57 98 58 99 67 100 59 101
REMARK SMILES IDX 60 102 66 103 68 104 61 105 62 106 63 107 64 108 65 109
REMARK H PARENT 89 59 55 70
REMARK Flexibility Score: inf
ROOT
ATOM      1  C   UNL     1       9.681   4.231   9.658  1.00  0.00     0.188 C 
ENDROOT
BRANCH   1   2
ATOM      2  O   UNL     1      10.662   4.477  10.640  1.00  0.00    -0.376 OA
BRANCH   2   3
ATOM      3  C   UNL     1      10.309   5.002  11.908  1.00  0.00     0.202 C 
BRANCH   3   4
ATOM      4  C   UNL     1       8.977   5.696  12.245  1.00  0.00     0.261 C 
BRANCH   4   5
ATOM      5  O   UNL     1       7.824   5.272  11.515  1.00  0.00    -0.460 OA
BRANCH   5   6
ATOM      6  C   UNL     1       7.291   6.198  10.677  1.00  0.00     0.338 C 
ATOM      7  O   UNL     1       7.668   7.349  10.531  1.00  0.00    -0.246 OA
BRANCH   6   8
ATOM      8  C   UNL     1       6.246   5.580   9.826  1.00  0.00     0.060 A 
ATOM      9  C   UNL     1       4.195   4.569   8.190  1.00  0.00     0.060 A 
ATOM     10  C   UNL     1       5.115   5.494   7.680  1.00  0.00     0.029 A 
ATOM     11  C   UNL     1       4.396   4.069   9.486  1.00  0.00     0.029 A 
ATOM     12  C   UNL     1       6.131   6.004   8.495  1.00  0.00     0.018 A 
ATOM     13  C   UNL     1       5.399   4.581  10.311  1.00  0.00     0.018 A 
BRANCH   9  14
ATOM     14  N   UNL     1       3.009   4.254   7.508  1.00  0.00    -0.257 N 
ATOM     15  C   UNL     1       2.024   4.068   5.618  1.00  0.00     0.071 C 
ATOM     16  N   UNL     1       3.087   3.700   6.263  1.00  0.00    -0.176 NA
ATOM     17  C   UNL     1       1.111   5.020   6.337  1.00  0.00     0.091 C 
ATOM     18  C   UNL     1       1.871   5.190   7.659  1.00  0.00     0.144 C 
BRANCH  15  19
ATOM     19  C   UNL     1       1.667   3.548   4.286  1.00  0.00    -0.002 A 
ATOM     20  C   UNL     1       0.876   2.464   1.840  1.00  0.00     0.067 A 
ATOM     21  C   UNL     1       1.319   1.617   2.858  1.00  0.00     0.021 A 
ATOM     22  C   UNL     1       0.845   3.852   2.034  1.00  0.00     0.021 A 
ATOM     23  C   UNL     1       1.727   2.164   4.078  1.00  0.00     0.011 A 
ATOM     24  C   UNL     1       1.229   4.395   3.265  1.00  0.00     0.011 A 
BRANCH  20  25
ATOM     25  S   UNL     1       0.326   1.828   0.271  1.00  0.00     0.175 S 
ATOM     26  C   UNL     1       1.083   0.241   0.053  1.00  0.00     0.163 C 
ATOM     27  O   UNL     1       0.865   2.707  -0.748  1.00  0.00    -0.224 OA
ATOM     28  O   UNL     1      -1.105   1.626   0.401  1.00  0.00    -0.224 OA
ENDBRANCH  20  25
ENDBRANCH  15  19
BRANCH  18  29
ATOM     29  C   UNL     1       1.115   4.946   8.964  1.00  0.00    -0.023 A 
ATOM     30  C   UNL     1      -0.056   4.181   9.066  1.00  0.00     0.006 A 
ATOM     31  C   UNL     1       1.655   5.465  10.159  1.00  0.00     0.006 A 
ATOM     32  C   UNL     1      -0.642   3.926  10.313  1.00  0.00     0.000 A 
ATOM     33  C   UNL     1       1.104   5.165  11.406  1.00  0.00     0.000 A 
ATOM     34  C   UNL     1      -0.049   4.396  11.482  1.00  0.00     0.000 A 
ENDBRANCH  18  29
ENDBRANCH   9  14
ENDBRANCH   6   8
ENDBRANCH   5   6
ENDBRANCH   4   5
ENDBRANCH   3   4
ENDBRANCH   2   3
ENDBRANCH   1   2
BRANCH   1  35
ATOM     35  C   UNL     1       8.730   3.033   9.851  1.00  0.00     0.188 C 
BRANCH  35  36
ATOM     36  O   UNL     1       8.707   2.339  11.080  1.00  0.00    -0.376 OA
BRANCH  36  37
ATOM     37  C   UNL     1       9.858   1.633  11.509  1.00  0.00     0.202 C 
BRANCH  37  38
ATOM     38  C   UNL     1      10.893   0.991  10.564  1.00  0.00     0.261 C 
BRANCH  38  39
ATOM     39  O   UNL     1      11.141   1.643   9.315  1.00  0.00    -0.460 OA
BRANCH  39  40
ATOM     40  C   UNL     1      10.653   1.010   8.219  1.00  0.00     0.338 C 
ATOM     41  O   UNL     1      10.017  -0.034   8.188  1.00  0.00    -0.246 OA
BRANCH  40  42
ATOM     42  C   UNL     1      10.867   1.868   7.042  1.00  0.00     0.060 A 
ATOM     43  C   UNL     1       9.765   2.471   6.416  1.00  0.00     0.016 A 
ATOM     44  C   UNL     1      12.156   2.052   6.544  1.00  0.00     0.016 A 
ATOM     45  C   UNL     1       9.953   3.265   5.284  1.00  0.00     0.010 A 
ATOM     46  C   UNL     1      12.337   2.821   5.394  1.00  0.00     0.010 A 
ATOM     47  C   UNL     1      11.237   3.414   4.747  1.00  0.00    -0.014 A 
BRANCH  47  48
ATOM     48  C   UNL     1      11.439   4.038   3.418  1.00  0.00     0.031 A 
ATOM     49  C   UNL     1      11.617   3.134   2.231  1.00  0.00     0.074 A 
ATOM     50  C   UNL     1      11.519   5.373   3.277  1.00  0.00     0.049 A 
ATOM     51  N   UNL     1      11.985   3.426   1.013  1.00  0.00    -0.248 NA
ATOM     52  C   UNL     1      11.353   1.702   2.457  1.00  0.00     0.031 C 
ATOM     53  C   UNL     1      11.312   6.351   4.343  1.00  0.00     0.029 A 
ATOM     54  N   UNL     1      11.829   6.133   2.176  1.00  0.00    -0.354 N 
ATOM     55  C   UNL     1      12.023   2.215   0.332  1.00  0.00     0.074 A 
ATOM     56  C   UNL     1      11.655   1.183   1.276  1.00  0.00     0.031 C 
ATOM     57  C   UNL     1      11.532   7.583   3.850  1.00  0.00     0.029 A 
ATOM     58  C   UNL     1      11.942   7.476   2.450  1.00  0.00     0.049 A 
ATOM     59  H   UNL     1      11.958   5.753   1.277  1.00  0.00     0.167 HD
ATOM     60  C   UNL     1      12.338   1.988  -0.965  1.00  0.00     0.037 A 
ATOM     61  C   UNL     1      12.368   8.492   1.672  1.00  0.00     0.037 A 
ATOM     62  C   UNL     1      12.706   3.024  -1.893  1.00  0.00     0.049 A 
ATOM     63  C   UNL     1      12.794   8.206   0.252  1.00  0.00     0.074 A 
ATOM     64  C   UNL     1      13.025   2.902  -3.234  1.00  0.00     0.029 A 
ATOM     65  N   UNL     1      12.816   4.370  -1.577  1.00  0.00    -0.354 N 
ATOM     66  N   UNL     1      12.812   7.061  -0.390  1.00  0.00    -0.248 NA
ATOM     67  C   UNL     1      13.263   9.346  -0.549  1.00  0.00     0.031 C 
ATOM     68  C   UNL     1      13.388   4.164  -3.712  1.00  0.00     0.029 A 
ATOM     69  C   UNL     1      13.226   5.085  -2.689  1.00  0.00     0.049 A 
ATOM     70  H   UNL     1      12.629   4.760  -0.692  1.00  0.00     0.167 HD
ATOM     71  C   UNL     1      13.254   7.351  -1.678  1.00  0.00     0.074 A 
ATOM     72  C   UNL     1      13.495   8.777  -1.725  1.00  0.00     0.031 C 
ATOM     73  C   UNL     1      13.437   6.512  -2.728  1.00  0.00     0.037 A 
BRANCH  60  74
ATOM     74  C   UNL     1      12.337   0.563  -1.447  1.00  0.00     0.058 A 
ATOM     75  C   UNL     1      11.149  -0.168  -1.600  1.00  0.00     0.135 A 
ATOM     76  C   UNL     1      13.543  -0.067  -1.796  1.00  0.00     0.135 A 
ATOM     77  F   UNL     1       9.969   0.377  -1.264  1.00  0.00    -0.206 F 
ATOM     78  C   UNL     1      11.159  -1.481  -2.059  1.00  0.00     0.059 A 
ATOM     79  C   UNL     1      13.573  -1.368  -2.287  1.00  0.00     0.059 A 
ATOM     80  F   UNL     1      14.709   0.585  -1.665  1.00  0.00    -0.206 F 
ATOM     81  C   UNL     1      12.376  -2.072  -2.403  1.00  0.00     0.060 A 
BRANCH  81  82
ATOM     82  S   UNL     1      12.367  -3.773  -3.006  1.00  0.00     0.124 S 
ATOM     83  O   UNL     1      12.034  -4.511  -1.792  1.00  0.00    -0.237 OA
ATOM     84  O   UNL     1      11.327  -3.734  -4.029  1.00  0.00    -0.237 OA
ATOM     85  O   UNL     1      13.726  -3.966  -3.504  1.00  0.00    -0.744 OA
ENDBRANCH  81  82
ENDBRANCH  60  74
BRANCH  61  86
ATOM     86  C   UNL     1      12.438   9.874   2.221  1.00  0.00     0.058 A 
ATOM     87  C   UNL     1      11.585  10.883   1.749  1.00  0.00     0.135 A 
ATOM     88  C   UNL     1      13.360  10.217   3.223  1.00  0.00     0.135 A 
ATOM     89  F   UNL     1      10.695  10.611   0.782  1.00  0.00    -0.206 F 
ATOM     90  C   UNL     1      11.651  12.184   2.239  1.00  0.00     0.059 A 
ATOM     91  C   UNL     1      13.426  11.504   3.749  1.00  0.00     0.059 A 
ATOM     92  F   UNL     1      14.197   9.290   3.714  1.00  0.00    -0.206 F 
ATOM     93  C   UNL     1      12.573  12.483   3.244  1.00  0.00     0.060 A 
BRANCH  93  94
ATOM     94  S   UNL     1      12.617  14.165   3.902  1.00  0.00     0.124 S 
ATOM     95  O   UNL     1      13.189  14.905   2.783  1.00  0.00    -0.237 OA
ATOM     96  O   UNL     1      11.207  14.419   4.181  1.00  0.00    -0.237 OA
ATOM     97  O   UNL     1      13.470  14.043   5.080  1.00  0.00    -0.744 OA
ENDBRANCH  93  94
ENDBRANCH  61  86
BRANCH  73  98
ATOM     98  C   UNL     1      13.862   7.105  -4.045  1.00  0.00     0.058 A 
ATOM     99  C   UNL     1      15.168   7.566  -4.268  1.00  0.00     0.135 A 
ATOM    100  C   UNL     1      12.972   7.111  -5.133  1.00  0.00     0.135 A 
ATOM    101  F   UNL     1      16.058   7.590  -3.263  1.00  0.00    -0.206 F 
ATOM    102  C   UNL     1      15.576   8.014  -5.521  1.00  0.00     0.059 A 
ATOM    103  C   UNL     1      13.366   7.526  -6.400  1.00  0.00     0.059 A 
ATOM    104  F   UNL     1      11.712   6.672  -4.977  1.00  0.00    -0.206 F 
ATOM    105  C   UNL     1      14.671   7.978  -6.585  1.00  0.00     0.060 A 
BRANCH 105 106
ATOM    106  S   UNL     1      15.238   8.489  -8.221  1.00  0.00     0.124 S 
ATOM    107  O   UNL     1      15.376   9.931  -8.050  1.00  0.00    -0.237 OA
ATOM    108  O   UNL     1      16.486   7.745  -8.364  1.00  0.00    -0.237 OA
ATOM    109  O   UNL     1      14.157   8.062  -9.105  1.00  0.00    -0.744 OA
ENDBRANCH 105 106
ENDBRANCH  73  98
ENDBRANCH  47  48
ENDBRANCH  40  42
ENDBRANCH  39  40
ENDBRANCH  38  39
ENDBRANCH  37  38
ENDBRANCH  36  37
ENDBRANCH  35  36
ENDBRANCH   1  35
TORSDOF 24
