REMARK SMILES O=C(OCCOCCOCCOC(=O)c1ccc(-c2ccn(C(F)F)c(=O)c2)cc1O)c1ccc(-c2c3nc(c(-c4c(F)cc(S(=O)(=O)[O-])cc4F)c4ccc([nH]4)c(-c4c(F)cc(S(=O)(=O)[O-])cc4F)c4nc(c(-c5c(F)cc(S(=O)(=O)[O-])cc5F)c5ccc2[nH]5)C=C4)C=C3)cc1
REMARK SMILES IDX 7 1 6 2 5 3 4 4 3 5 2 6 1 7 32 8 33 9 97 10 34 11 96 12
REMARK SMILES IDX 35 13 36 14 37 15 90 16 38 17 95 18 89 19 91 20 39 21 94 22
REMARK SMILES IDX 88 23 87 24 40 26 74 27 53 28 73 29 54 30 57 31 72 32 92 33
REMARK SMILES IDX 55 34 56 35 71 37 93 38 58 39 41 40 42 41 51 42 43 43 44 44
REMARK SMILES IDX 50 45 52 46 45 47 46 48 47 49 48 50 49 51 75 52 76 53 85 54
REMARK SMILES IDX 77 55 78 56 84 57 86 58 79 59 80 60 81 61 82 62 83 63 59 64
REMARK SMILES IDX 60 65 69 66 61 67 62 68 68 69 70 70 63 71 64 72 65 73 66 74
REMARK SMILES IDX 67 75 8 76 9 77 10 78 11 79 12 80 13 81 14 82 15 83 16 84
REMARK SMILES IDX 30 85 17 86 29 87 18 88 31 89 19 91 20 92 28 93 21 94 26 95
REMARK SMILES IDX 22 96 27 97 23 98 24 99 25 100
REMARK H PARENT 91 25 57 36 31 90
REMARK Flexibility Score: inf
ROOT
ATOM      1  C   UNL     1       3.001   1.390   1.239  1.00  0.00     0.188 C 
ENDROOT
BRANCH   1   2
ATOM      2  O   UNL     1       4.354   1.077   0.977  1.00  0.00    -0.376 OA
BRANCH   2   3
ATOM      3  C   UNL     1       4.852   0.996  -0.343  1.00  0.00     0.202 C 
BRANCH   3   4
ATOM      4  C   UNL     1       4.111   0.185  -1.411  1.00  0.00     0.261 C 
BRANCH   4   5
ATOM      5  O   UNL     1       2.854  -0.374  -1.023  1.00  0.00    -0.460 OA
BRANCH   5   6
ATOM      6  C   UNL     1       2.799  -1.695  -0.716  1.00  0.00     0.338 C 
ATOM      7  O   UNL     1       2.084  -2.488  -1.308  1.00  0.00    -0.246 OA
BRANCH   6   8
ATOM      8  C   UNL     1       3.352  -1.987   0.625  1.00  0.00     0.060 A 
ATOM      9  C   UNL     1       2.457  -2.250   1.671  1.00  0.00     0.016 A 
ATOM     10  C   UNL     1       4.728  -1.993   0.854  1.00  0.00     0.016 A 
ATOM     11  C   UNL     1       2.943  -2.495   2.959  1.00  0.00     0.010 A 
ATOM     12  C   UNL     1       5.210  -2.192   2.145  1.00  0.00     0.010 A 
ATOM     13  C   UNL     1       4.324  -2.473   3.199  1.00  0.00    -0.014 A 
BRANCH  13  14
ATOM     14  C   UNL     1       4.885  -3.011   4.457  1.00  0.00     0.031 A 
ATOM     15  C   UNL     1       5.174  -2.158   5.651  1.00  0.00     0.074 A 
ATOM     16  C   UNL     1       5.229  -4.314   4.446  1.00  0.00     0.049 A 
ATOM     17  N   UNL     1       5.629  -2.530   6.819  1.00  0.00    -0.248 NA
ATOM     18  C   UNL     1       4.938  -0.713   5.528  1.00  0.00     0.031 C 
ATOM     19  C   UNL     1       5.041  -5.219   3.308  1.00  0.00     0.029 A 
ATOM     20  N   UNL     1       5.852  -5.086   5.387  1.00  0.00    -0.354 N 
ATOM     21  C   UNL     1       5.676  -1.382   7.596  1.00  0.00     0.074 A 
ATOM     22  C   UNL     1       5.280  -0.284   6.740  1.00  0.00     0.031 C 
ATOM     23  C   UNL     1       5.596  -6.405   3.595  1.00  0.00     0.029 A 
ATOM     24  C   UNL     1       6.153  -6.349   4.941  1.00  0.00     0.049 A 
ATOM     25  H   UNL     1       6.064  -4.769   6.295  1.00  0.00     0.167 HD
ATOM     26  C   UNL     1       5.995  -1.276   8.908  1.00  0.00     0.037 A 
ATOM     27  C   UNL     1       6.808  -7.355   5.546  1.00  0.00     0.037 A 
ATOM     28  C   UNL     1       6.459  -2.371   9.719  1.00  0.00     0.049 A 
ATOM     29  C   UNL     1       7.238  -7.187   6.971  1.00  0.00     0.074 A 
ATOM     30  C   UNL     1       6.745  -2.377  11.074  1.00  0.00     0.029 A 
ATOM     31  N   UNL     1       6.741  -3.643   9.245  1.00  0.00    -0.354 N 
ATOM     32  N   UNL     1       7.112  -6.136   7.745  1.00  0.00    -0.248 NA
ATOM     33  C   UNL     1       7.868  -8.343   7.619  1.00  0.00     0.031 C 
ATOM     34  C   UNL     1       7.257  -3.635  11.406  1.00  0.00     0.029 A 
ATOM     35  C   UNL     1       7.248  -4.426  10.268  1.00  0.00     0.049 A 
ATOM     36  H   UNL     1       6.602  -3.945   8.318  1.00  0.00     0.167 HD
ATOM     37  C   UNL     1       7.610  -6.516   8.983  1.00  0.00     0.074 A 
ATOM     38  C   UNL     1       8.049  -7.891   8.853  1.00  0.00     0.031 C 
ATOM     39  C   UNL     1       7.684  -5.792  10.125  1.00  0.00     0.037 A 
BRANCH  26  40
ATOM     40  C   UNL     1       5.802   0.046   9.591  1.00  0.00     0.058 A 
ATOM     41  C   UNL     1       4.521   0.443   9.999  1.00  0.00     0.135 A 
ATOM     42  C   UNL     1       6.891   0.839   9.982  1.00  0.00     0.135 A 
ATOM     43  F   UNL     1       3.446  -0.283   9.656  1.00  0.00    -0.206 F 
ATOM     44  C   UNL     1       4.320   1.589  10.758  1.00  0.00     0.059 A 
ATOM     45  C   UNL     1       6.717   1.984  10.757  1.00  0.00     0.059 A 
ATOM     46  F   UNL     1       8.139   0.492   9.633  1.00  0.00    -0.206 F 
ATOM     47  C   UNL     1       5.426   2.352  11.134  1.00  0.00     0.060 A 
BRANCH  47  48
ATOM     48  S   UNL     1       5.133   3.832  12.124  1.00  0.00     0.124 S 
ATOM     49  O   UNL     1       4.523   4.710  11.130  1.00  0.00    -0.237 OA
ATOM     50  O   UNL     1       4.236   3.338  13.164  1.00  0.00    -0.237 OA
ATOM     51  O   UNL     1       6.468   4.214  12.571  1.00  0.00    -0.744 OA
ENDBRANCH  47  48
ENDBRANCH  26  40
BRANCH  27  52
ATOM     52  C   UNL     1       7.029  -8.618   4.805  1.00  0.00     0.058 A 
ATOM     53  C   UNL     1       6.249  -9.750   5.072  1.00  0.00     0.135 A 
ATOM     54  C   UNL     1       7.966  -8.692   3.762  1.00  0.00     0.135 A 
ATOM     55  F   UNL     1       5.335  -9.718   6.054  1.00  0.00    -0.206 F 
ATOM     56  C   UNL     1       6.395 -10.920   4.337  1.00  0.00     0.059 A 
ATOM     57  C   UNL     1       8.118  -9.846   3.001  1.00  0.00     0.059 A 
ATOM     58  F   UNL     1       8.714  -7.621   3.451  1.00  0.00    -0.206 F 
ATOM     59  C   UNL     1       7.331 -10.957   3.301  1.00  0.00     0.060 A 
BRANCH  59  60
ATOM     60  S   UNL     1       7.471 -12.466   2.321  1.00  0.00     0.124 S 
ATOM     61  O   UNL     1       8.130 -13.366   3.261  1.00  0.00    -0.237 OA
ATOM     62  O   UNL     1       6.075 -12.767   2.019  1.00  0.00    -0.237 OA
ATOM     63  O   UNL     1       8.276 -12.050   1.176  1.00  0.00    -0.744 OA
ENDBRANCH  59  60
ENDBRANCH  27  52
BRANCH  39  64
ATOM     64  C   UNL     1       8.257  -6.463  11.338  1.00  0.00     0.058 A 
ATOM     65  C   UNL     1       9.638  -6.658  11.475  1.00  0.00     0.135 A 
ATOM     66  C   UNL     1       7.427  -6.821  12.413  1.00  0.00     0.135 A 
ATOM     67  F   UNL     1      10.469  -6.340  10.470  1.00  0.00    -0.206 F 
ATOM     68  C   UNL     1      10.181  -7.185  12.641  1.00  0.00     0.059 A 
ATOM     69  C   UNL     1       7.951  -7.329  13.597  1.00  0.00     0.059 A 
ATOM     70  F   UNL     1       6.099  -6.645  12.330  1.00  0.00    -0.206 F 
ATOM     71  C   UNL     1       9.330  -7.507  13.701  1.00  0.00     0.060 A 
BRANCH  71  72
ATOM     72  S   UNL     1      10.060  -8.112  15.236  1.00  0.00     0.124 S 
ATOM     73  O   UNL     1      10.473  -9.459  14.856  1.00  0.00    -0.237 OA
ATOM     74  O   UNL     1      11.140  -7.157  15.464  1.00  0.00    -0.237 OA
ATOM     75  O   UNL     1       8.957  -8.040  16.190  1.00  0.00    -0.744 OA
ENDBRANCH  71  72
ENDBRANCH  39  64
ENDBRANCH  13  14
ENDBRANCH   6   8
ENDBRANCH   5   6
ENDBRANCH   4   5
ENDBRANCH   3   4
ENDBRANCH   2   3
ENDBRANCH   1   2
BRANCH   1  76
ATOM     76  C   UNL     1       2.346   2.644   0.650  1.00  0.00     0.188 C 
BRANCH  76  77
ATOM     77  O   UNL     1       3.133   3.715   0.161  1.00  0.00    -0.376 OA
BRANCH  77  78
ATOM     78  C   UNL     1       4.267   4.153   0.895  1.00  0.00     0.202 C 
BRANCH  78  79
ATOM     79  C   UNL     1       4.097   4.631   2.335  1.00  0.00     0.261 C 
BRANCH  79  80
ATOM     80  O   UNL     1       3.697   3.596   3.243  1.00  0.00    -0.460 OA
BRANCH  80  81
ATOM     81  C   UNL     1       2.502   3.797   3.848  1.00  0.00     0.341 C 
ATOM     82  O   UNL     1       1.681   4.660   3.587  1.00  0.00    -0.246 OA
BRANCH  81  83
ATOM     83  C   UNL     1       2.224   2.720   4.809  1.00  0.00     0.101 A 
ATOM     84  C   UNL     1       1.149   1.861   4.541  1.00  0.00     0.020 A 
ATOM     85  C   UNL     1       2.885   2.661   6.034  1.00  0.00     0.130 A 
ATOM     86  C   UNL     1       0.717   0.957   5.514  1.00  0.00     0.010 A 
ATOM     87  C   UNL     1       2.438   1.775   7.011  1.00  0.00     0.055 A 
ATOM     88  C   UNL     1       1.338   0.935   6.768  1.00  0.00    -0.014 A 
BRANCH  85  89
ATOM     89  O   UNL     1       3.927   3.502   6.299  1.00  0.00    -0.507 OA
ATOM     90  H   UNL     1       4.228   4.098   5.641  1.00  0.00     0.293 HD
ENDBRANCH  85  89
BRANCH  88  91
ATOM     91  C   UNL     1       0.756   0.174   7.890  1.00  0.00    -0.011 A 
ATOM     92  C   UNL     1       0.237   0.865   9.057  1.00  0.00     0.027 A 
ATOM     93  C   UNL     1       0.702  -1.169   7.851  1.00  0.00     0.080 A 
ATOM     94  C   UNL     1      -0.239   0.182  10.101  1.00  0.00     0.095 A 
ATOM     95  C   UNL     1       0.107  -1.941   8.983  1.00  0.00     0.255 A 
ATOM     96  N   UNL     1      -0.290  -1.197  10.083  1.00  0.00    -0.258 N 
ATOM     97  O   UNL     1      -0.021  -3.156   8.863  1.00  0.00    -0.269 OA
BRANCH  96  98
ATOM     98  C   UNL     1      -0.810  -1.914  11.218  1.00  0.00     0.451 C 
ATOM     99  F   UNL     1      -1.986  -2.518  10.911  1.00  0.00    -0.185 F 
ATOM    100  F   UNL     1       0.049  -2.865  11.651  1.00  0.00    -0.185 F 
ENDBRANCH  96  98
ENDBRANCH  88  91
ENDBRANCH  81  83
ENDBRANCH  80  81
ENDBRANCH  79  80
ENDBRANCH  78  79
ENDBRANCH  77  78
ENDBRANCH  76  77
ENDBRANCH   1  76
TORSDOF 23
