REMARK SMILES Nc1c(CC(=O)OCCOCCOCCOC(=O)c2ccc(-c3c4nc(c(-c5c(F)cc(S(=O)(=O)[O-])cc5F)c5ccc([nH]5)c(-c5c(F)cc(S(=O)(=O)[O-])cc5F)c5nc(c(-c6c(F)cc(S(=O)(=O)[O-])cc6F)c6ccc3[nH]6)C=C5)C=C4)cc2)cccc1C(=O)c1ccc(Br)cc1
REMARK SMILES IDX 11 1 10 2 9 3 8 4 7 5 5 6 6 7 4 8 3 9 2 10 88 11 85 12 87 13
REMARK SMILES IDX 86 14 1 15 89 18 90 19 91 20 92 21 97 22 93 23 96 24 94 25
REMARK SMILES IDX 95 26 12 27 13 28 14 29 15 30 16 31 17 32 18 33 19 34 20 35
REMARK SMILES IDX 84 36 21 37 83 38 22 39 23 40 24 41 77 42 25 43 82 44 76 45
REMARK SMILES IDX 78 46 26 47 81 48 75 49 74 50 27 52 61 53 40 54 60 55 41 56
REMARK SMILES IDX 44 57 59 58 79 59 42 60 43 61 58 63 80 64 45 65 28 66 29 67
REMARK SMILES IDX 38 68 30 69 31 70 37 71 39 72 32 73 33 74 34 75 35 76 36 77
REMARK SMILES IDX 62 78 63 79 72 80 64 81 65 82 71 83 73 84 66 85 67 86 68 87
REMARK SMILES IDX 69 88 70 89 46 90 47 91 56 92 48 93 49 94 55 95 57 96 50 97
REMARK SMILES IDX 51 98 52 99 53 100 54 101
REMARK H PARENT 1 16 1 17 78 51 44 62
REMARK Flexibility Score: inf
ROOT
ATOM      1  C   UNL     1      -1.325  -4.241   1.821  1.00  0.00     0.188 C 
ENDROOT
BRANCH   1   2
ATOM      2  O   UNL     1      -0.753  -5.056   2.846  1.00  0.00    -0.376 OA
BRANCH   2   3
ATOM      3  C   UNL     1       0.154  -4.469   3.771  1.00  0.00     0.202 C 
BRANCH   3   4
ATOM      4  C   UNL     1       1.458  -3.923   3.180  1.00  0.00     0.261 C 
BRANCH   4   5
ATOM      5  O   UNL     1       1.236  -3.034   2.067  1.00  0.00    -0.463 OA
BRANCH   5   6
ATOM      6  C   UNL     1       2.040  -3.183   0.989  1.00  0.00     0.310 C 
ATOM      7  O   UNL     1       3.059  -3.868   0.987  1.00  0.00    -0.252 OA
BRANCH   6   8
ATOM      8  C   UNL     1       1.506  -2.553  -0.285  1.00  0.00     0.160 C 
BRANCH   8   9
ATOM      9  C   UNL     1       0.780  -1.217  -0.240  1.00  0.00    -0.013 A 
ATOM     10  C   UNL     1       1.396  -0.022   0.188  1.00  0.00     0.047 A 
ATOM     11  C   UNL     1       0.665   1.196   0.073  1.00  0.00     0.046 A 
ATOM     12  C   UNL     1      -0.537  -1.165  -0.744  1.00  0.00     0.006 A 
ATOM     13  C   UNL     1      -0.676   1.196  -0.340  1.00  0.00     0.014 A 
ATOM     14  C   UNL     1      -1.277   0.016  -0.749  1.00  0.00     0.001 A 
BRANCH  10  15
ATOM     15  N   UNL     1       2.686  -0.076   0.701  1.00  0.00    -0.398 N 
ATOM     16  H   UNL     1       3.156  -0.939   0.763  1.00  0.00     0.156 HD
ATOM     17  H   UNL     1       3.131   0.749   1.004  1.00  0.00     0.156 HD
ENDBRANCH  10  15
BRANCH  11  18
ATOM     18  C   UNL     1       1.256   2.552   0.292  1.00  0.00     0.195 C 
ATOM     19  O   UNL     1       0.577   3.476   0.731  1.00  0.00    -0.289 OA
BRANCH  18  20
ATOM     20  C   UNL     1       2.676   2.814  -0.032  1.00  0.00     0.023 A 
ATOM     21  C   UNL     1       3.451   3.483   0.921  1.00  0.00     0.013 A 
ATOM     22  C   UNL     1       3.263   2.308  -1.199  1.00  0.00     0.013 A 
ATOM     23  C   UNL     1       4.833   3.560   0.753  1.00  0.00     0.016 A 
ATOM     24  C   UNL     1       4.646   2.387  -1.363  1.00  0.00     0.016 A 
ATOM     25  C   UNL     1       5.426   2.991  -0.376  1.00  0.00     0.018 A 
ATOM     26  Br  UNL     1       7.308   3.005  -0.549  1.00  0.00    -0.051 Br
ENDBRANCH  18  20
ENDBRANCH  11  18
ENDBRANCH   8   9
ENDBRANCH   6   8
ENDBRANCH   5   6
ENDBRANCH   4   5
ENDBRANCH   3   4
ENDBRANCH   2   3
ENDBRANCH   1   2
BRANCH   1  27
ATOM     27  C   UNL     1      -1.580  -2.749   2.105  1.00  0.00     0.188 C 
BRANCH  27  28
ATOM     28  O   UNL     1      -1.852  -2.528   3.476  1.00  0.00    -0.376 OA
BRANCH  28  29
ATOM     29  C   UNL     1      -2.990  -1.748   3.763  1.00  0.00     0.202 C 
BRANCH  29  30
ATOM     30  C   UNL     1      -4.303  -2.521   3.610  1.00  0.00     0.261 C 
BRANCH  30  31
ATOM     31  O   UNL     1      -4.439  -3.317   2.418  1.00  0.00    -0.460 OA
BRANCH  31  32
ATOM     32  C   UNL     1      -4.727  -2.677   1.267  1.00  0.00     0.338 C 
ATOM     33  O   UNL     1      -4.821  -1.465   1.103  1.00  0.00    -0.246 OA
BRANCH  32  34
ATOM     34  C   UNL     1      -4.741  -3.676   0.179  1.00  0.00     0.060 A 
ATOM     35  C   UNL     1      -3.818  -3.578  -0.871  1.00  0.00     0.016 A 
ATOM     36  C   UNL     1      -5.680  -4.706   0.193  1.00  0.00     0.016 A 
ATOM     37  C   UNL     1      -3.837  -4.502  -1.921  1.00  0.00     0.010 A 
ATOM     38  C   UNL     1      -5.715  -5.615  -0.866  1.00  0.00     0.010 A 
ATOM     39  C   UNL     1      -4.811  -5.508  -1.939  1.00  0.00    -0.014 A 
BRANCH  39  40
ATOM     40  C   UNL     1      -5.035  -6.357  -3.136  1.00  0.00     0.031 A 
ATOM     41  C   UNL     1      -6.206  -6.031  -4.021  1.00  0.00     0.074 A 
ATOM     42  C   UNL     1      -4.270  -7.434  -3.393  1.00  0.00     0.049 A 
ATOM     43  N   UNL     1      -6.774  -6.753  -4.949  1.00  0.00    -0.248 NA
ATOM     44  C   UNL     1      -6.828  -4.712  -3.813  1.00  0.00     0.031 C 
ATOM     45  C   UNL     1      -3.065  -7.814  -2.659  1.00  0.00     0.029 A 
ATOM     46  N   UNL     1      -4.424  -8.430  -4.328  1.00  0.00    -0.354 N 
ATOM     47  C   UNL     1      -7.842  -5.993  -5.412  1.00  0.00     0.074 A 
ATOM     48  C   UNL     1      -7.847  -4.759  -4.657  1.00  0.00     0.031 C 
ATOM     49  C   UNL     1      -2.607  -8.980  -3.148  1.00  0.00     0.029 A 
ATOM     50  C   UNL     1      -3.521  -9.459  -4.185  1.00  0.00     0.049 A 
ATOM     51  H   UNL     1      -5.112  -8.409  -5.031  1.00  0.00     0.167 HD
ATOM     52  C   UNL     1      -8.740  -6.304  -6.377  1.00  0.00     0.037 A 
ATOM     53  C   UNL     1      -3.473 -10.667  -4.783  1.00  0.00     0.037 A 
ATOM     54  C   UNL     1      -8.721  -7.537  -7.118  1.00  0.00     0.049 A 
ATOM     55  C   UNL     1      -4.537 -11.035  -5.790  1.00  0.00     0.074 A 
ATOM     56  C   UNL     1      -9.585  -7.955  -8.114  1.00  0.00     0.029 A 
ATOM     57  N   UNL     1      -7.791  -8.551  -6.942  1.00  0.00    -0.354 N 
ATOM     58  N   UNL     1      -5.558 -10.324  -6.209  1.00  0.00    -0.248 NA
ATOM     59  C   UNL     1      -4.451 -12.371  -6.400  1.00  0.00     0.031 C 
ATOM     60  C   UNL     1      -9.210  -9.243  -8.503  1.00  0.00     0.029 A 
ATOM     61  C   UNL     1      -8.071  -9.601  -7.799  1.00  0.00     0.049 A 
ATOM     62  H   UNL     1      -7.044  -8.528  -6.302  1.00  0.00     0.167 HD
ATOM     63  C   UNL     1      -6.204 -11.106  -7.163  1.00  0.00     0.074 A 
ATOM     64  C   UNL     1      -5.467 -12.349  -7.252  1.00  0.00     0.031 C 
ATOM     65  C   UNL     1      -7.301 -10.816  -7.904  1.00  0.00     0.037 A 
BRANCH  52  66
ATOM     66  C   UNL     1      -9.840  -5.317  -6.655  1.00  0.00     0.058 A 
ATOM     67  C   UNL     1      -9.591  -4.084  -7.279  1.00  0.00     0.135 A 
ATOM     68  C   UNL     1     -11.170  -5.624  -6.322  1.00  0.00     0.135 A 
ATOM     69  F   UNL     1      -8.336  -3.729  -7.600  1.00  0.00    -0.206 F 
ATOM     70  C   UNL     1     -10.617  -3.180  -7.537  1.00  0.00     0.059 A 
ATOM     71  C   UNL     1     -12.215  -4.750  -6.600  1.00  0.00     0.059 A 
ATOM     72  F   UNL     1     -11.464  -6.788  -5.720  1.00  0.00    -0.206 F 
ATOM     73  C   UNL     1     -11.926  -3.523  -7.196  1.00  0.00     0.060 A 
BRANCH  73  74
ATOM     74  S   UNL     1     -13.244  -2.341  -7.543  1.00  0.00     0.124 S 
ATOM     75  O   UNL     1     -12.970  -1.301  -6.555  1.00  0.00    -0.237 OA
ATOM     76  O   UNL     1     -12.980  -1.979  -8.932  1.00  0.00    -0.237 OA
ATOM     77  O   UNL     1     -14.463  -3.112  -7.319  1.00  0.00    -0.744 OA
ENDBRANCH  73  74
ENDBRANCH  52  66
BRANCH  53  78
ATOM     78  C   UNL     1      -2.399 -11.637  -4.428  1.00  0.00     0.058 A 
ATOM     79  C   UNL     1      -1.413 -11.993  -5.360  1.00  0.00     0.135 A 
ATOM     80  C   UNL     1      -2.340 -12.233  -3.158  1.00  0.00     0.135 A 
ATOM     81  F   UNL     1      -1.433 -11.464  -6.593  1.00  0.00    -0.206 F 
ATOM     82  C   UNL     1      -0.416 -12.914  -5.052  1.00  0.00     0.059 A 
ATOM     83  C   UNL     1      -1.336 -13.134  -2.817  1.00  0.00     0.059 A 
ATOM     84  F   UNL     1      -3.256 -11.924  -2.226  1.00  0.00    -0.206 F 
ATOM     85  C   UNL     1      -0.383 -13.477  -3.775  1.00  0.00     0.060 A 
BRANCH  85  86
ATOM     86  S   UNL     1       0.941 -14.638  -3.376  1.00  0.00     0.124 S 
ATOM     87  O   UNL     1       0.559 -15.803  -4.167  1.00  0.00    -0.237 OA
ATOM     88  O   UNL     1       2.126 -13.918  -3.832  1.00  0.00    -0.237 OA
ATOM     89  O   UNL     1       0.828 -14.793  -1.929  1.00  0.00    -0.744 OA
ENDBRANCH  85  86
ENDBRANCH  53  78
BRANCH  65  90
ATOM     90  C   UNL     1      -7.742 -11.810  -8.944  1.00  0.00     0.058 A 
ATOM     91  C   UNL     1      -8.405 -12.998  -8.609  1.00  0.00     0.135 A 
ATOM     92  C   UNL     1      -7.607 -11.496 -10.308  1.00  0.00     0.135 A 
ATOM     93  F   UNL     1      -8.554 -13.350  -7.322  1.00  0.00    -0.206 F 
ATOM     94  C   UNL     1      -8.925 -13.840  -9.589  1.00  0.00     0.059 A 
ATOM     95  C   UNL     1      -8.142 -12.307 -11.302  1.00  0.00     0.059 A 
ATOM     96  F   UNL     1      -6.987 -10.365 -10.682  1.00  0.00    -0.206 F 
ATOM     97  C   UNL     1      -8.801 -13.478 -10.932  1.00  0.00     0.060 A 
BRANCH  97  98
ATOM     98  S   UNL     1      -9.564 -14.529 -12.187  1.00  0.00     0.124 S 
ATOM     99  O   UNL     1      -8.689 -15.696 -12.166  1.00  0.00    -0.237 OA
ATOM    100  O   UNL     1     -10.905 -14.733 -11.648  1.00  0.00    -0.237 OA
ATOM    101  O   UNL     1      -9.499 -13.717 -13.399  1.00  0.00    -0.744 OA
ENDBRANCH  97  98
ENDBRANCH  65  90
ENDBRANCH  39  40
ENDBRANCH  32  34
ENDBRANCH  31  32
ENDBRANCH  30  31
ENDBRANCH  29  30
ENDBRANCH  28  29
ENDBRANCH  27  28
ENDBRANCH   1  27
TORSDOF 24
