REMARK SMILES NS(=O)(=O)c1ccc(NS(=O)(=O)c2cccc(C(=O)OCCOCCOCCOC(=O)c3ccc(-c4c5nc(c(-c6c(F)cc(S(=O)(=O)[O-])cc6F)c6ccc([nH]6)c(-c6c(F)cc(S(=O)(=O)[O-])cc6F)c6nc(c(-c7c(F)cc(S(=O)(=O)[O-])cc7F)c7ccc4[nH]7)C=C6)C=C5)cc3)c2)cc1
REMARK SMILES IDX 24 1 23 2 22 3 21 4 20 5 18 6 19 7 17 8 13 9 14 10 98 11
REMARK SMILES IDX 15 12 16 13 10 14 11 15 12 16 9 17 8 19 5 20 6 21 100 22
REMARK SMILES IDX 7 23 99 24 2 25 3 26 4 27 1 28 25 31 26 32 27 33 28 34 29 35
REMARK SMILES IDX 30 36 31 37 32 38 33 39 97 40 34 41 96 42 35 43 36 44 37 45
REMARK SMILES IDX 90 46 38 47 95 48 89 49 91 50 39 51 94 52 88 53 87 54 40 56
REMARK SMILES IDX 74 57 53 58 73 59 54 60 57 61 72 62 92 63 55 64 56 65 71 67
REMARK SMILES IDX 93 68 58 69 41 70 42 71 51 72 43 73 44 74 50 75 52 76 45 77
REMARK SMILES IDX 46 78 47 79 48 80 49 81 75 82 76 83 85 84 77 85 78 86 84 87
REMARK SMILES IDX 86 88 79 89 80 90 81 91 82 92 83 93 59 94 60 95 69 96 61 97
REMARK SMILES IDX 62 98 68 99 70 100 63 101 64 102 65 103 66 104 67 105
REMARK H PARENT 9 18 1 29 1 30 91 55 57 66
REMARK Flexibility Score: inf
ROOT
ATOM      1  C   UNL     1       1.045 -10.693   0.545  1.00  0.00     0.188 C 
ENDROOT
BRANCH   1   2
ATOM      2  O   UNL     1       0.720 -12.068   0.718  1.00  0.00    -0.376 OA
BRANCH   2   3
ATOM      3  C   UNL     1       0.683 -12.934  -0.409  1.00  0.00     0.202 C 
BRANCH   3   4
ATOM      4  C   UNL     1      -0.116 -12.538  -1.663  1.00  0.00     0.261 C 
BRANCH   4   5
ATOM      5  O   UNL     1       0.066 -11.182  -2.114  1.00  0.00    -0.460 OA
BRANCH   5   6
ATOM      6  C   UNL     1      -1.047 -10.411  -2.057  1.00  0.00     0.338 C 
ATOM      7  O   UNL     1      -2.167 -10.788  -1.749  1.00  0.00    -0.246 OA
BRANCH   6   8
ATOM      8  C   UNL     1      -0.748  -8.971  -2.284  1.00  0.00     0.061 A 
ATOM      9  C   UNL     1       0.271  -7.109  -3.453  1.00  0.00     0.088 A 
ATOM     10  C   UNL     1      -0.586  -6.228  -2.782  1.00  0.00     0.022 A 
ATOM     11  C   UNL     1       0.185  -8.496  -3.221  1.00  0.00     0.038 A 
ATOM     12  C   UNL     1      -1.434  -6.696  -1.784  1.00  0.00     0.002 A 
ATOM     13  C   UNL     1      -1.516  -8.063  -1.539  1.00  0.00     0.016 A 
BRANCH   9  14
ATOM     14  S   UNL     1       1.326  -6.452  -4.731  1.00  0.00     0.261 S 
ATOM     15  O   UNL     1       0.511  -5.610  -5.581  1.00  0.00    -0.201 OA
ATOM     16  O   UNL     1       2.063  -7.561  -5.305  1.00  0.00    -0.201 OA
BRANCH  14  17
ATOM     17  N   UNL     1       2.510  -5.447  -4.017  1.00  0.00    -0.280 N 
ATOM     18  H   UNL     1       3.459  -5.556  -4.257  1.00  0.00     0.180 HD
BRANCH  17  19
ATOM     19  C   UNL     1       2.121  -4.445  -3.068  1.00  0.00     0.049 A 
ATOM     20  C   UNL     1       1.235  -2.597  -1.172  1.00  0.00     0.082 A 
ATOM     21  C   UNL     1       1.527  -3.907  -0.784  1.00  0.00     0.024 A 
ATOM     22  C   UNL     1       1.420  -2.192  -2.498  1.00  0.00     0.024 A 
ATOM     23  C   UNL     1       1.987  -4.822  -1.731  1.00  0.00     0.028 A 
ATOM     24  C   UNL     1       1.852  -3.126  -3.453  1.00  0.00     0.028 A 
BRANCH  20  25
ATOM     25  S   UNL     1       0.578  -1.482   0.038  1.00  0.00     0.238 S 
ATOM     26  O   UNL     1       0.975  -1.939   1.345  1.00  0.00    -0.207 OA
ATOM     27  O   UNL     1      -0.793  -1.200  -0.324  1.00  0.00    -0.207 OA
BRANCH  25  28
ATOM     28  N   UNL     1       1.432  -0.055  -0.210  1.00  0.00    -0.225 NA
ATOM     29  H   UNL     1       1.113   0.652   0.453  1.00  0.00     0.137 HD
ATOM     30  H   UNL     1       1.272   0.275  -1.162  1.00  0.00     0.137 HD
ENDBRANCH  25  28
ENDBRANCH  20  25
ENDBRANCH  17  19
ENDBRANCH  14  17
ENDBRANCH   9  14
ENDBRANCH   6   8
ENDBRANCH   5   6
ENDBRANCH   4   5
ENDBRANCH   3   4
ENDBRANCH   2   3
ENDBRANCH   1   2
BRANCH   1  31
ATOM     31  C   UNL     1       2.219 -10.291  -0.373  1.00  0.00     0.188 C 
BRANCH  31  32
ATOM     32  O   UNL     1       2.845 -11.388  -1.008  1.00  0.00    -0.376 OA
BRANCH  32  33
ATOM     33  C   UNL     1       4.131 -11.767  -0.545  1.00  0.00     0.202 C 
BRANCH  33  34
ATOM     34  C   UNL     1       4.367 -12.039   0.953  1.00  0.00     0.261 C 
BRANCH  34  35
ATOM     35  O   UNL     1       3.756 -11.138   1.889  1.00  0.00    -0.460 OA
BRANCH  35  36
ATOM     36  C   UNL     1       4.385  -9.962   2.113  1.00  0.00     0.338 C 
ATOM     37  O   UNL     1       5.401  -9.565   1.571  1.00  0.00    -0.246 OA
BRANCH  36  38
ATOM     38  C   UNL     1       3.528  -9.139   2.997  1.00  0.00     0.060 A 
ATOM     39  C   UNL     1       3.039  -7.922   2.510  1.00  0.00     0.016 A 
ATOM     40  C   UNL     1       3.225  -9.551   4.299  1.00  0.00     0.016 A 
ATOM     41  C   UNL     1       2.279  -7.094   3.338  1.00  0.00     0.010 A 
ATOM     42  C   UNL     1       2.471  -8.713   5.132  1.00  0.00     0.010 A 
ATOM     43  C   UNL     1       2.022  -7.464   4.666  1.00  0.00    -0.014 A 
BRANCH  43  44
ATOM     44  C   UNL     1       1.416  -6.469   5.588  1.00  0.00     0.031 A 
ATOM     45  C   UNL     1       2.315  -5.669   6.495  1.00  0.00     0.074 A 
ATOM     46  C   UNL     1       0.091  -6.229   5.575  1.00  0.00     0.049 A 
ATOM     47  N   UNL     1       2.014  -4.694   7.314  1.00  0.00    -0.248 NA
ATOM     48  C   UNL     1       3.745  -6.015   6.472  1.00  0.00     0.031 C 
ATOM     49  C   UNL     1      -0.885  -6.927   4.739  1.00  0.00     0.029 A 
ATOM     50  N   UNL     1      -0.659  -5.322   6.282  1.00  0.00    -0.354 N 
ATOM     51  C   UNL     1       3.215  -4.303   7.896  1.00  0.00     0.074 A 
ATOM     52  C   UNL     1       4.242  -5.176   7.368  1.00  0.00     0.031 C 
ATOM     53  C   UNL     1      -2.106  -6.417   4.978  1.00  0.00     0.029 A 
ATOM     54  C   UNL     1      -2.002  -5.370   5.993  1.00  0.00     0.049 A 
ATOM     55  H   UNL     1      -0.271  -4.697   6.936  1.00  0.00     0.167 HD
ATOM     56  C   UNL     1       3.446  -3.300   8.777  1.00  0.00     0.037 A 
ATOM     57  C   UNL     1      -3.028  -4.651   6.490  1.00  0.00     0.037 A 
ATOM     58  C   UNL     1       2.422  -2.437   9.308  1.00  0.00     0.049 A 
ATOM     59  C   UNL     1      -2.752  -3.566   7.499  1.00  0.00     0.074 A 
ATOM     60  C   UNL     1       2.558  -1.381  10.193  1.00  0.00     0.029 A 
ATOM     61  N   UNL     1       1.070  -2.535   9.013  1.00  0.00    -0.354 N 
ATOM     62  N   UNL     1      -1.606  -3.181   8.010  1.00  0.00    -0.248 NA
ATOM     63  C   UNL     1      -3.912  -2.806   7.989  1.00  0.00     0.031 C 
ATOM     64  C   UNL     1       1.284  -0.871  10.470  1.00  0.00     0.029 A 
ATOM     65  C   UNL     1       0.359  -1.574   9.716  1.00  0.00     0.049 A 
ATOM     66  H   UNL     1       0.673  -3.191   8.395  1.00  0.00     0.167 HD
ATOM     67  C   UNL     1      -1.903  -2.120   8.860  1.00  0.00     0.074 A 
ATOM     68  C   UNL     1      -3.335  -1.912   8.780  1.00  0.00     0.031 C 
ATOM     69  C   UNL     1      -1.068  -1.383   9.636  1.00  0.00     0.037 A 
BRANCH  56  70
ATOM     70  C   UNL     1       4.863  -3.094   9.237  1.00  0.00     0.058 A 
ATOM     71  C   UNL     1       5.848  -2.570   8.384  1.00  0.00     0.135 A 
ATOM     72  C   UNL     1       5.237  -3.400  10.556  1.00  0.00     0.135 A 
ATOM     73  F   UNL     1       5.552  -2.276   7.108  1.00  0.00    -0.206 F 
ATOM     74  C   UNL     1       7.158  -2.381   8.814  1.00  0.00     0.059 A 
ATOM     75  C   UNL     1       6.534  -3.194  11.015  1.00  0.00     0.059 A 
ATOM     76  F   UNL     1       4.336  -3.906  11.413  1.00  0.00    -0.206 F 
ATOM     77  C   UNL     1       7.492  -2.698  10.132  1.00  0.00     0.060 A 
BRANCH  77  78
ATOM     78  S   UNL     1       9.194  -2.443  10.676  1.00  0.00     0.124 S 
ATOM     79  O   UNL     1       9.883  -3.535   9.995  1.00  0.00    -0.237 OA
ATOM     80  O   UNL     1       9.485  -1.103  10.178  1.00  0.00    -0.237 OA
ATOM     81  O   UNL     1       9.110  -2.564  12.128  1.00  0.00    -0.744 OA
ENDBRANCH  77  78
ENDBRANCH  56  70
BRANCH  57  82
ATOM     82  C   UNL     1      -4.418  -4.926   6.035  1.00  0.00     0.058 A 
ATOM     83  C   UNL     1      -5.122  -4.007   5.244  1.00  0.00     0.135 A 
ATOM     84  C   UNL     1      -5.072  -6.116   6.392  1.00  0.00     0.135 A 
ATOM     85  F   UNL     1      -4.546  -2.848   4.889  1.00  0.00    -0.206 F 
ATOM     86  C   UNL     1      -6.430  -4.248   4.834  1.00  0.00     0.059 A 
ATOM     87  C   UNL     1      -6.370  -6.392   5.972  1.00  0.00     0.059 A 
ATOM     88  F   UNL     1      -4.440  -7.032   7.141  1.00  0.00    -0.206 F 
ATOM     89  C   UNL     1      -7.045  -5.447   5.201  1.00  0.00     0.060 A 
BRANCH  89  90
ATOM     90  S   UNL     1      -8.724  -5.774   4.623  1.00  0.00     0.124 S 
ATOM     91  O   UNL     1      -9.505  -4.874   5.463  1.00  0.00    -0.237 OA
ATOM     92  O   UNL     1      -8.637  -5.415   3.211  1.00  0.00    -0.237 OA
ATOM     93  O   UNL     1      -8.899  -7.198   4.889  1.00  0.00    -0.744 OA
ENDBRANCH  89  90
ENDBRANCH  57  82
BRANCH  69  94
ATOM     94  C   UNL     1      -1.683  -0.266  10.439  1.00  0.00     0.058 A 
ATOM     95  C   UNL     1      -2.515  -0.517  11.542  1.00  0.00     0.135 A 
ATOM     96  C   UNL     1      -1.434   1.075  10.101  1.00  0.00     0.135 A 
ATOM     97  F   UNL     1      -2.787  -1.779  11.909  1.00  0.00    -0.206 F 
ATOM     98  C   UNL     1      -3.120   0.518  12.248  1.00  0.00     0.059 A 
ATOM     99  C   UNL     1      -2.003   2.126  10.813  1.00  0.00     0.059 A 
ATOM    100  F   UNL     1      -0.631   1.375   9.068  1.00  0.00    -0.206 F 
ATOM    101  C   UNL     1      -2.865   1.838  11.870  1.00  0.00     0.060 A 
BRANCH 101 102
ATOM    102  S   UNL     1      -3.670   3.174  12.778  1.00  0.00     0.124 S 
ATOM    103  O   UNL     1      -5.028   3.111  12.249  1.00  0.00    -0.237 OA
ATOM    104  O   UNL     1      -3.510   2.753  14.167  1.00  0.00    -0.237 OA
ATOM    105  O   UNL     1      -2.901   4.355  12.396  1.00  0.00    -0.744 OA
ENDBRANCH 101 102
ENDBRANCH  69  94
ENDBRANCH  43  44
ENDBRANCH  36  38
ENDBRANCH  35  36
ENDBRANCH  34  35
ENDBRANCH  33  34
ENDBRANCH  32  33
ENDBRANCH  31  32
ENDBRANCH   1  31
TORSDOF 25
