REMARK SMILES COc1ccc([C@H]2CC(c3ccc(S(C)(=O)=O)cc3)=NN2c2ccc(C(=O)OCCOCCOCCOC(=O)c3ccc(-c4c5nc(c(-c6c(F)cc(S(=O)(=O)[O-])cc6F)c6ccc([nH]6)c(-c6c(F)cc(S(=O)(=O)[O-])cc6F)c6nc(c(-c7c(F)cc(S(=O)(=O)[O-])cc7F)c7ccc4[nH]7)C=C6)C=C5)cc3)cc2)cc1OC
REMARK SMILES IDX 32 1 31 2 30 3 29 4 28 5 26 6 27 7 25 8 22 9 23 10 107 11
REMARK SMILES IDX 24 12 106 13 21 14 7 15 8 16 9 17 20 18 6 19 3 20 4 21
REMARK SMILES IDX 109 22 5 23 108 24 2 25 1 26 110 27 111 28 10 29 11 30 19 31
REMARK SMILES IDX 12 32 18 33 13 34 14 35 15 36 16 37 17 38 33 39 34 40 35 41
REMARK SMILES IDX 36 42 37 43 38 44 39 45 40 46 41 47 105 48 42 49 104 50
REMARK SMILES IDX 43 51 44 52 45 53 98 54 46 55 103 56 97 57 99 58 47 59
REMARK SMILES IDX 102 60 96 61 95 62 48 64 82 65 61 66 81 67 62 68 65 69 80 70
REMARK SMILES IDX 100 71 63 72 64 73 79 75 101 76 66 77 49 78 50 79 59 80
REMARK SMILES IDX 51 81 52 82 58 83 60 84 53 85 54 86 55 87 56 88 57 89 83 90
REMARK SMILES IDX 84 91 93 92 85 93 86 94 92 95 94 96 87 97 88 98 89 99 90 100
REMARK SMILES IDX 91 101 67 102 68 103 77 104 69 105 70 106 76 107 78 108
REMARK SMILES IDX 71 109 72 110 73 111 74 112 75 113
REMARK H PARENT 99 63 65 74
REMARK Flexibility Score: inf
ROOT
ATOM      1  C   UNL     1       4.657   5.616   8.884  1.00  0.00     0.188 C 
ENDROOT
BRANCH   1   2
ATOM      2  O   UNL     1       4.296   6.960   9.105  1.00  0.00    -0.376 OA
BRANCH   2   3
ATOM      3  C   UNL     1       2.959   7.393   8.931  1.00  0.00     0.202 C 
BRANCH   3   4
ATOM      4  C   UNL     1       1.818   6.585   8.283  1.00  0.00     0.261 C 
BRANCH   4   5
ATOM      5  O   UNL     1       1.942   5.162   8.236  1.00  0.00    -0.460 OA
BRANCH   5   6
ATOM      6  C   UNL     1       2.179   4.646   7.002  1.00  0.00     0.338 C 
ATOM      7  O   UNL     1       2.283   5.272   5.961  1.00  0.00    -0.246 OA
BRANCH   6   8
ATOM      8  C   UNL     1       2.455   3.196   7.102  1.00  0.00     0.060 A 
ATOM      9  C   UNL     1       2.946   0.426   7.085  1.00  0.00     0.060 A 
ATOM     10  C   UNL     1       3.833   1.311   6.458  1.00  0.00     0.029 A 
ATOM     11  C   UNL     1       1.859   0.964   7.794  1.00  0.00     0.029 A 
ATOM     12  C   UNL     1       3.574   2.685   6.436  1.00  0.00     0.018 A 
ATOM     13  C   UNL     1       1.621   2.342   7.824  1.00  0.00     0.018 A 
BRANCH   9  14
ATOM     14  N   UNL     1       3.081  -0.951   6.936  1.00  0.00    -0.257 N 
ATOM     15  C   UNL     1       2.078  -1.757   6.231  1.00  0.00     0.144 C 
ATOM     16  C   UNL     1       2.740  -3.138   6.179  1.00  0.00     0.091 C 
ATOM     17  C   UNL     1       4.094  -2.811   6.749  1.00  0.00     0.071 C 
ATOM     18  N   UNL     1       4.264  -1.590   7.152  1.00  0.00    -0.176 NA
BRANCH  15  19
ATOM     19  C   UNL     1       1.736  -1.213   4.848  1.00  0.00    -0.019 A 
ATOM     20  C   UNL     1       1.135  -0.095   2.320  1.00  0.00     0.160 A 
ATOM     21  C   UNL     1       0.148  -0.196   3.309  1.00  0.00     0.051 A 
ATOM     22  C   UNL     1       2.429  -0.555   2.580  1.00  0.00     0.161 A 
ATOM     23  C   UNL     1       0.443  -0.757   4.559  1.00  0.00     0.010 A 
ATOM     24  C   UNL     1       2.712  -1.101   3.843  1.00  0.00     0.056 A 
BRANCH  20  25
ATOM     25  O   UNL     1       0.834   0.620   1.192  1.00  0.00    -0.493 OA
ATOM     26  C   UNL     1       0.094  -0.135   0.235  1.00  0.00     0.278 C 
ENDBRANCH  20  25
BRANCH  22  27
ATOM     27  O   UNL     1       3.531  -0.518   1.772  1.00  0.00    -0.493 OA
ATOM     28  C   UNL     1       3.350  -0.298   0.383  1.00  0.00     0.278 C 
ENDBRANCH  22  27
ENDBRANCH  15  19
BRANCH  17  29
ATOM     29  C   UNL     1       5.101  -3.873   6.896  1.00  0.00    -0.002 A 
ATOM     30  C   UNL     1       5.578  -4.182   8.174  1.00  0.00     0.011 A 
ATOM     31  C   UNL     1       5.521  -4.607   5.783  1.00  0.00     0.011 A 
ATOM     32  C   UNL     1       6.463  -5.250   8.347  1.00  0.00     0.021 A 
ATOM     33  C   UNL     1       6.425  -5.661   5.949  1.00  0.00     0.021 A 
ATOM     34  C   UNL     1       6.888  -5.979   7.230  1.00  0.00     0.067 A 
BRANCH  34  35
ATOM     35  S   UNL     1       7.978  -7.367   7.463  1.00  0.00     0.175 S 
ATOM     36  C   UNL     1       9.475  -6.660   8.099  1.00  0.00     0.163 C 
ATOM     37  O   UNL     1       7.381  -8.192   8.497  1.00  0.00    -0.224 OA
ATOM     38  O   UNL     1       8.268  -7.923   6.154  1.00  0.00    -0.224 OA
ENDBRANCH  34  35
ENDBRANCH  17  29
ENDBRANCH   9  14
ENDBRANCH   6   8
ENDBRANCH   5   6
ENDBRANCH   4   5
ENDBRANCH   3   4
ENDBRANCH   2   3
ENDBRANCH   1   2
BRANCH   1  39
ATOM     39  C   UNL     1       4.245   4.578   9.947  1.00  0.00     0.188 C 
BRANCH  39  40
ATOM     40  O   UNL     1       3.385   4.956  11.003  1.00  0.00    -0.376 OA
BRANCH  40  41
ATOM     41  C   UNL     1       3.783   5.955  11.926  1.00  0.00     0.202 C 
BRANCH  41  42
ATOM     42  C   UNL     1       5.240   6.254  12.328  1.00  0.00     0.261 C 
BRANCH  42  43
ATOM     43  O   UNL     1       6.258   6.027  11.351  1.00  0.00    -0.460 OA
BRANCH  43  44
ATOM     44  C   UNL     1       7.052   4.953  11.575  1.00  0.00     0.338 C 
ATOM     45  O   UNL     1       6.977   4.159  12.504  1.00  0.00    -0.246 OA
BRANCH  44  46
ATOM     46  C   UNL     1       7.952   4.774  10.425  1.00  0.00     0.060 A 
ATOM     47  C   UNL     1       7.773   3.662   9.589  1.00  0.00     0.016 A 
ATOM     48  C   UNL     1       8.989   5.678  10.193  1.00  0.00     0.016 A 
ATOM     49  C   UNL     1       8.643   3.446   8.521  1.00  0.00     0.010 A 
ATOM     50  C   UNL     1       9.872   5.446   9.137  1.00  0.00     0.010 A 
ATOM     51  C   UNL     1       9.719   4.317   8.311  1.00  0.00    -0.014 A 
BRANCH  51  52
ATOM     52  C   UNL     1      10.780   3.966   7.337  1.00  0.00     0.031 A 
ATOM     53  C   UNL     1      12.054   3.353   7.850  1.00  0.00     0.074 A 
ATOM     54  C   UNL     1      10.617   4.188   6.021  1.00  0.00     0.049 A 
ATOM     55  N   UNL     1      13.143   3.033   7.201  1.00  0.00    -0.248 NA
ATOM     56  C   UNL     1      12.105   3.068   9.293  1.00  0.00     0.031 C 
ATOM     57  C   UNL     1       9.412   4.732   5.399  1.00  0.00     0.029 A 
ATOM     58  N   UNL     1      11.480   3.991   4.972  1.00  0.00    -0.354 N 
ATOM     59  C   UNL     1      14.013   2.518   8.155  1.00  0.00     0.074 A 
ATOM     60  C   UNL     1      13.337   2.601   9.432  1.00  0.00     0.031 C 
ATOM     61  C   UNL     1       9.617   4.838   4.074  1.00  0.00     0.029 A 
ATOM     62  C   UNL     1      10.978   4.405   3.761  1.00  0.00     0.049 A 
ATOM     63  H   UNL     1      12.374   3.591   5.076  1.00  0.00     0.167 HD
ATOM     64  C   UNL     1      15.259   2.016   7.982  1.00  0.00     0.037 A 
ATOM     65  C   UNL     1      11.561   4.452   2.546  1.00  0.00     0.037 A 
ATOM     66  C   UNL     1      15.930   1.951   6.709  1.00  0.00     0.049 A 
ATOM     67  C   UNL     1      12.982   3.971   2.389  1.00  0.00     0.074 A 
ATOM     68  C   UNL     1      17.188   1.451   6.423  1.00  0.00     0.029 A 
ATOM     69  N   UNL     1      15.404   2.416   5.511  1.00  0.00    -0.354 N 
ATOM     70  N   UNL     1      13.789   3.466   3.293  1.00  0.00    -0.248 NA
ATOM     71  C   UNL     1      13.571   4.065   1.046  1.00  0.00     0.031 C 
ATOM     72  C   UNL     1      17.446   1.667   5.066  1.00  0.00     0.029 A 
ATOM     73  C   UNL     1      16.324   2.241   4.489  1.00  0.00     0.049 A 
ATOM     74  H   UNL     1      14.509   2.811   5.403  1.00  0.00     0.167 HD
ATOM     75  C   UNL     1      14.968   3.154   2.622  1.00  0.00     0.074 A 
ATOM     76  C   UNL     1      14.765   3.520   1.235  1.00  0.00     0.031 C 
ATOM     77  C   UNL     1      16.111   2.607   3.109  1.00  0.00     0.037 A 
BRANCH  64  78
ATOM     78  C   UNL     1      15.987   1.535   9.209  1.00  0.00     0.058 A 
ATOM     79  C   UNL     1      15.579   0.390   9.912  1.00  0.00     0.135 A 
ATOM     80  C   UNL     1      17.110   2.229   9.687  1.00  0.00     0.135 A 
ATOM     81  F   UNL     1      14.504  -0.306   9.510  1.00  0.00    -0.206 F 
ATOM     82  C   UNL     1      16.231  -0.024  11.070  1.00  0.00     0.059 A 
ATOM     83  C   UNL     1      17.798   1.814  10.824  1.00  0.00     0.059 A 
ATOM     84  F   UNL     1      17.546   3.330   9.055  1.00  0.00    -0.206 F 
ATOM     85  C   UNL     1      17.338   0.698  11.520  1.00  0.00     0.060 A 
BRANCH  85  86
ATOM     86  S   UNL     1      18.158   0.161  13.036  1.00  0.00     0.124 S 
ATOM     87  O   UNL     1      17.174   0.535  14.047  1.00  0.00    -0.237 OA
ATOM     88  O   UNL     1      18.320  -1.272  12.811  1.00  0.00    -0.237 OA
ATOM     89  O   UNL     1      19.395   0.935  13.047  1.00  0.00    -0.744 OA
ENDBRANCH  85  86
ENDBRANCH  64  78
BRANCH  65  90
ATOM     90  C   UNL     1      10.799   4.974   1.379  1.00  0.00     0.058 A 
ATOM     91  C   UNL     1      10.396   4.122   0.341  1.00  0.00     0.135 A 
ATOM     92  C   UNL     1      10.445   6.329   1.285  1.00  0.00     0.135 A 
ATOM     93  F   UNL     1      10.724   2.821   0.376  1.00  0.00    -0.206 F 
ATOM     94  C   UNL     1       9.673   4.593  -0.750  1.00  0.00     0.059 A 
ATOM     95  C   UNL     1       9.700   6.819   0.217  1.00  0.00     0.059 A 
ATOM     96  F   UNL     1      10.804   7.187   2.253  1.00  0.00    -0.206 F 
ATOM     97  C   UNL     1       9.322   5.943  -0.799  1.00  0.00     0.060 A 
BRANCH  97  98
ATOM     98  S   UNL     1       8.331   6.527  -2.191  1.00  0.00     0.124 S 
ATOM     99  O   UNL     1       9.290   6.457  -3.287  1.00  0.00    -0.237 OA
ATOM    100  O   UNL     1       7.249   5.548  -2.227  1.00  0.00    -0.237 OA
ATOM    101  O   UNL     1       7.937   7.873  -1.784  1.00  0.00    -0.744 OA
ENDBRANCH  97  98
ENDBRANCH  65  90
BRANCH  77 102
ATOM    102  C   UNL     1      17.226   2.330   2.134  1.00  0.00     0.058 A 
ATOM    103  C   UNL     1      17.983   3.362   1.557  1.00  0.00     0.135 A 
ATOM    104  C   UNL     1      17.581   1.007   1.820  1.00  0.00     0.135 A 
ATOM    105  F   UNL     1      17.685   4.645   1.815  1.00  0.00    -0.206 F 
ATOM    106  C   UNL     1      19.037   3.093   0.688  1.00  0.00     0.059 A 
ATOM    107  C   UNL     1      18.650   0.714   0.980  1.00  0.00     0.059 A 
ATOM    108  F   UNL     1      16.898  -0.020   2.352  1.00  0.00    -0.206 F 
ATOM    109  C   UNL     1      19.366   1.765   0.409  1.00  0.00     0.060 A 
BRANCH 109 110
ATOM    110  S   UNL     1      20.761   1.430  -0.688  1.00  0.00     0.124 S 
ATOM    111  O   UNL     1      20.220   1.826  -1.983  1.00  0.00    -0.237 OA
ATOM    112  O   UNL     1      21.801   2.297  -0.143  1.00  0.00    -0.237 OA
ATOM    113  O   UNL     1      20.994  -0.001  -0.517  1.00  0.00    -0.744 OA
ENDBRANCH 109 110
ENDBRANCH  77 102
ENDBRANCH  51  52
ENDBRANCH  44  46
ENDBRANCH  43  44
ENDBRANCH  42  43
ENDBRANCH  41  42
ENDBRANCH  40  41
ENDBRANCH  39  40
ENDBRANCH   1  39
TORSDOF 26
