REMARK SMILES COc1ccc(-c2[nH]nc3nc(-c4ccc(C(F)(F)F)cc4)cc(C(=O)OCCOCCOCCOC(=O)c4ccc(-c5c6nc(c(-c7c(F)cc(S(=O)(=O)[O-])cc7F)c7ccc([nH]7)c(-c7c(F)cc(S(=O)(=O)[O-])cc7F)c7nc(c(-c8c(F)cc(S(=O)(=O)[O-])cc8F)c8ccc5[nH]8)C=C7)C=C6)cc4)c23)cc1
REMARK SMILES IDX 32 1 31 2 30 3 29 4 28 5 27 6 25 7 26 8 24 9 7 10 8 11
REMARK SMILES IDX 105 12 9 13 10 15 11 16 23 17 12 18 6 19 3 20 4 21 107 22
REMARK SMILES IDX 5 23 106 24 2 25 1 26 13 27 14 28 22 29 15 30 21 31 16 32
REMARK SMILES IDX 17 33 18 34 19 35 20 36 33 37 34 38 35 39 36 40 37 41 38 42
REMARK SMILES IDX 39 43 40 44 104 45 41 46 103 47 42 48 43 49 44 50 97 51
REMARK SMILES IDX 45 52 102 53 96 54 98 55 46 56 101 57 95 58 94 59 47 61
REMARK SMILES IDX 81 62 60 63 80 64 61 65 64 66 79 67 99 68 62 69 63 70 78 72
REMARK SMILES IDX 100 73 65 74 48 75 49 76 58 77 50 78 51 79 57 80 59 81 52 82
REMARK SMILES IDX 53 83 54 84 55 85 56 86 82 87 83 88 92 89 84 90 85 91 91 92
REMARK SMILES IDX 93 93 86 94 87 95 88 96 89 97 90 98 66 99 67 100 76 101
REMARK SMILES IDX 68 102 69 103 75 104 77 105 70 106 71 107 72 108 73 109
REMARK SMILES IDX 74 110
REMARK H PARENT 8 14 98 60 64 71
REMARK Flexibility Score: inf
ROOT
ATOM      1  C   UNL     1       5.804  -1.148   4.344  1.00  0.00     0.188 C 
ENDROOT
BRANCH   1   2
ATOM      2  C   UNL     1       4.727  -0.152   4.700  1.00  0.00     0.188 C 
BRANCH   2   3
ATOM      3  O   UNL     1       4.511   0.945   3.829  1.00  0.00    -0.376 OA
BRANCH   3   4
ATOM      4  C   UNL     1       3.506   1.866   4.279  1.00  0.00     0.202 C 
BRANCH   4   5
ATOM      5  C   UNL     1       3.383   2.186   5.796  1.00  0.00     0.261 C 
BRANCH   5   6
ATOM      6  O   UNL     1       3.478   1.067   6.711  1.00  0.00    -0.460 OA
BRANCH   6   7
ATOM      7  C   UNL     1       2.483   0.140   6.731  1.00  0.00     0.339 C 
ATOM      8  O   UNL     1       1.355   0.330   6.359  1.00  0.00    -0.246 OA
BRANCH   7   9
ATOM      9  C   UNL     1       3.063  -1.156   7.202  1.00  0.00     0.075 A 
ATOM     10  C   UNL     1       1.831  -2.865   5.788  1.00  0.00     0.075 A 
ATOM     11  N   UNL     1       1.763  -4.234   5.928  1.00  0.00    -0.275 N 
ATOM     12  C   UNL     1       2.643  -2.446   6.832  1.00  0.00     0.061 A 
ATOM     13  N   UNL     1       2.583  -4.742   6.859  1.00  0.00    -0.154 NA
ATOM     14  H   UNL     1       1.161  -4.795   5.387  1.00  0.00     0.190 HD
ATOM     15  C   UNL     1       3.187  -3.668   7.362  1.00  0.00     0.182 A 
ATOM     16  N   UNL     1       4.217  -3.694   8.238  1.00  0.00    -0.226 NA
ATOM     17  C   UNL     1       4.179  -1.232   8.070  1.00  0.00     0.045 A 
ATOM     18  C   UNL     1       4.713  -2.466   8.546  1.00  0.00     0.074 A 
BRANCH  10  19
ATOM     19  C   UNL     1       1.306  -2.236   4.584  1.00  0.00     0.001 A 
ATOM     20  C   UNL     1       0.439  -0.922   2.252  1.00  0.00     0.118 A 
ATOM     21  C   UNL     1      -0.335  -0.902   3.417  1.00  0.00     0.047 A 
ATOM     22  C   UNL     1       1.618  -1.661   2.235  1.00  0.00     0.047 A 
ATOM     23  C   UNL     1       0.088  -1.563   4.575  1.00  0.00     0.014 A 
ATOM     24  C   UNL     1       2.045  -2.319   3.393  1.00  0.00     0.014 A 
BRANCH  20  25
ATOM     25  O   UNL     1      -0.058  -0.178   1.218  1.00  0.00    -0.497 OA
ATOM     26  C   UNL     1       0.750  -0.077   0.050  1.00  0.00     0.278 C 
ENDBRANCH  20  25
ENDBRANCH  10  19
BRANCH  18  27
ATOM     27  C   UNL     1       5.856  -2.500   9.494  1.00  0.00     0.000 A 
ATOM     28  C   UNL     1       6.860  -3.486   9.413  1.00  0.00     0.011 A 
ATOM     29  C   UNL     1       5.947  -1.579  10.551  1.00  0.00     0.011 A 
ATOM     30  C   UNL     1       7.901  -3.552  10.354  1.00  0.00     0.014 A 
ATOM     31  C   UNL     1       6.980  -1.644  11.493  1.00  0.00     0.014 A 
ATOM     32  C   UNL     1       7.966  -2.634  11.411  1.00  0.00     0.056 A 
BRANCH  32  33
ATOM     33  C   UNL     1       9.059  -2.725  12.448  1.00  0.00     0.416 C 
ATOM     34  F   UNL     1       9.044  -3.905  13.128  1.00  0.00    -0.166 F 
ATOM     35  F   UNL     1      10.307  -2.614  11.916  1.00  0.00    -0.166 F 
ATOM     36  F   UNL     1       8.979  -1.752  13.402  1.00  0.00    -0.166 F 
ENDBRANCH  32  33
ENDBRANCH  18  27
ENDBRANCH   7   9
ENDBRANCH   6   7
ENDBRANCH   5   6
ENDBRANCH   4   5
ENDBRANCH   3   4
ENDBRANCH   2   3
ENDBRANCH   1   2
BRANCH   1  37
ATOM     37  O   UNL     1       7.125  -0.608   4.347  1.00  0.00    -0.376 OA
BRANCH  37  38
ATOM     38  C   UNL     1       7.330   0.632   3.673  1.00  0.00     0.202 C 
BRANCH  38  39
ATOM     39  C   UNL     1       7.283   0.612   2.148  1.00  0.00     0.261 C 
BRANCH  39  40
ATOM     40  O   UNL     1       6.264  -0.218   1.618  1.00  0.00    -0.460 OA
BRANCH  40  41
ATOM     41  C   UNL     1       6.646  -1.511   1.496  1.00  0.00     0.338 C 
ATOM     42  O   UNL     1       7.661  -2.033   1.926  1.00  0.00    -0.246 OA
BRANCH  41  43
ATOM     43  C   UNL     1       5.670  -2.214   0.661  1.00  0.00     0.060 A 
ATOM     44  C   UNL     1       5.878  -3.588   0.523  1.00  0.00     0.016 A 
ATOM     45  C   UNL     1       4.965  -1.452  -0.279  1.00  0.00     0.016 A 
ATOM     46  C   UNL     1       5.694  -4.126  -0.724  1.00  0.00     0.010 A 
ATOM     47  C   UNL     1       4.810  -1.984  -1.528  1.00  0.00     0.010 A 
ATOM     48  C   UNL     1       5.293  -3.270  -1.753  1.00  0.00    -0.014 A 
BRANCH  48  49
ATOM     49  C   UNL     1       5.340  -3.765  -3.105  1.00  0.00     0.031 A 
ATOM     50  C   UNL     1       4.178  -4.619  -3.405  1.00  0.00     0.074 A 
ATOM     51  C   UNL     1       6.287  -3.380  -3.980  1.00  0.00     0.049 A 
ATOM     52  N   UNL     1       4.149  -5.907  -3.469  1.00  0.00    -0.248 NA
ATOM     53  C   UNL     1       2.848  -3.987  -3.364  1.00  0.00     0.031 C 
ATOM     54  C   UNL     1       7.303  -2.332  -3.839  1.00  0.00     0.029 A 
ATOM     55  N   UNL     1       6.476  -3.812  -5.252  1.00  0.00    -0.354 N 
ATOM     56  C   UNL     1       2.828  -6.216  -3.761  1.00  0.00     0.074 A 
ATOM     57  C   UNL     1       2.056  -5.057  -3.406  1.00  0.00     0.031 C 
ATOM     58  C   UNL     1       7.837  -2.062  -5.056  1.00  0.00     0.029 A 
ATOM     59  C   UNL     1       7.305  -3.004  -6.026  1.00  0.00     0.049 A 
ATOM     60  H   UNL     1       6.060  -4.633  -5.601  1.00  0.00     0.167 HD
ATOM     61  C   UNL     1       2.525  -7.261  -4.577  1.00  0.00     0.037 A 
ATOM     62  C   UNL     1       7.443  -3.094  -7.376  1.00  0.00     0.037 A 
ATOM     63  C   UNL     1       3.640  -8.172  -4.686  1.00  0.00     0.049 A 
ATOM     64  C   UNL     1       6.967  -4.456  -7.761  1.00  0.00     0.074 A 
ATOM     65  C   UNL     1       4.383  -8.902  -3.777  1.00  0.00     0.029 A 
ATOM     66  N   UNL     1       4.402  -8.114  -5.830  1.00  0.00    -0.354 N 
ATOM     67  N   UNL     1       7.580  -5.558  -7.419  1.00  0.00    -0.248 NA
ATOM     68  C   UNL     1       5.555  -4.606  -8.088  1.00  0.00     0.031 C 
ATOM     69  C   UNL     1       5.727  -8.826  -4.248  1.00  0.00     0.029 A 
ATOM     70  C   UNL     1       5.722  -8.122  -5.453  1.00  0.00     0.049 A 
ATOM     71  H   UNL     1       4.062  -8.075  -6.753  1.00  0.00     0.167 HD
ATOM     72  C   UNL     1       6.566  -6.445  -7.085  1.00  0.00     0.074 A 
ATOM     73  C   UNL     1       5.337  -5.820  -7.574  1.00  0.00     0.031 C 
ATOM     74  C   UNL     1       6.774  -7.454  -6.189  1.00  0.00     0.037 A 
BRANCH  61  75
ATOM     75  C   UNL     1       1.393  -7.229  -5.576  1.00  0.00     0.058 A 
ATOM     76  C   UNL     1       1.073  -8.407  -6.277  1.00  0.00     0.135 A 
ATOM     77  C   UNL     1       0.791  -6.046  -6.071  1.00  0.00     0.135 A 
ATOM     78  F   UNL     1       1.592  -9.587  -5.901  1.00  0.00    -0.206 F 
ATOM     79  C   UNL     1       0.278  -8.400  -7.423  1.00  0.00     0.059 A 
ATOM     80  C   UNL     1      -0.051  -6.027  -7.174  1.00  0.00     0.059 A 
ATOM     81  F   UNL     1       1.058  -4.831  -5.581  1.00  0.00    -0.206 F 
ATOM     82  C   UNL     1      -0.267  -7.201  -7.869  1.00  0.00     0.060 A 
BRANCH  82  83
ATOM     83  S   UNL     1      -1.214  -7.168  -9.397  1.00  0.00     0.124 S 
ATOM     84  O   UNL     1      -0.176  -7.438 -10.385  1.00  0.00    -0.237 OA
ATOM     85  O   UNL     1      -2.182  -8.236  -9.172  1.00  0.00    -0.237 OA
ATOM     86  O   UNL     1      -1.771  -5.818  -9.417  1.00  0.00    -0.744 OA
ENDBRANCH  82  83
ENDBRANCH  61  75
BRANCH  62  87
ATOM     87  C   UNL     1       7.564  -1.995  -8.375  1.00  0.00     0.058 A 
ATOM     88  C   UNL     1       7.849  -2.276  -9.726  1.00  0.00     0.135 A 
ATOM     89  C   UNL     1       7.101  -0.692  -8.102  1.00  0.00     0.135 A 
ATOM     90  F   UNL     1       8.287  -3.494 -10.082  1.00  0.00    -0.206 F 
ATOM     91  C   UNL     1       7.618  -1.351 -10.751  1.00  0.00     0.059 A 
ATOM     92  C   UNL     1       6.872   0.250  -9.106  1.00  0.00     0.059 A 
ATOM     93  F   UNL     1       6.762  -0.324  -6.858  1.00  0.00    -0.206 F 
ATOM     94  C   UNL     1       7.100  -0.096 -10.432  1.00  0.00     0.060 A 
BRANCH  94  95
ATOM     95  S   UNL     1       6.601   1.026 -11.762  1.00  0.00     0.124 S 
ATOM     96  O   UNL     1       7.888   1.422 -12.323  1.00  0.00    -0.237 OA
ATOM     97  O   UNL     1       5.778   0.163 -12.602  1.00  0.00    -0.237 OA
ATOM     98  O   UNL     1       5.876   2.081 -11.059  1.00  0.00    -0.744 OA
ENDBRANCH  94  95
ENDBRANCH  62  87
BRANCH  74  99
ATOM     99  C   UNL     1       8.191  -7.762  -5.774  1.00  0.00     0.058 A 
ATOM    100  C   UNL     1       9.028  -6.882  -5.063  1.00  0.00     0.135 A 
ATOM    101  C   UNL     1       8.662  -9.068  -5.976  1.00  0.00     0.135 A 
ATOM    102  F   UNL     1       8.613  -5.649  -4.739  1.00  0.00    -0.206 F 
ATOM    103  C   UNL     1      10.291  -7.273  -4.609  1.00  0.00     0.059 A 
ATOM    104  C   UNL     1       9.903  -9.488  -5.505  1.00  0.00     0.059 A 
ATOM    105  F   UNL     1       7.886  -9.974  -6.593  1.00  0.00    -0.206 F 
ATOM    106  C   UNL     1      10.719  -8.581  -4.835  1.00  0.00     0.060 A 
BRANCH 106 107
ATOM    107  S   UNL     1      12.322  -9.113  -4.193  1.00  0.00     0.124 S 
ATOM    108  O   UNL     1      13.252  -8.388  -5.053  1.00  0.00    -0.237 OA
ATOM    109  O   UNL     1      12.270  -8.673  -2.802  1.00  0.00    -0.237 OA
ATOM    110  O   UNL     1      12.302 -10.562  -4.380  1.00  0.00    -0.744 OA
ENDBRANCH 106 107
ENDBRANCH  74  99
ENDBRANCH  48  49
ENDBRANCH  41  43
ENDBRANCH  40  41
ENDBRANCH  39  40
ENDBRANCH  38  39
ENDBRANCH  37  38
ENDBRANCH   1  37
TORSDOF 24
