REMARK SMILES O=C(C[C@@H]1CN(C(=O)[C@H]2C[C@H](O)C[NH2+]2)CCO1)OCCOCCOCCOC(=O)c1ccc(-c2c3nc(c(-c4c(F)cc(S(=O)(=O)[O-])cc4F)c4ccc([nH]4)c(-c4c(F)cc(S(=O)(=O)[O-])cc4F)c4nc(c(-c5c(F)cc(S(=O)(=O)[O-])cc5F)c5ccc2[nH]5)C=C4)C=C3)cc1
REMARK SMILES IDX 22 1 21 2 20 3 19 4 18 5 2 6 1 7 3 8 4 9 5 10 17 11 6 12
REMARK SMILES IDX 16 13 15 14 7 15 8 16 9 17 10 18 14 19 11 20 13 21 12 24
REMARK SMILES IDX 23 26 24 27 25 28 26 29 27 30 28 31 29 32 30 33 31 34 95 35
REMARK SMILES IDX 32 36 94 37 33 38 34 39 35 40 88 41 36 42 93 43 87 44 89 45
REMARK SMILES IDX 37 46 92 47 86 48 85 49 38 51 72 52 51 53 71 54 52 55 55 56
REMARK SMILES IDX 70 57 90 58 53 59 54 60 69 62 91 63 56 64 39 65 40 66 49 67
REMARK SMILES IDX 41 68 42 69 48 70 50 71 43 72 44 73 45 74 46 75 47 76 73 77
REMARK SMILES IDX 74 78 83 79 75 80 76 81 82 82 84 83 77 84 78 85 79 86 80 87
REMARK SMILES IDX 81 88 57 89 58 90 67 91 59 92 60 93 66 94 68 95 61 96 62 97
REMARK SMILES IDX 63 98 64 99 65 100
REMARK H PARENT 14 22 14 23 12 25 89 50 55 61
REMARK Flexibility Score: inf
ROOT
ATOM      1  C   UNL     1       3.408   2.461   0.089  1.00  0.00     0.188 C 
ENDROOT
BRANCH   1   2
ATOM      2  O   UNL     1       4.746   2.145  -0.221  1.00  0.00    -0.376 OA
BRANCH   2   3
ATOM      3  C   UNL     1       5.166   0.831   0.049  1.00  0.00     0.202 C 
BRANCH   3   4
ATOM      4  C   UNL     1       4.398  -0.234  -0.718  1.00  0.00     0.261 C 
BRANCH   4   5
ATOM      5  O   UNL     1       2.976  -0.402  -0.458  1.00  0.00    -0.463 OA
BRANCH   5   6
ATOM      6  C   UNL     1       2.208  -0.431   0.648  1.00  0.00     0.308 C 
ATOM      7  O   UNL     1       0.986  -0.450   0.516  1.00  0.00    -0.252 OA
BRANCH   6   8
ATOM      8  C   UNL     1       2.819  -0.434   2.025  1.00  0.00     0.156 C 
BRANCH   8   9
ATOM      9  C   UNL     1       3.841  -1.527   2.203  1.00  0.00     0.148 C 
ATOM     10  C   UNL     1       3.243  -2.880   1.837  1.00  0.00     0.152 C 
ATOM     11  O   UNL     1       4.315  -1.533   3.554  1.00  0.00    -0.374 OA
ATOM     12  N   UNL     1       4.250  -3.912   1.954  1.00  0.00    -0.333 N 
ATOM     13  C   UNL     1       5.372  -2.500   3.692  1.00  0.00     0.182 C 
ATOM     14  C   UNL     1       4.912  -3.910   3.273  1.00  0.00     0.148 C 
BRANCH  12  15
ATOM     15  C   UNL     1       4.510  -4.907   1.025  1.00  0.00     0.281 C 
ATOM     16  O   UNL     1       5.387  -5.749   1.249  1.00  0.00    -0.268 OA
BRANCH  15  17
ATOM     17  C   UNL     1       3.769  -4.946  -0.354  1.00  0.00     0.275 C 
ATOM     18  C   UNL     1       2.242  -4.922  -0.368  1.00  0.00     0.113 C 
ATOM     19  N   UNL     1       4.251  -3.862  -1.250  1.00  0.00    -0.334 N 
ATOM     20  C   UNL     1       1.847  -3.791  -1.313  1.00  0.00     0.175 C 
ATOM     21  C   UNL     1       3.119  -3.502  -2.107  1.00  0.00     0.293 C 
ATOM     22  H   UNL     1       5.032  -4.194  -1.817  1.00  0.00     0.347 HD
ATOM     23  H   UNL     1       4.582  -3.059  -0.716  1.00  0.00     0.347 HD
BRANCH  20  24
ATOM     24  O   UNL     1       0.767  -4.215  -2.132  1.00  0.00    -0.387 OA
ATOM     25  H   UNL     1       1.021  -5.019  -2.611  1.00  0.00     0.211 HD
ENDBRANCH  20  24
ENDBRANCH  15  17
ENDBRANCH  12  15
ENDBRANCH   8   9
ENDBRANCH   6   8
ENDBRANCH   5   6
ENDBRANCH   4   5
ENDBRANCH   3   4
ENDBRANCH   2   3
ENDBRANCH   1   2
BRANCH   1  26
ATOM     26  C   UNL     1       2.508   2.717  -1.128  1.00  0.00     0.188 C 
BRANCH  26  27
ATOM     27  O   UNL     1       3.089   3.016  -2.389  1.00  0.00    -0.376 OA
BRANCH  27  28
ATOM     28  C   UNL     1       4.336   3.691  -2.442  1.00  0.00     0.202 C 
BRANCH  28  29
ATOM     29  C   UNL     1       4.479   5.066  -1.759  1.00  0.00     0.261 C 
BRANCH  29  30
ATOM     30  O   UNL     1       4.128   5.148  -0.359  1.00  0.00    -0.460 OA
BRANCH  30  31
ATOM     31  C   UNL     1       2.936   5.740  -0.066  1.00  0.00     0.338 C 
ATOM     32  O   UNL     1       2.168   6.237  -0.867  1.00  0.00    -0.246 OA
BRANCH  31  33
ATOM     33  C   UNL     1       2.567   5.533   1.368  1.00  0.00     0.060 A 
ATOM     34  C   UNL     1       1.334   4.922   1.653  1.00  0.00     0.016 A 
ATOM     35  C   UNL     1       3.385   5.948   2.421  1.00  0.00     0.016 A 
ATOM     36  C   UNL     1       0.890   4.784   2.974  1.00  0.00     0.010 A 
ATOM     37  C   UNL     1       2.925   5.834   3.746  1.00  0.00     0.010 A 
ATOM     38  C   UNL     1       1.654   5.294   4.031  1.00  0.00    -0.014 A 
BRANCH  38  39
ATOM     39  C   UNL     1       1.027   5.476   5.375  1.00  0.00     0.031 A 
ATOM     40  C   UNL     1       0.488   6.843   5.731  1.00  0.00     0.074 A 
ATOM     41  C   UNL     1       0.882   4.464   6.253  1.00  0.00     0.049 A 
ATOM     42  N   UNL     1      -0.067   7.261   6.841  1.00  0.00    -0.248 NA
ATOM     43  C   UNL     1       0.593   7.877   4.688  1.00  0.00     0.031 C 
ATOM     44  C   UNL     1       1.306   3.083   6.035  1.00  0.00     0.029 A 
ATOM     45  N   UNL     1       0.339   4.449   7.519  1.00  0.00    -0.354 N 
ATOM     46  C   UNL     1      -0.379   8.600   6.629  1.00  0.00     0.074 A 
ATOM     47  C   UNL     1       0.089   8.937   5.302  1.00  0.00     0.031 C 
ATOM     48  C   UNL     1       1.026   2.360   7.135  1.00  0.00     0.029 A 
ATOM     49  C   UNL     1       0.426   3.229   8.149  1.00  0.00     0.049 A 
ATOM     50  H   UNL     1      -0.073   5.240   7.935  1.00  0.00     0.167 HD
ATOM     51  C   UNL     1      -1.013   9.471   7.452  1.00  0.00     0.037 A 
ATOM     52  C   UNL     1       0.083   2.859   9.402  1.00  0.00     0.037 A 
ATOM     53  C   UNL     1      -1.476   9.148   8.777  1.00  0.00     0.049 A 
ATOM     54  C   UNL     1      -0.544   3.869  10.336  1.00  0.00     0.074 A 
ATOM     55  C   UNL     1      -2.121   9.968   9.687  1.00  0.00     0.029 A 
ATOM     56  N   UNL     1      -1.342   7.908   9.384  1.00  0.00    -0.354 N 
ATOM     57  N   UNL     1      -0.843   5.128  10.115  1.00  0.00    -0.248 NA
ATOM     58  C   UNL     1      -0.889   3.405  11.689  1.00  0.00     0.031 C 
ATOM     59  C   UNL     1      -2.330   9.240  10.863  1.00  0.00     0.029 A 
ATOM     60  C   UNL     1      -1.874   7.948  10.664  1.00  0.00     0.049 A 
ATOM     61  H   UNL     1      -0.929   7.117   8.968  1.00  0.00     0.167 HD
ATOM     62  C   UNL     1      -1.440   5.591  11.286  1.00  0.00     0.074 A 
ATOM     63  C   UNL     1      -1.474   4.476  12.207  1.00  0.00     0.031 C 
ATOM     64  C   UNL     1      -1.918   6.829  11.572  1.00  0.00     0.037 A 
BRANCH  51  65
ATOM     65  C   UNL     1      -1.234  10.872   6.945  1.00  0.00     0.058 A 
ATOM     66  C   UNL     1      -2.153  11.149   5.919  1.00  0.00     0.135 A 
ATOM     67  C   UNL     1      -0.548  11.956   7.517  1.00  0.00     0.135 A 
ATOM     68  F   UNL     1      -2.822  10.150   5.323  1.00  0.00    -0.206 F 
ATOM     69  C   UNL     1      -2.364  12.446   5.462  1.00  0.00     0.059 A 
ATOM     70  C   UNL     1      -0.767  13.265   7.097  1.00  0.00     0.059 A 
ATOM     71  F   UNL     1       0.343  11.750   8.500  1.00  0.00    -0.206 F 
ATOM     72  C   UNL     1      -1.668  13.498   6.059  1.00  0.00     0.060 A 
BRANCH  72  73
ATOM     73  S   UNL     1      -1.964  15.175   5.459  1.00  0.00     0.124 S 
ATOM     74  O   UNL     1      -1.330  15.131   4.145  1.00  0.00    -0.237 OA
ATOM     75  O   UNL     1      -3.421  15.252   5.458  1.00  0.00    -0.237 OA
ATOM     76  O   UNL     1      -1.295  16.014   6.449  1.00  0.00    -0.744 OA
ENDBRANCH  72  73
ENDBRANCH  51  65
BRANCH  52  77
ATOM     77  C   UNL     1       0.344   1.468   9.876  1.00  0.00     0.058 A 
ATOM     78  C   UNL     1      -0.706   0.593  10.197  1.00  0.00     0.135 A 
ATOM     79  C   UNL     1       1.655   1.001  10.062  1.00  0.00     0.135 A 
ATOM     80  F   UNL     1      -1.979   0.994  10.058  1.00  0.00    -0.206 F 
ATOM     81  C   UNL     1      -0.468  -0.681  10.707  1.00  0.00     0.059 A 
ATOM     82  C   UNL     1       1.919  -0.279  10.539  1.00  0.00     0.059 A 
ATOM     83  F   UNL     1       2.699   1.793   9.768  1.00  0.00    -0.206 F 
ATOM     84  C   UNL     1       0.850  -1.109  10.873  1.00  0.00     0.060 A 
BRANCH  84  85
ATOM     85  S   UNL     1       1.151  -2.775  11.501  1.00  0.00     0.124 S 
ATOM     86  O   UNL     1       0.768  -2.636  12.902  1.00  0.00    -0.237 OA
ATOM     87  O   UNL     1       0.260  -3.580  10.671  1.00  0.00    -0.237 OA
ATOM     88  O   UNL     1       2.576  -2.975  11.252  1.00  0.00    -0.744 OA
ENDBRANCH  84  85
ENDBRANCH  52  77
BRANCH  64  89
ATOM     89  C   UNL     1      -2.569   7.038  12.917  1.00  0.00     0.058 A 
ATOM     90  C   UNL     1      -1.829   7.044  14.110  1.00  0.00     0.135 A 
ATOM     91  C   UNL     1      -3.951   7.278  13.007  1.00  0.00     0.135 A 
ATOM     92  F   UNL     1      -0.506   6.819  14.087  1.00  0.00    -0.206 F 
ATOM     93  C   UNL     1      -2.440   7.243  15.346  1.00  0.00     0.059 A 
ATOM     94  C   UNL     1      -4.577   7.513  14.228  1.00  0.00     0.059 A 
ATOM     95  F   UNL     1      -4.707   7.300  11.898  1.00  0.00    -0.206 F 
ATOM     96  C   UNL     1      -3.816   7.477  15.394  1.00  0.00     0.060 A 
BRANCH  96  97
ATOM     97  S   UNL     1      -4.593   7.750  17.002  1.00  0.00     0.124 S 
ATOM     98  O   UNL     1      -4.558   6.410  17.577  1.00  0.00    -0.237 OA
ATOM     99  O   UNL     1      -3.701   8.728  17.617  1.00  0.00    -0.237 OA
ATOM    100  O   UNL     1      -5.920   8.251  16.658  1.00  0.00    -0.744 OA
ENDBRANCH  96  97
ENDBRANCH  64  89
ENDBRANCH  38  39
ENDBRANCH  31  33
ENDBRANCH  30  31
ENDBRANCH  29  30
ENDBRANCH  28  29
ENDBRANCH  27  28
ENDBRANCH  26  27
ENDBRANCH   1  26
TORSDOF 24
