REMARK SMILES CCC[C@H](Nc1cc(C)c(N)c(C(=O)OCCOCCOCCOC(=O)c2ccc(-c3c4nc(c(-c5c(F)cc(S(=O)(=O)[O-])cc5F)c5ccc([nH]5)c(-c5c(F)cc(S(=O)(=O)[O-])cc5F)c5nc(c(-c6c(F)cc(S(=O)(=O)[O-])cc6F)c6ccc3[nH]6)C=C5)C=C4)cc2)c1)c1cccs1
REMARK SMILES IDX 19 1 18 2 17 3 16 4 15 5 13 6 14 7 12 8 6 9 7 10 93 11 8 12
REMARK SMILES IDX 9 13 10 14 5 15 4 17 3 18 2 19 1 20 94 21 95 22 98 23 96 24
REMARK SMILES IDX 97 25 11 26 20 29 21 30 22 31 23 32 24 33 25 34 26 35 27 36
REMARK SMILES IDX 28 37 92 38 29 39 91 40 30 41 31 42 32 43 85 44 33 45 90 46
REMARK SMILES IDX 84 47 86 48 34 49 89 50 83 51 82 52 35 54 69 55 48 56 68 57
REMARK SMILES IDX 49 58 52 59 67 60 87 61 50 62 51 63 66 65 88 66 53 67 36 68
REMARK SMILES IDX 37 69 46 70 38 71 39 72 45 73 47 74 40 75 41 76 42 77 43 78
REMARK SMILES IDX 44 79 70 80 71 81 80 82 72 83 73 84 79 85 81 86 74 87 75 88
REMARK SMILES IDX 76 89 77 90 78 91 54 92 55 93 64 94 56 95 57 96 63 97 65 98
REMARK SMILES IDX 58 99 59 100 60 101 61 102 62 103
REMARK H PARENT 5 16 11 27 11 28 86 53 52 64
REMARK Flexibility Score: inf
ROOT
ATOM      1  C   UNL     1       6.857  -2.711  -0.619  1.00  0.00     0.188 C 
ENDROOT
BRANCH   1   2
ATOM      2  O   UNL     1       7.057  -3.009  -1.986  1.00  0.00    -0.376 OA
BRANCH   2   3
ATOM      3  C   UNL     1       6.324  -4.078  -2.555  1.00  0.00     0.202 C 
BRANCH   3   4
ATOM      4  C   UNL     1       4.798  -4.193  -2.368  1.00  0.00     0.261 C 
BRANCH   4   5
ATOM      5  O   UNL     1       4.250  -3.738  -1.125  1.00  0.00    -0.460 OA
BRANCH   5   6
ATOM      6  C   UNL     1       4.168  -4.641  -0.109  1.00  0.00     0.340 C 
ATOM      7  O   UNL     1       4.509  -5.798  -0.152  1.00  0.00    -0.246 OA
BRANCH   6   8
ATOM      8  C   UNL     1       3.746  -3.912   1.121  1.00  0.00     0.085 A 
ATOM      9  C   UNL     1       2.194  -2.337   2.189  1.00  0.00     0.036 A 
ATOM     10  C   UNL     1       3.046  -2.358   3.291  1.00  0.00     0.031 A 
ATOM     11  C   UNL     1       2.595  -3.100   1.083  1.00  0.00     0.043 A 
ATOM     12  C   UNL     1       4.158  -3.222   3.386  1.00  0.00    -0.025 A 
ATOM     13  C   UNL     1       4.909  -3.265   4.693  1.00  0.00     0.047 C 
ATOM     14  C   UNL     1       4.514  -4.031   2.295  1.00  0.00     0.049 A 
BRANCH   9  15
ATOM     15  N   UNL     1       1.012  -1.632   2.115  1.00  0.00    -0.377 N 
ATOM     16  H   UNL     1       0.384  -1.967   1.435  1.00  0.00     0.161 HD
BRANCH  15  17
ATOM     17  C   UNL     1       0.521  -0.468   2.869  1.00  0.00     0.119 C 
BRANCH  17  18
ATOM     18  C   UNL     1      -1.007  -0.296   2.619  1.00  0.00     0.030 C 
BRANCH  18  19
ATOM     19  C   UNL     1      -1.425   0.290   1.263  1.00  0.00    -0.001 C 
ATOM     20  C   UNL     1      -1.189  -0.611   0.062  1.00  0.00     0.004 C 
ENDBRANCH  18  19
ENDBRANCH  17  18
BRANCH  17  21
ATOM     21  C   UNL     1       0.770  -0.437   4.370  1.00  0.00     0.027 A 
ATOM     22  C   UNL     1       1.469   0.520   5.087  1.00  0.00     0.017 A 
ATOM     23  S   UNL     1       0.181  -1.678   5.408  1.00  0.00    -0.147 S 
ATOM     24  C   UNL     1       1.627   0.166   6.458  1.00  0.00     0.012 A 
ATOM     25  C   UNL     1       1.006  -1.025   6.757  1.00  0.00     0.065 A 
ENDBRANCH  17  21
ENDBRANCH  15  17
ENDBRANCH   9  15
BRANCH  14  26
ATOM     26  N   UNL     1       5.699  -4.769   2.325  1.00  0.00    -0.398 N 
ATOM     27  H   UNL     1       6.217  -4.836   3.159  1.00  0.00     0.156 HD
ATOM     28  H   UNL     1       6.017  -5.223   1.511  1.00  0.00     0.156 HD
ENDBRANCH  14  26
ENDBRANCH   6   8
ENDBRANCH   5   6
ENDBRANCH   4   5
ENDBRANCH   3   4
ENDBRANCH   2   3
ENDBRANCH   1   2
BRANCH   1  29
ATOM     29  C   UNL     1       6.010  -1.440  -0.401  1.00  0.00     0.188 C 
BRANCH  29  30
ATOM     30  O   UNL     1       5.643  -0.625  -1.512  1.00  0.00    -0.376 OA
BRANCH  30  31
ATOM     31  C   UNL     1       6.595  -0.359  -2.533  1.00  0.00     0.202 C 
BRANCH  31  32
ATOM     32  C   UNL     1       7.965   0.237  -2.173  1.00  0.00     0.261 C 
BRANCH  32  33
ATOM     33  O   UNL     1       8.637  -0.364  -1.056  1.00  0.00    -0.460 OA
BRANCH  33  34
ATOM     34  C   UNL     1       8.699   0.405   0.059  1.00  0.00     0.338 C 
ATOM     35  O   UNL     1       8.280   1.542   0.194  1.00  0.00    -0.246 OA
BRANCH  34  36
ATOM     36  C   UNL     1       9.220  -0.387   1.192  1.00  0.00     0.060 A 
ATOM     37  C   UNL     1       8.399  -0.551   2.313  1.00  0.00     0.016 A 
ATOM     38  C   UNL     1      10.529  -0.879   1.195  1.00  0.00     0.016 A 
ATOM     39  C   UNL     1       8.894  -1.169   3.460  1.00  0.00     0.010 A 
ATOM     40  C   UNL     1      11.031  -1.482   2.355  1.00  0.00     0.010 A 
ATOM     41  C   UNL     1      10.226  -1.591   3.506  1.00  0.00    -0.014 A 
BRANCH  41  42
ATOM     42  C   UNL     1      10.819  -1.950   4.819  1.00  0.00     0.031 A 
ATOM     43  C   UNL     1      11.597  -0.902   5.570  1.00  0.00     0.074 A 
ATOM     44  C   UNL     1      10.613  -3.161   5.369  1.00  0.00     0.049 A 
ATOM     45  N   UNL     1      12.168  -0.972   6.745  1.00  0.00    -0.248 NA
ATOM     46  C   UNL     1      11.750   0.403   4.905  1.00  0.00     0.031 C 
ATOM     47  C   UNL     1       9.849  -4.249   4.759  1.00  0.00     0.029 A 
ATOM     48  N   UNL     1      11.030  -3.674   6.572  1.00  0.00    -0.354 N 
ATOM     49  C   UNL     1      12.744   0.275   6.961  1.00  0.00     0.074 A 
ATOM     50  C   UNL     1      12.488   1.070   5.779  1.00  0.00     0.031 C 
ATOM     51  C   UNL     1       9.857  -5.305   5.592  1.00  0.00     0.029 A 
ATOM     52  C   UNL     1      10.639  -4.974   6.783  1.00  0.00     0.049 A 
ATOM     53  H   UNL     1      11.559  -3.159   7.222  1.00  0.00     0.167 HD
ATOM     54  C   UNL     1      13.413   0.726   8.050  1.00  0.00     0.037 A 
ATOM     55  C   UNL     1      10.891  -5.802   7.817  1.00  0.00     0.037 A 
ATOM     56  C   UNL     1      13.674  -0.067   9.223  1.00  0.00     0.049 A 
ATOM     57  C   UNL     1      11.685  -5.297   8.995  1.00  0.00     0.074 A 
ATOM     58  C   UNL     1      14.342   0.298  10.379  1.00  0.00     0.029 A 
ATOM     59  N   UNL     1      13.283  -1.388   9.389  1.00  0.00    -0.354 N 
ATOM     60  N   UNL     1      12.205  -4.108   9.195  1.00  0.00    -0.248 NA
ATOM     61  C   UNL     1      11.913  -6.243  10.097  1.00  0.00     0.031 C 
ATOM     62  C   UNL     1      14.393  -0.816  11.226  1.00  0.00     0.029 A 
ATOM     63  C   UNL     1      13.708  -1.857  10.621  1.00  0.00     0.049 A 
ATOM     64  H   UNL     1      12.778  -1.914   8.728  1.00  0.00     0.167 HD
ATOM     65  C   UNL     1      12.788  -4.154  10.459  1.00  0.00     0.074 A 
ATOM     66  C   UNL     1      12.549  -5.485  10.979  1.00  0.00     0.031 C 
ATOM     67  C   UNL     1      13.455  -3.182  11.132  1.00  0.00     0.037 A 
BRANCH  54  68
ATOM     68  C   UNL     1      13.928   2.138   8.009  1.00  0.00     0.058 A 
ATOM     69  C   UNL     1      13.063   3.243   8.079  1.00  0.00     0.135 A 
ATOM     70  C   UNL     1      15.306   2.392   7.915  1.00  0.00     0.135 A 
ATOM     71  F   UNL     1      11.735   3.058   8.151  1.00  0.00    -0.206 F 
ATOM     72  C   UNL     1      13.543   4.548   8.028  1.00  0.00     0.059 A 
ATOM     73  C   UNL     1      15.810   3.689   7.890  1.00  0.00     0.059 A 
ATOM     74  F   UNL     1      16.177   1.374   7.842  1.00  0.00    -0.206 F 
ATOM     75  C   UNL     1      14.919   4.760   7.932  1.00  0.00     0.060 A 
BRANCH  75  76
ATOM     76  S   UNL     1      15.528   6.459   7.866  1.00  0.00     0.124 S 
ATOM     77  O   UNL     1      15.142   6.854   6.514  1.00  0.00    -0.237 OA
ATOM     78  O   UNL     1      14.787   7.099   8.948  1.00  0.00    -0.237 OA
ATOM     79  O   UNL     1      16.962   6.315   8.092  1.00  0.00    -0.744 OA
ENDBRANCH  75  76
ENDBRANCH  54  68
BRANCH  55  80
ATOM     80  C   UNL     1      10.379  -7.199   7.795  1.00  0.00     0.058 A 
ATOM     81  C   UNL     1       9.364  -7.614   8.670  1.00  0.00     0.135 A 
ATOM     82  C   UNL     1      10.906  -8.151   6.908  1.00  0.00     0.135 A 
ATOM     83  F   UNL     1       8.836  -6.744   9.544  1.00  0.00    -0.206 F 
ATOM     84  C   UNL     1       8.902  -8.926   8.681  1.00  0.00     0.059 A 
ATOM     85  C   UNL     1      10.442  -9.462   6.882  1.00  0.00     0.059 A 
ATOM     86  F   UNL     1      11.872  -7.802   6.044  1.00  0.00    -0.206 F 
ATOM     87  C   UNL     1       9.447  -9.843   7.781  1.00  0.00     0.060 A 
BRANCH  87  88
ATOM     88  S   UNL     1       8.810 -11.533   7.774  1.00  0.00     0.124 S 
ATOM     89  O   UNL     1       9.387 -12.070   9.000  1.00  0.00    -0.237 OA
ATOM     90  O   UNL     1       7.367 -11.315   7.788  1.00  0.00    -0.237 OA
ATOM     91  O   UNL     1       9.341 -12.085   6.531  1.00  0.00    -0.744 OA
ENDBRANCH  87  88
ENDBRANCH  55  80
BRANCH  67  92
ATOM     92  C   UNL     1      13.925  -3.502  12.526  1.00  0.00     0.058 A 
ATOM     93  C   UNL     1      14.981  -4.394  12.771  1.00  0.00     0.135 A 
ATOM     94  C   UNL     1      13.317  -2.889  13.635  1.00  0.00     0.135 A 
ATOM     95  F   UNL     1      15.598  -5.008  11.749  1.00  0.00    -0.206 F 
ATOM     96  C   UNL     1      15.387  -4.702  14.067  1.00  0.00     0.059 A 
ATOM     97  C   UNL     1      13.727  -3.158  14.937  1.00  0.00     0.059 A 
ATOM     98  F   UNL     1      12.314  -2.015  13.459  1.00  0.00    -0.206 F 
ATOM     99  C   UNL     1      14.750  -4.083  15.144  1.00  0.00     0.060 A 
BRANCH  99 100
ATOM    100  S   UNL     1      15.278  -4.495  16.821  1.00  0.00     0.124 S 
ATOM    101  O   UNL     1      14.680  -5.814  17.000  1.00  0.00    -0.237 OA
ATOM    102  O   UNL     1      16.733  -4.468  16.708  1.00  0.00    -0.237 OA
ATOM    103  O   UNL     1      14.699  -3.427  17.631  1.00  0.00    -0.744 OA
ENDBRANCH  99 100
ENDBRANCH  67  92
ENDBRANCH  41  42
ENDBRANCH  34  36
ENDBRANCH  33  34
ENDBRANCH  32  33
ENDBRANCH  31  32
ENDBRANCH  30  31
ENDBRANCH  29  30
ENDBRANCH   1  29
TORSDOF 26
