REMARK SMILES Cc1ccccc1CNc1ccc(C(=O)OCCOCCOCCOC(=O)c2ccc(-c3c4nc(c(-c5c(F)cc(S(=O)(=O)[O-])cc5F)c5ccc([nH]5)c(-c5c(F)cc(S(=O)(=O)[O-])cc5F)c5nc(c(-c6c(F)cc(S(=O)(=O)[O-])cc6F)c6ccc3[nH]6)C=C5)C=C4)cc2)c(F)c1F
REMARK SMILES IDX 20 1 19 2 18 3 17 4 16 5 14 6 15 7 13 8 10 9 11 10 96 11
REMARK SMILES IDX 12 12 94 13 97 14 95 15 9 16 8 18 7 19 1 20 2 21 3 22 4 23
REMARK SMILES IDX 6 24 5 25 21 26 22 27 23 28 24 29 25 30 26 31 27 32 28 33
REMARK SMILES IDX 29 34 93 35 30 36 92 37 31 38 32 39 33 40 86 41 34 42 91 43
REMARK SMILES IDX 85 44 87 45 35 46 90 47 84 48 83 49 36 51 70 52 49 53 69 54
REMARK SMILES IDX 50 55 53 56 68 57 88 58 51 59 52 60 67 62 89 63 54 64 37 65
REMARK SMILES IDX 38 66 47 67 39 68 40 69 46 70 48 71 41 72 42 73 43 74 44 75
REMARK SMILES IDX 45 76 71 77 72 78 81 79 73 80 74 81 80 82 82 83 75 84 76 85
REMARK SMILES IDX 77 86 78 87 79 88 55 89 56 90 65 91 57 92 58 93 64 94 66 95
REMARK SMILES IDX 59 96 60 97 61 98 62 99 63 100
REMARK H PARENT 9 17 87 50 53 61
REMARK Flexibility Score: inf
ROOT
ATOM      1  C   UNL     1      -1.936  12.282  -1.810  1.00  0.00     0.188 C 
ENDROOT
BRANCH   1   2
ATOM      2  O   UNL     1      -1.623  12.078  -0.408  1.00  0.00    -0.376 OA
BRANCH   2   3
ATOM      3  C   UNL     1      -0.310  12.164   0.188  1.00  0.00     0.202 C 
BRANCH   3   4
ATOM      4  C   UNL     1       0.457  10.864   0.988  1.00  0.00     0.261 C 
BRANCH   4   5
ATOM      5  O   UNL     1       1.098   9.420   0.339  1.00  0.00    -0.460 OA
BRANCH   5   6
ATOM      6  C   UNL     1       0.691   8.052   0.243  1.00  0.00     0.341 C 
ATOM      7  O   UNL     1      -0.208   7.475   0.850  1.00  0.00    -0.246 OA
BRANCH   6   8
ATOM      8  C   UNL     1       1.216   6.963  -0.610  1.00  0.00     0.099 A 
ATOM      9  C   UNL     1       1.590   4.154  -1.069  1.00  0.00     0.074 A 
ATOM     10  C   UNL     1       2.546   4.934  -0.395  1.00  0.00     0.030 A 
ATOM     11  C   UNL     1       0.451   4.795  -1.534  1.00  0.00     0.182 A 
ATOM     12  C   UNL     1       2.376   6.324  -0.178  1.00  0.00     0.021 A 
ATOM     13  C   UNL     1       0.247   6.141  -1.268  1.00  0.00     0.175 A 
ATOM     14  F   UNL     1      -0.546   4.061  -2.065  1.00  0.00    -0.201 F 
ATOM     15  F   UNL     1      -1.028   6.518  -1.407  1.00  0.00    -0.203 F 
BRANCH   9  16
ATOM     16  N   UNL     1       1.623   2.745  -1.068  1.00  0.00    -0.379 N 
ATOM     17  H   UNL     1       1.815   2.218  -1.877  1.00  0.00     0.161 HD
BRANCH  16  18
ATOM     18  C   UNL     1       1.349   2.128   0.231  1.00  0.00     0.149 C 
BRANCH  18  19
ATOM     19  C   UNL     1       0.545   0.850   0.067  1.00  0.00    -0.026 A 
ATOM     20  C   UNL     1       2.622  -0.635  -0.111  1.00  0.00     0.044 C 
ATOM     21  C   UNL     1       1.135  -0.424  -0.075  1.00  0.00    -0.046 A 
ATOM     22  C   UNL     1       0.308  -1.563  -0.129  1.00  0.00     0.004 A 
ATOM     23  C   UNL     1      -1.081  -1.449  -0.091  1.00  0.00     0.000 A 
ATOM     24  C   UNL     1      -0.862   0.946   0.068  1.00  0.00     0.006 A 
ATOM     25  C   UNL     1      -1.667  -0.193  -0.007  1.00  0.00     0.000 A 
ENDBRANCH  18  19
ENDBRANCH  16  18
ENDBRANCH   9  16
ENDBRANCH   6   8
ENDBRANCH   5   6
ENDBRANCH   4   5
ENDBRANCH   3   4
ENDBRANCH   2   3
ENDBRANCH   1   2
BRANCH   1  26
ATOM     26  C   UNL     1      -0.970  12.918  -2.818  1.00  0.00     0.188 C 
BRANCH  26  27
ATOM     27  O   UNL     1       0.353  12.466  -2.592  1.00  0.00    -0.376 OA
BRANCH  27  28
ATOM     28  C   UNL     1       1.334  12.902  -3.514  1.00  0.00     0.202 C 
BRANCH  28  29
ATOM     29  C   UNL     1       1.339  12.111  -4.838  1.00  0.00     0.261 C 
BRANCH  29  30
ATOM     30  O   UNL     1       1.659  10.711  -4.638  1.00  0.00    -0.460 OA
BRANCH  30  31
ATOM     31  C   UNL     1       0.699   9.780  -5.021  1.00  0.00     0.338 C 
ATOM     32  O   UNL     1       0.595   9.391  -6.148  1.00  0.00    -0.246 OA
BRANCH  31  33
ATOM     33  C   UNL     1      -0.057   9.286  -3.805  1.00  0.00     0.060 A 
ATOM     34  C   UNL     1      -1.302   8.651  -3.714  1.00  0.00     0.016 A 
ATOM     35  C   UNL     1       0.455   9.656  -2.616  1.00  0.00     0.016 A 
ATOM     36  C   UNL     1      -2.049   8.533  -2.436  1.00  0.00     0.010 A 
ATOM     37  C   UNL     1      -0.414   9.697  -1.524  1.00  0.00     0.010 A 
ATOM     38  C   UNL     1      -1.611   9.072  -1.216  1.00  0.00    -0.014 A 
BRANCH  38  39
ATOM     39  C   UNL     1      -2.356   9.274   0.206  1.00  0.00     0.031 A 
ATOM     40  C   UNL     1      -2.039   8.890   1.817  1.00  0.00     0.074 A 
ATOM     41  C   UNL     1      -3.558   9.887   0.108  1.00  0.00     0.049 A 
ATOM     42  N   UNL     1      -2.975   8.534   2.696  1.00  0.00    -0.248 NA
ATOM     43  C   UNL     1      -0.737   8.787   2.579  1.00  0.00     0.031 C 
ATOM     44  C   UNL     1      -4.340  10.484   1.186  1.00  0.00     0.029 A 
ATOM     45  N   UNL     1      -4.393   9.971  -1.008  1.00  0.00    -0.354 N 
ATOM     46  C   UNL     1      -2.332   8.322   3.929  1.00  0.00     0.074 A 
ATOM     47  C   UNL     1      -1.020   8.001   3.601  1.00  0.00     0.031 C 
ATOM     48  C   UNL     1      -5.606  10.626   0.770  1.00  0.00     0.029 A 
ATOM     49  C   UNL     1      -5.709  10.005  -0.535  1.00  0.00     0.049 A 
ATOM     50  H   UNL     1      -4.109  10.001  -1.950  1.00  0.00     0.167 HD
ATOM     51  C   UNL     1      -2.768   8.711   5.163  1.00  0.00     0.037 A 
ATOM     52  C   UNL     1      -6.609   9.051  -0.903  1.00  0.00     0.037 A 
ATOM     53  C   UNL     1      -4.190   8.925   5.084  1.00  0.00     0.049 A 
ATOM     54  C   UNL     1      -7.196   8.292   0.265  1.00  0.00     0.074 A 
ATOM     55  C   UNL     1      -4.998  10.042   5.045  1.00  0.00     0.029 A 
ATOM     56  N   UNL     1      -4.961   7.852   4.664  1.00  0.00    -0.354 N 
ATOM     57  N   UNL     1      -6.794   8.420   1.502  1.00  0.00    -0.248 NA
ATOM     58  C   UNL     1      -8.282   7.325   0.143  1.00  0.00     0.031 C 
ATOM     59  C   UNL     1      -6.224   9.647   4.435  1.00  0.00     0.029 A 
ATOM     60  C   UNL     1      -6.175   8.285   4.181  1.00  0.00     0.049 A 
ATOM     61  H   UNL     1      -4.679   6.910   4.706  1.00  0.00     0.167 HD
ATOM     62  C   UNL     1      -7.439   7.512   2.300  1.00  0.00     0.074 A 
ATOM     63  C   UNL     1      -8.411   6.902   1.413  1.00  0.00     0.031 C 
ATOM     64  C   UNL     1      -7.087   7.305   3.605  1.00  0.00     0.037 A 
BRANCH  51  65
ATOM     65  C   UNL     1      -1.846   9.054   6.389  1.00  0.00     0.058 A 
ATOM     66  C   UNL     1      -2.409   9.546   7.591  1.00  0.00     0.135 A 
ATOM     67  C   UNL     1      -0.417   9.034   6.441  1.00  0.00     0.135 A 
ATOM     68  F   UNL     1      -3.738   9.661   7.725  1.00  0.00    -0.206 F 
ATOM     69  C   UNL     1      -1.643   9.986   8.700  1.00  0.00     0.059 A 
ATOM     70  C   UNL     1       0.357   9.415   7.544  1.00  0.00     0.059 A 
ATOM     71  F   UNL     1       0.368   8.718   5.410  1.00  0.00    -0.206 F 
ATOM     72  C   UNL     1      -0.255   9.920   8.666  1.00  0.00     0.060 A 
BRANCH  72  73
ATOM     73  S   UNL     1       0.753  10.548  10.028  1.00  0.00     0.124 S 
ATOM     74  O   UNL     1       0.418  11.968  10.026  1.00  0.00    -0.237 OA
ATOM     75  O   UNL     1       0.264   9.776  11.164  1.00  0.00    -0.237 OA
ATOM     76  O   UNL     1       2.122  10.239   9.616  1.00  0.00    -0.744 OA
ENDBRANCH  72  73
ENDBRANCH  51  65
BRANCH  52  77
ATOM     77  C   UNL     1      -6.429   8.601  -2.317  1.00  0.00     0.058 A 
ATOM     78  C   UNL     1      -6.654   9.573  -3.316  1.00  0.00     0.135 A 
ATOM     79  C   UNL     1      -5.661   7.485  -2.682  1.00  0.00     0.135 A 
ATOM     80  F   UNL     1      -7.388  10.663  -3.034  1.00  0.00    -0.206 F 
ATOM     81  C   UNL     1      -6.018   9.531  -4.552  1.00  0.00     0.059 A 
ATOM     82  C   UNL     1      -5.028   7.409  -3.936  1.00  0.00     0.059 A 
ATOM     83  F   UNL     1      -5.390   6.530  -1.780  1.00  0.00    -0.206 F 
ATOM     84  C   UNL     1      -5.159   8.474  -4.832  1.00  0.00     0.060 A 
BRANCH  84  85
ATOM     85  S   UNL     1      -4.093   8.643  -6.289  1.00  0.00     0.124 S 
ATOM     86  O   UNL     1      -5.065   8.785  -7.367  1.00  0.00    -0.237 OA
ATOM     87  O   UNL     1      -3.342   9.853  -5.957  1.00  0.00    -0.237 OA
ATOM     88  O   UNL     1      -3.325   7.404  -6.293  1.00  0.00    -0.744 OA
ENDBRANCH  84  85
ENDBRANCH  52  77
BRANCH  64  89
ATOM     89  C   UNL     1      -7.542   6.149   4.477  1.00  0.00     0.058 A 
ATOM     90  C   UNL     1      -7.926   4.888   3.987  1.00  0.00     0.135 A 
ATOM     91  C   UNL     1      -7.444   6.243   5.889  1.00  0.00     0.135 A 
ATOM     92  F   UNL     1      -7.936   4.619   2.675  1.00  0.00    -0.206 F 
ATOM     93  C   UNL     1      -8.270   3.828   4.830  1.00  0.00     0.059 A 
ATOM     94  C   UNL     1      -7.713   5.178   6.745  1.00  0.00     0.059 A 
ATOM     95  F   UNL     1      -7.064   7.381   6.491  1.00  0.00    -0.206 F 
ATOM     96  C   UNL     1      -8.163   3.982   6.208  1.00  0.00     0.060 A 
BRANCH  96  97
ATOM     97  S   UNL     1      -8.575   2.620   7.312  1.00  0.00     0.124 S 
ATOM     98  O   UNL     1      -9.941   2.963   7.697  1.00  0.00    -0.237 OA
ATOM     99  O   UNL     1      -8.441   1.445   6.455  1.00  0.00    -0.237 OA
ATOM    100  O   UNL     1      -7.571   2.736   8.364  1.00  0.00    -0.744 OA
ENDBRANCH  96  97
ENDBRANCH  64  89
ENDBRANCH  38  39
ENDBRANCH  31  33
ENDBRANCH  30  31
ENDBRANCH  29  30
ENDBRANCH  28  29
ENDBRANCH  27  28
ENDBRANCH  26  27
ENDBRANCH   1  26
TORSDOF 23
