REMARK SMILES CC(C)COc1cccc(N2C[C@@H](C(=O)OCCOCCOCCOC(=O)c3ccc(-c4c5nc(c(-c6c(F)cc(S(=O)(=O)[O-])cc6F)c6ccc([nH]6)c(-c6c(F)cc(S(=O)(=O)[O-])cc6F)c6nc(c(-c7c(F)cc(S(=O)(=O)[O-])cc7F)c7ccc4[nH]7)C=C6)C=C5)cc3)CC2=O)c1
REMARK SMILES IDX 20 1 19 2 18 3 17 4 16 5 14 6 15 7 13 8 11 9 12 10 95 11
REMARK SMILES IDX 94 12 96 13 10 14 6 15 7 16 97 17 8 18 9 19 5 20 4 21 2 22
REMARK SMILES IDX 1 23 3 24 21 25 22 26 23 27 24 28 25 29 26 30 27 31 28 32
REMARK SMILES IDX 29 33 93 34 30 35 92 36 31 37 32 38 33 39 86 40 34 41 91 42
REMARK SMILES IDX 85 43 87 44 35 45 90 46 84 47 83 48 36 50 70 51 49 52 69 53
REMARK SMILES IDX 50 54 53 55 68 56 88 57 51 58 52 59 67 61 89 62 54 63 37 64
REMARK SMILES IDX 38 65 47 66 39 67 40 68 46 69 48 70 41 71 42 72 43 73 44 74
REMARK SMILES IDX 45 75 71 76 72 77 81 78 73 79 74 80 80 81 82 82 75 83 76 84
REMARK SMILES IDX 77 85 78 86 79 87 55 88 56 89 65 90 57 91 58 92 64 93 66 94
REMARK SMILES IDX 59 95 60 96 61 97 62 98 63 99
REMARK H PARENT 87 49 53 60
REMARK Flexibility Score: inf
ROOT
ATOM      1  C   UNL     1       6.902  -4.937   2.058  1.00  0.00     0.188 C 
ENDROOT
BRANCH   1   2
ATOM      2  O   UNL     1       7.159  -6.013   1.160  1.00  0.00    -0.376 OA
BRANCH   2   3
ATOM      3  C   UNL     1       6.684  -5.940  -0.177  1.00  0.00     0.202 C 
BRANCH   3   4
ATOM      4  C   UNL     1       5.178  -5.738  -0.398  1.00  0.00     0.261 C 
BRANCH   4   5
ATOM      5  O   UNL     1       4.592  -4.701   0.413  1.00  0.00    -0.463 OA
BRANCH   5   6
ATOM      6  C   UNL     1       3.516  -5.055   1.156  1.00  0.00     0.311 C 
ATOM      7  O   UNL     1       2.947  -6.138   1.077  1.00  0.00    -0.252 OA
BRANCH   6   8
ATOM      8  C   UNL     1       3.090  -4.009   2.163  1.00  0.00     0.128 C 
ATOM      9  N   UNL     1       1.292  -2.553   2.498  1.00  0.00    -0.311 N 
ATOM     10  C   UNL     1       1.574  -3.896   2.084  1.00  0.00     0.141 C 
ATOM     11  C   UNL     1       2.419  -1.738   2.440  1.00  0.00     0.227 C 
ATOM     12  C   UNL     1       3.571  -2.574   1.986  1.00  0.00     0.117 C 
ATOM     13  O   UNL     1       2.499  -0.539   2.660  1.00  0.00    -0.274 OA
BRANCH   9  14
ATOM     14  C   UNL     1      -0.001  -2.018   2.414  1.00  0.00     0.047 A 
ATOM     15  C   UNL     1      -1.366  -0.253   1.466  1.00  0.00     0.121 A 
ATOM     16  C   UNL     1      -2.349  -0.546   2.410  1.00  0.00     0.046 A 
ATOM     17  C   UNL     1      -0.229  -1.035   1.453  1.00  0.00     0.072 A 
ATOM     18  C   UNL     1      -2.181  -1.614   3.310  1.00  0.00     0.006 A 
ATOM     19  C   UNL     1      -0.996  -2.355   3.319  1.00  0.00     0.026 A 
BRANCH  15  20
ATOM     20  O   UNL     1      -1.515   0.862   0.689  1.00  0.00    -0.493 OA
BRANCH  20  21
ATOM     21  C   UNL     1      -0.924   0.853  -0.622  1.00  0.00     0.232 C 
BRANCH  21  22
ATOM     22  C   UNL     1       0.379   1.686  -0.767  1.00  0.00     0.020 C 
ATOM     23  C   UNL     1       1.664   0.936  -0.402  1.00  0.00     0.011 C 
ATOM     24  C   UNL     1       0.528   2.149  -2.221  1.00  0.00     0.011 C 
ENDBRANCH  21  22
ENDBRANCH  20  21
ENDBRANCH  15  20
ENDBRANCH   9  14
ENDBRANCH   6   8
ENDBRANCH   5   6
ENDBRANCH   4   5
ENDBRANCH   3   4
ENDBRANCH   2   3
ENDBRANCH   1   2
BRANCH   1  25
ATOM     25  C   UNL     1       6.903  -3.488   1.535  1.00  0.00     0.188 C 
BRANCH  25  26
ATOM     26  O   UNL     1       7.397  -3.338   0.222  1.00  0.00    -0.376 OA
BRANCH  26  27
ATOM     27  C   UNL     1       8.542  -2.522   0.066  1.00  0.00     0.202 C 
BRANCH  27  28
ATOM     28  C   UNL     1       9.825  -3.039   0.734  1.00  0.00     0.261 C 
BRANCH  28  29
ATOM     29  O   UNL     1       9.713  -3.413   2.119  1.00  0.00    -0.460 OA
BRANCH  29  30
ATOM     30  C   UNL     1       9.581  -2.412   3.022  1.00  0.00     0.338 C 
ATOM     31  O   UNL     1       9.543  -1.222   2.784  1.00  0.00    -0.246 OA
BRANCH  30  32
ATOM     32  C   UNL     1       9.269  -3.027   4.337  1.00  0.00     0.060 A 
ATOM     33  C   UNL     1       8.068  -2.695   4.981  1.00  0.00     0.016 A 
ATOM     34  C   UNL     1      10.154  -3.932   4.927  1.00  0.00     0.016 A 
ATOM     35  C   UNL     1       7.764  -3.248   6.230  1.00  0.00     0.010 A 
ATOM     36  C   UNL     1       9.857  -4.467   6.185  1.00  0.00     0.010 A 
ATOM     37  C   UNL     1       8.675  -4.107   6.858  1.00  0.00    -0.014 A 
BRANCH  37  38
ATOM     38  C   UNL     1       8.495  -4.484   8.285  1.00  0.00     0.031 A 
ATOM     39  C   UNL     1       9.265  -3.719   9.329  1.00  0.00     0.074 A 
ATOM     40  C   UNL     1       7.679  -5.488   8.655  1.00  0.00     0.049 A 
ATOM     41  N   UNL     1       9.342  -3.919  10.619  1.00  0.00    -0.248 NA
ATOM     42  C   UNL     1      10.061  -2.579   8.847  1.00  0.00     0.031 C 
ATOM     43  C   UNL     1       6.853  -6.285   7.751  1.00  0.00     0.029 A 
ATOM     44  N   UNL     1       7.427  -6.020   9.898  1.00  0.00    -0.354 N 
ATOM     45  C   UNL     1      10.205  -2.940  11.102  1.00  0.00     0.074 A 
ATOM     46  C   UNL     1      10.644  -2.165   9.962  1.00  0.00     0.031 C 
ATOM     47  C   UNL     1       6.200  -7.220   8.467  1.00  0.00     0.029 A 
ATOM     48  C   UNL     1       6.589  -7.110   9.873  1.00  0.00     0.049 A 
ATOM     49  H   UNL     1       7.811  -5.655  10.727  1.00  0.00     0.167 HD
ATOM     50  C   UNL     1      10.592  -2.705  12.378  1.00  0.00     0.037 A 
ATOM     51  C   UNL     1       6.204  -7.941  10.864  1.00  0.00     0.037 A 
ATOM     52  C   UNL     1      10.153  -3.478  13.511  1.00  0.00     0.049 A 
ATOM     53  C   UNL     1       6.697  -7.700  12.271  1.00  0.00     0.074 A 
ATOM     54  C   UNL     1      10.469  -3.300  14.847  1.00  0.00     0.029 A 
ATOM     55  N   UNL     1       9.315  -4.582  13.442  1.00  0.00    -0.354 N 
ATOM     56  N   UNL     1       7.488  -6.753  12.718  1.00  0.00    -0.248 NA
ATOM     57  C   UNL     1       6.242  -8.638  13.308  1.00  0.00     0.031 C 
ATOM     58  C   UNL     1       9.869  -4.330  15.579  1.00  0.00     0.029 A 
ATOM     59  C   UNL     1       9.127  -5.112  14.708  1.00  0.00     0.049 A 
ATOM     60  H   UNL     1       8.914  -4.935  12.616  1.00  0.00     0.167 HD
ATOM     61  C   UNL     1       7.601  -6.965  14.090  1.00  0.00     0.074 A 
ATOM     62  C   UNL     1       6.789  -8.123  14.401  1.00  0.00     0.031 C 
ATOM     63  C   UNL     1       8.310  -6.262  15.009  1.00  0.00     0.037 A 
BRANCH  50  64
ATOM     64  C   UNL     1      11.567  -1.584  12.615  1.00  0.00     0.058 A 
ATOM     65  C   UNL     1      11.198  -0.237  12.475  1.00  0.00     0.135 A 
ATOM     66  C   UNL     1      12.884  -1.863  13.016  1.00  0.00     0.135 A 
ATOM     67  F   UNL     1       9.958   0.087  12.075  1.00  0.00    -0.206 F 
ATOM     68  C   UNL     1      12.107   0.793  12.697  1.00  0.00     0.059 A 
ATOM     69  C   UNL     1      13.801  -0.849  13.273  1.00  0.00     0.059 A 
ATOM     70  F   UNL     1      13.291  -3.134  13.163  1.00  0.00    -0.206 F 
ATOM     71  C   UNL     1      13.407   0.476  13.097  1.00  0.00     0.060 A 
BRANCH  71  72
ATOM     72  S   UNL     1      14.573   1.823  13.384  1.00  0.00     0.124 S 
ATOM     73  O   UNL     1      14.829   2.282  12.022  1.00  0.00    -0.237 OA
ATOM     74  O   UNL     1      13.799   2.732  14.223  1.00  0.00    -0.237 OA
ATOM     75  O   UNL     1      15.697   1.167  14.045  1.00  0.00    -0.744 OA
ENDBRANCH  71  72
ENDBRANCH  50  64
BRANCH  51  76
ATOM     76  C   UNL     1       5.314  -9.097  10.564  1.00  0.00     0.058 A 
ATOM     77  C   UNL     1       3.994  -9.142  11.037  1.00  0.00     0.135 A 
ATOM     78  C   UNL     1       5.770 -10.185   9.802  1.00  0.00     0.135 A 
ATOM     79  F   UNL     1       3.516  -8.136  11.785  1.00  0.00    -0.206 F 
ATOM     80  C   UNL     1       3.161 -10.226  10.776  1.00  0.00     0.059 A 
ATOM     81  C   UNL     1       4.948 -11.267   9.504  1.00  0.00     0.059 A 
ATOM     82  F   UNL     1       7.023 -10.191   9.321  1.00  0.00    -0.206 F 
ATOM     83  C   UNL     1       3.646 -11.282  10.002  1.00  0.00     0.060 A 
BRANCH  83  84
ATOM     84  S   UNL     1       2.537 -12.656   9.620  1.00  0.00     0.124 S 
ATOM     85  O   UNL     1       2.442 -13.326  10.912  1.00  0.00    -0.237 OA
ATOM     86  O   UNL     1       1.335 -11.961   9.171  1.00  0.00    -0.237 OA
ATOM     87  O   UNL     1       3.255 -13.388   8.581  1.00  0.00    -0.744 OA
ENDBRANCH  83  84
ENDBRANCH  51  76
BRANCH  63  88
ATOM     88  C   UNL     1       8.214  -6.693  16.450  1.00  0.00     0.058 A 
ATOM     89  C   UNL     1       8.820  -7.870  16.916  1.00  0.00     0.135 A 
ATOM     90  C   UNL     1       7.556  -5.881  17.390  1.00  0.00     0.135 A 
ATOM     91  F   UNL     1       9.458  -8.685  16.062  1.00  0.00    -0.206 F 
ATOM     92  C   UNL     1       8.757  -8.239  18.257  1.00  0.00     0.059 A 
ATOM     93  C   UNL     1       7.507  -6.215  18.740  1.00  0.00     0.059 A 
ATOM     94  F   UNL     1       6.969  -4.737  17.003  1.00  0.00    -0.206 F 
ATOM     95  C   UNL     1       8.100  -7.403  19.163  1.00  0.00     0.060 A 
BRANCH  95  96
ATOM     96  S   UNL     1       8.055  -7.877  20.904  1.00  0.00     0.124 S 
ATOM     97  O   UNL     1       7.105  -8.984  20.884  1.00  0.00    -0.237 OA
ATOM     98  O   UNL     1       9.445  -8.239  21.165  1.00  0.00    -0.237 OA
ATOM     99  O   UNL     1       7.593  -6.666  21.576  1.00  0.00    -0.744 OA
ENDBRANCH  95  96
ENDBRANCH  63  88
ENDBRANCH  37  38
ENDBRANCH  30  32
ENDBRANCH  29  30
ENDBRANCH  28  29
ENDBRANCH  27  28
ENDBRANCH  26  27
ENDBRANCH  25  26
ENDBRANCH   1  25
TORSDOF 24
