REMARK SMILES C=CCOc1ccc(C(=O)N2CCC[C@H]2C(=O)OCCOCCOCCOC(=O)c2ccc(-c3c4nc(c(-c5c(F)cc(S(=O)(=O)[O-])cc5F)c5ccc([nH]5)c(-c5c(F)cc(S(=O)(=O)[O-])cc5F)c5nc(c(-c6c(F)cc(S(=O)(=O)[O-])cc6F)c6ccc3[nH]6)C=C5)C=C4)cc2)cc1
REMARK SMILES IDX 22 1 21 2 20 3 19 4 18 5 16 6 17 7 15 8 11 9 12 10 13 11
REMARK SMILES IDX 14 12 9 13 10 14 8 15 5 16 6 17 97 18 7 19 96 20 4 21 3 22
REMARK SMILES IDX 2 23 1 24 23 25 24 26 25 27 26 28 27 29 28 30 29 31 30 32
REMARK SMILES IDX 31 33 95 34 32 35 94 36 33 37 34 38 35 39 88 40 36 41 93 42
REMARK SMILES IDX 87 43 89 44 37 45 92 46 86 47 85 48 38 50 72 51 51 52 71 53
REMARK SMILES IDX 52 54 55 55 70 56 90 57 53 58 54 59 69 61 91 62 56 63 39 64
REMARK SMILES IDX 40 65 49 66 41 67 42 68 48 69 50 70 43 71 44 72 45 73 46 74
REMARK SMILES IDX 47 75 73 76 74 77 83 78 75 79 76 80 82 81 84 82 77 83 78 84
REMARK SMILES IDX 79 85 80 86 81 87 57 88 58 89 67 90 59 91 60 92 66 93 68 94
REMARK SMILES IDX 61 95 62 96 63 97 64 98 65 99
REMARK H PARENT 89 49 55 60
REMARK Flexibility Score: inf
ROOT
ATOM      1  C   UNL     1       2.567   1.520  10.419  1.00  0.00     0.188 C 
ENDROOT
BRANCH   1   2
ATOM      2  O   UNL     1       1.851   1.906  11.574  1.00  0.00    -0.376 OA
BRANCH   2   3
ATOM      3  C   UNL     1       0.996   3.032  11.483  1.00  0.00     0.202 C 
BRANCH   3   4
ATOM      4  C   UNL     1      -0.047   3.132  10.357  1.00  0.00     0.261 C 
BRANCH   4   5
ATOM      5  O   UNL     1       0.318   2.543   9.108  1.00  0.00    -0.462 OA
BRANCH   5   6
ATOM      6  C   UNL     1       0.986   3.310   8.203  1.00  0.00     0.328 C 
ATOM      7  O   UNL     1       1.344   4.464   8.393  1.00  0.00    -0.250 OA
BRANCH   6   8
ATOM      8  C   UNL     1       1.313   2.456   6.968  1.00  0.00     0.195 C 
ATOM      9  N   UNL     1       0.992   3.163   5.746  1.00  0.00    -0.325 N 
ATOM     10  C   UNL     1       2.204   3.719   5.162  1.00  0.00     0.121 C 
ATOM     11  C   UNL     1       3.231   2.641   5.461  1.00  0.00     0.024 C 
ATOM     12  C   UNL     1       2.812   2.125   6.840  1.00  0.00     0.039 C 
BRANCH   9  13
ATOM     13  C   UNL     1      -0.308   3.094   5.292  1.00  0.00     0.254 C 
ATOM     14  O   UNL     1      -1.255   2.982   6.071  1.00  0.00    -0.269 OA
BRANCH  13  15
ATOM     15  C   UNL     1      -0.576   2.959   3.840  1.00  0.00     0.040 A 
ATOM     16  C   UNL     1      -1.189   2.430   1.158  1.00  0.00     0.119 A 
ATOM     17  C   UNL     1      -2.174   2.929   2.010  1.00  0.00     0.047 A 
ATOM     18  C   UNL     1       0.099   2.229   1.639  1.00  0.00     0.047 A 
ATOM     19  C   UNL     1      -1.869   3.194   3.352  1.00  0.00     0.017 A 
ATOM     20  C   UNL     1       0.386   2.431   2.981  1.00  0.00     0.017 A 
BRANCH  16  21
ATOM     21  O   UNL     1      -1.507   2.207  -0.154  1.00  0.00    -0.490 OA
BRANCH  21  22
ATOM     22  C   UNL     1      -1.261   0.857  -0.585  1.00  0.00     0.257 C 
BRANCH  22  23
ATOM     23  C   UNL     1       0.162   0.652  -1.028  1.00  0.00     0.006 C 
ATOM     24  C   UNL     1       0.960  -0.327  -0.573  1.00  0.00     0.007 C 
ENDBRANCH  22  23
ENDBRANCH  21  22
ENDBRANCH  16  21
ENDBRANCH  13  15
ENDBRANCH   9  13
ENDBRANCH   6   8
ENDBRANCH   5   6
ENDBRANCH   4   5
ENDBRANCH   3   4
ENDBRANCH   2   3
ENDBRANCH   1   2
BRANCH   1  25
ATOM     25  C   UNL     1       1.990   0.252   9.747  1.00  0.00     0.188 C 
BRANCH  25  26
ATOM     26  O   UNL     1       0.977  -0.509  10.389  1.00  0.00    -0.376 OA
BRANCH  26  27
ATOM     27  C   UNL     1       1.042  -0.706  11.791  1.00  0.00     0.202 C 
BRANCH  27  28
ATOM     28  C   UNL     1       2.326  -1.264  12.432  1.00  0.00     0.261 C 
BRANCH  28  29
ATOM     29  O   UNL     1       3.576  -0.760  11.930  1.00  0.00    -0.460 OA
BRANCH  29  30
ATOM     30  C   UNL     1       4.255  -1.587  11.101  1.00  0.00     0.338 C 
ATOM     31  O   UNL     1       3.918  -2.719  10.757  1.00  0.00    -0.246 OA
BRANCH  30  32
ATOM     32  C   UNL     1       5.402  -0.883  10.488  1.00  0.00     0.060 A 
ATOM     33  C   UNL     1       5.462  -0.798   9.088  1.00  0.00     0.016 A 
ATOM     34  C   UNL     1       6.447  -0.378  11.264  1.00  0.00     0.016 A 
ATOM     35  C   UNL     1       6.580  -0.250   8.460  1.00  0.00     0.010 A 
ATOM     36  C   UNL     1       7.581   0.151  10.630  1.00  0.00     0.010 A 
ATOM     37  C   UNL     1       7.671   0.180   9.225  1.00  0.00    -0.014 A 
BRANCH  37  38
ATOM     38  C   UNL     1       8.967   0.461   8.552  1.00  0.00     0.031 A 
ATOM     39  C   UNL     1      10.021  -0.617   8.542  1.00  0.00     0.074 A 
ATOM     40  C   UNL     1       9.195   1.626   7.917  1.00  0.00     0.049 A 
ATOM     41  N   UNL     1      11.226  -0.599   8.031  1.00  0.00    -0.248 NA
ATOM     42  C   UNL     1       9.666  -1.887   9.197  1.00  0.00     0.031 C 
ATOM     43  C   UNL     1       8.245   2.732   7.812  1.00  0.00     0.029 A 
ATOM     44  N   UNL     1      10.306   2.071   7.243  1.00  0.00    -0.354 N 
ATOM     45  C   UNL     1      11.773  -1.848   8.306  1.00  0.00     0.074 A 
ATOM     46  C   UNL     1      10.782  -2.586   9.059  1.00  0.00     0.031 C 
ATOM     47  C   UNL     1       8.819   3.734   7.122  1.00  0.00     0.029 A 
ATOM     48  C   UNL     1      10.185   3.354   6.762  1.00  0.00     0.049 A 
ATOM     49  H   UNL     1      11.114   1.524   7.116  1.00  0.00     0.167 HD
ATOM     50  C   UNL     1      12.986  -2.341   7.956  1.00  0.00     0.037 A 
ATOM     51  C   UNL     1      11.079   4.137   6.124  1.00  0.00     0.037 A 
ATOM     52  C   UNL     1      13.974  -1.603   7.212  1.00  0.00     0.049 A 
ATOM     53  C   UNL     1      12.452   3.594   5.809  1.00  0.00     0.074 A 
ATOM     54  C   UNL     1      15.229  -2.019   6.803  1.00  0.00     0.029 A 
ATOM     55  N   UNL     1      13.824  -0.296   6.772  1.00  0.00    -0.354 N 
ATOM     56  N   UNL     1      12.948   2.405   6.059  1.00  0.00    -0.248 NA
ATOM     57  C   UNL     1      13.383   4.498   5.118  1.00  0.00     0.031 C 
ATOM     58  C   UNL     1      15.859  -0.946   6.165  1.00  0.00     0.029 A 
ATOM     59  C   UNL     1      14.972   0.117   6.117  1.00  0.00     0.049 A 
ATOM     60  H   UNL     1      13.020   0.256   6.906  1.00  0.00     0.167 HD
ATOM     61  C   UNL     1      14.234   2.408   5.522  1.00  0.00     0.074 A 
ATOM     62  C   UNL     1      14.435   3.713   4.930  1.00  0.00     0.031 C 
ATOM     63  C   UNL     1      15.160   1.415   5.516  1.00  0.00     0.037 A 
BRANCH  50  64
ATOM     64  C   UNL     1      13.324  -3.738   8.402  1.00  0.00     0.058 A 
ATOM     65  C   UNL     1      12.694  -4.865   7.850  1.00  0.00     0.135 A 
ATOM     66  C   UNL     1      14.313  -3.954   9.376  1.00  0.00     0.135 A 
ATOM     67  F   UNL     1      11.729  -4.718   6.928  1.00  0.00    -0.206 F 
ATOM     68  C   UNL     1      13.011  -6.154   8.268  1.00  0.00     0.059 A 
ATOM     69  C   UNL     1      14.667  -5.236   9.787  1.00  0.00     0.059 A 
ATOM     70  F   UNL     1      14.946  -2.913   9.938  1.00  0.00    -0.206 F 
ATOM     71  C   UNL     1      13.999  -6.329   9.239  1.00  0.00     0.060 A 
BRANCH  71  72
ATOM     72  S   UNL     1      14.398  -8.007   9.771  1.00  0.00     0.124 S 
ATOM     73  O   UNL     1      13.210  -8.358  10.542  1.00  0.00    -0.237 OA
ATOM     74  O   UNL     1      14.558  -8.707   8.500  1.00  0.00    -0.237 OA
ATOM     75  O   UNL     1      15.622  -7.836  10.547  1.00  0.00    -0.744 OA
ENDBRANCH  71  72
ENDBRANCH  50  64
BRANCH  51  76
ATOM     76  C   UNL     1      10.710   5.527   5.737  1.00  0.00     0.058 A 
ATOM     77  C   UNL     1      10.570   5.893   4.390  1.00  0.00     0.135 A 
ATOM     78  C   UNL     1      10.502   6.520   6.707  1.00  0.00     0.135 A 
ATOM     79  F   UNL     1      10.772   4.985   3.423  1.00  0.00    -0.206 F 
ATOM     80  C   UNL     1      10.250   7.195   4.017  1.00  0.00     0.059 A 
ATOM     81  C   UNL     1      10.154   7.822   6.361  1.00  0.00     0.059 A 
ATOM     82  F   UNL     1      10.618   6.221   8.010  1.00  0.00    -0.206 F 
ATOM     83  C   UNL     1      10.039   8.152   5.011  1.00  0.00     0.060 A 
BRANCH  83  84
ATOM     84  S   UNL     1       9.572   9.824   4.516  1.00  0.00     0.124 S 
ATOM     85  O   UNL     1      10.819  10.323   3.949  1.00  0.00    -0.237 OA
ATOM     86  O   UNL     1       8.494   9.569   3.565  1.00  0.00    -0.237 OA
ATOM     87  O   UNL     1       9.157  10.442   5.772  1.00  0.00    -0.744 OA
ENDBRANCH  83  84
ENDBRANCH  51  76
BRANCH  63  88
ATOM     88  C   UNL     1      16.459   1.673   4.798  1.00  0.00     0.058 A 
ATOM     89  C   UNL     1      17.429   2.554   5.300  1.00  0.00     0.135 A 
ATOM     90  C   UNL     1      16.759   0.982   3.611  1.00  0.00     0.135 A 
ATOM     91  F   UNL     1      17.196   3.244   6.428  1.00  0.00    -0.206 F 
ATOM     92  C   UNL     1      18.636   2.764   4.638  1.00  0.00     0.059 A 
ATOM     93  C   UNL     1      17.971   1.152   2.949  1.00  0.00     0.059 A 
ATOM     94  F   UNL     1      15.874   0.116   3.091  1.00  0.00    -0.206 F 
ATOM     95  C   UNL     1      18.898   2.056   3.463  1.00  0.00     0.060 A 
BRANCH  95  96
ATOM     96  S   UNL     1      20.477   2.318   2.627  1.00  0.00     0.124 S 
ATOM     97  O   UNL     1      20.291   3.648   2.056  1.00  0.00    -0.237 OA
ATOM     98  O   UNL     1      21.432   2.229   3.727  1.00  0.00    -0.237 OA
ATOM     99  O   UNL     1      20.538   1.224   1.662  1.00  0.00    -0.744 OA
ENDBRANCH  95  96
ENDBRANCH  63  88
ENDBRANCH  37  38
ENDBRANCH  30  32
ENDBRANCH  29  30
ENDBRANCH  28  29
ENDBRANCH  27  28
ENDBRANCH  26  27
ENDBRANCH  25  26
ENDBRANCH   1  25
TORSDOF 25
