REMARK SMILES CC1=Nc2c(c(C)nn2-c2ccc(F)cc2)[C@H](c2ccc(C(=O)OCCOCCOCCOC(=O)c3ccc(-c4c5nc(c(-c6c(F)cc(S(=O)(=O)[O-])cc6F)c6ccc([nH]6)c(-c6c(F)cc(S(=O)(=O)[O-])cc6F)c6nc(c(-c7c(F)cc(S(=O)(=O)[O-])cc7F)c7ccc4[nH]7)C=C6)C=C5)cc3)cc2)S1
REMARK SMILES IDX 29 1 28 2 27 3 26 4 25 5 24 6 22 7 23 8 21 9 18 10 19 11
REMARK SMILES IDX 103 12 20 13 102 14 17 15 1 16 2 17 3 18 104 19 4 20 5 21
REMARK SMILES IDX 9 22 6 23 8 24 7 25 10 26 11 27 16 28 12 29 15 30 13 31
REMARK SMILES IDX 14 32 30 33 31 34 32 35 33 36 34 37 35 38 36 39 37 40 101 41
REMARK SMILES IDX 38 42 100 43 39 44 40 45 41 46 94 47 42 48 99 49 93 50 95 51
REMARK SMILES IDX 43 52 98 53 92 54 91 55 44 57 78 58 57 59 77 60 58 61 61 62
REMARK SMILES IDX 76 63 96 64 59 65 60 66 75 68 97 69 62 70 45 71 46 72 55 73
REMARK SMILES IDX 47 74 48 75 54 76 56 77 49 78 50 79 51 80 52 81 53 82 79 83
REMARK SMILES IDX 80 84 89 85 81 86 82 87 88 88 90 89 83 90 84 91 85 92 86 93
REMARK SMILES IDX 87 94 63 95 64 96 73 97 65 98 66 99 72 100 74 101 67 102
REMARK SMILES IDX 68 103 69 104 70 105 71 106
REMARK H PARENT 95 56 61 67
REMARK Flexibility Score: inf
ROOT
ATOM      1  C   UNL     1      -2.171  -5.895   5.083  1.00  0.00     0.188 C 
ENDROOT
BRANCH   1   2
ATOM      2  C   UNL     1      -1.698  -7.332   5.376  1.00  0.00     0.188 C 
BRANCH   2   3
ATOM      3  O   UNL     1      -1.734  -7.744   6.721  1.00  0.00    -0.376 OA
BRANCH   3   4
ATOM      4  C   UNL     1      -0.650  -7.487   7.597  1.00  0.00     0.202 C 
BRANCH   4   5
ATOM      5  C   UNL     1       0.577  -6.598   7.295  1.00  0.00     0.261 C 
BRANCH   5   6
ATOM      6  O   UNL     1       0.591  -5.863   6.069  1.00  0.00    -0.460 OA
BRANCH   6   7
ATOM      7  C   UNL     1       1.431  -6.341   5.115  1.00  0.00     0.338 C 
ATOM      8  O   UNL     1       2.190  -7.276   5.221  1.00  0.00    -0.246 OA
BRANCH   7   9
ATOM      9  C   UNL     1       1.165  -5.671   3.815  1.00  0.00     0.060 A 
ATOM     10  C   UNL     1       0.865  -4.543   1.236  1.00  0.00    -0.030 A 
ATOM     11  C   UNL     1       0.988  -5.933   1.416  1.00  0.00     0.006 A 
ATOM     12  C   UNL     1       0.801  -3.740   2.394  1.00  0.00     0.006 A 
ATOM     13  C   UNL     1       1.134  -6.491   2.686  1.00  0.00     0.016 A 
ATOM     14  C   UNL     1       0.963  -4.297   3.677  1.00  0.00     0.016 A 
BRANCH  10  15
ATOM     15  C   UNL     1       0.920  -3.996  -0.189  1.00  0.00     0.119 C 
ATOM     16  C   UNL     1       0.996   0.147  -0.025  1.00  0.00     0.075 C 
ATOM     17  C   UNL     1       0.589  -1.248  -0.422  1.00  0.00     0.074 C 
ATOM     18  N   UNL     1      -0.643  -1.433  -0.771  1.00  0.00    -0.227 NA
ATOM     19  S   UNL     1       1.869  -2.447  -0.356  1.00  0.00    -0.098 SA
ATOM     20  C   UNL     1      -1.054  -2.694  -1.037  1.00  0.00     0.161 A 
ATOM     21  C   UNL     1      -0.447  -3.896  -0.745  1.00  0.00     0.038 A 
ATOM     22  N   UNL     1      -2.277  -2.999  -1.617  1.00  0.00    -0.215 N 
ATOM     23  C   UNL     1      -1.367  -4.880  -1.197  1.00  0.00     0.067 A 
ATOM     24  N   UNL     1      -2.512  -4.333  -1.623  1.00  0.00    -0.171 NA
ATOM     25  C   UNL     1      -1.213  -6.356  -1.255  1.00  0.00     0.069 C 
BRANCH  22  26
ATOM     26  C   UNL     1      -3.202  -2.094  -2.191  1.00  0.00     0.067 A 
ATOM     27  C   UNL     1      -2.744  -1.030  -2.984  1.00  0.00     0.031 A 
ATOM     28  C   UNL     1      -4.569  -2.257  -1.938  1.00  0.00     0.031 A 
ATOM     29  C   UNL     1      -3.658  -0.115  -3.505  1.00  0.00     0.041 A 
ATOM     30  C   UNL     1      -5.470  -1.303  -2.416  1.00  0.00     0.041 A 
ATOM     31  C   UNL     1      -5.008  -0.246  -3.195  1.00  0.00     0.123 A 
ATOM     32  F   UNL     1      -5.874   0.667  -3.654  1.00  0.00    -0.207 F 
ENDBRANCH  22  26
ENDBRANCH  10  15
ENDBRANCH   7   9
ENDBRANCH   6   7
ENDBRANCH   5   6
ENDBRANCH   4   5
ENDBRANCH   3   4
ENDBRANCH   2   3
ENDBRANCH   1   2
BRANCH   1  33
ATOM     33  O   UNL     1      -2.117  -4.891   6.081  1.00  0.00    -0.376 OA
BRANCH  33  34
ATOM     34  C   UNL     1      -2.845  -5.000   7.293  1.00  0.00     0.202 C 
BRANCH  34  35
ATOM     35  C   UNL     1      -4.210  -5.673   7.429  1.00  0.00     0.261 C 
BRANCH  35  36
ATOM     36  O   UNL     1      -4.449  -6.813   6.625  1.00  0.00    -0.460 OA
BRANCH  36  37
ATOM     37  C   UNL     1      -5.230  -6.542   5.559  1.00  0.00     0.338 C 
ATOM     38  O   UNL     1      -5.396  -5.447   5.036  1.00  0.00    -0.246 OA
BRANCH  37  39
ATOM     39  C   UNL     1      -5.999  -7.729   5.191  1.00  0.00     0.060 A 
ATOM     40  C   UNL     1      -6.707  -7.661   3.992  1.00  0.00     0.016 A 
ATOM     41  C   UNL     1      -6.234  -8.740   6.137  1.00  0.00     0.016 A 
ATOM     42  C   UNL     1      -7.779  -8.505   3.821  1.00  0.00     0.010 A 
ATOM     43  C   UNL     1      -7.312  -9.584   5.963  1.00  0.00     0.010 A 
ATOM     44  C   UNL     1      -8.116  -9.409   4.841  1.00  0.00    -0.014 A 
BRANCH  44  45
ATOM     45  C   UNL     1      -9.270 -10.253   4.607  1.00  0.00     0.031 A 
ATOM     46  C   UNL     1      -9.066 -11.187   3.481  1.00  0.00     0.074 A 
ATOM     47  C   UNL     1     -10.402 -10.226   5.335  1.00  0.00     0.049 A 
ATOM     48  N   UNL     1      -9.610 -11.121   2.313  1.00  0.00    -0.248 NA
ATOM     49  C   UNL     1      -7.996 -12.190   3.598  1.00  0.00     0.031 C 
ATOM     50  C   UNL     1     -10.656  -9.537   6.600  1.00  0.00     0.029 A 
ATOM     51  N   UNL     1     -11.565 -10.900   5.114  1.00  0.00    -0.354 N 
ATOM     52  C   UNL     1      -9.134 -12.226   1.624  1.00  0.00     0.074 A 
ATOM     53  C   UNL     1      -8.016 -12.731   2.379  1.00  0.00     0.031 C 
ATOM     54  C   UNL     1     -11.803 -10.013   7.139  1.00  0.00     0.029 A 
ATOM     55  C   UNL     1     -12.425 -10.938   6.205  1.00  0.00     0.049 A 
ATOM     56  H   UNL     1     -11.778 -11.325   4.252  1.00  0.00     0.167 HD
ATOM     57  C   UNL     1      -9.872 -12.798   0.636  1.00  0.00     0.037 A 
ATOM     58  C   UNL     1     -13.524 -11.727   6.339  1.00  0.00     0.037 A 
ATOM     59  C   UNL     1     -10.864 -11.892   0.117  1.00  0.00     0.049 A 
ATOM     60  C   UNL     1     -13.960 -12.102   4.965  1.00  0.00     0.074 A 
ATOM     61  C   UNL     1     -10.812 -10.615  -0.414  1.00  0.00     0.029 A 
ATOM     62  N   UNL     1     -12.178 -12.094   0.467  1.00  0.00    -0.354 N 
ATOM     63  N   UNL     1     -14.455 -11.256   4.102  1.00  0.00    -0.248 NA
ATOM     64  C   UNL     1     -13.419 -13.328   4.395  1.00  0.00     0.031 C 
ATOM     65  C   UNL     1     -11.960  -9.951   0.108  1.00  0.00     0.029 A 
ATOM     66  C   UNL     1     -12.682 -10.879   0.860  1.00  0.00     0.049 A 
ATOM     67  H   UNL     1     -12.666 -12.948   0.440  1.00  0.00     0.167 HD
ATOM     68  C   UNL     1     -13.892 -11.623   2.889  1.00  0.00     0.074 A 
ATOM     69  C   UNL     1     -13.330 -12.953   3.117  1.00  0.00     0.031 C 
ATOM     70  C   UNL     1     -13.682 -10.713   1.892  1.00  0.00     0.037 A 
BRANCH  57  71
ATOM     71  C   UNL     1      -9.921 -14.286   0.433  1.00  0.00     0.058 A 
ATOM     72  C   UNL     1      -9.665 -15.216   1.467  1.00  0.00     0.135 A 
ATOM     73  C   UNL     1     -10.485 -14.816  -0.741  1.00  0.00     0.135 A 
ATOM     74  F   UNL     1      -9.266 -14.836   2.688  1.00  0.00    -0.206 F 
ATOM     75  C   UNL     1      -9.902 -16.574   1.334  1.00  0.00     0.059 A 
ATOM     76  C   UNL     1     -10.790 -16.171  -0.874  1.00  0.00     0.059 A 
ATOM     77  F   UNL     1     -10.816 -14.009  -1.762  1.00  0.00    -0.206 F 
ATOM     78  C   UNL     1     -10.484 -17.042   0.167  1.00  0.00     0.060 A 
BRANCH  78  79
ATOM     79  S   UNL     1     -10.903 -18.790   0.093  1.00  0.00     0.124 S 
ATOM     80  O   UNL     1      -9.578 -19.401   0.051  1.00  0.00    -0.237 OA
ATOM     81  O   UNL     1     -11.651 -18.974   1.332  1.00  0.00    -0.237 OA
ATOM     82  O   UNL     1     -11.685 -18.895  -1.134  1.00  0.00    -0.744 OA
ENDBRANCH  78  79
ENDBRANCH  57  71
BRANCH  58  83
ATOM     83  C   UNL     1     -13.969 -12.485   7.548  1.00  0.00     0.058 A 
ATOM     84  C   UNL     1     -13.105 -12.736   8.632  1.00  0.00     0.135 A 
ATOM     85  C   UNL     1     -15.164 -13.234   7.530  1.00  0.00     0.135 A 
ATOM     86  F   UNL     1     -11.926 -12.110   8.748  1.00  0.00    -0.206 F 
ATOM     87  C   UNL     1     -13.370 -13.711   9.593  1.00  0.00     0.059 A 
ATOM     88  C   UNL     1     -15.447 -14.226   8.479  1.00  0.00     0.059 A 
ATOM     89  F   UNL     1     -16.050 -13.069   6.536  1.00  0.00    -0.206 F 
ATOM     90  C   UNL     1     -14.523 -14.479   9.488  1.00  0.00     0.060 A 
BRANCH  90  91
ATOM     91  S   UNL     1     -14.723 -15.860  10.637  1.00  0.00     0.124 S 
ATOM     92  O   UNL     1     -13.577 -16.697  10.299  1.00  0.00    -0.237 OA
ATOM     93  O   UNL     1     -14.653 -15.190  11.933  1.00  0.00    -0.237 OA
ATOM     94  O   UNL     1     -16.029 -16.410  10.289  1.00  0.00    -0.744 OA
ENDBRANCH  90  91
ENDBRANCH  58  83
BRANCH  70  95
ATOM     95  C   UNL     1     -14.351  -9.363   1.972  1.00  0.00     0.058 A 
ATOM     96  C   UNL     1     -15.098  -8.944   0.859  1.00  0.00     0.135 A 
ATOM     97  C   UNL     1     -14.153  -8.422   2.999  1.00  0.00     0.135 A 
ATOM     98  F   UNL     1     -15.286  -9.776  -0.179  1.00  0.00    -0.206 F 
ATOM     99  C   UNL     1     -15.618  -7.658   0.757  1.00  0.00     0.059 A 
ATOM    100  C   UNL     1     -14.699  -7.135   2.935  1.00  0.00     0.059 A 
ATOM    101  F   UNL     1     -13.372  -8.701   4.054  1.00  0.00    -0.206 F 
ATOM    102  C   UNL     1     -15.417  -6.759   1.801  1.00  0.00     0.060 A 
BRANCH 102 103
ATOM    103  S   UNL     1     -16.092  -5.094   1.625  1.00  0.00     0.124 S 
ATOM    104  O   UNL     1     -15.294  -4.559   0.525  1.00  0.00    -0.237 OA
ATOM    105  O   UNL     1     -17.494  -5.359   1.312  1.00  0.00    -0.237 OA
ATOM    106  O   UNL     1     -15.851  -4.478   2.926  1.00  0.00    -0.744 OA
ENDBRANCH 102 103
ENDBRANCH  70  95
ENDBRANCH  44  45
ENDBRANCH  37  39
ENDBRANCH  36  37
ENDBRANCH  35  36
ENDBRANCH  34  35
ENDBRANCH  33  34
ENDBRANCH   1  33
TORSDOF 22
