REMARK SMILES O=C(OCCOCCOCCOC(=O)c1ccccc1Sc1ccc(S(=O)(=O)N2CCCC2)cc1[N+](=O)[O-])c1ccc(-c2c3nc(c(-c4c(F)cc(S(=O)(=O)[O-])cc4F)c4ccc([nH]4)c(-c4c(F)cc(S(=O)(=O)[O-])cc4F)c4nc(c(-c5c(F)cc(S(=O)(=O)[O-])cc5F)c5ccc2[nH]5)C=C4)C=C3)cc1
REMARK SMILES IDX 8 1 7 2 6 3 5 4 4 5 3 6 2 7 1 8 39 9 40 10 104 11 41 12
REMARK SMILES IDX 103 13 42 14 43 15 44 16 97 17 45 18 102 19 96 20 98 21
REMARK SMILES IDX 46 22 101 23 95 24 94 25 47 27 81 28 60 29 80 30 61 31 64 32
REMARK SMILES IDX 79 33 99 34 62 35 63 36 78 38 100 39 65 40 48 41 49 42 58 43
REMARK SMILES IDX 50 44 51 45 57 46 59 47 52 48 53 49 54 50 55 51 56 52 82 53
REMARK SMILES IDX 83 54 92 55 84 56 85 57 91 58 93 59 86 60 87 61 88 62 89 63
REMARK SMILES IDX 90 64 66 65 67 66 76 67 68 68 69 69 75 70 77 71 70 72 71 73
REMARK SMILES IDX 72 74 73 75 74 76 9 77 10 78 11 79 12 80 13 81 14 82 15 83
REMARK SMILES IDX 16 84 20 85 17 86 19 87 18 88 21 89 22 90 23 91 35 92 24 93
REMARK SMILES IDX 34 94 25 95 36 96 37 97 38 98 26 99 27 100 28 101 29 102
REMARK SMILES IDX 30 103 33 104 31 105 32 106
REMARK H PARENT 98 26 64 37
REMARK Flexibility Score: inf
ROOT
ATOM      1  C   UNL     1       1.302   2.087   0.584  1.00  0.00     0.188 C 
ENDROOT
BRANCH   1   2
ATOM      2  C   UNL     1       1.832   0.920  -0.247  1.00  0.00     0.188 C 
BRANCH   2   3
ATOM      3  O   UNL     1       3.229   0.681  -0.071  1.00  0.00    -0.376 OA
BRANCH   3   4
ATOM      4  C   UNL     1       4.006   0.736  -1.271  1.00  0.00     0.202 C 
BRANCH   4   5
ATOM      5  C   UNL     1       4.133  -0.628  -1.957  1.00  0.00     0.261 C 
BRANCH   5   6
ATOM      6  O   UNL     1       2.905  -1.370  -1.909  1.00  0.00    -0.460 OA
BRANCH   6   7
ATOM      7  C   UNL     1       2.383  -2.050  -0.855  1.00  0.00     0.338 C 
ATOM      8  O   UNL     1       1.208  -2.411  -0.933  1.00  0.00    -0.246 OA
BRANCH   7   9
ATOM      9  C   UNL     1       3.144  -2.417   0.388  1.00  0.00     0.060 A 
ATOM     10  C   UNL     1       4.323  -1.821   0.842  1.00  0.00     0.016 A 
ATOM     11  C   UNL     1       2.595  -3.451   1.173  1.00  0.00     0.016 A 
ATOM     12  C   UNL     1       4.997  -2.295   1.956  1.00  0.00     0.010 A 
ATOM     13  C   UNL     1       3.256  -3.928   2.309  1.00  0.00     0.010 A 
ATOM     14  C   UNL     1       4.490  -3.380   2.662  1.00  0.00    -0.014 A 
BRANCH  14  15
ATOM     15  C   UNL     1       5.416  -4.044   3.593  1.00  0.00     0.031 A 
ATOM     16  C   UNL     1       6.147  -5.254   3.090  1.00  0.00     0.074 A 
ATOM     17  C   UNL     1       5.746  -3.440   4.747  1.00  0.00     0.049 A 
ATOM     18  N   UNL     1       7.045  -5.985   3.688  1.00  0.00    -0.248 NA
ATOM     19  C   UNL     1       5.848  -5.679   1.709  1.00  0.00     0.031 C 
ATOM     20  C   UNL     1       5.183  -2.174   5.222  1.00  0.00     0.029 A 
ATOM     21  N   UNL     1       6.662  -3.781   5.704  1.00  0.00    -0.354 N 
ATOM     22  C   UNL     1       7.412  -6.956   2.764  1.00  0.00     0.074 A 
ATOM     23  C   UNL     1       6.630  -6.738   1.571  1.00  0.00     0.031 C 
ATOM     24  C   UNL     1       5.780  -1.841   6.378  1.00  0.00     0.029 A 
ATOM     25  C   UNL     1       6.707  -2.898   6.756  1.00  0.00     0.049 A 
ATOM     26  H   UNL     1       7.232  -4.580   5.645  1.00  0.00     0.167 HD
ATOM     27  C   UNL     1       8.328  -7.939   2.907  1.00  0.00     0.037 A 
ATOM     28  C   UNL     1       7.394  -2.967   7.911  1.00  0.00     0.037 A 
ATOM     29  C   UNL     1       9.076  -8.133   4.118  1.00  0.00     0.049 A 
ATOM     30  C   UNL     1       8.313  -4.144   8.100  1.00  0.00     0.074 A 
ATOM     31  C   UNL     1       9.955  -9.148   4.442  1.00  0.00     0.029 A 
ATOM     32  N   UNL     1       9.028  -7.275   5.211  1.00  0.00    -0.354 N 
ATOM     33  N   UNL     1       8.586  -5.116   7.258  1.00  0.00    -0.248 NA
ATOM     34  C   UNL     1       9.012  -4.243   9.385  1.00  0.00     0.031 C 
ATOM     35  C   UNL     1      10.405  -8.926   5.748  1.00  0.00     0.029 A 
ATOM     36  C   UNL     1       9.851  -7.743   6.217  1.00  0.00     0.049 A 
ATOM     37  H   UNL     1       8.486  -6.454   5.261  1.00  0.00     0.167 HD
ATOM     38  C   UNL     1       9.498  -5.938   7.907  1.00  0.00     0.074 A 
ATOM     39  C   UNL     1       9.753  -5.327   9.198  1.00  0.00     0.031 C 
ATOM     40  C   UNL     1      10.069  -7.095   7.488  1.00  0.00     0.037 A 
BRANCH  27  41
ATOM     41  C   UNL     1       8.502  -8.893   1.760  1.00  0.00     0.058 A 
ATOM     42  C   UNL     1       9.137  -8.512   0.566  1.00  0.00     0.135 A 
ATOM     43  C   UNL     1       8.000 -10.201   1.845  1.00  0.00     0.135 A 
ATOM     44  F   UNL     1       9.598  -7.260   0.415  1.00  0.00    -0.206 F 
ATOM     45  C   UNL     1       9.255  -9.391  -0.507  1.00  0.00     0.059 A 
ATOM     46  C   UNL     1       8.127 -11.103   0.793  1.00  0.00     0.059 A 
ATOM     47  F   UNL     1       7.362 -10.609   2.953  1.00  0.00    -0.206 F 
ATOM     48  C   UNL     1       8.748 -10.685  -0.383  1.00  0.00     0.060 A 
BRANCH  48  49
ATOM     49  S   UNL     1       8.914 -11.816  -1.782  1.00  0.00     0.124 S 
ATOM     50  O   UNL     1       7.971 -11.241  -2.736  1.00  0.00    -0.237 OA
ATOM     51  O   UNL     1      10.326 -11.678  -2.124  1.00  0.00    -0.237 OA
ATOM     52  O   UNL     1       8.531 -13.108  -1.223  1.00  0.00    -0.744 OA
ENDBRANCH  48  49
ENDBRANCH  27  41
BRANCH  28  53
ATOM     53  C   UNL     1       7.180  -1.954   8.983  1.00  0.00     0.058 A 
ATOM     54  C   UNL     1       8.213  -1.119   9.433  1.00  0.00     0.135 A 
ATOM     55  C   UNL     1       5.925  -1.822   9.604  1.00  0.00     0.135 A 
ATOM     56  F   UNL     1       9.431  -1.200   8.876  1.00  0.00    -0.206 F 
ATOM     57  C   UNL     1       8.022  -0.219  10.480  1.00  0.00     0.059 A 
ATOM     58  C   UNL     1       5.701  -0.908  10.629  1.00  0.00     0.059 A 
ATOM     59  F   UNL     1       4.890  -2.578   9.205  1.00  0.00    -0.206 F 
ATOM     60  C   UNL     1       6.763  -0.127  11.075  1.00  0.00     0.060 A 
BRANCH  60  61
ATOM     61  S   UNL     1       6.523   1.032  12.439  1.00  0.00     0.124 S 
ATOM     62  O   UNL     1       7.237   0.361  13.520  1.00  0.00    -0.237 OA
ATOM     63  O   UNL     1       7.143   2.248  11.922  1.00  0.00    -0.237 OA
ATOM     64  O   UNL     1       5.071   1.084  12.580  1.00  0.00    -0.744 OA
ENDBRANCH  60  61
ENDBRANCH  28  53
BRANCH  40  65
ATOM     65  C   UNL     1      11.035  -7.746   8.432  1.00  0.00     0.058 A 
ATOM     66  C   UNL     1      10.601  -8.382   9.605  1.00  0.00     0.135 A 
ATOM     67  C   UNL     1      12.408  -7.760   8.139  1.00  0.00     0.135 A 
ATOM     68  F   UNL     1       9.298  -8.389   9.928  1.00  0.00    -0.206 F 
ATOM     69  C   UNL     1      11.502  -8.977  10.478  1.00  0.00     0.059 A 
ATOM     70  C   UNL     1      13.322  -8.380   8.981  1.00  0.00     0.059 A 
ATOM     71  F   UNL     1      12.868  -7.178   7.021  1.00  0.00    -0.206 F 
ATOM     72  C   UNL     1      12.861  -8.969  10.157  1.00  0.00     0.060 A 
BRANCH  72  73
ATOM     73  S   UNL     1      14.018  -9.757  11.293  1.00  0.00     0.124 S 
ATOM     74  O   UNL     1      14.067  -8.785  12.380  1.00  0.00    -0.237 OA
ATOM     75  O   UNL     1      13.349 -11.018  11.597  1.00  0.00    -0.237 OA
ATOM     76  O   UNL     1      15.240  -9.877  10.502  1.00  0.00    -0.744 OA
ENDBRANCH  72  73
ENDBRANCH  40  65
ENDBRANCH  14  15
ENDBRANCH   7   9
ENDBRANCH   6   7
ENDBRANCH   5   6
ENDBRANCH   4   5
ENDBRANCH   3   4
ENDBRANCH   2   3
ENDBRANCH   1   2
BRANCH   1  77
ATOM     77  O   UNL     1       2.117   3.239   0.633  1.00  0.00    -0.376 OA
BRANCH  77  78
ATOM     78  C   UNL     1       3.444   3.064   1.082  1.00  0.00     0.202 C 
BRANCH  78  79
ATOM     79  C   UNL     1       3.835   2.150   2.227  1.00  0.00     0.261 C 
BRANCH  79  80
ATOM     80  O   UNL     1       2.873   1.438   2.971  1.00  0.00    -0.460 OA
BRANCH  80  81
ATOM     81  C   UNL     1       2.451   2.156   4.035  1.00  0.00     0.339 C 
ATOM     82  O   UNL     1       2.283   3.365   4.098  1.00  0.00    -0.246 OA
BRANCH  81  83
ATOM     83  C   UNL     1       2.409   1.254   5.169  1.00  0.00     0.074 A 
ATOM     84  C   UNL     1       1.318   0.353   5.170  1.00  0.00     0.017 A 
ATOM     85  C   UNL     1       3.357   1.299   6.204  1.00  0.00     0.027 A 
ATOM     86  C   UNL     1       1.118  -0.504   6.243  1.00  0.00     0.001 A 
ATOM     87  C   UNL     1       3.093   0.432   7.288  1.00  0.00     0.016 A 
ATOM     88  C   UNL     1       1.999  -0.451   7.312  1.00  0.00     0.001 A 
BRANCH  85  89
ATOM     89  S   UNL     1       4.872   2.253   6.430  1.00  0.00    -0.082 SA
BRANCH  89  90
ATOM     90  C   UNL     1       5.418   3.212   5.023  1.00  0.00     0.090 A 
ATOM     91  C   UNL     1       6.426   2.638   4.206  1.00  0.00     0.024 A 
ATOM     92  C   UNL     1       5.021   4.526   4.676  1.00  0.00     0.284 A 
ATOM     93  C   UNL     1       6.879   3.263   3.014  1.00  0.00     0.023 A 
ATOM     94  C   UNL     1       5.484   5.160   3.480  1.00  0.00     0.108 A 
ATOM     95  C   UNL     1       6.360   4.505   2.618  1.00  0.00     0.089 A 
BRANCH  92  96
ATOM     96  N   UNL     1       4.056   5.294   5.479  1.00  0.00     0.063 N 
ATOM     97  O   UNL     1       3.414   6.179   4.889  1.00  0.00    -0.258 OA
ATOM     98  O   UNL     1       3.997   5.092   6.696  1.00  0.00    -0.258 OA
ENDBRANCH  92  96
BRANCH  95  99
ATOM     99  S   UNL     1       6.732   5.119   0.959  1.00  0.00     0.243 S 
ATOM    100  O   UNL     1       7.906   5.954   1.103  1.00  0.00    -0.207 OA
ATOM    101  O   UNL     1       6.729   3.951   0.102  1.00  0.00    -0.207 OA
BRANCH  99 102
ATOM    102  N   UNL     1       5.477   6.091   0.457  1.00  0.00    -0.198 NA
ATOM    103  C   UNL     1       5.270   7.476   0.858  1.00  0.00     0.102 C 
ATOM    104  C   UNL     1       4.399   5.745  -0.473  1.00  0.00     0.102 C 
ATOM    105  C   UNL     1       3.753   7.551   1.023  1.00  0.00     0.018 C 
ATOM    106  C   UNL     1       3.182   6.429   0.152  1.00  0.00     0.018 C 
ENDBRANCH  99 102
ENDBRANCH  95  99
ENDBRANCH  89  90
ENDBRANCH  85  89
ENDBRANCH  81  83
ENDBRANCH  80  81
ENDBRANCH  79  80
ENDBRANCH  78  79
ENDBRANCH  77  78
ENDBRANCH   1  77
TORSDOF 25
