REMARK SMILES C[C@@](NC(=O)[C@H]1COc2ccccc21)(C(=O)OCCOCCOCCOC(=O)c1ccc(-c2c3nc(c(-c4c(F)cc(S(=O)(=O)[O-])cc4F)c4ccc([nH]4)c(-c4c(F)cc(S(=O)(=O)[O-])cc4F)c4nc(c(-c5c(F)cc(S(=O)(=O)[O-])cc5F)c5ccc2[nH]5)C=C4)C=C3)cc1)C(F)(F)F
REMARK SMILES IDX 22 1 21 2 20 3 19 4 18 5 17 6 15 7 16 8 2 9 1 10 3 11 4 12
REMARK SMILES IDX 5 14 6 15 7 16 14 17 8 18 9 19 13 20 10 21 12 22 11 23 95 24
REMARK SMILES IDX 96 25 97 26 98 27 23 28 24 29 25 30 26 31 27 32 28 33 29 34
REMARK SMILES IDX 30 35 94 36 31 37 93 38 32 39 33 40 34 41 87 42 35 43 92 44
REMARK SMILES IDX 86 45 88 46 36 47 91 48 85 49 84 50 37 52 71 53 50 54 70 55
REMARK SMILES IDX 51 56 54 57 69 58 89 59 52 60 53 61 68 63 90 64 55 65 38 66
REMARK SMILES IDX 39 67 48 68 40 69 41 70 47 71 49 72 42 73 43 74 44 75 45 76
REMARK SMILES IDX 46 77 72 78 73 79 82 80 74 81 75 82 81 83 83 84 76 85 77 86
REMARK SMILES IDX 78 87 79 88 80 89 56 90 57 91 66 92 58 93 59 94 65 95 67 96
REMARK SMILES IDX 60 97 61 98 62 99 63 100 64 101
REMARK H PARENT 3 13 88 51 54 62
REMARK Flexibility Score: inf
ROOT
ATOM      1  C   UNL     1      -1.514  -0.767  -1.515  1.00  0.00     0.188 C 
ENDROOT
BRANCH   1   2
ATOM      2  C   UNL     1      -2.602  -1.759  -1.068  1.00  0.00     0.188 C 
BRANCH   2   3
ATOM      3  O   UNL     1      -3.819  -1.106  -0.778  1.00  0.00    -0.376 OA
BRANCH   3   4
ATOM      4  C   UNL     1      -4.132  -0.921   0.584  1.00  0.00     0.202 C 
BRANCH   4   5
ATOM      5  C   UNL     1      -3.110  -0.311   1.549  1.00  0.00     0.261 C 
BRANCH   5   6
ATOM      6  O   UNL     1      -1.699  -0.362   1.243  1.00  0.00    -0.461 OA
BRANCH   6   7
ATOM      7  C   UNL     1      -0.934  -1.352   1.797  1.00  0.00     0.341 C 
ATOM      8  O   UNL     1      -1.420  -2.369   2.272  1.00  0.00    -0.249 OA
BRANCH   7   9
ATOM      9  C   UNL     1       0.538  -0.915   1.973  1.00  0.00     0.231 C 
ATOM     10  C   UNL     1       0.949   0.307   1.130  1.00  0.00     0.058 C 
BRANCH   9  11
ATOM     11  N   UNL     1       0.927  -0.639   3.417  1.00  0.00    -0.332 N 
ATOM     12  C   UNL     1       0.283   0.051   4.418  1.00  0.00     0.232 C 
ATOM     13  H   UNL     1       1.795  -1.022   3.682  1.00  0.00     0.164 HD
ATOM     14  O   UNL     1       0.967   0.606   5.275  1.00  0.00    -0.274 OA
BRANCH  12  15
ATOM     15  C   UNL     1      -1.217  -0.009   4.461  1.00  0.00     0.150 C 
ATOM     16  C   UNL     1      -1.710  -1.318   5.096  1.00  0.00     0.248 C 
ATOM     17  C   UNL     1      -2.019   0.976   5.221  1.00  0.00     0.010 A 
ATOM     18  O   UNL     1      -2.503  -1.027   6.271  1.00  0.00    -0.492 OA
ATOM     19  C   UNL     1      -2.782   0.307   6.164  1.00  0.00     0.123 A 
ATOM     20  C   UNL     1      -2.253   2.311   4.935  1.00  0.00     0.008 A 
ATOM     21  C   UNL     1      -3.795   0.930   6.859  1.00  0.00     0.047 A 
ATOM     22  C   UNL     1      -3.286   2.958   5.617  1.00  0.00     0.001 A 
ATOM     23  C   UNL     1      -4.057   2.269   6.569  1.00  0.00     0.004 A 
ENDBRANCH  12  15
ENDBRANCH   9  11
BRANCH   9  24
ATOM     24  C   UNL     1       1.306  -2.141   1.425  1.00  0.00     0.422 C 
ATOM     25  F   UNL     1       0.932  -2.453   0.163  1.00  0.00    -0.168 F 
ATOM     26  F   UNL     1       2.639  -1.877   1.390  1.00  0.00    -0.168 F 
ATOM     27  F   UNL     1       1.151  -3.238   2.193  1.00  0.00    -0.168 F 
ENDBRANCH   9  24
ENDBRANCH   7   9
ENDBRANCH   6   7
ENDBRANCH   5   6
ENDBRANCH   4   5
ENDBRANCH   3   4
ENDBRANCH   2   3
ENDBRANCH   1   2
BRANCH   1  28
ATOM     28  O   UNL     1      -1.823   0.606  -1.710  1.00  0.00    -0.376 OA
BRANCH  28  29
ATOM     29  C   UNL     1      -3.005   0.946  -2.426  1.00  0.00     0.202 C 
BRANCH  29  30
ATOM     30  C   UNL     1      -3.330   0.287  -3.784  1.00  0.00     0.261 C 
BRANCH  30  31
ATOM     31  O   UNL     1      -2.963  -1.093  -3.934  1.00  0.00    -0.460 OA
BRANCH  31  32
ATOM     32  C   UNL     1      -1.820  -1.330  -4.630  1.00  0.00     0.338 C 
ATOM     33  O   UNL     1      -1.121  -0.500  -5.189  1.00  0.00    -0.246 OA
BRANCH  32  34
ATOM     34  C   UNL     1      -1.392  -2.730  -4.385  1.00  0.00     0.060 A 
ATOM     35  C   UNL     1      -0.114  -2.947  -3.842  1.00  0.00     0.016 A 
ATOM     36  C   UNL     1      -2.239  -3.811  -4.633  1.00  0.00     0.016 A 
ATOM     37  C   UNL     1       0.320  -4.238  -3.543  1.00  0.00     0.010 A 
ATOM     38  C   UNL     1      -1.783  -5.110  -4.383  1.00  0.00     0.010 A 
ATOM     39  C   UNL     1      -0.495  -5.330  -3.859  1.00  0.00    -0.014 A 
BRANCH  39  40
ATOM     40  C   UNL     1       0.092  -6.692  -3.878  1.00  0.00     0.031 A 
ATOM     41  C   UNL     1       0.689  -7.175  -5.172  1.00  0.00     0.074 A 
ATOM     42  C   UNL     1       0.113  -7.478  -2.786  1.00  0.00     0.049 A 
ATOM     43  N   UNL     1       1.184  -8.346  -5.474  1.00  0.00    -0.248 NA
ATOM     44  C   UNL     1       0.732  -6.200  -6.276  1.00  0.00     0.031 C 
ATOM     45  C   UNL     1      -0.375  -7.105  -1.460  1.00  0.00     0.029 A 
ATOM     46  N   UNL     1       0.557  -8.769  -2.631  1.00  0.00    -0.354 N 
ATOM     47  C   UNL     1       1.587  -8.252  -6.800  1.00  0.00     0.074 A 
ATOM     48  C   UNL     1       1.265  -6.918  -7.252  1.00  0.00     0.031 C 
ATOM     49  C   UNL     1      -0.229  -8.156  -0.631  1.00  0.00     0.029 A 
ATOM     50  C   UNL     1       0.332  -9.284  -1.376  1.00  0.00     0.049 A 
ATOM     51  H   UNL     1       0.996  -9.277  -3.351  1.00  0.00     0.167 HD
ATOM     52  C   UNL     1       2.174  -9.194  -7.573  1.00  0.00     0.037 A 
ATOM     53  C   UNL     1       0.527 -10.530  -0.898  1.00  0.00     0.037 A 
ATOM     54  C   UNL     1       2.489 -10.524  -7.125  1.00  0.00     0.049 A 
ATOM     55  C   UNL     1       1.106 -11.590  -1.806  1.00  0.00     0.074 A 
ATOM     56  C   UNL     1       3.090 -11.548  -7.833  1.00  0.00     0.029 A 
ATOM     57  N   UNL     1       2.219 -11.015  -5.857  1.00  0.00    -0.354 N 
ATOM     58  N   UNL     1       1.495 -11.487  -3.055  1.00  0.00    -0.248 NA
ATOM     59  C   UNL     1       1.271 -12.938  -1.239  1.00  0.00     0.031 C 
ATOM     60  C   UNL     1       3.141 -12.677  -7.008  1.00  0.00     0.029 A 
ATOM     61  C   UNL     1       2.620 -12.338  -5.770  1.00  0.00     0.049 A 
ATOM     62  H   UNL     1       1.805 -10.501  -5.128  1.00  0.00     0.167 HD
ATOM     63  C   UNL     1       1.978 -12.745  -3.410  1.00  0.00     0.074 A 
ATOM     64  C   UNL     1       1.841 -13.589  -2.243  1.00  0.00     0.031 C 
ATOM     65  C   UNL     1       2.491 -13.162  -4.595  1.00  0.00     0.037 A 
BRANCH  52  66
ATOM     66  C   UNL     1       2.486  -8.830  -8.996  1.00  0.00     0.058 A 
ATOM     67  C   UNL     1       3.540  -7.963  -9.323  1.00  0.00     0.135 A 
ATOM     68  C   UNL     1       1.743  -9.389 -10.048  1.00  0.00     0.135 A 
ATOM     69  F   UNL     1       4.262  -7.381  -8.353  1.00  0.00    -0.206 F 
ATOM     70  C   UNL     1       3.840  -7.654 -10.645  1.00  0.00     0.059 A 
ATOM     71  C   UNL     1       2.042  -9.114 -11.378  1.00  0.00     0.059 A 
ATOM     72  F   UNL     1       0.718 -10.215  -9.788  1.00  0.00    -0.206 F 
ATOM     73  C   UNL     1       3.088  -8.238 -11.666  1.00  0.00     0.060 A 
BRANCH  73  74
ATOM     74  S   UNL     1       3.508  -7.847 -13.377  1.00  0.00     0.124 S 
ATOM     75  O   UNL     1       3.035  -6.470 -13.486  1.00  0.00    -0.237 OA
ATOM     76  O   UNL     1       4.957  -8.022 -13.390  1.00  0.00    -0.237 OA
ATOM     77  O   UNL     1       2.754  -8.832 -14.146  1.00  0.00    -0.744 OA
ENDBRANCH  73  74
ENDBRANCH  52  66
BRANCH  53  78
ATOM     78  C   UNL     1       0.141 -10.871   0.499  1.00  0.00     0.058 A 
ATOM     79  C   UNL     1       1.107 -11.195   1.463  1.00  0.00     0.135 A 
ATOM     80  C   UNL     1      -1.208 -10.920   0.887  1.00  0.00     0.135 A 
ATOM     81  F   UNL     1       2.409 -11.180   1.138  1.00  0.00    -0.206 F 
ATOM     82  C   UNL     1       0.752 -11.580   2.753  1.00  0.00     0.059 A 
ATOM     83  C   UNL     1      -1.587 -11.275   2.178  1.00  0.00     0.059 A 
ATOM     84  F   UNL     1      -2.173 -10.615   0.005  1.00  0.00    -0.206 F 
ATOM     85  C   UNL     1      -0.600 -11.618   3.100  1.00  0.00     0.060 A 
BRANCH  85  86
ATOM     86  S   UNL     1      -1.052 -12.097   4.782  1.00  0.00     0.124 S 
ATOM     87  O   UNL     1      -0.809 -13.534   4.753  1.00  0.00    -0.237 OA
ATOM     88  O   UNL     1      -0.123 -11.308   5.586  1.00  0.00    -0.237 OA
ATOM     89  O   UNL     1      -2.452 -11.694   4.880  1.00  0.00    -0.744 OA
ENDBRANCH  85  86
ENDBRANCH  53  78
BRANCH  65  90
ATOM     90  C   UNL     1       2.986 -14.580  -4.684  1.00  0.00     0.058 A 
ATOM     91  C   UNL     1       2.105 -15.671  -4.731  1.00  0.00     0.135 A 
ATOM     92  C   UNL     1       4.362 -14.845  -4.791  1.00  0.00     0.135 A 
ATOM     93  F   UNL     1       0.781 -15.475  -4.631  1.00  0.00    -0.206 F 
ATOM     94  C   UNL     1       2.571 -16.977  -4.859  1.00  0.00     0.059 A 
ATOM     95  C   UNL     1       4.848 -16.139  -4.947  1.00  0.00     0.059 A 
ATOM     96  F   UNL     1       5.248 -13.837  -4.766  1.00  0.00    -0.206 F 
ATOM     97  C   UNL     1       3.945 -17.200  -4.968  1.00  0.00     0.060 A 
BRANCH  97  98
ATOM     98  S   UNL     1       4.534 -18.895  -5.170  1.00  0.00     0.124 S 
ATOM     99  O   UNL     1       4.354 -19.431  -3.825  1.00  0.00    -0.237 OA
ATOM    100  O   UNL     1       3.631 -19.422  -6.189  1.00  0.00    -0.237 OA
ATOM    101  O   UNL     1       5.920 -18.725  -5.598  1.00  0.00    -0.744 OA
ENDBRANCH  97  98
ENDBRANCH  65  90
ENDBRANCH  39  40
ENDBRANCH  32  34
ENDBRANCH  31  32
ENDBRANCH  30  31
ENDBRANCH  29  30
ENDBRANCH  28  29
ENDBRANCH   1  28
TORSDOF 23
