REMARK SMILES [NH3+][C@@]1(C(=O)OCCOCCOCCOC(=O)c2ccc(-c3c4nc(c(-c5c(F)cc(S(=O)(=O)[O-])cc5F)c5ccc([nH]5)c(-c5c(F)cc(S(=O)(=O)[O-])cc5F)c5nc(c(-c6c(F)cc(S(=O)(=O)[O-])cc6F)c6ccc3[nH]6)C=C5)C=C4)cc2)CC[C@H](Sc2ccc(Cl)cn2)C1
REMARK SMILES IDX 10 1 9 2 8 3 7 4 6 5 5 6 3 7 4 8 2 9 83 10 94 11 84 12 85 13
REMARK SMILES IDX 1 14 86 18 87 19 88 20 93 21 89 22 92 23 90 24 91 25 11 26
REMARK SMILES IDX 12 27 13 28 14 29 15 30 16 31 17 32 18 33 82 34 19 35 81 36
REMARK SMILES IDX 20 37 21 38 22 39 75 40 23 41 80 42 74 43 76 44 24 45 79 46
REMARK SMILES IDX 73 47 72 48 25 50 59 51 38 52 58 53 39 54 42 55 57 56 77 57
REMARK SMILES IDX 40 58 41 59 56 61 78 62 43 63 26 64 27 65 36 66 28 67 29 68
REMARK SMILES IDX 35 69 37 70 30 71 31 72 32 73 33 74 34 75 60 76 61 77 70 78
REMARK SMILES IDX 62 79 63 80 69 81 71 82 64 83 65 84 66 85 67 86 68 87 44 88
REMARK SMILES IDX 45 89 54 90 46 91 47 92 53 93 55 94 48 95 49 96 50 97 51 98
REMARK SMILES IDX 52 99
REMARK H PARENT 1 15 1 16 1 17 76 49 42 60
REMARK Flexibility Score: inf
ROOT
ATOM      1  C   UNL     1       2.291   1.402  -3.112  1.00  0.00     0.188 C 
ENDROOT
BRANCH   1   2
ATOM      2  C   UNL     1       1.563   0.147  -3.600  1.00  0.00     0.188 C 
BRANCH   2   3
ATOM      3  O   UNL     1       0.748   0.237  -4.758  1.00  0.00    -0.376 OA
BRANCH   3   4
ATOM      4  C   UNL     1      -0.144   1.340  -4.888  1.00  0.00     0.202 C 
BRANCH   4   5
ATOM      5  C   UNL     1      -1.076   1.715  -3.719  1.00  0.00     0.261 C 
BRANCH   5   6
ATOM      6  O   UNL     1      -0.432   2.021  -2.460  1.00  0.00    -0.459 OA
BRANCH   6   7
ATOM      7  C   UNL     1      -0.732   1.200  -1.424  1.00  0.00     0.368 C 
ATOM      8  O   UNL     1      -1.506   0.248  -1.508  1.00  0.00    -0.245 OA
BRANCH   7   9
ATOM      9  C   UNL     1       0.032   1.498  -0.092  1.00  0.00     0.193 C 
ATOM     10  C   UNL     1      -1.018   1.865   0.959  1.00  0.00     0.082 C 
ATOM     11  C   UNL     1       0.998   2.690   0.002  1.00  0.00     0.096 C 
ATOM     12  C   UNL     1      -1.233   3.354   0.707  1.00  0.00     0.022 C 
ATOM     13  C   UNL     1       0.177   3.901   0.470  1.00  0.00     0.060 C 
BRANCH   9  14
ATOM     14  N   UNL     1       0.740   0.257   0.304  1.00  0.00    -0.343 N 
ATOM     15  H   UNL     1       0.099  -0.534   0.241  1.00  0.00     0.345 HD
ATOM     16  H   UNL     1       1.075   0.349   1.263  1.00  0.00     0.345 HD
ATOM     17  H   UNL     1       1.532   0.104  -0.320  1.00  0.00     0.345 HD
ENDBRANCH   9  14
BRANCH  13  18
ATOM     18  S   UNL     1       0.310   5.210  -0.799  1.00  0.00    -0.103 SA
BRANCH  18  19
ATOM     19  C   UNL     1      -0.607   6.579  -0.156  1.00  0.00     0.096 A 
ATOM     20  C   UNL     1      -1.127   6.661   1.130  1.00  0.00     0.037 A 
ATOM     21  N   UNL     1      -0.790   7.571  -1.061  1.00  0.00    -0.248 NA
ATOM     22  C   UNL     1      -1.919   7.757   1.477  1.00  0.00     0.025 A 
ATOM     23  C   UNL     1      -1.536   8.637  -0.694  1.00  0.00     0.132 A 
ATOM     24  C   UNL     1      -2.133   8.762   0.546  1.00  0.00     0.059 A 
ATOM     25  Cl  UNL     1      -3.113  10.116   0.925  1.00  0.00    -0.083 Cl
ENDBRANCH  18  19
ENDBRANCH  13  18
ENDBRANCH   7   9
ENDBRANCH   6   7
ENDBRANCH   5   6
ENDBRANCH   4   5
ENDBRANCH   3   4
ENDBRANCH   2   3
ENDBRANCH   1   2
BRANCH   1  26
ATOM     26  O   UNL     1       1.978   2.584  -3.809  1.00  0.00    -0.376 OA
BRANCH  26  27
ATOM     27  C   UNL     1       3.024   3.283  -4.465  1.00  0.00     0.202 C 
BRANCH  27  28
ATOM     28  C   UNL     1       3.951   2.506  -5.422  1.00  0.00     0.261 C 
BRANCH  28  29
ATOM     29  O   UNL     1       4.535   1.290  -4.915  1.00  0.00    -0.460 OA
BRANCH  29  30
ATOM     30  C   UNL     1       5.458   1.411  -3.929  1.00  0.00     0.338 C 
ATOM     31  O   UNL     1       5.910   2.456  -3.485  1.00  0.00    -0.246 OA
BRANCH  30  32
ATOM     32  C   UNL     1       5.607   0.083  -3.277  1.00  0.00     0.060 A 
ATOM     33  C   UNL     1       5.340  -0.023  -1.903  1.00  0.00     0.016 A 
ATOM     34  C   UNL     1       5.944  -1.056  -4.011  1.00  0.00     0.016 A 
ATOM     35  C   UNL     1       5.438  -1.258  -1.257  1.00  0.00     0.010 A 
ATOM     36  C   UNL     1       6.068  -2.289  -3.355  1.00  0.00     0.010 A 
ATOM     37  C   UNL     1       5.844  -2.393  -1.970  1.00  0.00    -0.014 A 
BRANCH  37  38
ATOM     38  C   UNL     1       6.200  -3.636  -1.233  1.00  0.00     0.031 A 
ATOM     39  C   UNL     1       7.654  -3.916  -0.952  1.00  0.00     0.074 A 
ATOM     40  C   UNL     1       5.257  -4.485  -0.782  1.00  0.00     0.049 A 
ATOM     41  N   UNL     1       8.203  -4.929  -0.332  1.00  0.00    -0.248 NA
ATOM     42  C   UNL     1       8.618  -2.915  -1.437  1.00  0.00     0.031 C 
ATOM     43  C   UNL     1       3.816  -4.318  -0.956  1.00  0.00     0.029 A 
ATOM     44  N   UNL     1       5.377  -5.663  -0.085  1.00  0.00    -0.354 N 
ATOM     45  C   UNL     1       9.573  -4.690  -0.354  1.00  0.00     0.074 A 
ATOM     46  C   UNL     1       9.774  -3.455  -1.081  1.00  0.00     0.031 C 
ATOM     47  C   UNL     1       3.184  -5.360  -0.385  1.00  0.00     0.029 A 
ATOM     48  C   UNL     1       4.175  -6.282   0.168  1.00  0.00     0.049 A 
ATOM     49  H   UNL     1       6.243  -6.030   0.206  1.00  0.00     0.167 HD
ATOM     50  C   UNL     1      10.573  -5.426   0.188  1.00  0.00     0.037 A 
ATOM     51  C   UNL     1       3.907  -7.464   0.761  1.00  0.00     0.037 A 
ATOM     52  C   UNL     1      10.374  -6.661   0.905  1.00  0.00     0.049 A 
ATOM     53  C   UNL     1       5.042  -8.298   1.302  1.00  0.00     0.074 A 
ATOM     54  C   UNL     1      11.324  -7.470   1.503  1.00  0.00     0.029 A 
ATOM     55  N   UNL     1       9.146  -7.272   1.111  1.00  0.00    -0.354 N 
ATOM     56  N   UNL     1       6.331  -8.048   1.296  1.00  0.00    -0.248 NA
ATOM     57  C   UNL     1       4.684  -9.573   1.941  1.00  0.00     0.031 C 
ATOM     58  C   UNL     1      10.678  -8.600   2.018  1.00  0.00     0.029 A 
ATOM     59  C   UNL     1       9.316  -8.461   1.802  1.00  0.00     0.049 A 
ATOM     60  H   UNL     1       8.279  -6.913   0.810  1.00  0.00     0.167 HD
ATOM     61  C   UNL     1       6.932  -9.118   1.955  1.00  0.00     0.074 A 
ATOM     62  C   UNL     1       5.863 -10.006   2.364  1.00  0.00     0.031 C 
ATOM     63  C   UNL     1       8.248  -9.345   2.201  1.00  0.00     0.037 A 
BRANCH  50  64
ATOM     64  C   UNL     1      11.983  -4.930   0.002  1.00  0.00     0.058 A 
ATOM     65  C   UNL     1      12.457  -3.777   0.650  1.00  0.00     0.135 A 
ATOM     66  C   UNL     1      12.884  -5.638  -0.811  1.00  0.00     0.135 A 
ATOM     67  F   UNL     1      11.636  -3.049   1.424  1.00  0.00    -0.206 F 
ATOM     68  C   UNL     1      13.764  -3.331   0.479  1.00  0.00     0.059 A 
ATOM     69  C   UNL     1      14.204  -5.227  -0.971  1.00  0.00     0.059 A 
ATOM     70  F   UNL     1      12.484  -6.744  -1.458  1.00  0.00    -0.206 F 
ATOM     71  C   UNL     1      14.631  -4.065  -0.333  1.00  0.00     0.060 A 
BRANCH  71  72
ATOM     72  S   UNL     1      16.326  -3.477  -0.536  1.00  0.00     0.124 S 
ATOM     73  O   UNL     1      16.125  -2.284  -1.353  1.00  0.00    -0.237 OA
ATOM     74  O   UNL     1      16.739  -3.239   0.843  1.00  0.00    -0.237 OA
ATOM     75  O   UNL     1      16.994  -4.589  -1.205  1.00  0.00    -0.744 OA
ENDBRANCH  71  72
ENDBRANCH  50  64
BRANCH  51  76
ATOM     76  C   UNL     1       2.500  -7.942   0.874  1.00  0.00     0.058 A 
ATOM     77  C   UNL     1       1.864  -8.052   2.120  1.00  0.00     0.135 A 
ATOM     78  C   UNL     1       1.768  -8.314  -0.265  1.00  0.00     0.135 A 
ATOM     79  F   UNL     1       2.526  -7.727   3.241  1.00  0.00    -0.206 F 
ATOM     80  C   UNL     1       0.561  -8.528   2.236  1.00  0.00     0.059 A 
ATOM     81  C   UNL     1       0.453  -8.763  -0.177  1.00  0.00     0.059 A 
ATOM     82  F   UNL     1       2.325  -8.225  -1.482  1.00  0.00    -0.206 F 
ATOM     83  C   UNL     1      -0.138  -8.877   1.080  1.00  0.00     0.060 A 
BRANCH  83  84
ATOM     84  S   UNL     1      -1.846  -9.443   1.238  1.00  0.00     0.124 S 
ATOM     85  O   UNL     1      -1.665 -10.763   1.831  1.00  0.00    -0.237 OA
ATOM     86  O   UNL     1      -2.425  -8.425   2.110  1.00  0.00    -0.237 OA
ATOM     87  O   UNL     1      -2.333  -9.431  -0.138  1.00  0.00    -0.744 OA
ENDBRANCH  83  84
ENDBRANCH  51  76
BRANCH  63  88
ATOM     88  C   UNL     1       8.602 -10.586   2.981  1.00  0.00     0.058 A 
ATOM     89  C   UNL     1       8.435 -11.875   2.449  1.00  0.00     0.135 A 
ATOM     90  C   UNL     1       9.122 -10.484   4.283  1.00  0.00     0.135 A 
ATOM     91  F   UNL     1       7.945 -12.036   1.209  1.00  0.00    -0.206 F 
ATOM     92  C   UNL     1       8.716 -13.016   3.197  1.00  0.00     0.059 A 
ATOM     93  C   UNL     1       9.445 -11.610   5.035  1.00  0.00     0.059 A 
ATOM     94  F   UNL     1       9.323  -9.278   4.839  1.00  0.00    -0.206 F 
ATOM     95  C   UNL     1       9.214 -12.872   4.493  1.00  0.00     0.060 A 
BRANCH  95  96
ATOM     96  S   UNL     1       9.553 -14.358   5.461  1.00  0.00     0.124 S 
ATOM     97  O   UNL     1       8.204 -14.810   5.787  1.00  0.00    -0.237 OA
ATOM     98  O   UNL     1      10.288 -15.189   4.513  1.00  0.00    -0.237 OA
ATOM     99  O   UNL     1      10.336 -13.859   6.588  1.00  0.00    -0.744 OA
ENDBRANCH  95  96
ENDBRANCH  63  88
ENDBRANCH  37  38
ENDBRANCH  30  32
ENDBRANCH  29  30
ENDBRANCH  28  29
ENDBRANCH  27  28
ENDBRANCH  26  27
ENDBRANCH   1  26
TORSDOF 23
