REMARK SMILES Cc1ccc(-c2cc(Cl)cc3c2O[C@@H](C(F)(F)F)C(C(=O)OCCOCCOCCOC(=O)c2ccc(-c4c5nc(c(-c6c(F)cc(S(=O)(=O)[O-])cc6F)c6ccc([nH]6)c(-c6c(F)cc(S(=O)(=O)[O-])cc6F)c6nc(c(-c7c(F)cc(S(=O)(=O)[O-])cc7F)c7ccc4[nH]7)C=C6)C=C5)cc2)=C3)cc1
REMARK SMILES IDX 27 1 26 2 25 3 24 4 23 5 22 6 20 7 21 8 19 9 6 10 7 11 12 12
REMARK SMILES IDX 8 13 11 14 13 15 9 16 10 17 100 18 14 19 5 20 1 21 2 22 3 23
REMARK SMILES IDX 102 24 4 25 101 26 15 27 16 28 17 29 18 30 28 31 29 32 30 33
REMARK SMILES IDX 31 34 32 35 33 36 34 37 35 38 99 39 36 40 98 41 37 42 38 43
REMARK SMILES IDX 39 44 92 45 40 46 97 47 91 48 93 49 41 50 96 51 90 52 89 53
REMARK SMILES IDX 42 55 76 56 55 57 75 58 56 59 59 60 74 61 94 62 57 63 58 64
REMARK SMILES IDX 73 66 95 67 60 68 43 69 44 70 53 71 45 72 46 73 52 74 54 75
REMARK SMILES IDX 47 76 48 77 49 78 50 79 51 80 77 81 78 82 87 83 79 84 80 85
REMARK SMILES IDX 86 86 88 87 81 88 82 89 83 90 84 91 85 92 61 93 62 94 71 95
REMARK SMILES IDX 63 96 64 97 70 98 72 99 65 100 66 101 67 102 68 103 69 104
REMARK H PARENT 93 54 59 65
REMARK Flexibility Score: inf
ROOT
ATOM      1  C   UNL     1      -0.814  -4.751   1.630  1.00  0.00     0.188 C 
ENDROOT
BRANCH   1   2
ATOM      2  C   UNL     1      -0.637  -3.392   2.243  1.00  0.00     0.188 C 
BRANCH   2   3
ATOM      3  O   UNL     1      -0.527  -3.245   3.684  1.00  0.00    -0.376 OA
BRANCH   3   4
ATOM      4  C   UNL     1      -1.420  -3.702   4.776  1.00  0.00     0.202 C 
BRANCH   4   5
ATOM      5  C   UNL     1      -3.093  -3.292   5.518  1.00  0.00     0.261 C 
BRANCH   5   6
ATOM      6  O   UNL     1      -4.623  -2.363   4.759  1.00  0.00    -0.460 OA
BRANCH   6   7
ATOM      7  C   UNL     1      -5.130  -0.848   4.258  1.00  0.00     0.338 C 
ATOM      8  O   UNL     1      -4.502   0.196   4.480  1.00  0.00    -0.246 OA
BRANCH   7   9
ATOM      9  C   UNL     1      -6.405  -0.429   3.436  1.00  0.00     0.087 C 
ATOM     10  C   UNL     1      -4.809   0.649  -0.442  1.00  0.00     0.026 A 
ATOM     11  C   UNL     1      -5.598   1.372  -1.317  1.00  0.00     0.033 A 
ATOM     12  C   UNL     1      -5.516   0.288   0.873  1.00  0.00     0.135 A 
ATOM     13  C   UNL     1      -6.869   1.782  -0.888  1.00  0.00     0.042 A 
ATOM     14  C   UNL     1      -6.523   1.056   1.440  1.00  0.00     0.019 A 
ATOM     15  O   UNL     1      -5.748  -1.141   1.311  1.00  0.00    -0.475 OA
ATOM     16  Cl  UNL     1      -7.952   2.390  -2.093  1.00  0.00    -0.084 Cl
ATOM     17  C   UNL     1      -7.295   1.715   0.480  1.00  0.00     0.032 A 
ATOM     18  C   UNL     1      -6.699   0.841   2.961  1.00  0.00     0.027 C 
ATOM     19  C   UNL     1      -6.757  -1.367   2.376  1.00  0.00     0.316 C 
BRANCH  10  20
ATOM     20  C   UNL     1      -3.075   0.608  -0.862  1.00  0.00    -0.015 A 
ATOM     21  C   UNL     1       1.993   1.546  -0.414  1.00  0.00     0.044 C 
ATOM     22  C   UNL     1       0.507   1.301  -0.446  1.00  0.00    -0.051 A 
ATOM     23  C   UNL     1       0.074  -0.380  -0.409  1.00  0.00     0.004 A 
ATOM     24  C   UNL     1      -0.692   2.608  -0.696  1.00  0.00     0.004 A 
ATOM     25  C   UNL     1      -1.637  -0.815  -0.607  1.00  0.00     0.009 A 
ATOM     26  C   UNL     1      -2.448   2.317  -0.920  1.00  0.00     0.009 A 
ENDBRANCH  10  20
BRANCH  19  27
ATOM     27  C   UNL     1      -7.195  -2.629   3.174  1.00  0.00     0.430 C 
ATOM     28  F   UNL     1      -7.297  -2.375   4.523  1.00  0.00    -0.167 F 
ATOM     29  F   UNL     1      -8.465  -2.981   2.833  1.00  0.00    -0.167 F 
ATOM     30  F   UNL     1      -6.433  -3.713   3.050  1.00  0.00    -0.167 F 
ENDBRANCH  19  27
ENDBRANCH   7   9
ENDBRANCH   6   7
ENDBRANCH   5   6
ENDBRANCH   4   5
ENDBRANCH   3   4
ENDBRANCH   2   3
ENDBRANCH   1   2
BRANCH   1  31
ATOM     31  O   UNL     1      -1.415  -5.516   2.638  1.00  0.00    -0.376 OA
BRANCH  31  32
ATOM     32  C   UNL     1      -1.050  -6.861   2.691  1.00  0.00     0.202 C 
BRANCH  32  33
ATOM     33  C   UNL     1      -1.679  -7.633   1.543  1.00  0.00     0.261 C 
BRANCH  33  34
ATOM     34  O   UNL     1      -3.107  -7.825   1.712  1.00  0.00    -0.460 OA
BRANCH  34  35
ATOM     35  C   UNL     1      -3.963  -6.975   1.050  1.00  0.00     0.338 C 
ATOM     36  O   UNL     1      -4.750  -7.360   0.203  1.00  0.00    -0.246 OA
BRANCH  35  37
ATOM     37  C   UNL     1      -4.014  -5.643   1.695  1.00  0.00     0.060 A 
ATOM     38  C   UNL     1      -4.043  -4.390   1.107  1.00  0.00     0.016 A 
ATOM     39  C   UNL     1      -4.146  -5.608   3.040  1.00  0.00     0.016 A 
ATOM     40  C   UNL     1      -3.713  -3.183   1.899  1.00  0.00     0.010 A 
ATOM     41  C   UNL     1      -3.928  -4.368   3.666  1.00  0.00     0.010 A 
ATOM     42  C   UNL     1      -3.341  -3.077   3.199  1.00  0.00    -0.014 A 
BRANCH  42  43
ATOM     43  C   UNL     1      -2.669  -1.575   4.159  1.00  0.00     0.031 A 
ATOM     44  C   UNL     1      -3.224  -1.029   5.888  1.00  0.00     0.074 A 
ATOM     45  C   UNL     1      -1.563  -0.815   3.849  1.00  0.00     0.049 A 
ATOM     46  N   UNL     1      -2.898   0.039   6.556  1.00  0.00    -0.248 NA
ATOM     47  C   UNL     1      -4.394  -1.709   6.819  1.00  0.00     0.031 C 
ATOM     48  C   UNL     1      -0.793   0.083   4.727  1.00  0.00     0.029 A 
ATOM     49  N   UNL     1      -0.834  -0.665   2.652  1.00  0.00    -0.354 N 
ATOM     50  C   UNL     1      -3.595   0.049   7.775  1.00  0.00     0.074 A 
ATOM     51  C   UNL     1      -4.684  -0.828   7.737  1.00  0.00     0.031 C 
ATOM     52  C   UNL     1      -0.034   0.905   3.976  1.00  0.00     0.029 A 
ATOM     53  C   UNL     1      -0.428   0.676   2.598  1.00  0.00     0.049 A 
ATOM     54  H   UNL     1      -0.647  -1.364   1.986  1.00  0.00     0.167 HD
ATOM     55  C   UNL     1      -3.112   0.699   8.852  1.00  0.00     0.037 A 
ATOM     56  C   UNL     1      -1.036   1.558   1.745  1.00  0.00     0.037 A 
ATOM     57  C   UNL     1      -2.284   1.769   8.349  1.00  0.00     0.049 A 
ATOM     58  C   UNL     1      -1.692   2.734   2.568  1.00  0.00     0.074 A 
ATOM     59  C   UNL     1      -0.939   1.942   8.110  1.00  0.00     0.029 A 
ATOM     60  N   UNL     1      -2.934   2.655   7.513  1.00  0.00    -0.354 N 
ATOM     61  N   UNL     1      -1.649   2.854   3.881  1.00  0.00    -0.248 NA
ATOM     62  C   UNL     1      -2.436   3.863   2.001  1.00  0.00     0.031 C 
ATOM     63  C   UNL     1      -0.818   2.891   7.036  1.00  0.00     0.029 A 
ATOM     64  C   UNL     1      -2.085   3.313   6.658  1.00  0.00     0.049 A 
ATOM     65  H   UNL     1      -3.907   2.800   7.529  1.00  0.00     0.167 HD
ATOM     66  C   UNL     1      -2.434   3.898   4.320  1.00  0.00     0.074 A 
ATOM     67  C   UNL     1      -2.878   4.521   3.090  1.00  0.00     0.031 C 
ATOM     68  C   UNL     1      -2.706   4.167   5.641  1.00  0.00     0.037 A 
BRANCH  55  69
ATOM     69  C   UNL     1      -3.305   0.221  10.287  1.00  0.00     0.058 A 
ATOM     70  C   UNL     1      -2.581   0.888  11.286  1.00  0.00     0.135 A 
ATOM     71  C   UNL     1      -3.998  -0.939  10.756  1.00  0.00     0.135 A 
ATOM     72  F   UNL     1      -1.886   1.998  11.002  1.00  0.00    -0.206 F 
ATOM     73  C   UNL     1      -2.490   0.424  12.602  1.00  0.00     0.059 A 
ATOM     74  C   UNL     1      -3.954  -1.396  12.075  1.00  0.00     0.059 A 
ATOM     75  F   UNL     1      -4.717  -1.754   9.976  1.00  0.00    -0.206 F 
ATOM     76  C   UNL     1      -3.169  -0.726  12.987  1.00  0.00     0.060 A 
BRANCH  76  77
ATOM     77  S   UNL     1      -2.974  -1.350  14.662  1.00  0.00     0.124 S 
ATOM     78  O   UNL     1      -1.545  -1.641  14.710  1.00  0.00    -0.237 OA
ATOM     79  O   UNL     1      -3.424  -0.216  15.461  1.00  0.00    -0.237 OA
ATOM     80  O   UNL     1      -3.846  -2.522  14.699  1.00  0.00    -0.744 OA
ENDBRANCH  76  77
ENDBRANCH  55  69
BRANCH  56  81
ATOM     81  C   UNL     1      -1.608   0.830   0.369  1.00  0.00     0.058 A 
ATOM     82  C   UNL     1      -1.307   0.719  -1.638  1.00  0.00     0.135 A 
ATOM     83  C   UNL     1      -2.854  -0.337   0.964  1.00  0.00     0.135 A 
ATOM     84  F   UNL     1      -0.405   1.340  -2.465  1.00  0.00    -0.206 F 
ATOM     85  C   UNL     1      -2.213  -0.425  -2.658  1.00  0.00     0.059 A 
ATOM     86  C   UNL     1      -3.649  -1.436  -0.247  1.00  0.00     0.059 A 
ATOM     87  F   UNL     1      -3.417  -0.100   2.150  1.00  0.00    -0.206 F 
ATOM     88  C   UNL     1      -3.327  -1.450  -1.932  1.00  0.00     0.060 A 
BRANCH  88  89
ATOM     89  S   UNL     1      -4.064  -2.854  -2.758  1.00  0.00     0.124 S 
ATOM     90  O   UNL     1      -3.976  -2.488  -4.164  1.00  0.00    -0.237 OA
ATOM     91  O   UNL     1      -3.178  -3.928  -2.311  1.00  0.00    -0.237 OA
ATOM     92  O   UNL     1      -5.408  -2.878  -2.188  1.00  0.00    -0.744 OA
ENDBRANCH  88  89
ENDBRANCH  56  81
BRANCH  68  93
ATOM     93  C   UNL     1      -3.615   5.292   6.146  1.00  0.00     0.058 A 
ATOM     94  C   UNL     1      -3.430   6.625   5.760  1.00  0.00     0.135 A 
ATOM     95  C   UNL     1      -4.545   5.100   7.205  1.00  0.00     0.135 A 
ATOM     96  F   UNL     1      -2.586   6.935   4.764  1.00  0.00    -0.206 F 
ATOM     97  C   UNL     1      -4.086   7.687   6.401  1.00  0.00     0.059 A 
ATOM     98  C   UNL     1      -5.133   6.141   7.919  1.00  0.00     0.059 A 
ATOM     99  F   UNL     1      -4.952   3.874   7.572  1.00  0.00    -0.206 F 
ATOM    100  C   UNL     1      -4.909   7.438   7.501  1.00  0.00     0.060 A 
BRANCH 100 101
ATOM    101  S   UNL     1      -5.685   8.811   8.378  1.00  0.00     0.124 S 
ATOM    102  O   UNL     1      -4.605   9.791   8.451  1.00  0.00    -0.237 OA
ATOM    103  O   UNL     1      -6.784   9.147   7.478  1.00  0.00    -0.237 OA
ATOM    104  O   UNL     1      -6.079   8.226   9.656  1.00  0.00    -0.744 OA
ENDBRANCH 100 101
ENDBRANCH  68  93
ENDBRANCH  42  43
ENDBRANCH  35  37
ENDBRANCH  34  35
ENDBRANCH  33  34
ENDBRANCH  32  33
ENDBRANCH  31  32
ENDBRANCH   1  31
TORSDOF 22
