REMARK SMILES O=C(Cc1cccn1-c1ccc2c(c1)OCCO2)OCCOCCOCCOC(=O)c1ccc(-c2c3nc(c(-c4c(F)cc(S(=O)(=O)[O-])cc4F)c4ccc([nH]4)c(-c4c(F)cc(S(=O)(=O)[O-])cc4F)c4nc(c(-c5c(F)cc(S(=O)(=O)[O-])cc5F)c5ccc2[nH]5)C=C4)C=C3)cc1
REMARK SMILES IDX 24 1 23 2 22 3 21 4 20 5 19 6 2 7 1 8 3 9 4 10 5 11 8 12
REMARK SMILES IDX 6 13 7 14 9 15 10 16 14 17 11 18 13 19 12 20 15 21 18 22
REMARK SMILES IDX 16 23 17 24 25 25 26 26 27 27 28 28 29 29 30 30 31 31 32 32
REMARK SMILES IDX 96 33 33 34 95 35 34 36 35 37 36 38 89 39 37 40 94 41 88 42
REMARK SMILES IDX 90 43 38 44 93 45 87 46 86 47 39 49 73 50 52 51 72 52 53 53
REMARK SMILES IDX 56 54 71 55 91 56 54 57 55 58 70 60 92 61 57 62 40 63 41 64
REMARK SMILES IDX 50 65 42 66 43 67 49 68 51 69 44 70 45 71 46 72 47 73 48 74
REMARK SMILES IDX 74 75 75 76 84 77 76 78 77 79 83 80 85 81 78 82 79 83 80 84
REMARK SMILES IDX 81 85 82 86 58 87 59 88 68 89 60 90 61 91 67 92 69 93 62 94
REMARK SMILES IDX 63 95 64 96 65 97 66 98
REMARK H PARENT 90 48 56 59
REMARK Flexibility Score: inf
ROOT
ATOM      1  C   UNL     1       2.449   1.890  -1.978  1.00  0.00     0.188 C 
ENDROOT
BRANCH   1   2
ATOM      2  C   UNL     1       3.274   2.372  -0.764  1.00  0.00     0.188 C 
BRANCH   2   3
ATOM      3  O   UNL     1       4.648   2.023  -0.755  1.00  0.00    -0.376 OA
BRANCH   3   4
ATOM      4  C   UNL     1       5.007   0.968   0.125  1.00  0.00     0.202 C 
BRANCH   4   5
ATOM      5  C   UNL     1       4.471  -0.395  -0.296  1.00  0.00     0.261 C 
BRANCH   5   6
ATOM      6  O   UNL     1       3.030  -0.509  -0.288  1.00  0.00    -0.463 OA
BRANCH   6   7
ATOM      7  C   UNL     1       2.167  -0.422   0.743  1.00  0.00     0.311 C 
ATOM      8  O   UNL     1       0.960  -0.344   0.509  1.00  0.00    -0.252 OA
BRANCH   7   9
ATOM      9  C   UNL     1       2.658  -0.328   2.167  1.00  0.00     0.177 C 
BRANCH   9  10
ATOM     10  C   UNL     1       3.717  -1.304   2.581  1.00  0.00     0.034 A 
ATOM     11  C   UNL     1       4.870  -1.038   3.300  1.00  0.00     0.024 A 
ATOM     12  N   UNL     1       3.723  -2.658   2.262  1.00  0.00    -0.320 N 
ATOM     13  C   UNL     1       5.632  -2.224   3.348  1.00  0.00     0.020 A 
ATOM     14  C   UNL     1       4.928  -3.189   2.662  1.00  0.00     0.091 A 
BRANCH  12  15
ATOM     15  C   UNL     1       2.764  -3.321   1.466  1.00  0.00     0.049 A 
ATOM     16  C   UNL     1       1.449  -3.425   1.930  1.00  0.00     0.031 A 
ATOM     17  C   UNL     1       3.086  -3.584   0.130  1.00  0.00     0.077 A 
ATOM     18  C   UNL     1       0.434  -3.771   1.036  1.00  0.00     0.052 A 
ATOM     19  C   UNL     1       2.046  -3.805  -0.770  1.00  0.00     0.163 A 
ATOM     20  C   UNL     1       0.726  -3.925  -0.319  1.00  0.00     0.161 A 
ATOM     21  O   UNL     1       2.371  -3.784  -2.105  1.00  0.00    -0.486 OA
ATOM     22  O   UNL     1      -0.343  -4.117  -1.158  1.00  0.00    -0.486 OA
ATOM     23  C   UNL     1       1.235  -3.328  -2.855  1.00  0.00     0.271 C 
ATOM     24  C   UNL     1       0.044  -4.218  -2.535  1.00  0.00     0.271 C 
ENDBRANCH  12  15
ENDBRANCH   9  10
ENDBRANCH   7   9
ENDBRANCH   6   7
ENDBRANCH   5   6
ENDBRANCH   4   5
ENDBRANCH   3   4
ENDBRANCH   2   3
ENDBRANCH   1   2
BRANCH   1  25
ATOM     25  O   UNL     1       3.017   1.225  -3.101  1.00  0.00    -0.376 OA
BRANCH  25  26
ATOM     26  C   UNL     1       4.357   1.429  -3.519  1.00  0.00     0.202 C 
BRANCH  26  27
ATOM     27  C   UNL     1       4.761   2.782  -4.093  1.00  0.00     0.261 C 
BRANCH  27  28
ATOM     28  O   UNL     1       4.590   3.849  -3.169  1.00  0.00    -0.460 OA
BRANCH  28  29
ATOM     29  C   UNL     1       3.420   4.498  -3.332  1.00  0.00     0.338 C 
ATOM     30  O   UNL     1       2.522   4.226  -4.111  1.00  0.00    -0.246 OA
BRANCH  29  31
ATOM     31  C   UNL     1       3.334   5.630  -2.407  1.00  0.00     0.060 A 
ATOM     32  C   UNL     1       2.046   6.060  -2.069  1.00  0.00     0.016 A 
ATOM     33  C   UNL     1       4.475   6.383  -2.113  1.00  0.00     0.016 A 
ATOM     34  C   UNL     1       1.873   7.353  -1.627  1.00  0.00     0.010 A 
ATOM     35  C   UNL     1       4.302   7.688  -1.702  1.00  0.00     0.010 A 
ATOM     36  C   UNL     1       2.996   8.182  -1.560  1.00  0.00    -0.014 A 
BRANCH  36  37
ATOM     37  C   UNL     1       2.779   9.634  -1.499  1.00  0.00     0.031 A 
ATOM     38  C   UNL     1       2.764  10.180  -0.087  1.00  0.00     0.074 A 
ATOM     39  C   UNL     1       2.631  10.232  -2.720  1.00  0.00     0.049 A 
ATOM     40  N   UNL     1       2.293  11.302   0.360  1.00  0.00    -0.248 NA
ATOM     41  C   UNL     1       3.295   9.327   1.012  1.00  0.00     0.031 C 
ATOM     42  C   UNL     1       2.647   9.500  -4.008  1.00  0.00     0.029 A 
ATOM     43  N   UNL     1       2.449  11.529  -3.149  1.00  0.00    -0.354 N 
ATOM     44  C   UNL     1       2.691  11.395   1.704  1.00  0.00     0.074 A 
ATOM     45  C   UNL     1       3.168  10.101   2.089  1.00  0.00     0.031 C 
ATOM     46  C   UNL     1       2.426  10.334  -5.041  1.00  0.00     0.029 A 
ATOM     47  C   UNL     1       2.274  11.685  -4.549  1.00  0.00     0.049 A 
ATOM     48  H   UNL     1       2.441  12.293  -2.528  1.00  0.00     0.167 HD
ATOM     49  C   UNL     1       2.765  12.572   2.382  1.00  0.00     0.037 A 
ATOM     50  C   UNL     1       2.009  12.816  -5.271  1.00  0.00     0.037 A 
ATOM     51  C   UNL     1       2.329  13.662   1.574  1.00  0.00     0.049 A 
ATOM     52  C   UNL     1       2.165  13.935  -4.321  1.00  0.00     0.074 A 
ATOM     53  C   UNL     1       1.093  14.087   1.162  1.00  0.00     0.029 A 
ATOM     54  N   UNL     1       3.287  14.314   0.833  1.00  0.00    -0.354 N 
ATOM     55  N   UNL     1       3.297  14.316  -3.807  1.00  0.00    -0.248 NA
ATOM     56  C   UNL     1       0.969  14.629  -3.834  1.00  0.00     0.031 C 
ATOM     57  C   UNL     1       1.326  14.729  -0.074  1.00  0.00     0.029 A 
ATOM     58  C   UNL     1       2.699  14.733  -0.340  1.00  0.00     0.049 A 
ATOM     59  H   UNL     1       4.225  14.456   1.095  1.00  0.00     0.167 HD
ATOM     60  C   UNL     1       2.909  15.043  -2.706  1.00  0.00     0.074 A 
ATOM     61  C   UNL     1       1.534  15.428  -2.933  1.00  0.00     0.031 C 
ATOM     62  C   UNL     1       3.538  14.850  -1.518  1.00  0.00     0.037 A 
BRANCH  49  63
ATOM     63  C   UNL     1       3.443  12.884   3.680  1.00  0.00     0.058 A 
ATOM     64  C   UNL     1       2.976  13.990   4.423  1.00  0.00     0.135 A 
ATOM     65  C   UNL     1       4.701  12.372   4.037  1.00  0.00     0.135 A 
ATOM     66  F   UNL     1       1.761  14.512   4.183  1.00  0.00    -0.206 F 
ATOM     67  C   UNL     1       3.763  14.634   5.370  1.00  0.00     0.059 A 
ATOM     68  C   UNL     1       5.492  12.978   5.014  1.00  0.00     0.059 A 
ATOM     69  F   UNL     1       5.235  11.328   3.388  1.00  0.00    -0.206 F 
ATOM     70  C   UNL     1       5.038  14.143   5.628  1.00  0.00     0.060 A 
BRANCH  70  71
ATOM     71  S   UNL     1       6.119  15.083   6.724  1.00  0.00     0.124 S 
ATOM     72  O   UNL     1       6.577  16.150   5.841  1.00  0.00    -0.237 OA
ATOM     73  O   UNL     1       5.207  15.492   7.790  1.00  0.00    -0.237 OA
ATOM     74  O   UNL     1       7.128  14.104   7.118  1.00  0.00    -0.744 OA
ENDBRANCH  70  71
ENDBRANCH  49  63
BRANCH  50  75
ATOM     75  C   UNL     1       1.541  13.156  -6.673  1.00  0.00     0.058 A 
ATOM     76  C   UNL     1       1.163  12.238  -7.666  1.00  0.00     0.135 A 
ATOM     77  C   UNL     1       1.271  14.513  -7.008  1.00  0.00     0.135 A 
ATOM     78  F   UNL     1       1.428  10.933  -7.558  1.00  0.00    -0.206 F 
ATOM     79  C   UNL     1       0.450  12.614  -8.817  1.00  0.00     0.059 A 
ATOM     80  C   UNL     1       0.520  14.905  -8.116  1.00  0.00     0.059 A 
ATOM     81  F   UNL     1       1.684  15.523  -6.229  1.00  0.00    -0.206 F 
ATOM     82  C   UNL     1       0.082  13.941  -9.004  1.00  0.00     0.060 A 
BRANCH  82  83
ATOM     83  S   UNL     1      -1.083  14.403 -10.304  1.00  0.00     0.124 S 
ATOM     84  O   UNL     1      -0.190  14.797 -11.387  1.00  0.00    -0.237 OA
ATOM     85  O   UNL     1      -1.836  13.170 -10.518  1.00  0.00    -0.237 OA
ATOM     86  O   UNL     1      -1.844  15.485  -9.684  1.00  0.00    -0.744 OA
ENDBRANCH  82  83
ENDBRANCH  50  75
BRANCH  62  87
ATOM     87  C   UNL     1       4.963  14.338  -1.651  1.00  0.00     0.058 A 
ATOM     88  C   UNL     1       5.956  15.135  -2.245  1.00  0.00     0.135 A 
ATOM     89  C   UNL     1       5.354  13.035  -1.298  1.00  0.00     0.135 A 
ATOM     90  F   UNL     1       5.670  16.394  -2.614  1.00  0.00    -0.206 F 
ATOM     91  C   UNL     1       7.253  14.663  -2.475  1.00  0.00     0.059 A 
ATOM     92  C   UNL     1       6.643  12.541  -1.501  1.00  0.00     0.059 A 
ATOM     93  F   UNL     1       4.480  12.198  -0.741  1.00  0.00    -0.206 F 
ATOM     94  C   UNL     1       7.589  13.361  -2.099  1.00  0.00     0.060 A 
BRANCH  94  95
ATOM     95  S   UNL     1       9.266  12.759  -2.396  1.00  0.00     0.124 S 
ATOM     96  O   UNL     1       9.390  12.877  -3.846  1.00  0.00    -0.237 OA
ATOM     97  O   UNL     1      10.071  13.693  -1.616  1.00  0.00    -0.237 OA
ATOM     98  O   UNL     1       9.238  11.389  -1.889  1.00  0.00    -0.744 OA
ENDBRANCH  94  95
ENDBRANCH  62  87
ENDBRANCH  36  37
ENDBRANCH  29  31
ENDBRANCH  28  29
ENDBRANCH  27  28
ENDBRANCH  26  27
ENDBRANCH  25  26
ENDBRANCH   1  25
TORSDOF 22
