REMARK SMILES COc1ccc(C[N@@H+]2CCO[C@H](Cc3ccc(F)cc3)C2)cc1C(=O)OCCOCCOCCOC(=O)c1ccc(-c2c3nc(c(-c4c(F)cc(S(=O)(=O)[O-])cc4F)c4ccc([nH]4)c(-c4c(F)cc(S(=O)(=O)[O-])cc4F)c4nc(c(-c5c(F)cc(S(=O)(=O)[O-])cc5F)c5ccc2[nH]5)C=C4)C=C3)cc1
REMARK SMILES IDX 30 1 29 2 28 3 27 4 26 5 24 6 25 7 23 8 3 9 4 10 5 11 22 12
REMARK SMILES IDX 6 13 2 14 1 15 7 16 8 17 9 18 21 19 10 21 12 22 11 23 13 24
REMARK SMILES IDX 14 25 15 26 20 27 16 28 19 29 17 30 18 31 31 32 32 33 33 34
REMARK SMILES IDX 34 35 35 36 36 37 37 38 38 39 39 40 103 41 40 42 102 43
REMARK SMILES IDX 41 44 42 45 43 46 96 47 44 48 101 49 95 50 97 51 45 52
REMARK SMILES IDX 100 53 94 54 93 55 46 57 80 58 59 59 79 60 60 61 63 62 78 63
REMARK SMILES IDX 98 64 61 65 62 66 77 68 99 69 64 70 47 71 48 72 57 73 49 74
REMARK SMILES IDX 50 75 56 76 58 77 51 78 52 79 53 80 54 81 55 82 81 83 82 84
REMARK SMILES IDX 91 85 83 86 84 87 90 88 92 89 85 90 86 91 87 92 88 93 89 94
REMARK SMILES IDX 65 95 66 96 75 97 67 98 68 99 74 100 76 101 69 102 70 103
REMARK SMILES IDX 71 104 72 105 73 106
REMARK H PARENT 8 20 97 56 63 67
REMARK Flexibility Score: inf
ROOT
ATOM      1  C   UNL     1       5.284  -0.445   1.191  1.00  0.00     0.188 C 
ENDROOT
BRANCH   1   2
ATOM      2  O   UNL     1       5.837  -0.780  -0.079  1.00  0.00    -0.376 OA
BRANCH   2   3
ATOM      3  C   UNL     1       5.069  -0.569  -1.251  1.00  0.00     0.202 C 
BRANCH   3   4
ATOM      4  C   UNL     1       3.870  -1.490  -1.462  1.00  0.00     0.261 C 
BRANCH   4   5
ATOM      5  O   UNL     1       3.014  -1.595  -0.314  1.00  0.00    -0.460 OA
BRANCH   5   6
ATOM      6  C   UNL     1       2.731  -2.861   0.079  1.00  0.00     0.342 C 
ATOM      7  O   UNL     1       3.188  -3.893  -0.378  1.00  0.00    -0.246 OA
BRANCH   6   8
ATOM      8  C   UNL     1       1.784  -2.851   1.208  1.00  0.00     0.102 A 
ATOM      9  C   UNL     1       0.421  -2.601   1.018  1.00  0.00     0.133 A 
ATOM     10  C   UNL     1      -0.465  -2.874   2.063  1.00  0.00     0.048 A 
ATOM     11  C   UNL     1       0.003  -3.349   3.295  1.00  0.00     0.013 A 
ATOM     12  C   UNL     1       2.255  -3.311   2.457  1.00  0.00     0.029 A 
ATOM     13  C   UNL     1       1.372  -3.544   3.531  1.00  0.00     0.007 A 
BRANCH   9  14
ATOM     14  O   UNL     1      -0.163  -2.257  -0.171  1.00  0.00    -0.496 OA
ATOM     15  C   UNL     1       0.200  -0.964  -0.650  1.00  0.00     0.278 C 
ENDBRANCH   9  14
BRANCH  13  16
ATOM     16  C   UNL     1       1.881  -4.082   4.862  1.00  0.00     0.299 C 
BRANCH  16  17
ATOM     17  N   UNL     1       1.734  -3.265   6.063  1.00  0.00    -0.327 N 
ATOM     18  C   UNL     1       0.418  -2.962   6.602  1.00  0.00     0.291 C 
ATOM     19  C   UNL     1       2.729  -2.251   6.411  1.00  0.00     0.295 C 
ATOM     20  H   UNL     1       2.035  -4.091   6.579  1.00  0.00     0.348 HD
ATOM     21  C   UNL     1      -0.018  -1.510   6.348  1.00  0.00     0.222 C 
ATOM     22  C   UNL     1       2.261  -0.783   6.179  1.00  0.00     0.177 C 
ATOM     23  O   UNL     1       0.967  -0.558   6.766  1.00  0.00    -0.366 OA
BRANCH  22  24
ATOM     24  C   UNL     1       2.311  -0.466   4.682  1.00  0.00     0.073 C 
BRANCH  24  25
ATOM     25  C   UNL     1       1.756   0.823   4.130  1.00  0.00    -0.045 A 
ATOM     26  C   UNL     1       0.792   0.736   3.109  1.00  0.00     0.007 A 
ATOM     27  C   UNL     1       2.279   2.076   4.457  1.00  0.00     0.007 A 
ATOM     28  C   UNL     1       0.418   1.856   2.375  1.00  0.00     0.039 A 
ATOM     29  C   UNL     1       1.914   3.200   3.711  1.00  0.00     0.039 A 
ATOM     30  C   UNL     1       1.004   3.076   2.666  1.00  0.00     0.123 A 
ATOM     31  F   UNL     1       0.702   4.143   1.915  1.00  0.00    -0.207 F 
ENDBRANCH  24  25
ENDBRANCH  22  24
ENDBRANCH  16  17
ENDBRANCH  13  16
ENDBRANCH   6   8
ENDBRANCH   5   6
ENDBRANCH   4   5
ENDBRANCH   3   4
ENDBRANCH   2   3
ENDBRANCH   1   2
BRANCH   1  32
ATOM     32  C   UNL     1       4.263   0.700   1.323  1.00  0.00     0.188 C 
BRANCH  32  33
ATOM     33  O   UNL     1       4.444   1.749   0.379  1.00  0.00    -0.376 OA
BRANCH  33  34
ATOM     34  C   UNL     1       4.700   3.034   0.931  1.00  0.00     0.202 C 
BRANCH  34  35
ATOM     35  C   UNL     1       6.200   3.263   1.134  1.00  0.00     0.261 C 
BRANCH  35  36
ATOM     36  O   UNL     1       6.775   2.407   2.136  1.00  0.00    -0.460 OA
BRANCH  36  37
ATOM     37  C   UNL     1       6.400   2.676   3.406  1.00  0.00     0.338 C 
ATOM     38  O   UNL     1       5.660   3.568   3.780  1.00  0.00    -0.246 OA
BRANCH  37  39
ATOM     39  C   UNL     1       6.879   1.586   4.274  1.00  0.00     0.060 A 
ATOM     40  C   UNL     1       5.923   0.869   4.993  1.00  0.00     0.016 A 
ATOM     41  C   UNL     1       8.235   1.287   4.410  1.00  0.00     0.016 A 
ATOM     42  C   UNL     1       6.311  -0.136   5.872  1.00  0.00     0.010 A 
ATOM     43  C   UNL     1       8.629   0.281   5.301  1.00  0.00     0.010 A 
ATOM     44  C   UNL     1       7.668  -0.421   6.051  1.00  0.00    -0.014 A 
BRANCH  44  45
ATOM     45  C   UNL     1       8.061  -1.365   7.123  1.00  0.00     0.031 A 
ATOM     46  C   UNL     1       8.504  -0.823   8.452  1.00  0.00     0.074 A 
ATOM     47  C   UNL     1       7.955  -2.693   6.941  1.00  0.00     0.049 A 
ATOM     48  N   UNL     1       8.869  -1.466   9.530  1.00  0.00    -0.248 NA
ATOM     49  C   UNL     1       8.531   0.642   8.582  1.00  0.00     0.031 C 
ATOM     50  C   UNL     1       7.500  -3.345   5.714  1.00  0.00     0.029 A 
ATOM     51  N   UNL     1       8.225  -3.732   7.796  1.00  0.00    -0.354 N 
ATOM     52  C   UNL     1       9.172  -0.488  10.469  1.00  0.00     0.074 A 
ATOM     53  C   UNL     1       8.975   0.793   9.821  1.00  0.00     0.031 C 
ATOM     54  C   UNL     1       7.537  -4.677   5.890  1.00  0.00     0.029 A 
ATOM     55  C   UNL     1       8.040  -4.971   7.232  1.00  0.00     0.049 A 
ATOM     56  H   UNL     1       8.523  -3.602   8.725  1.00  0.00     0.167 HD
ATOM     57  C   UNL     1       9.573  -0.639  11.754  1.00  0.00     0.037 A 
ATOM     58  C   UNL     1       8.270  -6.200   7.732  1.00  0.00     0.037 A 
ATOM     59  C   UNL     1       9.788  -1.910  12.395  1.00  0.00     0.049 A 
ATOM     60  C   UNL     1       8.764  -6.348   9.147  1.00  0.00     0.074 A 
ATOM     61  C   UNL     1      10.205  -2.163  13.690  1.00  0.00     0.029 A 
ATOM     62  N   UNL     1       9.613  -3.144  11.785  1.00  0.00    -0.354 N 
ATOM     63  N   UNL     1       9.044  -5.414  10.025  1.00  0.00    -0.248 NA
ATOM     64  C   UNL     1       8.963  -7.717   9.641  1.00  0.00     0.031 C 
ATOM     65  C   UNL     1      10.319  -3.550  13.851  1.00  0.00     0.029 A 
ATOM     66  C   UNL     1       9.929  -4.162  12.671  1.00  0.00     0.049 A 
ATOM     67  H   UNL     1       9.309  -3.276  10.858  1.00  0.00     0.167 HD
ATOM     68  C   UNL     1       9.440  -6.083  11.180  1.00  0.00     0.074 A 
ATOM     69  C   UNL     1       9.345  -7.500  10.892  1.00  0.00     0.031 C 
ATOM     70  C   UNL     1       9.844  -5.570  12.370  1.00  0.00     0.037 A 
BRANCH  57  71
ATOM     71  C   UNL     1       9.843   0.620  12.528  1.00  0.00     0.058 A 
ATOM     72  C   UNL     1       8.803   1.463  12.954  1.00  0.00     0.135 A 
ATOM     73  C   UNL     1      11.161   1.008  12.816  1.00  0.00     0.135 A 
ATOM     74  F   UNL     1       7.525   1.148  12.686  1.00  0.00    -0.206 F 
ATOM     75  C   UNL     1       9.062   2.670  13.595  1.00  0.00     0.059 A 
ATOM     76  C   UNL     1      11.442   2.199  13.477  1.00  0.00     0.059 A 
ATOM     77  F   UNL     1      12.191   0.240  12.429  1.00  0.00    -0.206 F 
ATOM     78  C   UNL     1      10.387   3.035  13.840  1.00  0.00     0.060 A 
BRANCH  78  79
ATOM     79  S   UNL     1      10.716   4.628  14.623  1.00  0.00     0.124 S 
ATOM     80  O   UNL     1      10.501   5.546  13.509  1.00  0.00    -0.237 OA
ATOM     81  O   UNL     1       9.714   4.672  15.683  1.00  0.00    -0.237 OA
ATOM     82  O   UNL     1      12.098   4.503  15.076  1.00  0.00    -0.744 OA
ENDBRANCH  78  79
ENDBRANCH  57  71
BRANCH  58  83
ATOM     83  C   UNL     1       8.049  -7.391   6.872  1.00  0.00     0.058 A 
ATOM     84  C   UNL     1       6.964  -8.253   7.085  1.00  0.00     0.135 A 
ATOM     85  C   UNL     1       8.909  -7.670   5.798  1.00  0.00     0.135 A 
ATOM     86  F   UNL     1       6.124  -8.035   8.107  1.00  0.00    -0.206 F 
ATOM     87  C   UNL     1       6.737  -9.351   6.261  1.00  0.00     0.059 A 
ATOM     88  C   UNL     1       8.689  -8.747   4.947  1.00  0.00     0.059 A 
ATOM     89  F   UNL     1       9.956  -6.868   5.551  1.00  0.00    -0.206 F 
ATOM     90  C   UNL     1       7.601  -9.585   5.189  1.00  0.00     0.060 A 
BRANCH  90  91
ATOM     91  S   UNL     1       7.249 -10.961   4.074  1.00  0.00     0.124 S 
ATOM     92  O   UNL     1       7.671 -12.104   4.875  1.00  0.00    -0.237 OA
ATOM     93  O   UNL     1       5.811 -10.824   3.864  1.00  0.00    -0.237 OA
ATOM     94  O   UNL     1       8.076 -10.666   2.908  1.00  0.00    -0.744 OA
ENDBRANCH  90  91
ENDBRANCH  58  83
BRANCH  70  95
ATOM     95  C   UNL     1      10.196  -6.551  13.456  1.00  0.00     0.058 A 
ATOM     96  C   UNL     1      11.371  -7.318  13.407  1.00  0.00     0.135 A 
ATOM     97  C   UNL     1       9.352  -6.718  14.566  1.00  0.00     0.135 A 
ATOM     98  F   UNL     1      12.212  -7.199  12.368  1.00  0.00    -0.206 F 
ATOM     99  C   UNL     1      11.677  -8.245  14.399  1.00  0.00     0.059 A 
ATOM    100  C   UNL     1       9.651  -7.621  15.583  1.00  0.00     0.059 A 
ATOM    101  F   UNL     1       8.223  -6.000  14.672  1.00  0.00    -0.206 F 
ATOM    102  C   UNL     1      10.806  -8.395  15.480  1.00  0.00     0.060 A 
BRANCH 102 103
ATOM    103  S   UNL     1      11.205  -9.606  16.760  1.00  0.00     0.124 S 
ATOM    104  O   UNL     1      10.815 -10.854  16.112  1.00  0.00    -0.237 OA
ATOM    105  O   UNL     1      12.639  -9.409  16.946  1.00  0.00    -0.237 OA
ATOM    106  O   UNL     1      10.371  -9.194  17.885  1.00  0.00    -0.744 OA
ENDBRANCH 102 103
ENDBRANCH  70  95
ENDBRANCH  44  45
ENDBRANCH  37  39
ENDBRANCH  36  37
ENDBRANCH  35  36
ENDBRANCH  34  35
ENDBRANCH  33  34
ENDBRANCH  32  33
ENDBRANCH   1  32
TORSDOF 25
