REMARK SMILES [NH3+][C@H]1CN(C(=O)OCC2c3ccccc3-c3ccccc32)C[C@@H]1C(=O)OCCOCCOCCOC(=O)c1ccc(-c2c3nc(c(-c4c(F)cc(S(=O)(=O)[O-])cc4F)c4ccc([nH]4)c(-c4c(F)cc(S(=O)(=O)[O-])cc4F)c4nc(c(-c5c(F)cc(S(=O)(=O)[O-])cc5F)c5ccc2[nH]5)C=C4)C=C3)cc1
REMARK SMILES IDX 30 1 29 2 28 3 27 4 26 5 24 6 25 7 23 8 2 9 3 10 4 11 22 12
REMARK SMILES IDX 1 13 5 17 6 18 7 19 8 20 9 21 10 22 21 23 11 24 15 25 16 26
REMARK SMILES IDX 20 27 12 28 14 29 17 30 19 31 13 32 18 33 31 34 32 35 33 36
REMARK SMILES IDX 34 37 35 38 36 39 37 40 38 41 39 42 103 43 40 44 102 45
REMARK SMILES IDX 41 46 42 47 43 48 96 49 44 50 101 51 95 52 97 53 45 54
REMARK SMILES IDX 100 55 94 56 93 57 46 59 80 60 59 61 79 62 60 63 63 64 78 65
REMARK SMILES IDX 98 66 61 67 62 68 77 70 99 71 64 72 47 73 48 74 57 75 49 76
REMARK SMILES IDX 50 77 56 78 58 79 51 80 52 81 53 82 54 83 55 84 81 85 82 86
REMARK SMILES IDX 91 87 83 88 84 89 90 90 92 91 85 92 86 93 87 94 88 95 89 96
REMARK SMILES IDX 65 97 66 98 75 99 67 100 68 101 74 102 76 103 69 104 70 105
REMARK SMILES IDX 71 106 72 107 73 108
REMARK H PARENT 1 14 1 15 1 16 97 58 63 69
REMARK Flexibility Score: inf
ROOT
ATOM      1  C   UNL     1       3.819  -0.821   0.267  1.00  0.00     0.188 C 
ENDROOT
BRANCH   1   2
ATOM      2  O   UNL     1       5.154  -1.178   0.524  1.00  0.00    -0.376 OA
BRANCH   2   3
ATOM      3  C   UNL     1       5.511  -2.542   0.638  1.00  0.00     0.202 C 
BRANCH   3   4
ATOM      4  C   UNL     1       4.671  -3.737   0.139  1.00  0.00     0.261 C 
BRANCH   4   5
ATOM      5  O   UNL     1       3.383  -3.487  -0.436  1.00  0.00    -0.463 OA
BRANCH   5   6
ATOM      6  C   UNL     1       2.315  -3.630   0.398  1.00  0.00     0.316 C 
ATOM      7  O   UNL     1       2.417  -3.906   1.584  1.00  0.00    -0.252 OA
BRANCH   6   8
ATOM      8  C   UNL     1       1.008  -3.333  -0.338  1.00  0.00     0.178 C 
ATOM      9  C   UNL     1       0.393  -1.963   0.031  1.00  0.00     0.216 C 
ATOM     10  C   UNL     1      -0.251  -2.233   1.402  1.00  0.00     0.188 C 
ATOM     11  N   UNL     1      -0.487  -3.667   1.400  1.00  0.00    -0.301 N 
ATOM     12  C   UNL     1      -0.045  -4.296   0.172  1.00  0.00     0.145 C 
BRANCH   9  13
ATOM     13  N   UNL     1      -0.606  -1.503  -0.951  1.00  0.00    -0.353 N 
ATOM     14  H   UNL     1      -0.978  -0.599  -0.660  1.00  0.00     0.344 HD
ATOM     15  H   UNL     1      -1.366  -2.181  -1.006  1.00  0.00     0.344 HD
ATOM     16  H   UNL     1      -0.166  -1.411  -1.866  1.00  0.00     0.344 HD
ENDBRANCH   9  13
BRANCH  11  17
ATOM     17  C   UNL     1      -0.636  -4.401   2.539  1.00  0.00     0.410 C 
ATOM     18  O   UNL     1      -0.586  -5.630   2.544  1.00  0.00    -0.224 OA
BRANCH  17  19
ATOM     19  O   UNL     1      -0.857  -3.625   3.629  1.00  0.00    -0.448 OA
BRANCH  19  20
ATOM     20  C   UNL     1      -1.114  -4.362   4.841  1.00  0.00     0.248 C 
BRANCH  20  21
ATOM     21  C   UNL     1      -2.473  -5.062   4.726  1.00  0.00     0.088 C 
ATOM     22  C   UNL     1      -2.476  -6.505   5.206  1.00  0.00    -0.029 A 
ATOM     23  C   UNL     1      -3.547  -4.432   5.599  1.00  0.00    -0.029 A 
ATOM     24  C   UNL     1      -1.687  -7.562   4.772  1.00  0.00     0.005 A 
ATOM     25  C   UNL     1      -3.478  -6.687   6.179  1.00  0.00    -0.014 A 
ATOM     26  C   UNL     1      -4.128  -5.415   6.428  1.00  0.00    -0.014 A 
ATOM     27  C   UNL     1      -3.961  -3.108   5.631  1.00  0.00     0.005 A 
ATOM     28  C   UNL     1      -1.908  -8.823   5.320  1.00  0.00     0.000 A 
ATOM     29  C   UNL     1      -3.697  -7.942   6.723  1.00  0.00     0.009 A 
ATOM     30  C   UNL     1      -5.133  -5.069   7.313  1.00  0.00     0.009 A 
ATOM     31  C   UNL     1      -4.970  -2.762   6.528  1.00  0.00     0.000 A 
ATOM     32  C   UNL     1      -2.907  -9.012   6.285  1.00  0.00     0.001 A 
ATOM     33  C   UNL     1      -5.549  -3.734   7.361  1.00  0.00     0.001 A 
ENDBRANCH  20  21
ENDBRANCH  19  20
ENDBRANCH  17  19
ENDBRANCH  11  17
ENDBRANCH   6   8
ENDBRANCH   5   6
ENDBRANCH   4   5
ENDBRANCH   3   4
ENDBRANCH   2   3
ENDBRANCH   1   2
BRANCH   1  34
ATOM     34  C   UNL     1       3.450  -0.749  -1.235  1.00  0.00     0.188 C 
BRANCH  34  35
ATOM     35  O   UNL     1       4.427  -1.047  -2.216  1.00  0.00    -0.376 OA
BRANCH  35  36
ATOM     36  C   UNL     1       5.686  -0.399  -2.151  1.00  0.00     0.202 C 
BRANCH  36  37
ATOM     37  C   UNL     1       5.817   1.102  -1.825  1.00  0.00     0.261 C 
BRANCH  37  38
ATOM     38  O   UNL     1       4.983   1.623  -0.777  1.00  0.00    -0.460 OA
BRANCH  38  39
ATOM     39  C   UNL     1       3.975   2.442  -1.175  1.00  0.00     0.338 C 
ATOM     40  O   UNL     1       3.706   2.769  -2.318  1.00  0.00    -0.246 OA
BRANCH  39  41
ATOM     41  C   UNL     1       3.107   2.768  -0.021  1.00  0.00     0.060 A 
ATOM     42  C   UNL     1       1.787   2.291  -0.006  1.00  0.00     0.016 A 
ATOM     43  C   UNL     1       3.567   3.592   1.005  1.00  0.00     0.016 A 
ATOM     44  C   UNL     1       0.918   2.656   1.025  1.00  0.00     0.010 A 
ATOM     45  C   UNL     1       2.688   3.976   2.025  1.00  0.00     0.010 A 
ATOM     46  C   UNL     1       1.350   3.534   2.026  1.00  0.00    -0.014 A 
BRANCH  46  47
ATOM     47  C   UNL     1       0.371   4.128   2.974  1.00  0.00     0.031 A 
ATOM     48  C   UNL     1      -0.125   5.527   2.719  1.00  0.00     0.074 A 
ATOM     49  C   UNL     1      -0.079   3.440   4.040  1.00  0.00     0.049 A 
ATOM     50  N   UNL     1      -0.906   6.280   3.450  1.00  0.00    -0.248 NA
ATOM     51  C   UNL     1       0.327   6.163   1.471  1.00  0.00     0.031 C 
ATOM     52  C   UNL     1       0.282   2.062   4.372  1.00  0.00     0.029 A 
ATOM     53  N   UNL     1      -0.930   3.816   5.051  1.00  0.00    -0.354 N 
ATOM     54  C   UNL     1      -1.027   7.482   2.761  1.00  0.00     0.074 A 
ATOM     55  C   UNL     1      -0.219   7.366   1.566  1.00  0.00     0.031 C 
ATOM     56  C   UNL     1      -0.332   1.714   5.517  1.00  0.00     0.029 A 
ATOM     57  C   UNL     1      -1.095   2.856   6.021  1.00  0.00     0.049 A 
ATOM     58  H   UNL     1      -1.380   4.692   5.078  1.00  0.00     0.167 HD
ATOM     59  C   UNL     1      -1.748   8.580   3.092  1.00  0.00     0.037 A 
ATOM     60  C   UNL     1      -1.758   2.903   7.196  1.00  0.00     0.037 A 
ATOM     61  C   UNL     1      -2.550   8.689   4.284  1.00  0.00     0.049 A 
ATOM     62  C   UNL     1      -2.486   4.167   7.585  1.00  0.00     0.074 A 
ATOM     63  C   UNL     1      -3.331   9.754   4.699  1.00  0.00     0.029 A 
ATOM     64  N   UNL     1      -2.665   7.707   5.257  1.00  0.00    -0.354 N 
ATOM     65  N   UNL     1      -2.606   5.292   6.918  1.00  0.00    -0.248 NA
ATOM     66  C   UNL     1      -3.168   4.170   8.887  1.00  0.00     0.031 C 
ATOM     67  C   UNL     1      -3.867   9.440   5.952  1.00  0.00     0.029 A 
ATOM     68  C   UNL     1      -3.479   8.153   6.287  1.00  0.00     0.049 A 
ATOM     69  H   UNL     1      -2.232   6.824   5.222  1.00  0.00     0.167 HD
ATOM     70  C   UNL     1      -3.405   6.120   7.704  1.00  0.00     0.074 A 
ATOM     71  C   UNL     1      -3.746   5.364   8.891  1.00  0.00     0.031 C 
ATOM     72  C   UNL     1      -3.823   7.388   7.461  1.00  0.00     0.037 A 
BRANCH  59  73
ATOM     73  C   UNL     1      -1.674   9.769   2.171  1.00  0.00     0.058 A 
ATOM     74  C   UNL     1      -2.255   9.759   0.893  1.00  0.00     0.135 A 
ATOM     75  C   UNL     1      -1.040  10.951   2.590  1.00  0.00     0.135 A 
ATOM     76  F   UNL     1      -2.860   8.653   0.433  1.00  0.00    -0.206 F 
ATOM     77  C   UNL     1      -2.183  10.867   0.052  1.00  0.00     0.059 A 
ATOM     78  C   UNL     1      -0.985  12.081   1.779  1.00  0.00     0.059 A 
ATOM     79  F   UNL     1      -0.466  11.017   3.802  1.00  0.00    -0.206 F 
ATOM     80  C   UNL     1      -1.547  12.024   0.505  1.00  0.00     0.060 A 
BRANCH  80  81
ATOM     81  S   UNL     1      -1.466  13.451  -0.596  1.00  0.00     0.124 S 
ATOM     82  O   UNL     1      -0.519  12.988  -1.605  1.00  0.00    -0.237 OA
ATOM     83  O   UNL     1      -2.851  13.581  -1.039  1.00  0.00    -0.237 OA
ATOM     84  O   UNL     1      -0.984  14.524   0.269  1.00  0.00    -0.744 OA
ENDBRANCH  80  81
ENDBRANCH  59  73
BRANCH  60  85
ATOM     85  C   UNL     1      -1.746   1.726   8.109  1.00  0.00     0.058 A 
ATOM     86  C   UNL     1      -2.915   0.994   8.370  1.00  0.00     0.135 A 
ATOM     87  C   UNL     1      -0.567   1.319   8.755  1.00  0.00     0.135 A 
ATOM     88  F   UNL     1      -4.072   1.349   7.789  1.00  0.00    -0.206 F 
ATOM     89  C   UNL     1      -2.921  -0.084   9.251  1.00  0.00     0.059 A 
ATOM     90  C   UNL     1      -0.541   0.227   9.616  1.00  0.00     0.059 A 
ATOM     91  F   UNL     1       0.581   1.979   8.537  1.00  0.00    -0.206 F 
ATOM     92  C   UNL     1      -1.728  -0.460   9.869  1.00  0.00     0.060 A 
BRANCH  92  93
ATOM     93  S   UNL     1      -1.740  -1.870  10.998  1.00  0.00     0.124 S 
ATOM     94  O   UNL     1      -2.459  -1.323  12.143  1.00  0.00    -0.237 OA
ATOM     95  O   UNL     1      -2.453  -2.879  10.221  1.00  0.00    -0.237 OA
ATOM     96  O   UNL     1      -0.322  -2.140  11.214  1.00  0.00    -0.744 OA
ENDBRANCH  92  93
ENDBRANCH  60  85
BRANCH  72  97
ATOM     97  C   UNL     1      -4.739   8.032   8.470  1.00  0.00     0.058 A 
ATOM     98  C   UNL     1      -4.289   8.436   9.737  1.00  0.00     0.135 A 
ATOM     99  C   UNL     1      -6.077   8.306   8.137  1.00  0.00     0.135 A 
ATOM    100  F   UNL     1      -3.022   8.197  10.111  1.00  0.00    -0.206 F 
ATOM    101  C   UNL     1      -5.137   9.063  10.645  1.00  0.00     0.059 A 
ATOM    102  C   UNL     1      -6.934   8.961   9.016  1.00  0.00     0.059 A 
ATOM    103  F   UNL     1      -6.560   7.954   6.934  1.00  0.00    -0.206 F 
ATOM    104  C   UNL     1      -6.458   9.325  10.274  1.00  0.00     0.060 A 
BRANCH 104 105
ATOM    105  S   UNL     1      -7.537  10.171  11.450  1.00  0.00     0.124 S 
ATOM    106  O   UNL     1      -7.757   9.130  12.449  1.00  0.00    -0.237 OA
ATOM    107  O   UNL     1      -6.711  11.296  11.877  1.00  0.00    -0.237 OA
ATOM    108  O   UNL     1      -8.704  10.526  10.647  1.00  0.00    -0.744 OA
ENDBRANCH 104 105
ENDBRANCH  72  97
ENDBRANCH  46  47
ENDBRANCH  39  41
ENDBRANCH  38  39
ENDBRANCH  37  38
ENDBRANCH  36  37
ENDBRANCH  35  36
ENDBRANCH  34  35
ENDBRANCH   1  34
TORSDOF 25
