REMARK SMILES C=C1c2ccccc2C(=O)N1[C@](C)(C(=O)OCCOCCOCCOC(=O)c1ccc(-c2c3nc(c(-c4c(F)cc(S(=O)(=O)[O-])cc4F)c4ccc([nH]4)c(-c4c(F)cc(S(=O)(=O)[O-])cc4F)c4nc(c(-c5c(F)cc(S(=O)(=O)[O-])cc5F)c5ccc2[nH]5)C=C4)C=C3)cc1)C(F)(F)F
REMARK SMILES IDX 21 1 20 2 19 3 18 4 17 5 16 6 14 7 15 8 12 9 13 10 11 11
REMARK SMILES IDX 1 12 2 13 3 14 4 15 8 16 9 17 5 18 7 19 10 20 6 21 94 22
REMARK SMILES IDX 95 23 96 24 97 25 22 26 23 27 24 28 25 29 26 30 27 31 28 32
REMARK SMILES IDX 29 33 93 34 30 35 92 36 31 37 32 38 33 39 86 40 34 41 91 42
REMARK SMILES IDX 85 43 87 44 35 45 90 46 84 47 83 48 36 50 70 51 49 52 69 53
REMARK SMILES IDX 50 54 53 55 68 56 88 57 51 58 52 59 67 61 89 62 54 63 37 64
REMARK SMILES IDX 38 65 47 66 39 67 40 68 46 69 48 70 41 71 42 72 43 73 44 74
REMARK SMILES IDX 45 75 71 76 72 77 81 78 73 79 74 80 80 81 82 82 75 83 76 84
REMARK SMILES IDX 77 85 78 86 79 87 55 88 56 89 65 90 57 91 58 92 64 93 66 94
REMARK SMILES IDX 59 95 60 96 61 97 62 98 63 99
REMARK H PARENT 87 49 53 60
REMARK Flexibility Score: inf
ROOT
ATOM      1  C   UNL     1       1.897  -0.446  -3.192  1.00  0.00     0.188 C 
ENDROOT
BRANCH   1   2
ATOM      2  C   UNL     1       3.230  -0.241  -3.929  1.00  0.00     0.188 C 
BRANCH   2   3
ATOM      3  O   UNL     1       3.748  -1.317  -4.700  1.00  0.00    -0.376 OA
BRANCH   3   4
ATOM      4  C   UNL     1       3.787  -2.618  -4.124  1.00  0.00     0.202 C 
BRANCH   4   5
ATOM      5  C   UNL     1       4.297  -2.804  -2.685  1.00  0.00     0.261 C 
BRANCH   5   6
ATOM      6  O   UNL     1       3.632  -1.996  -1.692  1.00  0.00    -0.461 OA
BRANCH   6   7
ATOM      7  C   UNL     1       4.423  -1.258  -0.868  1.00  0.00     0.341 C 
ATOM      8  O   UNL     1       5.650  -1.277  -0.939  1.00  0.00    -0.249 OA
BRANCH   7   9
ATOM      9  C   UNL     1       3.664  -0.471   0.227  1.00  0.00     0.238 C 
ATOM     10  C   UNL     1       2.118  -0.541   0.279  1.00  0.00     0.058 C 
BRANCH   9  11
ATOM     11  N   UNL     1       4.179  -1.103   1.462  1.00  0.00    -0.283 N 
ATOM     12  C   UNL     1       5.469   0.615   2.678  1.00  0.00     0.038 C 
ATOM     13  C   UNL     1       4.997  -0.615   2.469  1.00  0.00     0.046 C 
ATOM     14  C   UNL     1       5.275  -1.746   3.363  1.00  0.00     0.010 A 
ATOM     15  C   UNL     1       6.075  -1.888   4.481  1.00  0.00     0.011 A 
ATOM     16  C   UNL     1       4.573  -2.850   2.889  1.00  0.00     0.049 A 
ATOM     17  C   UNL     1       3.859  -2.450   1.685  1.00  0.00     0.260 C 
ATOM     18  C   UNL     1       6.146  -3.148   5.094  1.00  0.00     0.001 A 
ATOM     19  C   UNL     1       4.617  -4.103   3.468  1.00  0.00     0.014 A 
ATOM     20  O   UNL     1       3.158  -3.194   1.033  1.00  0.00    -0.269 OA
ATOM     21  C   UNL     1       5.422  -4.246   4.592  1.00  0.00     0.001 A 
ENDBRANCH   9  11
BRANCH   9  22
ATOM     22  C   UNL     1       4.029   0.981  -0.115  1.00  0.00     0.422 C 
ATOM     23  F   UNL     1       3.519   1.343  -1.323  1.00  0.00    -0.168 F 
ATOM     24  F   UNL     1       3.478   1.845   0.778  1.00  0.00    -0.168 F 
ATOM     25  F   UNL     1       5.350   1.241  -0.165  1.00  0.00    -0.168 F 
ENDBRANCH   9  22
ENDBRANCH   7   9
ENDBRANCH   6   7
ENDBRANCH   5   6
ENDBRANCH   4   5
ENDBRANCH   3   4
ENDBRANCH   2   3
ENDBRANCH   1   2
BRANCH   1  26
ATOM     26  O   UNL     1       1.280  -1.692  -3.380  1.00  0.00    -0.376 OA
BRANCH  26  27
ATOM     27  C   UNL     1       0.250  -1.820  -4.338  1.00  0.00     0.202 C 
BRANCH  27  28
ATOM     28  C   UNL     1       0.087  -0.895  -5.562  1.00  0.00     0.261 C 
BRANCH  28  29
ATOM     29  O   UNL     1       0.705   0.399  -5.540  1.00  0.00    -0.460 OA
BRANCH  29  30
ATOM     30  C   UNL     1       0.015   1.408  -4.951  1.00  0.00     0.338 C 
ATOM     31  O   UNL     1      -1.083   1.331  -4.430  1.00  0.00    -0.246 OA
BRANCH  30  32
ATOM     32  C   UNL     1       0.933   2.570  -4.824  1.00  0.00     0.060 A 
ATOM     33  C   UNL     1       1.260   3.047  -3.545  1.00  0.00     0.016 A 
ATOM     34  C   UNL     1       1.485   3.171  -5.956  1.00  0.00     0.016 A 
ATOM     35  C   UNL     1       2.120   4.139  -3.396  1.00  0.00     0.010 A 
ATOM     36  C   UNL     1       2.322   4.283  -5.806  1.00  0.00     0.010 A 
ATOM     37  C   UNL     1       2.621   4.793  -4.529  1.00  0.00    -0.014 A 
BRANCH  37  38
ATOM     38  C   UNL     1       3.285   6.117  -4.400  1.00  0.00     0.031 A 
ATOM     39  C   UNL     1       2.457   7.352  -4.640  1.00  0.00     0.074 A 
ATOM     40  C   UNL     1       4.587   6.235  -4.082  1.00  0.00     0.049 A 
ATOM     41  N   UNL     1       2.824   8.606  -4.686  1.00  0.00    -0.248 NA
ATOM     42  C   UNL     1       1.017   7.137  -4.862  1.00  0.00     0.031 C 
ATOM     43  C   UNL     1       5.489   5.128  -3.772  1.00  0.00     0.029 A 
ATOM     44  N   UNL     1       5.382   7.353  -3.987  1.00  0.00    -0.354 N 
ATOM     45  C   UNL     1       1.667   9.328  -4.954  1.00  0.00     0.074 A 
ATOM     46  C   UNL     1       0.591   8.371  -5.087  1.00  0.00     0.031 C 
ATOM     47  C   UNL     1       6.720   5.620  -3.542  1.00  0.00     0.029 A 
ATOM     48  C   UNL     1       6.703   7.072  -3.727  1.00  0.00     0.049 A 
ATOM     49  H   UNL     1       5.038   8.269  -4.096  1.00  0.00     0.167 HD
ATOM     50  C   UNL     1       1.512  10.668  -5.074  1.00  0.00     0.037 A 
ATOM     51  C   UNL     1       7.777   7.888  -3.675  1.00  0.00     0.037 A 
ATOM     52  C   UNL     1       2.586  11.620  -4.949  1.00  0.00     0.049 A 
ATOM     53  C   UNL     1       7.597   9.371  -3.901  1.00  0.00     0.074 A 
ATOM     54  C   UNL     1       2.526  12.999  -5.043  1.00  0.00     0.029 A 
ATOM     55  N   UNL     1       3.914  11.293  -4.715  1.00  0.00    -0.354 N 
ATOM     56  N   UNL     1       6.496  10.045  -4.136  1.00  0.00    -0.248 NA
ATOM     57  C   UNL     1       8.808  10.204  -3.854  1.00  0.00     0.031 C 
ATOM     58  C   UNL     1       3.826  13.502  -4.928  1.00  0.00     0.029 A 
ATOM     59  C   UNL     1       4.687  12.443  -4.693  1.00  0.00     0.049 A 
ATOM     60  H   UNL     1       4.256  10.379  -4.585  1.00  0.00     0.167 HD
ATOM     61  C   UNL     1       6.878  11.382  -4.230  1.00  0.00     0.074 A 
ATOM     62  C   UNL     1       8.309  11.422  -4.017  1.00  0.00     0.031 C 
ATOM     63  C   UNL     1       6.112  12.476  -4.469  1.00  0.00     0.037 A 
BRANCH  50  64
ATOM     64  C   UNL     1       0.135  11.185  -5.390  1.00  0.00     0.058 A 
ATOM     65  C   UNL     1      -0.909  11.139  -4.452  1.00  0.00     0.135 A 
ATOM     66  C   UNL     1      -0.136  11.764  -6.641  1.00  0.00     0.135 A 
ATOM     67  F   UNL     1      -0.712  10.578  -3.248  1.00  0.00    -0.206 F 
ATOM     68  C   UNL     1      -2.178  11.624  -4.752  1.00  0.00     0.059 A 
ATOM     69  C   UNL     1      -1.388  12.284  -6.951  1.00  0.00     0.059 A 
ATOM     70  F   UNL     1       0.824  11.831  -7.577  1.00  0.00    -0.206 F 
ATOM     71  C   UNL     1      -2.407  12.197  -6.004  1.00  0.00     0.060 A 
BRANCH  71  72
ATOM     72  S   UNL     1      -4.057  12.828  -6.372  1.00  0.00     0.124 S 
ATOM     73  O   UNL     1      -4.823  11.591  -6.489  1.00  0.00    -0.237 OA
ATOM     74  O   UNL     1      -4.347  13.644  -5.198  1.00  0.00    -0.237 OA
ATOM     75  O   UNL     1      -3.870  13.568  -7.617  1.00  0.00    -0.744 OA
ENDBRANCH  71  72
ENDBRANCH  50  64
BRANCH  51  76
ATOM     76  C   UNL     1       9.133   7.326  -3.417  1.00  0.00     0.058 A 
ATOM     77  C   UNL     1       9.830   7.621  -2.236  1.00  0.00     0.135 A 
ATOM     78  C   UNL     1       9.771   6.501  -4.359  1.00  0.00     0.135 A 
ATOM     79  F   UNL     1       9.275   8.421  -1.312  1.00  0.00    -0.206 F 
ATOM     80  C   UNL     1      11.113   7.134  -2.002  1.00  0.00     0.059 A 
ATOM     81  C   UNL     1      11.040   5.976  -4.134  1.00  0.00     0.059 A 
ATOM     82  F   UNL     1       9.150   6.185  -5.506  1.00  0.00    -0.206 F 
ATOM     83  C   UNL     1      11.708   6.308  -2.956  1.00  0.00     0.060 A 
BRANCH  83  84
ATOM     84  S   UNL     1      13.355   5.646  -2.621  1.00  0.00     0.124 S 
ATOM     85  O   UNL     1      14.184   6.839  -2.749  1.00  0.00    -0.237 OA
ATOM     86  O   UNL     1      13.201   5.118  -1.268  1.00  0.00    -0.237 OA
ATOM     87  O   UNL     1      13.533   4.640  -3.663  1.00  0.00    -0.744 OA
ENDBRANCH  83  84
ENDBRANCH  51  76
BRANCH  63  88
ATOM     88  C   UNL     1       6.788  13.824  -4.469  1.00  0.00     0.058 A 
ATOM     89  C   UNL     1       7.657  14.221  -5.497  1.00  0.00     0.135 A 
ATOM     90  C   UNL     1       6.512  14.755  -3.453  1.00  0.00     0.135 A 
ATOM     91  F   UNL     1       7.960  13.372  -6.492  1.00  0.00    -0.206 F 
ATOM     92  C   UNL     1       8.247  15.482  -5.506  1.00  0.00     0.059 A 
ATOM     93  C   UNL     1       7.065  16.033  -3.458  1.00  0.00     0.059 A 
ATOM     94  F   UNL     1       5.679  14.436  -2.450  1.00  0.00    -0.206 F 
ATOM     95  C   UNL     1       7.942  16.383  -4.483  1.00  0.00     0.060 A 
BRANCH  95  96
ATOM     96  S   UNL     1       8.687  18.027  -4.526  1.00  0.00     0.124 S 
ATOM     97  O   UNL     1      10.076  17.730  -4.192  1.00  0.00    -0.237 OA
ATOM     98  O   UNL     1       8.442  18.445  -5.903  1.00  0.00    -0.237 OA
ATOM     99  O   UNL     1       7.942  18.767  -3.511  1.00  0.00    -0.744 OA
ENDBRANCH  95  96
ENDBRANCH  63  88
ENDBRANCH  37  38
ENDBRANCH  30  32
ENDBRANCH  29  30
ENDBRANCH  28  29
ENDBRANCH  27  28
ENDBRANCH  26  27
ENDBRANCH   1  26
TORSDOF 22
