REMARK SMILES CC(C)(O)CCOc1ccc(C(=O)OCCOCCOCCOC(=O)c2ccc(-c3c4nc(c(-c5c(F)cc(S(=O)(=O)[O-])cc5F)c5ccc([nH]5)c(-c5c(F)cc(S(=O)(=O)[O-])cc5F)c5nc(c(-c6c(F)cc(S(=O)(=O)[O-])cc6F)c6ccc3[nH]6)C=C5)C=C4)cc2)cc1
REMARK SMILES IDX 18 1 17 2 16 3 15 4 14 5 12 6 13 7 11 8 8 9 9 10 93 11 10 12
REMARK SMILES IDX 92 13 7 14 6 15 5 16 2 17 1 18 3 19 4 20 19 22 20 23 21 24
REMARK SMILES IDX 22 25 23 26 24 27 25 28 26 29 27 30 91 31 28 32 90 33 29 34
REMARK SMILES IDX 30 35 31 36 84 37 32 38 89 39 83 40 85 41 33 42 88 43 82 44
REMARK SMILES IDX 81 45 34 47 68 48 47 49 67 50 48 51 51 52 66 53 86 54 49 55
REMARK SMILES IDX 50 56 65 58 87 59 52 60 35 61 36 62 45 63 37 64 38 65 44 66
REMARK SMILES IDX 46 67 39 68 40 69 41 70 42 71 43 72 69 73 70 74 79 75 71 76
REMARK SMILES IDX 72 77 78 78 80 79 73 80 74 81 75 82 76 83 77 84 53 85 54 86
REMARK SMILES IDX 63 87 55 88 56 89 62 90 64 91 57 92 58 93 59 94 60 95 61 96
REMARK H PARENT 4 21 85 46 51 57
REMARK Flexibility Score: inf
ROOT
ATOM      1  C   UNL     1       0.858   4.985  -2.982  1.00  0.00     0.188 C 
ENDROOT
BRANCH   1   2
ATOM      2  O   UNL     1       0.411   6.217  -2.438  1.00  0.00    -0.376 OA
BRANCH   2   3
ATOM      3  C   UNL     1      -0.980   6.255  -2.139  1.00  0.00     0.202 C 
BRANCH   3   4
ATOM      4  C   UNL     1      -1.368   5.403  -0.927  1.00  0.00     0.261 C 
BRANCH   4   5
ATOM      5  O   UNL     1      -1.191   3.981  -1.071  1.00  0.00    -0.460 OA
BRANCH   5   6
ATOM      6  C   UNL     1      -1.874   3.331  -2.045  1.00  0.00     0.338 C 
ATOM      7  O   UNL     1      -2.632   3.809  -2.865  1.00  0.00    -0.246 OA
BRANCH   6   8
ATOM      8  C   UNL     1      -1.449   1.921  -1.974  1.00  0.00     0.060 A 
ATOM      9  C   UNL     1      -0.342  -0.609  -1.537  1.00  0.00     0.119 A 
ATOM     10  C   UNL     1      -0.032   0.106  -2.701  1.00  0.00     0.047 A 
ATOM     11  C   UNL     1      -1.319  -0.105  -0.682  1.00  0.00     0.047 A 
ATOM     12  C   UNL     1      -0.601   1.365  -2.937  1.00  0.00     0.019 A 
ATOM     13  C   UNL     1      -1.833   1.176  -0.864  1.00  0.00     0.019 A 
BRANCH   9  14
ATOM     14  O   UNL     1       0.435  -1.709  -1.291  1.00  0.00    -0.493 OA
BRANCH  14  15
ATOM     15  C   UNL     1       0.212  -2.474  -0.103  1.00  0.00     0.232 C 
BRANCH  15  16
ATOM     16  C   UNL     1       1.151  -2.176   1.088  1.00  0.00     0.076 C 
BRANCH  16  17
ATOM     17  C   UNL     1       1.085  -0.793   1.775  1.00  0.00     0.062 C 
ATOM     18  C   UNL     1       1.835   0.287   0.984  1.00  0.00     0.042 C 
ATOM     19  C   UNL     1       1.687  -0.860   3.186  1.00  0.00     0.042 C 
BRANCH  17  20
ATOM     20  O   UNL     1      -0.277  -0.429   1.986  1.00  0.00    -0.390 OA
ATOM     21  H   UNL     1      -0.318   0.438   2.417  1.00  0.00     0.211 HD
ENDBRANCH  17  20
ENDBRANCH  16  17
ENDBRANCH  15  16
ENDBRANCH  14  15
ENDBRANCH   9  14
ENDBRANCH   6   8
ENDBRANCH   5   6
ENDBRANCH   4   5
ENDBRANCH   3   4
ENDBRANCH   2   3
ENDBRANCH   1   2
BRANCH   1  22
ATOM     22  C   UNL     1       1.770   4.199  -2.025  1.00  0.00     0.188 C 
BRANCH  22  23
ATOM     23  O   UNL     1       2.357   4.838  -0.905  1.00  0.00    -0.376 OA
BRANCH  23  24
ATOM     24  C   UNL     1       2.877   6.151  -0.995  1.00  0.00     0.202 C 
BRANCH  24  25
ATOM     25  C   UNL     1       3.665   6.686  -2.209  1.00  0.00     0.261 C 
BRANCH  25  26
ATOM     26  O   UNL     1       3.457   6.075  -3.483  1.00  0.00    -0.460 OA
BRANCH  26  27
ATOM     27  C   UNL     1       4.304   5.077  -3.828  1.00  0.00     0.338 C 
ATOM     28  O   UNL     1       5.216   4.624  -3.162  1.00  0.00    -0.246 OA
BRANCH  27  29
ATOM     29  C   UNL     1       3.828   4.499  -5.107  1.00  0.00     0.060 A 
ATOM     30  C   UNL     1       3.439   3.152  -5.145  1.00  0.00     0.016 A 
ATOM     31  C   UNL     1       3.755   5.284  -6.260  1.00  0.00     0.016 A 
ATOM     32  C   UNL     1       2.992   2.583  -6.341  1.00  0.00     0.010 A 
ATOM     33  C   UNL     1       3.330   4.705  -7.461  1.00  0.00     0.010 A 
ATOM     34  C   UNL     1       2.970   3.346  -7.515  1.00  0.00    -0.014 A 
BRANCH  34  35
ATOM     35  C   UNL     1       2.752   2.698  -8.834  1.00  0.00     0.031 A 
ATOM     36  C   UNL     1       3.956   2.367  -9.675  1.00  0.00     0.074 A 
ATOM     37  C   UNL     1       1.516   2.423  -9.292  1.00  0.00     0.049 A 
ATOM     38  N   UNL     1       4.017   1.910 -10.898  1.00  0.00    -0.248 NA
ATOM     39  C   UNL     1       5.270   2.589  -9.048  1.00  0.00     0.031 C 
ATOM     40  C   UNL     1       0.272   2.651  -8.561  1.00  0.00     0.029 A 
ATOM     41  N   UNL     1       1.108   1.908 -10.499  1.00  0.00    -0.354 N 
ATOM     42  C   UNL     1       5.371   1.804 -11.194  1.00  0.00     0.074 A 
ATOM     43  C   UNL     1       6.096   2.267 -10.032  1.00  0.00     0.031 C 
ATOM     44  C   UNL     1      -0.764   2.299  -9.344  1.00  0.00     0.029 A 
ATOM     45  C   UNL     1      -0.259   1.858 -10.644  1.00  0.00     0.049 A 
ATOM     46  H   UNL     1       1.734   1.603 -11.194  1.00  0.00     0.167 HD
ATOM     47  C   UNL     1       5.957   1.359 -12.331  1.00  0.00     0.037 A 
ATOM     48  C   UNL     1      -1.014   1.529 -11.713  1.00  0.00     0.037 A 
ATOM     49  C   UNL     1       5.231   0.902 -13.488  1.00  0.00     0.049 A 
ATOM     50  C   UNL     1      -0.340   1.110 -12.998  1.00  0.00     0.074 A 
ATOM     51  C   UNL     1       5.736   0.418 -14.681  1.00  0.00     0.029 A 
ATOM     52  N   UNL     1       3.849   0.883 -13.601  1.00  0.00    -0.354 N 
ATOM     53  N   UNL     1       0.940   0.997 -13.261  1.00  0.00    -0.248 NA
ATOM     54  C   UNL     1      -1.214   0.775 -14.134  1.00  0.00     0.031 C 
ATOM     55  C   UNL     1       4.660   0.159 -15.537  1.00  0.00     0.029 A 
ATOM     56  C   UNL     1       3.483   0.420 -14.854  1.00  0.00     0.049 A 
ATOM     57  H   UNL     1       3.220   1.159 -12.894  1.00  0.00     0.167 HD
ATOM     58  C   UNL     1       1.023   0.543 -14.575  1.00  0.00     0.074 A 
ATOM     59  C   UNL     1      -0.335   0.402 -15.055  1.00  0.00     0.031 C 
ATOM     60  C   UNL     1       2.126   0.263 -15.315  1.00  0.00     0.037 A 
BRANCH  47  61
ATOM     61  C   UNL     1       7.459   1.373 -12.393  1.00  0.00     0.058 A 
ATOM     62  C   UNL     1       8.241   0.481 -11.639  1.00  0.00     0.135 A 
ATOM     63  C   UNL     1       8.127   2.269 -13.244  1.00  0.00     0.135 A 
ATOM     64  F   UNL     1       7.656  -0.384 -10.796  1.00  0.00    -0.206 F 
ATOM     65  C   UNL     1       9.630   0.496 -11.709  1.00  0.00     0.059 A 
ATOM     66  C   UNL     1       9.514   2.280 -13.351  1.00  0.00     0.059 A 
ATOM     67  F   UNL     1       7.429   3.144 -13.984  1.00  0.00    -0.206 F 
ATOM     68  C   UNL     1      10.257   1.399 -12.569  1.00  0.00     0.060 A 
BRANCH  68  69
ATOM     69  S   UNL     1      12.060   1.401 -12.650  1.00  0.00     0.124 S 
ATOM     70  O   UNL     1      12.409   1.986 -11.359  1.00  0.00    -0.237 OA
ATOM     71  O   UNL     1      12.367  -0.017 -12.806  1.00  0.00    -0.237 OA
ATOM     72  O   UNL     1      12.349   2.234 -13.813  1.00  0.00    -0.744 OA
ENDBRANCH  68  69
ENDBRANCH  47  61
BRANCH  48  73
ATOM     73  C   UNL     1      -2.499   1.599 -11.629  1.00  0.00     0.058 A 
ATOM     74  C   UNL     1      -3.285   0.438 -11.674  1.00  0.00     0.135 A 
ATOM     75  C   UNL     1      -3.165   2.830 -11.513  1.00  0.00     0.135 A 
ATOM     76  F   UNL     1      -2.699  -0.763 -11.802  1.00  0.00    -0.206 F 
ATOM     77  C   UNL     1      -4.675   0.493 -11.621  1.00  0.00     0.059 A 
ATOM     78  C   UNL     1      -4.552   2.910 -11.431  1.00  0.00     0.059 A 
ATOM     79  F   UNL     1      -2.462   3.973 -11.462  1.00  0.00    -0.206 F 
ATOM     80  C   UNL     1      -5.299   1.735 -11.495  1.00  0.00     0.060 A 
BRANCH  80  81
ATOM     81  S   UNL     1      -7.101   1.790 -11.383  1.00  0.00     0.124 S 
ATOM     82  O   UNL     1      -7.492   1.452 -12.746  1.00  0.00    -0.237 OA
ATOM     83  O   UNL     1      -7.375   0.776 -10.370  1.00  0.00    -0.237 OA
ATOM     84  O   UNL     1      -7.370   3.165 -10.972  1.00  0.00    -0.744 OA
ENDBRANCH  80  81
ENDBRANCH  48  73
BRANCH  60  85
ATOM     85  C   UNL     1       1.927  -0.280 -16.705  1.00  0.00     0.058 A 
ATOM     86  C   UNL     1       1.488   0.527 -17.765  1.00  0.00     0.135 A 
ATOM     87  C   UNL     1       2.269  -1.612 -16.997  1.00  0.00     0.135 A 
ATOM     88  F   UNL     1       1.142   1.805 -17.542  1.00  0.00    -0.206 F 
ATOM     89  C   UNL     1       1.384   0.032 -19.062  1.00  0.00     0.059 A 
ATOM     90  C   UNL     1       2.200  -2.120 -18.291  1.00  0.00     0.059 A 
ATOM     91  F   UNL     1       2.705  -2.427 -16.023  1.00  0.00    -0.206 F 
ATOM     92  C   UNL     1       1.750  -1.291 -19.317  1.00  0.00     0.060 A 
BRANCH  92  93
ATOM     93  S   UNL     1       1.667  -1.903 -21.014  1.00  0.00     0.124 S 
ATOM     94  O   UNL     1       0.227  -2.013 -21.219  1.00  0.00    -0.237 OA
ATOM     95  O   UNL     1       2.334  -0.840 -21.761  1.00  0.00    -0.237 OA
ATOM     96  O   UNL     1       2.391  -3.169 -20.956  1.00  0.00    -0.744 OA
ENDBRANCH  92  93
ENDBRANCH  60  85
ENDBRANCH  34  35
ENDBRANCH  27  29
ENDBRANCH  26  27
ENDBRANCH  25  26
ENDBRANCH  24  25
ENDBRANCH  23  24
ENDBRANCH  22  23
ENDBRANCH   1  22
TORSDOF 25
