REMARK SMILES CN(C)S(=O)(=O)c1ccc(N(CC(=O)OCCOCCOCCOC(=O)c2ccc(-c3c4nc(c(-c5c(F)cc(S(=O)(=O)[O-])cc5F)c5ccc([nH]5)c(-c5c(F)cc(S(=O)(=O)[O-])cc5F)c5nc(c(-c6c(F)cc(S(=O)(=O)[O-])cc6F)c6ccc3[nH]6)C=C5)C=C4)cc2)C(C)(C)C)cc1
REMARK SMILES IDX 19 1 18 2 17 3 16 4 15 5 13 6 14 7 12 8 11 9 10 10 7 11 8 12
REMARK SMILES IDX 98 13 9 14 97 15 4 16 5 17 6 18 2 19 1 20 3 21 93 22 94 23
REMARK SMILES IDX 95 24 96 25 20 26 21 27 22 28 23 29 24 30 25 31 26 32 27 33
REMARK SMILES IDX 28 34 92 35 29 36 91 37 30 38 31 39 32 40 85 41 33 42 90 43
REMARK SMILES IDX 84 44 86 45 34 46 89 47 83 48 82 49 35 51 69 52 48 53 68 54
REMARK SMILES IDX 49 55 52 56 67 57 87 58 50 59 51 60 66 62 88 63 53 64 36 65
REMARK SMILES IDX 37 66 46 67 38 68 39 69 45 70 47 71 40 72 41 73 42 74 43 75
REMARK SMILES IDX 44 76 70 77 71 78 80 79 72 80 73 81 79 82 81 83 74 84 75 85
REMARK SMILES IDX 76 86 77 87 78 88 54 89 55 90 64 91 56 92 57 93 63 94 65 95
REMARK SMILES IDX 58 96 59 97 60 98 61 99 62 100
REMARK H PARENT 86 50 52 61
REMARK Flexibility Score: inf
ROOT
ATOM      1  C   UNL     1      -2.135 -10.595  -5.078  1.00  0.00     0.188 C 
ENDROOT
BRANCH   1   2
ATOM      2  O   UNL     1      -3.057 -10.322  -6.122  1.00  0.00    -0.376 OA
BRANCH   2   3
ATOM      3  C   UNL     1      -3.015  -9.058  -6.762  1.00  0.00     0.202 C 
BRANCH   3   4
ATOM      4  C   UNL     1      -3.358  -7.817  -5.919  1.00  0.00     0.261 C 
BRANCH   4   5
ATOM      5  O   UNL     1      -2.531  -7.596  -4.745  1.00  0.00    -0.462 OA
BRANCH   5   6
ATOM      6  C   UNL     1      -3.177  -7.507  -3.553  1.00  0.00     0.325 C 
ATOM      7  O   UNL     1      -4.404  -7.575  -3.460  1.00  0.00    -0.250 OA
BRANCH   6   8
ATOM      8  C   UNL     1      -2.327  -7.384  -2.268  1.00  0.00     0.239 C 
BRANCH   8   9
ATOM      9  N   UNL     1      -0.844  -7.104  -2.317  1.00  0.00    -0.356 N 
BRANCH   9  10
ATOM     10  C   UNL     1      -0.444  -5.754  -2.404  1.00  0.00     0.038 A 
ATOM     11  C   UNL     1       0.335  -3.012  -2.249  1.00  0.00     0.082 A 
ATOM     12  C   UNL     1      -0.972  -3.352  -2.585  1.00  0.00     0.024 A 
ATOM     13  C   UNL     1       1.282  -4.006  -2.103  1.00  0.00     0.024 A 
ATOM     14  C   UNL     1      -1.349  -4.705  -2.651  1.00  0.00     0.027 A 
ATOM     15  C   UNL     1       0.889  -5.341  -2.218  1.00  0.00     0.027 A 
BRANCH  11  16
ATOM     16  S   UNL     1       0.817  -1.320  -2.061  1.00  0.00     0.242 S 
ATOM     17  O   UNL     1      -0.023  -0.510  -2.913  1.00  0.00    -0.207 OA
ATOM     18  O   UNL     1       2.264  -1.252  -2.170  1.00  0.00    -0.207 OA
BRANCH  16  19
ATOM     19  N   UNL     1       0.408  -0.982  -0.430  1.00  0.00    -0.204 NA
ATOM     20  C   UNL     1       0.997   0.285   0.053  1.00  0.00     0.124 C 
ATOM     21  C   UNL     1      -1.032  -1.088  -0.105  1.00  0.00     0.124 C 
ENDBRANCH  16  19
ENDBRANCH  11  16
ENDBRANCH   9  10
BRANCH   9  22
ATOM     22  C   UNL     1       0.138  -8.173  -1.850  1.00  0.00     0.032 C 
ATOM     23  C   UNL     1       1.248  -8.382  -2.920  1.00  0.00     0.034 C 
ATOM     24  C   UNL     1       0.761  -7.901  -0.457  1.00  0.00     0.034 C 
ATOM     25  C   UNL     1      -0.548  -9.528  -1.619  1.00  0.00     0.034 C 
ENDBRANCH   9  22
ENDBRANCH   8   9
ENDBRANCH   6   8
ENDBRANCH   5   6
ENDBRANCH   4   5
ENDBRANCH   3   4
ENDBRANCH   2   3
ENDBRANCH   1   2
BRANCH   1  26
ATOM     26  C   UNL     1      -0.767  -9.894  -5.047  1.00  0.00     0.188 C 
BRANCH  26  27
ATOM     27  O   UNL     1      -0.213  -9.477  -6.264  1.00  0.00    -0.376 OA
BRANCH  27  28
ATOM     28  C   UNL     1       0.664 -10.296  -6.997  1.00  0.00     0.202 C 
BRANCH  28  29
ATOM     29  C   UNL     1       1.192 -11.665  -6.540  1.00  0.00     0.261 C 
BRANCH  29  30
ATOM     30  O   UNL     1       0.398 -12.425  -5.617  1.00  0.00    -0.460 OA
BRANCH  30  31
ATOM     31  C   UNL     1       1.034 -12.687  -4.447  1.00  0.00     0.338 C 
ATOM     32  O   UNL     1       2.126 -12.263  -4.099  1.00  0.00    -0.246 OA
BRANCH  31  33
ATOM     33  C   UNL     1       0.207 -13.457  -3.504  1.00  0.00     0.060 A 
ATOM     34  C   UNL     1      -0.535 -12.735  -2.578  1.00  0.00     0.016 A 
ATOM     35  C   UNL     1       0.447 -14.807  -3.287  1.00  0.00     0.016 A 
ATOM     36  C   UNL     1      -0.879 -13.285  -1.350  1.00  0.00     0.010 A 
ATOM     37  C   UNL     1      -0.014 -15.402  -2.103  1.00  0.00     0.010 A 
ATOM     38  C   UNL     1      -0.608 -14.628  -1.084  1.00  0.00    -0.014 A 
BRANCH  38  39
ATOM     39  C   UNL     1      -0.823 -15.183   0.286  1.00  0.00     0.031 A 
ATOM     40  C   UNL     1       0.338 -15.809   1.023  1.00  0.00     0.074 A 
ATOM     41  C   UNL     1      -2.024 -15.094   0.896  1.00  0.00     0.049 A 
ATOM     42  N   UNL     1       0.339 -16.538   2.110  1.00  0.00    -0.248 NA
ATOM     43  C   UNL     1       1.678 -15.599   0.448  1.00  0.00     0.031 C 
ATOM     44  C   UNL     1      -3.211 -14.432   0.350  1.00  0.00     0.029 A 
ATOM     45  N   UNL     1      -2.446 -15.564   2.117  1.00  0.00    -0.354 N 
ATOM     46  C   UNL     1       1.660 -16.929   2.307  1.00  0.00     0.074 A 
ATOM     47  C   UNL     1       2.432 -16.366   1.222  1.00  0.00     0.031 C 
ATOM     48  C   UNL     1      -4.214 -14.517   1.236  1.00  0.00     0.029 A 
ATOM     49  C   UNL     1      -3.779 -15.328   2.366  1.00  0.00     0.049 A 
ATOM     50  H   UNL     1      -1.852 -16.026   2.752  1.00  0.00     0.167 HD
ATOM     51  C   UNL     1       2.179 -17.690   3.301  1.00  0.00     0.037 A 
ATOM     52  C   UNL     1      -4.580 -15.764   3.358  1.00  0.00     0.037 A 
ATOM     53  C   UNL     1       1.405 -18.199   4.406  1.00  0.00     0.049 A 
ATOM     54  C   UNL     1      -3.998 -16.659   4.418  1.00  0.00     0.074 A 
ATOM     55  C   UNL     1       1.827 -18.981   5.467  1.00  0.00     0.029 A 
ATOM     56  N   UNL     1       0.051 -17.964   4.598  1.00  0.00    -0.354 N 
ATOM     57  N   UNL     1      -2.764 -17.085   4.553  1.00  0.00    -0.248 NA
ATOM     58  C   UNL     1      -4.920 -17.143   5.454  1.00  0.00     0.031 C 
ATOM     59  C   UNL     1       0.717 -19.262   6.271  1.00  0.00     0.029 A 
ATOM     60  C   UNL     1      -0.384 -18.602   5.749  1.00  0.00     0.049 A 
ATOM     61  H   UNL     1      -0.518 -17.423   4.004  1.00  0.00     0.167 HD
ATOM     62  C   UNL     1      -2.756 -17.868   5.702  1.00  0.00     0.074 A 
ATOM     63  C   UNL     1      -4.103 -17.835   6.235  1.00  0.00     0.031 C 
ATOM     64  C   UNL     1      -1.730 -18.555   6.265  1.00  0.00     0.037 A 
BRANCH  51  65
ATOM     65  C   UNL     1       3.638 -18.060   3.215  1.00  0.00     0.058 A 
ATOM     66  C   UNL     1       4.667 -17.121   3.391  1.00  0.00     0.135 A 
ATOM     67  C   UNL     1       4.011 -19.392   2.964  1.00  0.00     0.135 A 
ATOM     68  F   UNL     1       4.373 -15.830   3.614  1.00  0.00    -0.206 F 
ATOM     69  C   UNL     1       6.008 -17.481   3.287  1.00  0.00     0.059 A 
ATOM     70  C   UNL     1       5.346 -19.781   2.889  1.00  0.00     0.059 A 
ATOM     71  F   UNL     1       3.072 -20.335   2.785  1.00  0.00    -0.206 F 
ATOM     72  C   UNL     1       6.338 -18.814   3.035  1.00  0.00     0.060 A 
BRANCH  72  73
ATOM     73  S   UNL     1       8.082 -19.263   2.900  1.00  0.00     0.124 S 
ATOM     74  O   UNL     1       8.443 -18.650   1.625  1.00  0.00    -0.237 OA
ATOM     75  O   UNL     1       8.656 -18.640   4.088  1.00  0.00    -0.237 OA
ATOM     76  O   UNL     1       8.060 -20.723   2.909  1.00  0.00    -0.744 OA
ENDBRANCH  72  73
ENDBRANCH  51  65
BRANCH  52  77
ATOM     77  C   UNL     1      -6.027 -15.406   3.367  1.00  0.00     0.058 A 
ATOM     78  C   UNL     1      -6.569 -14.594   4.374  1.00  0.00     0.135 A 
ATOM     79  C   UNL     1      -6.900 -15.868   2.366  1.00  0.00     0.135 A 
ATOM     80  F   UNL     1      -5.783 -14.136   5.360  1.00  0.00    -0.206 F 
ATOM     81  C   UNL     1      -7.921 -14.266   4.400  1.00  0.00     0.059 A 
ATOM     82  C   UNL     1      -8.248 -15.524   2.351  1.00  0.00     0.059 A 
ATOM     83  F   UNL     1      -6.435 -16.640   1.372  1.00  0.00    -0.206 F 
ATOM     84  C   UNL     1      -8.752 -14.732   3.380  1.00  0.00     0.060 A 
BRANCH  84  85
ATOM     85  S   UNL     1     -10.495 -14.261   3.398  1.00  0.00     0.124 S 
ATOM     86  O   UNL     1     -11.000 -15.046   4.519  1.00  0.00    -0.237 OA
ATOM     87  O   UNL     1     -10.419 -12.819   3.611  1.00  0.00    -0.237 OA
ATOM     88  O   UNL     1     -10.967 -14.668   2.078  1.00  0.00    -0.744 OA
ENDBRANCH  84  85
ENDBRANCH  52  77
BRANCH  64  89
ATOM     89  C   UNL     1      -2.019 -19.287   7.548  1.00  0.00     0.058 A 
ATOM     90  C   UNL     1      -2.836 -20.428   7.584  1.00  0.00     0.135 A 
ATOM     91  C   UNL     1      -1.460 -18.843   8.757  1.00  0.00     0.135 A 
ATOM     92  F   UNL     1      -3.401 -20.892   6.458  1.00  0.00    -0.206 F 
ATOM     93  C   UNL     1      -3.124 -21.077   8.781  1.00  0.00     0.059 A 
ATOM     94  C   UNL     1      -1.705 -19.497   9.960  1.00  0.00     0.059 A 
ATOM     95  F   UNL     1      -0.660 -17.765   8.778  1.00  0.00    -0.206 F 
ATOM     96  C   UNL     1      -2.556 -20.601   9.964  1.00  0.00     0.060 A 
BRANCH  96  97
ATOM     97  S   UNL     1      -2.940 -21.449  11.510  1.00  0.00     0.124 S 
ATOM     98  O   UNL     1      -4.320 -21.033  11.738  1.00  0.00    -0.237 OA
ATOM     99  O   UNL     1      -2.751 -22.851  11.152  1.00  0.00    -0.237 OA
ATOM    100  O   UNL     1      -1.959 -20.909  12.447  1.00  0.00    -0.744 OA
ENDBRANCH  96  97
ENDBRANCH  64  89
ENDBRANCH  38  39
ENDBRANCH  31  33
ENDBRANCH  30  31
ENDBRANCH  29  30
ENDBRANCH  28  29
ENDBRANCH  27  28
ENDBRANCH  26  27
ENDBRANCH   1  26
TORSDOF 25
