REMARK SMILES Cc1ccc(S(=O)(=O)n2cc(C(=O)C(=O)N[C@@H](Cc3c[nH]c4ccccc34)C(=O)OCCOCCOCCOC(=O)c3ccc(-c4c5nc(c(-c6c(F)cc(S(=O)(=O)[O-])cc6F)c6ccc([nH]6)c(-c6c(F)cc(S(=O)(=O)[O-])cc6F)c6nc(c(-c7c(F)cc(S(=O)(=O)[O-])cc7F)c7ccc4[nH]7)C=C6)C=C5)cc3)c3ccccc32)cc1
REMARK SMILES IDX 34 1 33 2 32 3 31 4 30 5 28 6 29 7 17 8 16 9 14 10 15 11
REMARK SMILES IDX 12 13 13 14 11 15 9 16 10 17 113 18 108 19 112 20 109 21
REMARK SMILES IDX 111 22 110 23 6 24 7 25 8 26 5 27 1 28 2 29 3 30 115 31 4 32
REMARK SMILES IDX 114 33 18 34 19 35 20 36 27 37 21 38 22 39 26 40 23 42 25 43
REMARK SMILES IDX 24 44 35 45 36 46 37 47 38 48 39 49 40 50 41 51 42 52 43 53
REMARK SMILES IDX 107 54 44 55 106 56 45 57 46 58 47 59 100 60 48 61 105 62
REMARK SMILES IDX 99 63 101 64 49 65 104 66 98 67 97 68 50 70 84 71 63 72
REMARK SMILES IDX 83 73 64 74 67 75 82 76 102 77 65 78 66 79 81 81 103 82
REMARK SMILES IDX 68 83 51 84 52 85 61 86 53 87 54 88 60 89 62 90 55 91 56 92
REMARK SMILES IDX 57 93 58 94 59 95 85 96 86 97 95 98 87 99 88 100 94 101
REMARK SMILES IDX 96 102 89 103 90 104 91 105 92 106 93 107 69 108 70 109
REMARK SMILES IDX 79 110 71 111 72 112 78 113 80 114 73 115 74 116 75 117
REMARK SMILES IDX 76 118 77 119
REMARK H PARENT 16 12 21 41 101 69 67 80
REMARK Flexibility Score: inf
ROOT
ATOM      1  C   UNL     1     -10.886   0.987  -5.651  1.00  0.00     0.188 C 
ENDROOT
BRANCH   1   2
ATOM      2  O   UNL     1     -12.169   1.290  -6.134  1.00  0.00    -0.376 OA
BRANCH   2   3
ATOM      3  C   UNL     1     -12.896   2.076  -5.238  1.00  0.00     0.202 C 
BRANCH   3   4
ATOM      4  C   UNL     1     -12.346   2.439  -3.823  1.00  0.00     0.261 C 
BRANCH   4   5
ATOM      5  O   UNL     1     -11.254   1.550  -2.716  1.00  0.00    -0.462 OA
BRANCH   5   6
ATOM      6  C   UNL     1     -11.159   0.584  -1.604  1.00  0.00     0.329 C 
ATOM      7  O   UNL     1     -11.686  -0.514  -1.796  1.00  0.00    -0.250 OA
BRANCH   6   8
ATOM      8  C   UNL     1     -10.634   0.654   0.020  1.00  0.00     0.197 C 
BRANCH   8   9
ATOM      9  N   UNL     1      -9.673   1.487   0.805  1.00  0.00    -0.335 N 
ATOM     10  C   UNL     1      -8.320   1.593   0.656  1.00  0.00     0.293 C 
ATOM     11  O   UNL     1      -7.663   2.388   1.316  1.00  0.00    -0.265 OA
ATOM     12  H   UNL     1     -10.067   2.031   1.525  1.00  0.00     0.164 HD
BRANCH  10  13
ATOM     13  C   UNL     1      -7.710   0.688  -0.391  1.00  0.00     0.252 C 
ATOM     14  O   UNL     1      -8.496  -0.006  -1.026  1.00  0.00    -0.283 OA
BRANCH  13  15
ATOM     15  C   UNL     1      -6.321   0.345  -0.354  1.00  0.00     0.054 A 
ATOM     16  N   UNL     1      -4.406  -0.075   0.600  1.00  0.00    -0.240 N 
ATOM     17  C   UNL     1      -5.157   0.972   0.082  1.00  0.00     0.117 A 
ATOM     18  C   UNL     1      -5.248  -1.210   0.626  1.00  0.00     0.065 A 
ATOM     19  C   UNL     1      -6.021  -1.014  -0.500  1.00  0.00     0.012 A 
ATOM     20  C   UNL     1      -5.087  -2.486   1.185  1.00  0.00     0.028 A 
ATOM     21  C   UNL     1      -6.580  -2.101  -1.180  1.00  0.00     0.011 A 
ATOM     22  C   UNL     1      -5.565  -3.566   0.437  1.00  0.00     0.002 A 
ATOM     23  C   UNL     1      -6.282  -3.382  -0.742  1.00  0.00     0.001 A 
BRANCH  16  24
ATOM     24  S   UNL     1      -2.856  -0.631   0.204  1.00  0.00     0.268 S 
ATOM     25  O   UNL     1      -3.079  -1.338  -1.051  1.00  0.00    -0.201 OA
ATOM     26  O   UNL     1      -2.555  -1.349   1.443  1.00  0.00    -0.201 OA
BRANCH  24  27
ATOM     27  C   UNL     1      -1.304   0.065  -0.072  1.00  0.00     0.088 A 
ATOM     28  C   UNL     1       2.961   0.354  -0.020  1.00  0.00     0.044 C 
ATOM     29  C   UNL     1       1.470   0.324  -0.113  1.00  0.00    -0.051 A 
ATOM     30  C   UNL     1       0.924  -0.937  -0.245  1.00  0.00     0.005 A 
ATOM     31  C   UNL     1       0.622   1.458  -0.034  1.00  0.00     0.005 A 
ATOM     32  C   UNL     1      -0.434  -1.045  -0.260  1.00  0.00     0.022 A 
ATOM     33  C   UNL     1      -0.791   1.340  -0.001  1.00  0.00     0.022 A 
ENDBRANCH  24  27
ENDBRANCH  16  24
ENDBRANCH  13  15
ENDBRANCH  10  13
ENDBRANCH   8   9
BRANCH   8  34
ATOM     34  C   UNL     1     -11.824   0.624   0.989  1.00  0.00     0.074 C 
BRANCH  34  35
ATOM     35  C   UNL     1     -12.560   1.863   0.778  1.00  0.00    -0.020 A 
ATOM     36  C   UNL     1     -14.255   1.781   0.190  1.00  0.00     0.087 A 
ATOM     37  C   UNL     1     -11.994   3.736   0.715  1.00  0.00     0.003 A 
ATOM     38  N   UNL     1     -14.761   3.535  -0.336  1.00  0.00    -0.361 N 
ATOM     39  C   UNL     1     -13.354   4.693  -0.021  1.00  0.00     0.046 A 
ATOM     40  C   UNL     1     -10.877   4.517   1.147  1.00  0.00     0.010 A 
ATOM     41  H   UNL     1     -15.633   3.788  -0.716  1.00  0.00     0.166 HD
ATOM     42  C   UNL     1     -13.251   6.096   0.001  1.00  0.00     0.026 A 
ATOM     43  C   UNL     1     -10.911   5.921   0.969  1.00  0.00     0.001 A 
ATOM     44  C   UNL     1     -12.027   6.653   0.467  1.00  0.00     0.002 A 
ENDBRANCH  34  35
ENDBRANCH   8  34
ENDBRANCH   6   8
ENDBRANCH   5   6
ENDBRANCH   4   5
ENDBRANCH   3   4
ENDBRANCH   2   3
ENDBRANCH   1   2
BRANCH   1  45
ATOM     45  C   UNL     1      -9.923   2.142  -5.398  1.00  0.00     0.188 C 
BRANCH  45  46
ATOM     46  O   UNL     1     -10.497   3.344  -4.949  1.00  0.00    -0.376 OA
BRANCH  46  47
ATOM     47  C   UNL     1     -10.722   4.512  -5.680  1.00  0.00     0.202 C 
BRANCH  47  48
ATOM     48  C   UNL     1      -9.424   4.968  -6.250  1.00  0.00     0.261 C 
BRANCH  48  49
ATOM     49  O   UNL     1      -8.308   5.160  -5.321  1.00  0.00    -0.460 OA
BRANCH  49  50
ATOM     50  C   UNL     1      -8.019   4.498  -4.163  1.00  0.00     0.338 C 
ATOM     51  O   UNL     1      -6.888   4.062  -3.961  1.00  0.00    -0.246 OA
BRANCH  50  52
ATOM     52  C   UNL     1      -9.048   4.427  -3.077  1.00  0.00     0.060 A 
ATOM     53  C   UNL     1      -9.047   3.336  -2.263  1.00  0.00     0.016 A 
ATOM     54  C   UNL     1     -10.090   5.333  -2.851  1.00  0.00     0.016 A 
ATOM     55  C   UNL     1     -10.168   3.174  -1.421  1.00  0.00     0.010 A 
ATOM     56  C   UNL     1     -11.335   4.918  -2.211  1.00  0.00     0.010 A 
ATOM     57  C   UNL     1     -11.487   3.682  -1.548  1.00  0.00    -0.014 A 
BRANCH  57  58
ATOM     58  C   UNL     1     -13.023   2.881  -0.854  1.00  0.00     0.031 A 
ATOM     59  C   UNL     1     -13.778   3.276   1.228  1.00  0.00     0.074 A 
ATOM     60  C   UNL     1     -13.764   1.803  -1.896  1.00  0.00     0.049 A 
ATOM     61  N   UNL     1     -14.621   2.518   2.071  1.00  0.00    -0.248 NA
ATOM     62  C   UNL     1     -13.593   4.460   2.408  1.00  0.00     0.031 C 
ATOM     63  C   UNL     1     -15.259   1.652  -2.277  1.00  0.00     0.029 A 
ATOM     64  N   UNL     1     -13.405   0.680  -2.795  1.00  0.00    -0.354 N 
ATOM     65  C   UNL     1     -15.516   3.393   2.593  1.00  0.00     0.074 A 
ATOM     66  C   UNL     1     -14.680   4.373   3.179  1.00  0.00     0.031 C 
ATOM     67  C   UNL     1     -15.539   0.495  -2.939  1.00  0.00     0.029 A 
ATOM     68  C   UNL     1     -14.332  -0.276  -3.151  1.00  0.00     0.049 A 
ATOM     69  H   UNL     1     -12.487   0.615  -3.145  1.00  0.00     0.167 HD
ATOM     70  C   UNL     1     -16.775   3.424   2.065  1.00  0.00     0.037 A 
ATOM     71  C   UNL     1     -14.136  -1.645  -3.244  1.00  0.00     0.037 A 
ATOM     72  C   UNL     1     -17.153   2.295   1.177  1.00  0.00     0.049 A 
ATOM     73  C   UNL     1     -15.011  -2.187  -2.134  1.00  0.00     0.074 A 
ATOM     74  C   UNL     1     -17.734   2.235  -0.084  1.00  0.00     0.029 A 
ATOM     75  N   UNL     1     -16.812   0.974   1.486  1.00  0.00    -0.354 N 
ATOM     76  N   UNL     1     -15.387  -1.408  -1.152  1.00  0.00    -0.248 NA
ATOM     77  C   UNL     1     -15.616  -3.514  -2.058  1.00  0.00     0.031 C 
ATOM     78  C   UNL     1     -17.757   0.878  -0.513  1.00  0.00     0.029 A 
ATOM     79  C   UNL     1     -17.156   0.093   0.458  1.00  0.00     0.049 A 
ATOM     80  H   UNL     1     -16.381   0.698   2.327  1.00  0.00     0.167 HD
ATOM     81  C   UNL     1     -16.344  -2.021  -0.418  1.00  0.00     0.074 A 
ATOM     82  C   UNL     1     -16.431  -3.356  -0.996  1.00  0.00     0.031 C 
ATOM     83  C   UNL     1     -16.990  -1.363   0.588  1.00  0.00     0.037 A 
BRANCH  70  84
ATOM     84  C   UNL     1     -17.639   4.647   2.199  1.00  0.00     0.058 A 
ATOM     85  C   UNL     1     -19.027   4.505   2.050  1.00  0.00     0.135 A 
ATOM     86  C   UNL     1     -17.185   5.956   2.475  1.00  0.00     0.135 A 
ATOM     87  F   UNL     1     -19.575   3.349   1.653  1.00  0.00    -0.206 F 
ATOM     88  C   UNL     1     -19.907   5.541   2.312  1.00  0.00     0.059 A 
ATOM     89  C   UNL     1     -18.046   6.982   2.833  1.00  0.00     0.059 A 
ATOM     90  F   UNL     1     -15.899   6.315   2.361  1.00  0.00    -0.206 F 
ATOM     91  C   UNL     1     -19.409   6.751   2.775  1.00  0.00     0.060 A 
BRANCH  91  92
ATOM     92  S   UNL     1     -20.573   7.990   3.338  1.00  0.00     0.124 S 
ATOM     93  O   UNL     1     -21.239   8.353   2.092  1.00  0.00    -0.237 OA
ATOM     94  O   UNL     1     -21.372   7.235   4.297  1.00  0.00    -0.237 OA
ATOM     95  O   UNL     1     -19.715   9.021   3.916  1.00  0.00    -0.744 OA
ENDBRANCH  91  92
ENDBRANCH  70  84
BRANCH  71  96
ATOM     96  C   UNL     1     -12.812  -2.293  -3.705  1.00  0.00     0.058 A 
ATOM     97  C   UNL     1     -12.417  -2.199  -5.056  1.00  0.00     0.135 A 
ATOM     98  C   UNL     1     -11.779  -2.694  -2.842  1.00  0.00     0.135 A 
ATOM     99  F   UNL     1     -13.351  -2.100  -6.015  1.00  0.00    -0.206 F 
ATOM    100  C   UNL     1     -11.064  -2.153  -5.461  1.00  0.00     0.059 A 
ATOM    101  C   UNL     1     -10.416  -2.502  -3.188  1.00  0.00     0.059 A 
ATOM    102  F   UNL     1     -12.056  -3.043  -1.575  1.00  0.00    -0.206 F 
ATOM    103  C   UNL     1     -10.071  -2.141  -4.487  1.00  0.00     0.060 A 
BRANCH 103 104
ATOM    104  S   UNL     1      -8.430  -1.385  -4.821  1.00  0.00     0.124 S 
ATOM    105  O   UNL     1      -7.532  -2.528  -4.737  1.00  0.00    -0.237 OA
ATOM    106  O   UNL     1      -8.562  -0.805  -6.155  1.00  0.00    -0.237 OA
ATOM    107  O   UNL     1      -8.312  -0.390  -3.764  1.00  0.00    -0.744 OA
ENDBRANCH 103 104
ENDBRANCH  71  96
BRANCH  83 108
ATOM    108  C   UNL     1     -17.645  -2.076   1.724  1.00  0.00     0.058 A 
ATOM    109  C   UNL     1     -17.348  -3.399   2.089  1.00  0.00     0.135 A 
ATOM    110  C   UNL     1     -18.507  -1.371   2.594  1.00  0.00     0.135 A 
ATOM    111  F   UNL     1     -16.421  -4.128   1.452  1.00  0.00    -0.206 F 
ATOM    112  C   UNL     1     -17.971  -4.019   3.159  1.00  0.00     0.059 A 
ATOM    113  C   UNL     1     -19.035  -1.931   3.737  1.00  0.00     0.059 A 
ATOM    114  F   UNL     1     -18.871  -0.100   2.378  1.00  0.00    -0.206 F 
ATOM    115  C   UNL     1     -18.810  -3.272   3.977  1.00  0.00     0.060 A 
BRANCH 115 116
ATOM    116  S   UNL     1     -19.617  -4.073   5.354  1.00  0.00     0.124 S 
ATOM    117  O   UNL     1     -20.636  -4.859   4.664  1.00  0.00    -0.237 OA
ATOM    118  O   UNL     1     -18.524  -4.832   5.953  1.00  0.00    -0.237 OA
ATOM    119  O   UNL     1     -20.113  -2.957   6.153  1.00  0.00    -0.744 OA
ENDBRANCH 115 116
ENDBRANCH  83 108
ENDBRANCH  57  58
ENDBRANCH  50  52
ENDBRANCH  49  50
ENDBRANCH  48  49
ENDBRANCH  47  48
ENDBRANCH  46  47
ENDBRANCH  45  46
ENDBRANCH   1  45
TORSDOF 27
