REMARK SMILES CS(=O)(=O)c1ccc(/C=C(/C(=O)OCCOCCOCCOC(=O)c2ccc(-c3c4nc(c(-c5c(F)cc(S(=O)(=O)[O-])cc5F)c5ccc([nH]5)c(-c5c(F)cc(S(=O)(=O)[O-])cc5F)c5nc(c(-c6c(F)cc(S(=O)(=O)[O-])cc6F)c6ccc3[nH]6)C=C5)C=C4)cc2)c2cccc(Br)c2)cc1
REMARK SMILES IDX 18 1 17 2 16 3 15 4 14 5 13 6 11 7 12 8 10 9 9 10 8 11 5 12
REMARK SMILES IDX 6 13 99 14 7 15 98 16 2 17 1 18 3 19 4 20 91 21 92 22 97 23
REMARK SMILES IDX 93 24 95 25 94 26 96 27 19 28 20 29 21 30 22 31 23 32 24 33
REMARK SMILES IDX 25 34 26 35 90 36 27 37 89 38 28 39 29 40 30 41 83 42 31 43
REMARK SMILES IDX 88 44 82 45 84 46 32 47 87 48 81 49 80 50 33 52 67 53 46 54
REMARK SMILES IDX 66 55 47 56 50 57 65 58 85 59 48 60 49 61 64 63 86 64 51 65
REMARK SMILES IDX 34 66 35 67 44 68 36 69 37 70 43 71 45 72 38 73 39 74 40 75
REMARK SMILES IDX 41 76 42 77 68 78 69 79 78 80 70 81 71 82 77 83 79 84 72 85
REMARK SMILES IDX 73 86 74 87 75 88 76 89 52 90 53 91 62 92 54 93 55 94 61 95
REMARK SMILES IDX 63 96 56 97 57 98 58 99 59 100 60 101
REMARK H PARENT 84 51 50 62
REMARK Flexibility Score: inf
ROOT
ATOM      1  C   UNL     1       0.255   5.001   8.178  1.00  0.00     0.188 C 
ENDROOT
BRANCH   1   2
ATOM      2  C   UNL     1       1.284   4.715   9.292  1.00  0.00     0.188 C 
BRANCH   2   3
ATOM      3  O   UNL     1       1.688   5.876   9.996  1.00  0.00    -0.376 OA
BRANCH   3   4
ATOM      4  C   UNL     1       3.019   6.305   9.747  1.00  0.00     0.202 C 
BRANCH   4   5
ATOM      5  C   UNL     1       3.348   6.769   8.316  1.00  0.00     0.261 C 
BRANCH   5   6
ATOM      6  O   UNL     1       2.886   5.922   7.246  1.00  0.00    -0.460 OA
BRANCH   6   7
ATOM      7  C   UNL     1       3.624   4.827   6.933  1.00  0.00     0.338 C 
ATOM      8  O   UNL     1       4.668   4.513   7.483  1.00  0.00    -0.246 OA
BRANCH   7   9
ATOM      9  C   UNL     1       2.926   3.980   5.898  1.00  0.00     0.067 C 
ATOM     10  C   UNL     1       2.179   4.571   4.929  1.00  0.00     0.024 C 
BRANCH  10  11
ATOM     11  C   UNL     1       1.508   3.946   3.756  1.00  0.00    -0.025 A 
ATOM     12  C   UNL     1       0.643   2.730   1.367  1.00  0.00     0.067 A 
ATOM     13  C   UNL     1       0.537   2.040   2.571  1.00  0.00     0.021 A 
ATOM     14  C   UNL     1       1.063   4.061   1.359  1.00  0.00     0.021 A 
ATOM     15  C   UNL     1       0.933   2.666   3.759  1.00  0.00     0.009 A 
ATOM     16  C   UNL     1       1.489   4.663   2.550  1.00  0.00     0.009 A 
BRANCH  12  17
ATOM     17  S   UNL     1       0.304   1.913  -0.175  1.00  0.00     0.175 S 
ATOM     18  C   UNL     1       1.051   0.307  -0.050  1.00  0.00     0.163 C 
ATOM     19  O   UNL     1       1.031   2.634  -1.207  1.00  0.00    -0.224 OA
ATOM     20  O   UNL     1      -1.133   1.749  -0.258  1.00  0.00    -0.224 OA
ENDBRANCH  12  17
ENDBRANCH  10  11
BRANCH   9  21
ATOM     21  C   UNL     1       3.076   2.510   5.983  1.00  0.00    -0.010 A 
ATOM     22  C   UNL     1       2.374   1.797   6.971  1.00  0.00     0.009 A 
ATOM     23  C   UNL     1       3.770   1.798   4.997  1.00  0.00     0.024 A 
ATOM     24  C   UNL     1       2.334   0.402   6.950  1.00  0.00     0.002 A 
ATOM     25  C   UNL     1       3.702   0.404   4.969  1.00  0.00     0.018 A 
ATOM     26  C   UNL     1       2.989  -0.296   5.940  1.00  0.00     0.016 A 
ATOM     27  Br  UNL     1       4.505  -0.536   3.539  1.00  0.00    -0.051 Br
ENDBRANCH   9  21
ENDBRANCH   7   9
ENDBRANCH   6   7
ENDBRANCH   5   6
ENDBRANCH   4   5
ENDBRANCH   3   4
ENDBRANCH   2   3
ENDBRANCH   1   2
BRANCH   1  28
ATOM     28  O   UNL     1      -0.293   6.301   8.021  1.00  0.00    -0.376 OA
BRANCH  28  29
ATOM     29  C   UNL     1      -0.671   7.034   9.175  1.00  0.00     0.202 C 
BRANCH  29  30
ATOM     30  C   UNL     1      -1.568   6.396  10.255  1.00  0.00     0.261 C 
BRANCH  30  31
ATOM     31  O   UNL     1      -1.339   5.010  10.560  1.00  0.00    -0.460 OA
BRANCH  31  32
ATOM     32  C   UNL     1      -2.231   4.134  10.036  1.00  0.00     0.338 C 
ATOM     33  O   UNL     1      -3.208   4.405   9.349  1.00  0.00    -0.246 OA
BRANCH  32  34
ATOM     34  C   UNL     1      -1.755   2.748  10.244  1.00  0.00     0.060 A 
ATOM     35  C   UNL     1      -1.499   1.950   9.118  1.00  0.00     0.016 A 
ATOM     36  C   UNL     1      -1.603   2.218  11.526  1.00  0.00     0.016 A 
ATOM     37  C   UNL     1      -1.104   0.621   9.270  1.00  0.00     0.010 A 
ATOM     38  C   UNL     1      -1.236   0.873  11.676  1.00  0.00     0.010 A 
ATOM     39  C   UNL     1      -1.007   0.061  10.550  1.00  0.00    -0.014 A 
BRANCH  39  40
ATOM     40  C   UNL     1      -0.849  -1.409  10.696  1.00  0.00     0.031 A 
ATOM     41  C   UNL     1      -2.084  -2.252  10.875  1.00  0.00     0.074 A 
ATOM     42  C   UNL     1       0.361  -1.995  10.642  1.00  0.00     0.049 A 
ATOM     43  N   UNL     1      -2.190  -3.544  11.045  1.00  0.00    -0.248 NA
ATOM     44  C   UNL     1      -3.371  -1.537  10.863  1.00  0.00     0.031 C 
ATOM     45  C   UNL     1       1.629  -1.299  10.441  1.00  0.00     0.029 A 
ATOM     46  N   UNL     1       0.719  -3.317  10.758  1.00  0.00    -0.354 N 
ATOM     47  C   UNL     1      -3.551  -3.799  11.166  1.00  0.00     0.074 A 
ATOM     48  C   UNL     1      -4.229  -2.524  11.075  1.00  0.00     0.031 C 
ATOM     49  C   UNL     1       2.628  -2.200  10.449  1.00  0.00     0.029 A 
ATOM     50  C   UNL     1       2.076  -3.531  10.701  1.00  0.00     0.049 A 
ATOM     51  H   UNL     1       0.064  -4.043  10.872  1.00  0.00     0.167 HD
ATOM     52  C   UNL     1      -4.180  -4.987  11.334  1.00  0.00     0.037 A 
ATOM     53  C   UNL     1       2.791  -4.664  10.861  1.00  0.00     0.037 A 
ATOM     54  C   UNL     1      -3.503  -6.253  11.442  1.00  0.00     0.049 A 
ATOM     55  C   UNL     1       2.072  -5.966  11.128  1.00  0.00     0.074 A 
ATOM     56  C   UNL     1      -4.057  -7.511  11.606  1.00  0.00     0.029 A 
ATOM     57  N   UNL     1      -2.127  -6.424  11.413  1.00  0.00    -0.354 N 
ATOM     58  N   UNL     1       0.783  -6.197  11.211  1.00  0.00    -0.248 NA
ATOM     59  C   UNL     1       2.906  -7.162  11.322  1.00  0.00     0.031 C 
ATOM     60  C   UNL     1      -3.015  -8.434  11.738  1.00  0.00     0.029 A 
ATOM     61  C   UNL     1      -1.813  -7.763  11.585  1.00  0.00     0.049 A 
ATOM     62  H   UNL     1      -1.471  -5.701  11.289  1.00  0.00     0.167 HD
ATOM     63  C   UNL     1       0.653  -7.566  11.434  1.00  0.00     0.074 A 
ATOM     64  C   UNL     1       1.993  -8.113  11.462  1.00  0.00     0.031 C 
ATOM     65  C   UNL     1      -0.475  -8.303  11.598  1.00  0.00     0.037 A 
BRANCH  52  66
ATOM     66  C   UNL     1      -5.680  -4.968  11.450  1.00  0.00     0.058 A 
ATOM     67  C   UNL     1      -6.505  -4.678  10.351  1.00  0.00     0.135 A 
ATOM     68  C   UNL     1      -6.302  -5.278  12.670  1.00  0.00     0.135 A 
ATOM     69  F   UNL     1      -5.963  -4.357   9.165  1.00  0.00    -0.206 F 
ATOM     70  C   UNL     1      -7.891  -4.667  10.465  1.00  0.00     0.059 A 
ATOM     71  C   UNL     1      -7.687  -5.304  12.800  1.00  0.00     0.059 A 
ATOM     72  F   UNL     1      -5.562  -5.560  13.754  1.00  0.00    -0.206 F 
ATOM     73  C   UNL     1      -8.473  -4.983  11.694  1.00  0.00     0.060 A 
BRANCH  73  74
ATOM     74  S   UNL     1     -10.273  -4.968  11.824  1.00  0.00     0.124 S 
ATOM     75  O   UNL     1     -10.559  -3.539  11.742  1.00  0.00    -0.237 OA
ATOM     76  O   UNL     1     -10.674  -5.762  10.668  1.00  0.00    -0.237 OA
ATOM     77  O   UNL     1     -10.526  -5.584  13.123  1.00  0.00    -0.744 OA
ENDBRANCH  73  74
ENDBRANCH  52  66
BRANCH  53  78
ATOM     78  C   UNL     1       4.279  -4.627  10.797  1.00  0.00     0.058 A 
ATOM     79  C   UNL     1       4.979  -5.263   9.761  1.00  0.00     0.135 A 
ATOM     80  C   UNL     1       5.032  -3.971  11.784  1.00  0.00     0.135 A 
ATOM     81  F   UNL     1       4.306  -5.917   8.801  1.00  0.00    -0.206 F 
ATOM     82  C   UNL     1       6.370  -5.267   9.714  1.00  0.00     0.059 A 
ATOM     83  C   UNL     1       6.422  -3.934  11.742  1.00  0.00     0.059 A 
ATOM     84  F   UNL     1       4.413  -3.342  12.796  1.00  0.00    -0.206 F 
ATOM     85  C   UNL     1       7.083  -4.596  10.708  1.00  0.00     0.060 A 
BRANCH  85  86
ATOM     86  S   UNL     1       8.886  -4.569  10.612  1.00  0.00     0.124 S 
ATOM     87  O   UNL     1       9.219  -5.949  10.944  1.00  0.00    -0.237 OA
ATOM     88  O   UNL     1       9.110  -4.173   9.225  1.00  0.00    -0.237 OA
ATOM     89  O   UNL     1       9.260  -3.571  11.610  1.00  0.00    -0.744 OA
ENDBRANCH  85  86
ENDBRANCH  53  78
BRANCH  65  90
ATOM     90  C   UNL     1      -0.325  -9.793  11.771  1.00  0.00     0.058 A 
ATOM     91  C   UNL     1       0.199 -10.360  12.943  1.00  0.00     0.135 A 
ATOM     92  C   UNL     1      -0.774 -10.670  10.767  1.00  0.00     0.135 A 
ATOM     93  F   UNL     1       0.646  -9.572  13.933  1.00  0.00    -0.206 F 
ATOM     94  C   UNL     1       0.295 -11.740  13.105  1.00  0.00     0.059 A 
ATOM     95  C   UNL     1      -0.718 -12.052  10.921  1.00  0.00     0.059 A 
ATOM     96  F   UNL     1      -1.295 -10.184   9.629  1.00  0.00    -0.206 F 
ATOM     97  C   UNL     1      -0.170 -12.578  12.089  1.00  0.00     0.060 A 
BRANCH  97  98
ATOM     98  S   UNL     1      -0.072 -14.365  12.327  1.00  0.00     0.124 S 
ATOM     99  O   UNL     1       1.363 -14.601  12.205  1.00  0.00    -0.237 OA
ATOM    100  O   UNL     1      -0.630 -14.532  13.666  1.00  0.00    -0.237 OA
ATOM    101  O   UNL     1      -0.889 -14.899  11.242  1.00  0.00    -0.744 OA
ENDBRANCH  97  98
ENDBRANCH  65  90
ENDBRANCH  39  40
ENDBRANCH  32  34
ENDBRANCH  31  32
ENDBRANCH  30  31
ENDBRANCH  29  30
ENDBRANCH  28  29
ENDBRANCH   1  28
TORSDOF 23
