REMARK SMILES O=C(OCCOCCOCCOC(=O)c1ccc(-c2c3nc(c(-c4c(F)cc(S(=O)(=O)[O-])cc4F)c4ccc([nH]4)c(-c4c(F)cc(S(=O)(=O)[O-])cc4F)c4nc(c(-c5c(F)cc(S(=O)(=O)[O-])cc5F)c5ccc2[nH]5)C=C4)C=C3)cc1)C1=NN(c2ccc(S(=O)(=O)[O-])cc2)C(=O)/C1=C/Nc1ccccc1
REMARK SMILES IDX 8 1 7 2 6 3 5 4 4 5 3 6 2 7 1 8 81 9 82 10 96 11 83 12 94 13
REMARK SMILES IDX 97 14 95 15 84 16 85 17 93 18 86 19 92 20 87 21 88 22 89 23
REMARK SMILES IDX 90 24 91 25 98 26 99 28 100 29 104 30 101 31 103 32 102 33
REMARK SMILES IDX 9 34 10 35 11 36 12 37 13 38 14 39 15 40 16 41 80 42 17 43
REMARK SMILES IDX 79 44 18 45 19 46 20 47 73 48 21 49 78 50 72 51 74 52 22 53
REMARK SMILES IDX 77 54 71 55 70 56 23 58 57 59 36 60 56 61 37 62 40 63 55 64
REMARK SMILES IDX 75 65 38 66 39 67 54 69 76 70 41 71 24 72 25 73 34 74 26 75
REMARK SMILES IDX 27 76 33 77 35 78 28 79 29 80 30 81 31 82 32 83 58 84 59 85
REMARK SMILES IDX 68 86 60 87 61 88 67 89 69 90 62 91 63 92 64 93 65 94 66 95
REMARK SMILES IDX 42 96 43 97 52 98 44 99 45 100 51 101 53 102 46 103 47 104
REMARK SMILES IDX 48 105 49 106 50 107
REMARK H PARENT 98 27 74 57 40 68
REMARK Flexibility Score: inf
ROOT
ATOM      1  C   UNL     1       3.774  -3.139   0.058  1.00  0.00     0.188 C 
ENDROOT
BRANCH   1   2
ATOM      2  C   UNL     1       3.192  -1.874   0.670  1.00  0.00     0.188 C 
BRANCH   2   3
ATOM      3  O   UNL     1       4.010  -0.775   0.302  1.00  0.00    -0.376 OA
BRANCH   3   4
ATOM      4  C   UNL     1       4.716  -0.131   1.337  1.00  0.00     0.202 C 
BRANCH   4   5
ATOM      5  C   UNL     1       3.768   0.641   2.249  1.00  0.00     0.261 C 
BRANCH   5   6
ATOM      6  O   UNL     1       2.890   1.562   1.564  1.00  0.00    -0.458 OA
BRANCH   6   7
ATOM      7  C   UNL     1       2.172   1.118   0.500  1.00  0.00     0.359 C 
ATOM      8  O   UNL     1       1.111   0.526   0.527  1.00  0.00    -0.244 OA
BRANCH   7   9
ATOM      9  C   UNL     1       2.824   1.602  -0.761  1.00  0.00     0.183 C 
ATOM     10  N   UNL     1       3.275   2.839  -0.804  1.00  0.00    -0.157 NA
ATOM     11  C   UNL     1       3.199   0.753  -1.933  1.00  0.00     0.093 C 
ATOM     12  N   UNL     1       4.008   2.951  -1.955  1.00  0.00    -0.196 N 
ATOM     13  C   UNL     1       4.138   1.740  -2.639  1.00  0.00     0.282 C 
ATOM     14  C   UNL     1       3.030  -0.468  -2.517  1.00  0.00     0.099 C 
ATOM     15  O   UNL     1       4.910   1.482  -3.546  1.00  0.00    -0.267 OA
BRANCH  12  16
ATOM     16  C   UNL     1       4.570   4.207  -2.342  1.00  0.00     0.069 A 
ATOM     17  C   UNL     1       4.708   5.282  -1.445  1.00  0.00     0.030 A 
ATOM     18  C   UNL     1       4.958   4.426  -3.676  1.00  0.00     0.030 A 
ATOM     19  C   UNL     1       5.225   6.528  -1.870  1.00  0.00     0.021 A 
ATOM     20  C   UNL     1       5.427   5.669  -4.117  1.00  0.00     0.021 A 
ATOM     21  C   UNL     1       5.563   6.719  -3.214  1.00  0.00     0.054 A 
BRANCH  21  22
ATOM     22  S   UNL     1       6.022   8.323  -3.837  1.00  0.00     0.124 S 
ATOM     23  O   UNL     1       5.211   9.327  -3.202  1.00  0.00    -0.237 OA
ATOM     24  O   UNL     1       7.471   8.382  -3.838  1.00  0.00    -0.237 OA
ATOM     25  O   UNL     1       5.529   8.322  -5.377  1.00  0.00    -0.744 OA
ENDBRANCH  21  22
ENDBRANCH  12  16
BRANCH  14  26
ATOM     26  N   UNL     1       2.355  -1.709  -2.531  1.00  0.00    -0.361 N 
ATOM     27  H   UNL     1       1.571  -1.726  -1.937  1.00  0.00     0.166 HD
BRANCH  26  28
ATOM     28  C   UNL     1       2.567  -2.985  -3.240  1.00  0.00     0.038 A 
ATOM     29  C   UNL     1       1.469  -3.816  -3.464  1.00  0.00     0.026 A 
ATOM     30  C   UNL     1       3.782  -3.587  -3.644  1.00  0.00     0.026 A 
ATOM     31  C   UNL     1       1.608  -5.164  -3.897  1.00  0.00     0.002 A 
ATOM     32  C   UNL     1       3.954  -4.931  -4.042  1.00  0.00     0.002 A 
ATOM     33  C   UNL     1       2.852  -5.740  -4.141  1.00  0.00     0.000 A 
ENDBRANCH  26  28
ENDBRANCH  14  26
ENDBRANCH   7   9
ENDBRANCH   6   7
ENDBRANCH   5   6
ENDBRANCH   4   5
ENDBRANCH   3   4
ENDBRANCH   2   3
ENDBRANCH   1   2
BRANCH   1  34
ATOM     34  O   UNL     1       4.341  -2.896  -1.227  1.00  0.00    -0.376 OA
BRANCH  34  35
ATOM     35  C   UNL     1       5.668  -2.420  -1.445  1.00  0.00     0.202 C 
BRANCH  35  36
ATOM     36  C   UNL     1       5.925  -1.267  -2.595  1.00  0.00     0.261 C 
BRANCH  36  37
ATOM     37  O   UNL     1       5.562  -1.431  -4.119  1.00  0.00    -0.460 OA
BRANCH  37  38
ATOM     38  C   UNL     1       4.880  -1.102  -5.289  1.00  0.00     0.338 C 
ATOM     39  O   UNL     1       5.133  -1.800  -6.280  1.00  0.00    -0.246 OA
BRANCH  38  40
ATOM     40  C   UNL     1       3.856   0.017  -5.612  1.00  0.00     0.060 A 
ATOM     41  C   UNL     1       2.468  -0.007  -5.330  1.00  0.00     0.016 A 
ATOM     42  C   UNL     1       4.254   1.086  -6.421  1.00  0.00     0.016 A 
ATOM     43  C   UNL     1       1.606   1.112  -5.545  1.00  0.00     0.010 A 
ATOM     44  C   UNL     1       3.376   2.166  -6.726  1.00  0.00     0.010 A 
ATOM     45  C   UNL     1       2.059   2.238  -6.231  1.00  0.00    -0.014 A 
BRANCH  45  46
ATOM     46  C   UNL     1       1.206   3.440  -6.557  1.00  0.00     0.031 A 
ATOM     47  C   UNL     1       0.552   3.541  -7.912  1.00  0.00     0.074 A 
ATOM     48  C   UNL     1       0.999   4.471  -5.702  1.00  0.00     0.049 A 
ATOM     49  N   UNL     1       0.119   4.597  -8.552  1.00  0.00    -0.248 NA
ATOM     50  C   UNL     1       0.312   2.271  -8.613  1.00  0.00     0.031 C 
ATOM     51  C   UNL     1       1.265   4.457  -4.269  1.00  0.00     0.029 A 
ATOM     52  N   UNL     1       0.516   5.753  -5.926  1.00  0.00    -0.354 N 
ATOM     53  C   UNL     1      -0.442   4.124  -9.735  1.00  0.00     0.074 A 
ATOM     54  C   UNL     1      -0.289   2.684  -9.723  1.00  0.00     0.031 C 
ATOM     55  C   UNL     1       0.974   5.667  -3.753  1.00  0.00     0.029 A 
ATOM     56  C   UNL     1       0.643   6.597  -4.835  1.00  0.00     0.049 A 
ATOM     57  H   UNL     1       0.120   6.036  -6.782  1.00  0.00     0.167 HD
ATOM     58  C   UNL     1      -1.033   4.827 -10.731  1.00  0.00     0.037 A 
ATOM     59  C   UNL     1       0.610   7.956  -4.748  1.00  0.00     0.037 A 
ATOM     60  C   UNL     1      -1.195   6.259 -10.732  1.00  0.00     0.049 A 
ATOM     61  C   UNL     1       0.424   8.737  -6.041  1.00  0.00     0.074 A 
ATOM     62  C   UNL     1      -1.789   7.065 -11.690  1.00  0.00     0.029 A 
ATOM     63  N   UNL     1      -0.750   7.101  -9.728  1.00  0.00    -0.354 N 
ATOM     64  N   UNL     1      -0.026   8.319  -7.200  1.00  0.00    -0.248 NA
ATOM     65  C   UNL     1       0.803  10.162  -6.043  1.00  0.00     0.031 C 
ATOM     66  C   UNL     1      -1.644   8.399 -11.293  1.00  0.00     0.029 A 
ATOM     67  C   UNL     1      -1.003   8.419 -10.066  1.00  0.00     0.049 A 
ATOM     68  H   UNL     1      -0.317   6.805  -8.895  1.00  0.00     0.167 HD
ATOM     69  C   UNL     1      -0.106   9.448  -8.014  1.00  0.00     0.074 A 
ATOM     70  C   UNL     1       0.404  10.559  -7.244  1.00  0.00     0.031 C 
ATOM     71  C   UNL     1      -0.590   9.550  -9.276  1.00  0.00     0.037 A 
BRANCH  58  72
ATOM     72  C   UNL     1      -1.526   4.079 -11.937  1.00  0.00     0.058 A 
ATOM     73  C   UNL     1      -2.723   3.350 -11.915  1.00  0.00     0.135 A 
ATOM     74  C   UNL     1      -0.842   4.186 -13.160  1.00  0.00     0.135 A 
ATOM     75  F   UNL     1      -3.408   3.208 -10.769  1.00  0.00    -0.206 F 
ATOM     76  C   UNL     1      -3.228   2.752 -13.066  1.00  0.00     0.059 A 
ATOM     77  C   UNL     1      -1.338   3.613 -14.326  1.00  0.00     0.059 A 
ATOM     78  F   UNL     1       0.308   4.875 -13.232  1.00  0.00    -0.206 F 
ATOM     79  C   UNL     1      -2.532   2.895 -14.269  1.00  0.00     0.060 A 
BRANCH  79  80
ATOM     80  S   UNL     1      -3.227   2.155 -15.762  1.00  0.00     0.124 S 
ATOM     81  O   UNL     1      -3.020   0.733 -15.507  1.00  0.00    -0.237 OA
ATOM     82  O   UNL     1      -4.613   2.610 -15.718  1.00  0.00    -0.237 OA
ATOM     83  O   UNL     1      -2.417   2.724 -16.834  1.00  0.00    -0.744 OA
ENDBRANCH  79  80
ENDBRANCH  58  72
BRANCH  59  84
ATOM     84  C   UNL     1       0.951   8.716  -3.483  1.00  0.00     0.058 A 
ATOM     85  C   UNL     1       0.253   9.859  -3.046  1.00  0.00     0.135 A 
ATOM     86  C   UNL     1       2.123   8.422  -2.776  1.00  0.00     0.135 A 
ATOM     87  F   UNL     1      -0.872  10.236  -3.674  1.00  0.00    -0.206 F 
ATOM     88  C   UNL     1       0.745  10.699  -2.035  1.00  0.00     0.059 A 
ATOM     89  C   UNL     1       2.582   9.182  -1.705  1.00  0.00     0.059 A 
ATOM     90  F   UNL     1       2.897   7.412  -3.184  1.00  0.00    -0.206 F 
ATOM     91  C   UNL     1       1.920  10.351  -1.372  1.00  0.00     0.060 A 
BRANCH  91  92
ATOM     92  S   UNL     1       2.676  11.488  -0.183  1.00  0.00     0.124 S 
ATOM     93  O   UNL     1       2.571  12.770  -0.872  1.00  0.00    -0.237 OA
ATOM     94  O   UNL     1       1.815  11.313   0.981  1.00  0.00    -0.237 OA
ATOM     95  O   UNL     1       4.034  10.971  -0.031  1.00  0.00    -0.744 OA
ENDBRANCH  91  92
ENDBRANCH  59  84
BRANCH  71  96
ATOM     96  C   UNL     1      -0.782  10.926  -9.857  1.00  0.00     0.058 A 
ATOM     97  C   UNL     1       0.282  11.704 -10.334  1.00  0.00     0.135 A 
ATOM     98  C   UNL     1      -2.082  11.448  -9.987  1.00  0.00     0.135 A 
ATOM     99  F   UNL     1       1.544  11.263 -10.223  1.00  0.00    -0.206 F 
ATOM    100  C   UNL     1       0.066  12.956 -10.909  1.00  0.00     0.059 A 
ATOM    101  C   UNL     1      -2.323  12.683 -10.580  1.00  0.00     0.059 A 
ATOM    102  F   UNL     1      -3.139  10.742  -9.554  1.00  0.00    -0.206 F 
ATOM    103  C   UNL     1      -1.241  13.435 -11.031  1.00  0.00     0.060 A 
BRANCH 103 104
ATOM    104  S   UNL     1      -1.515  15.039 -11.818  1.00  0.00     0.124 S 
ATOM    105  O   UNL     1      -1.055  15.958 -10.782  1.00  0.00    -0.237 OA
ATOM    106  O   UNL     1      -0.674  14.951 -13.007  1.00  0.00    -0.237 OA
ATOM    107  O   UNL     1      -2.952  15.052 -12.074  1.00  0.00    -0.744 OA
ENDBRANCH 103 104
ENDBRANCH  71  96
ENDBRANCH  45  46
ENDBRANCH  38  40
ENDBRANCH  37  38
ENDBRANCH  36  37
ENDBRANCH  35  36
ENDBRANCH  34  35
ENDBRANCH   1  34
TORSDOF 24
