REMARK SMILES O=C(OCCOCCOCCOC(=O)c1nccnc1C(=O)Nc1n[nH]c2ncccc12)c1ccc(-c2c3nc(c(-c4c(F)cc(S(=O)(=O)[O-])cc4F)c4ccc([nH]4)c(-c4c(F)cc(S(=O)(=O)[O-])cc4F)c4nc(c(-c5c(F)cc(S(=O)(=O)[O-])cc5F)c5ccc2[nH]5)C=C4)C=C3)cc1
REMARK SMILES IDX 7 1 6 2 5 3 4 4 3 5 2 6 1 7 33 8 34 9 98 10 35 11 97 12
REMARK SMILES IDX 36 13 37 14 38 15 91 16 39 17 96 18 90 19 92 20 40 21 95 22
REMARK SMILES IDX 89 23 88 24 41 26 75 27 54 28 74 29 55 30 58 31 73 32 93 33
REMARK SMILES IDX 56 34 57 35 72 37 94 38 59 39 42 40 43 41 52 42 44 43 45 44
REMARK SMILES IDX 51 45 53 46 46 47 47 48 48 49 49 50 50 51 76 52 77 53 86 54
REMARK SMILES IDX 78 55 79 56 85 57 87 58 80 59 81 60 82 61 83 62 84 63 60 64
REMARK SMILES IDX 61 65 70 66 62 67 63 68 69 69 71 70 64 71 65 72 66 73 67 74
REMARK SMILES IDX 68 75 8 76 9 77 10 78 11 79 12 80 13 81 14 82 15 83 16 84
REMARK SMILES IDX 20 85 17 86 19 87 18 88 21 89 22 90 23 91 24 93 25 94 32 95
REMARK SMILES IDX 26 96 27 97 31 98 28 100 30 101 29 102
REMARK H PARENT 92 25 58 36 23 92 26 99
REMARK Flexibility Score: inf
ROOT
ATOM      1  C   UNL     1       3.004   1.603  -0.336  1.00  0.00     0.188 C 
ENDROOT
BRANCH   1   2
ATOM      2  O   UNL     1       4.342   1.121  -0.188  1.00  0.00    -0.376 OA
BRANCH   2   3
ATOM      3  C   UNL     1       5.036   0.896  -1.412  1.00  0.00     0.202 C 
BRANCH   3   4
ATOM      4  C   UNL     1       4.727  -0.427  -2.129  1.00  0.00     0.261 C 
BRANCH   4   5
ATOM      5  O   UNL     1       3.393  -0.926  -1.949  1.00  0.00    -0.460 OA
BRANCH   5   6
ATOM      6  C   UNL     1       2.888  -1.727  -0.978  1.00  0.00     0.338 C 
ATOM      7  O   UNL     1       1.779  -2.227  -1.174  1.00  0.00    -0.246 OA
BRANCH   6   8
ATOM      8  C   UNL     1       3.547  -1.990   0.346  1.00  0.00     0.060 A 
ATOM      9  C   UNL     1       4.872  -1.698   0.667  1.00  0.00     0.016 A 
ATOM     10  C   UNL     1       2.764  -2.621   1.338  1.00  0.00     0.016 A 
ATOM     11  C   UNL     1       5.413  -2.040   1.901  1.00  0.00     0.010 A 
ATOM     12  C   UNL     1       3.306  -2.990   2.579  1.00  0.00     0.010 A 
ATOM     13  C   UNL     1       4.650  -2.730   2.841  1.00  0.00    -0.014 A 
BRANCH  13  14
ATOM     14  C   UNL     1       5.398  -3.341   3.957  1.00  0.00     0.031 A 
ATOM     15  C   UNL     1       6.048  -4.670   3.702  1.00  0.00     0.074 A 
ATOM     16  C   UNL     1       5.699  -2.615   5.046  1.00  0.00     0.049 A 
ATOM     17  N   UNL     1       6.972  -5.281   4.392  1.00  0.00    -0.248 NA
ATOM     18  C   UNL     1       5.644  -5.374   2.471  1.00  0.00     0.031 C 
ATOM     19  C   UNL     1       5.206  -1.268   5.318  1.00  0.00     0.029 A 
ATOM     20  N   UNL     1       6.535  -2.886   6.098  1.00  0.00    -0.354 N 
ATOM     21  C   UNL     1       7.301  -6.410   3.653  1.00  0.00     0.074 A 
ATOM     22  C   UNL     1       6.452  -6.422   2.482  1.00  0.00     0.031 C 
ATOM     23  C   UNL     1       5.764  -0.820   6.456  1.00  0.00     0.029 A 
ATOM     24  C   UNL     1       6.622  -1.862   7.009  1.00  0.00     0.049 A 
ATOM     25  H   UNL     1       7.026  -3.734   6.191  1.00  0.00     0.167 HD
ATOM     26  C   UNL     1       8.238  -7.346   3.924  1.00  0.00     0.037 A 
ATOM     27  C   UNL     1       7.310  -1.784   8.164  1.00  0.00     0.037 A 
ATOM     28  C   UNL     1       9.014  -7.364   5.132  1.00  0.00     0.049 A 
ATOM     29  C   UNL     1       8.226  -2.923   8.526  1.00  0.00     0.074 A 
ATOM     30  C   UNL     1       9.901  -8.326   5.576  1.00  0.00     0.029 A 
ATOM     31  N   UNL     1       8.976  -6.372   6.103  1.00  0.00    -0.354 N 
ATOM     32  N   UNL     1       8.510  -4.001   7.832  1.00  0.00    -0.248 NA
ATOM     33  C   UNL     1       8.923  -2.835   9.815  1.00  0.00     0.031 C 
ATOM     34  C   UNL     1      10.367  -7.937   6.837  1.00  0.00     0.029 A 
ATOM     35  C   UNL     1       9.808  -6.709   7.156  1.00  0.00     0.049 A 
ATOM     36  H   UNL     1       8.437  -5.550   6.050  1.00  0.00     0.167 HD
ATOM     37  C   UNL     1       9.430  -4.712   8.593  1.00  0.00     0.074 A 
ATOM     38  C   UNL     1       9.672  -3.928   9.788  1.00  0.00     0.031 C 
ATOM     39  C   UNL     1      10.021  -5.905   8.334  1.00  0.00     0.037 A 
BRANCH  26  40
ATOM     40  C   UNL     1       8.417  -8.441   2.915  1.00  0.00     0.058 A 
ATOM     41  C   UNL     1       9.083  -8.213   1.700  1.00  0.00     0.135 A 
ATOM     42  C   UNL     1       7.898  -9.722   3.151  1.00  0.00     0.135 A 
ATOM     43  F   UNL     1       9.568  -6.994   1.412  1.00  0.00    -0.206 F 
ATOM     44  C   UNL     1       9.213  -9.216   0.745  1.00  0.00     0.059 A 
ATOM     45  C   UNL     1       8.032 -10.745   2.217  1.00  0.00     0.059 A 
ATOM     46  F   UNL     1       7.237  -9.984   4.289  1.00  0.00    -0.206 F 
ATOM     47  C   UNL     1       8.680 -10.478   1.012  1.00  0.00     0.060 A 
BRANCH  47  48
ATOM     48  S   UNL     1       8.843 -11.766  -0.243  1.00  0.00     0.124 S 
ATOM     49  O   UNL     1       7.900 -11.304  -1.257  1.00  0.00    -0.237 OA
ATOM     50  O   UNL     1      10.255 -11.673  -0.603  1.00  0.00    -0.237 OA
ATOM     51  O   UNL     1       8.458 -12.982   0.465  1.00  0.00    -0.744 OA
ENDBRANCH  47  48
ENDBRANCH  26  40
BRANCH  27  52
ATOM     52  C   UNL     1       7.123  -0.623   9.078  1.00  0.00     0.058 A 
ATOM     53  C   UNL     1       8.162   0.272   9.366  1.00  0.00     0.135 A 
ATOM     54  C   UNL     1       5.890  -0.417   9.721  1.00  0.00     0.135 A 
ATOM     55  F   UNL     1       9.359   0.121   8.778  1.00  0.00    -0.206 F 
ATOM     56  C   UNL     1       8.001   1.305  10.286  1.00  0.00     0.059 A 
ATOM     57  C   UNL     1       5.696   0.622  10.624  1.00  0.00     0.059 A 
ATOM     58  F   UNL     1       4.851  -1.229   9.464  1.00  0.00    -0.206 F 
ATOM     59  C   UNL     1       6.766   1.465  10.918  1.00  0.00     0.060 A 
BRANCH  59  60
ATOM     60  S   UNL     1       6.565   2.792  12.126  1.00  0.00     0.124 S 
ATOM     61  O   UNL     1       7.287   2.252  13.272  1.00  0.00    -0.237 OA
ATOM     62  O   UNL     1       7.194   3.922  11.450  1.00  0.00    -0.237 OA
ATOM     63  O   UNL     1       5.116   2.884  12.280  1.00  0.00    -0.744 OA
ENDBRANCH  59  60
ENDBRANCH  27  52
BRANCH  39  64
ATOM     64  C   UNL     1      10.988  -6.423   9.359  1.00  0.00     0.058 A 
ATOM     65  C   UNL     1      10.547  -6.936  10.588  1.00  0.00     0.135 A 
ATOM     66  C   UNL     1      12.365  -6.444   9.089  1.00  0.00     0.135 A 
ATOM     67  F   UNL     1       9.239  -6.933  10.892  1.00  0.00    -0.206 F 
ATOM     68  C   UNL     1      11.443  -7.426  11.530  1.00  0.00     0.059 A 
ATOM     69  C   UNL     1      13.277  -6.955  10.006  1.00  0.00     0.059 A 
ATOM     70  F   UNL     1      12.834  -5.976   7.921  1.00  0.00    -0.206 F 
ATOM     71  C   UNL     1      12.807  -7.429  11.230  1.00  0.00     0.060 A 
BRANCH  71  72
ATOM     72  S   UNL     1      13.960  -8.088  12.452  1.00  0.00     0.124 S 
ATOM     73  O   UNL     1      14.026  -6.992  13.412  1.00  0.00    -0.237 OA
ATOM     74  O   UNL     1      13.278  -9.294  12.910  1.00  0.00    -0.237 OA
ATOM     75  O   UNL     1      15.176  -8.320  11.677  1.00  0.00    -0.744 OA
ENDBRANCH  71  72
ENDBRANCH  39  64
ENDBRANCH  13  14
ENDBRANCH   6   8
ENDBRANCH   5   6
ENDBRANCH   4   5
ENDBRANCH   3   4
ENDBRANCH   2   3
ENDBRANCH   1   2
BRANCH   1  76
ATOM     76  C   UNL     1       2.920   3.047  -0.830  1.00  0.00     0.188 C 
BRANCH  76  77
ATOM     77  O   UNL     1       3.236   4.047   0.125  1.00  0.00    -0.376 OA
BRANCH  77  78
ATOM     78  C   UNL     1       4.566   4.154   0.615  1.00  0.00     0.202 C 
BRANCH  78  79
ATOM     79  C   UNL     1       4.989   3.575   2.123  1.00  0.00     0.261 C 
BRANCH  79  80
ATOM     80  O   UNL     1       4.013   3.697   3.913  1.00  0.00    -0.458 OA
BRANCH  80  81
ATOM     81  C   UNL     1       3.203   3.526   5.060  1.00  0.00     0.359 C 
ATOM     82  O   UNL     1       2.949   4.494   5.781  1.00  0.00    -0.244 OA
BRANCH  81  83
ATOM     83  C   UNL     1       2.604   2.203   5.465  1.00  0.00     0.179 A 
ATOM     84  N   UNL     1       3.213   1.789   6.634  1.00  0.00    -0.245 NA
ATOM     85  C   UNL     1       1.579   1.439   4.877  1.00  0.00     0.161 A 
ATOM     86  C   UNL     1       2.791   0.642   7.200  1.00  0.00     0.132 A 
ATOM     87  N   UNL     1       1.252   0.223   5.451  1.00  0.00    -0.247 NA
ATOM     88  C   UNL     1       1.846  -0.145   6.602  1.00  0.00     0.132 A 
BRANCH  85  89
ATOM     89  C   UNL     1       0.613   1.657   3.703  1.00  0.00     0.278 C 
ATOM     90  O   UNL     1      -0.235   0.785   3.460  1.00  0.00    -0.267 OA
ATOM     91  N   UNL     1       0.487   2.787   2.943  1.00  0.00    -0.303 N 
ATOM     92  H   UNL     1      -0.428   3.013   2.660  1.00  0.00     0.172 HD
BRANCH  91  93
ATOM     93  C   UNL     1       1.458   3.634   2.530  1.00  0.00     0.164 A 
ATOM     94  N   UNL     1       1.148   4.907   2.242  1.00  0.00    -0.155 NA
ATOM     95  C   UNL     1       2.825   3.322   2.513  1.00  0.00     0.063 A 
ATOM     96  N   UNL     1       2.268   5.668   2.450  1.00  0.00    -0.259 N 
ATOM     97  C   UNL     1       3.404   4.968   2.718  1.00  0.00     0.157 A 
ATOM     98  C   UNL     1       3.881   1.953   3.069  1.00  0.00     0.017 A 
ATOM     99  H   UNL     1       2.252   6.652   2.407  1.00  0.00     0.192 HD
ATOM    100  N   UNL     1       4.896   5.380   3.456  1.00  0.00    -0.237 NA
ATOM    101  C   UNL     1       5.415   2.341   3.922  1.00  0.00     0.021 A 
ATOM    102  C   UNL     1       5.841   4.034   4.105  1.00  0.00     0.113 A 
ENDBRANCH  91  93
ENDBRANCH  85  89
ENDBRANCH  81  83
ENDBRANCH  80  81
ENDBRANCH  79  80
ENDBRANCH  78  79
ENDBRANCH  77  78
ENDBRANCH  76  77
ENDBRANCH   1  76
TORSDOF 22
