REMARK SMILES Cc1c(C(=O)OCCOCCOCCOC(=O)c2ccc(-c3c4nc(c(-c5c(F)cc(S(=O)(=O)[O-])cc5F)c5ccc([nH]5)c(-c5c(F)cc(S(=O)(=O)[O-])cc5F)c5nc(c(-c6c(F)cc(S(=O)(=O)[O-])cc6F)c6ccc3[nH]6)C=C5)C=C4)cc2)cccc1-n1c(C)cc(/C=C2/C(=O)NC(=S)N=C2O)c1C
REMARK SMILES IDX 10 1 9 2 8 3 7 4 6 5 4 6 5 7 3 8 1 9 2 10 87 11 84 12 86 13
REMARK SMILES IDX 85 14 88 15 89 16 103 17 90 18 91 19 92 20 104 21 93 22
REMARK SMILES IDX 94 23 95 24 101 25 96 26 97 27 100 28 98 29 99 31 102 32
REMARK SMILES IDX 11 34 12 35 13 36 14 37 15 38 16 39 17 40 18 41 19 42 83 43
REMARK SMILES IDX 20 44 82 45 21 46 22 47 23 48 76 49 24 50 81 51 75 52 77 53
REMARK SMILES IDX 25 54 80 55 74 56 73 57 26 59 60 60 39 61 59 62 40 63 43 64
REMARK SMILES IDX 58 65 78 66 41 67 42 68 57 70 79 71 44 72 27 73 28 74 37 75
REMARK SMILES IDX 29 76 30 77 36 78 38 79 31 80 32 81 33 82 34 83 35 84 61 85
REMARK SMILES IDX 62 86 71 87 63 88 64 89 70 90 72 91 65 92 66 93 67 94 68 95
REMARK SMILES IDX 69 96 45 97 46 98 55 99 47 100 48 101 54 102 56 103 49 104
REMARK SMILES IDX 50 105 51 106 52 107 53 108
REMARK H PARENT 97 30 102 33 77 58 43 69
REMARK Flexibility Score: inf
ROOT
ATOM      1  C   UNL     1       2.310  -5.863   2.211  1.00  0.00     0.188 C 
ENDROOT
BRANCH   1   2
ATOM      2  O   UNL     1       3.332  -5.483   1.266  1.00  0.00    -0.376 OA
BRANCH   2   3
ATOM      3  C   UNL     1       4.258  -4.397   1.443  1.00  0.00     0.202 C 
BRANCH   3   4
ATOM      4  C   UNL     1       4.361  -2.918   0.642  1.00  0.00     0.261 C 
BRANCH   4   5
ATOM      5  O   UNL     1       3.209  -1.532   0.417  1.00  0.00    -0.460 OA
BRANCH   5   6
ATOM      6  C   UNL     1       2.019  -1.105  -0.357  1.00  0.00     0.338 C 
ATOM      7  O   UNL     1       1.607  -1.478  -1.460  1.00  0.00    -0.246 OA
BRANCH   6   8
ATOM      8  C   UNL     1       0.978  -0.164   0.065  1.00  0.00     0.065 A 
ATOM      9  C   UNL     1       2.807   1.441   0.480  1.00  0.00     0.047 C 
ATOM     10  C   UNL     1       1.381   1.141   0.127  1.00  0.00    -0.012 A 
ATOM     11  C   UNL     1       0.391   2.090  -0.173  1.00  0.00     0.049 A 
ATOM     12  C   UNL     1      -0.397  -0.475  -0.253  1.00  0.00     0.016 A 
ATOM     13  C   UNL     1      -0.961   1.820  -0.447  1.00  0.00     0.027 A 
ATOM     14  C   UNL     1      -1.366   0.506  -0.475  1.00  0.00     0.003 A 
BRANCH  11  15
ATOM     15  N   UNL     1       0.761   3.422  -0.091  1.00  0.00    -0.318 N 
ATOM     16  C   UNL     1       1.498   4.090  -1.046  1.00  0.00     0.020 A 
ATOM     17  C   UNL     1       0.838   4.059   1.130  1.00  0.00     0.027 A 
ATOM     18  C   UNL     1       1.819   3.498  -2.383  1.00  0.00     0.065 C 
ATOM     19  C   UNL     1       1.880   5.282  -0.469  1.00  0.00     0.031 A 
ATOM     20  C   UNL     1       1.417   5.286   0.880  1.00  0.00    -0.003 A 
ATOM     21  C   UNL     1       0.387   3.346   2.376  1.00  0.00     0.065 C 
BRANCH  20  22
ATOM     22  C   UNL     1       1.708   6.305   1.823  1.00  0.00     0.029 C 
ATOM     23  C   UNL     1       1.006   6.723   2.891  1.00  0.00     0.102 C 
ATOM     24  C   UNL     1       1.707   7.682   3.770  1.00  0.00     0.262 C 
ATOM     25  C   UNL     1      -0.301   6.297   3.399  1.00  0.00     0.226 C 
ATOM     26  O   UNL     1       2.682   8.348   3.441  1.00  0.00    -0.269 OA
ATOM     27  N   UNL     1       1.187   7.746   5.033  1.00  0.00    -0.297 N 
ATOM     28  N   UNL     1      -0.741   6.450   4.595  1.00  0.00    -0.184 NA
ATOM     29  C   UNL     1       0.057   7.112   5.488  1.00  0.00     0.203 C 
ATOM     30  H   UNL     1       1.673   8.303   5.683  1.00  0.00     0.172 HD
ATOM     31  S   UNL     1      -0.309   7.265   7.117  1.00  0.00    -0.038 S 
BRANCH  25  32
ATOM     32  O   UNL     1      -1.143   5.754   2.518  1.00  0.00    -0.493 OA
ATOM     33  H   UNL     1      -0.871   5.621   1.631  1.00  0.00     0.295 HD
ENDBRANCH  25  32
ENDBRANCH  20  22
ENDBRANCH  11  15
ENDBRANCH   6   8
ENDBRANCH   5   6
ENDBRANCH   4   5
ENDBRANCH   3   4
ENDBRANCH   2   3
ENDBRANCH   1   2
BRANCH   1  34
ATOM     34  C   UNL     1       2.448  -5.588   3.704  1.00  0.00     0.188 C 
BRANCH  34  35
ATOM     35  O   UNL     1       3.111  -4.359   3.899  1.00  0.00    -0.376 OA
BRANCH  35  36
ATOM     36  C   UNL     1       3.461  -4.003   5.211  1.00  0.00     0.202 C 
BRANCH  36  37
ATOM     37  C   UNL     1       2.248  -3.680   6.090  1.00  0.00     0.261 C 
BRANCH  37  38
ATOM     38  O   UNL     1       1.562  -2.451   5.725  1.00  0.00    -0.460 OA
BRANCH  38  39
ATOM     39  C   UNL     1       0.331  -2.520   5.090  1.00  0.00     0.338 C 
ATOM     40  O   UNL     1      -0.717  -2.334   5.694  1.00  0.00    -0.246 OA
BRANCH  39  41
ATOM     41  C   UNL     1       0.481  -2.553   3.598  1.00  0.00     0.060 A 
ATOM     42  C   UNL     1      -0.323  -3.100   2.583  1.00  0.00     0.016 A 
ATOM     43  C   UNL     1       1.661  -2.078   3.178  1.00  0.00     0.016 A 
ATOM     44  C   UNL     1       0.178  -3.411   1.221  1.00  0.00     0.010 A 
ATOM     45  C   UNL     1       2.149  -2.631   2.007  1.00  0.00     0.010 A 
ATOM     46  C   UNL     1       1.522  -3.272   0.861  1.00  0.00    -0.014 A 
BRANCH  46  47
ATOM     47  C   UNL     1       2.297  -3.719  -0.690  1.00  0.00     0.031 A 
ATOM     48  C   UNL     1       3.338  -2.793  -1.868  1.00  0.00     0.074 A 
ATOM     49  C   UNL     1       2.048  -4.944  -1.189  1.00  0.00     0.049 A 
ATOM     50  N   UNL     1       3.151  -2.742  -3.175  1.00  0.00    -0.248 NA
ATOM     51  C   UNL     1       4.413  -1.710  -1.591  1.00  0.00     0.031 C 
ATOM     52  C   UNL     1       2.687  -5.577  -2.338  1.00  0.00     0.029 A 
ATOM     53  N   UNL     1       1.098  -5.873  -0.768  1.00  0.00    -0.354 N 
ATOM     54  C   UNL     1       3.981  -1.723  -3.710  1.00  0.00     0.074 A 
ATOM     55  C   UNL     1       4.513  -0.961  -2.660  1.00  0.00     0.031 C 
ATOM     56  C   UNL     1       1.945  -6.633  -2.708  1.00  0.00     0.029 A 
ATOM     57  C   UNL     1       0.733  -6.606  -1.908  1.00  0.00     0.049 A 
ATOM     58  H   UNL     1       0.752  -5.992   0.146  1.00  0.00     0.167 HD
ATOM     59  C   UNL     1       4.473  -1.660  -4.974  1.00  0.00     0.037 A 
ATOM     60  C   UNL     1      -0.545  -6.511  -2.373  1.00  0.00     0.037 A 
ATOM     61  C   UNL     1       4.013  -2.809  -5.686  1.00  0.00     0.049 A 
ATOM     62  C   UNL     1      -0.618  -5.891  -3.759  1.00  0.00     0.074 A 
ATOM     63  C   UNL     1       4.437  -4.123  -5.720  1.00  0.00     0.029 A 
ATOM     64  N   UNL     1       2.680  -2.817  -5.993  1.00  0.00    -0.354 N 
ATOM     65  N   UNL     1       0.408  -5.425  -4.426  1.00  0.00    -0.248 NA
ATOM     66  C   UNL     1      -1.871  -5.719  -4.494  1.00  0.00     0.031 C 
ATOM     67  C   UNL     1       3.290  -4.930  -5.993  1.00  0.00     0.029 A 
ATOM     68  C   UNL     1       2.205  -4.091  -6.181  1.00  0.00     0.049 A 
ATOM     69  H   UNL     1       2.128  -2.006  -6.070  1.00  0.00     0.167 HD
ATOM     70  C   UNL     1      -0.022  -4.856  -5.594  1.00  0.00     0.074 A 
ATOM     71  C   UNL     1      -1.455  -5.079  -5.600  1.00  0.00     0.031 C 
ATOM     72  C   UNL     1       0.792  -4.208  -6.475  1.00  0.00     0.037 A 
BRANCH  59  73
ATOM     73  C   UNL     1       5.644  -0.745  -5.304  1.00  0.00     0.058 A 
ATOM     74  C   UNL     1       6.814  -1.283  -5.860  1.00  0.00     0.135 A 
ATOM     75  C   UNL     1       5.723   0.627  -4.942  1.00  0.00     0.135 A 
ATOM     76  F   UNL     1       6.857  -2.563  -6.253  1.00  0.00    -0.206 F 
ATOM     77  C   UNL     1       7.998  -0.549  -5.980  1.00  0.00     0.059 A 
ATOM     78  C   UNL     1       6.916   1.366  -5.000  1.00  0.00     0.059 A 
ATOM     79  F   UNL     1       4.652   1.264  -4.433  1.00  0.00    -0.206 F 
ATOM     80  C   UNL     1       8.054   0.765  -5.523  1.00  0.00     0.060 A 
BRANCH  80  81
ATOM     81  S   UNL     1       9.639   1.635  -5.581  1.00  0.00     0.124 S 
ATOM     82  O   UNL     1      10.567   0.635  -5.060  1.00  0.00    -0.237 OA
ATOM     83  O   UNL     1       9.766   1.936  -7.002  1.00  0.00    -0.237 OA
ATOM     84  O   UNL     1       9.430   2.788  -4.709  1.00  0.00    -0.744 OA
ENDBRANCH  80  81
ENDBRANCH  59  73
BRANCH  60  85
ATOM     85  C   UNL     1      -1.552  -6.416  -1.260  1.00  0.00     0.058 A 
ATOM     86  C   UNL     1      -1.533  -7.431  -0.272  1.00  0.00     0.135 A 
ATOM     87  C   UNL     1      -2.240  -5.240  -0.931  1.00  0.00     0.135 A 
ATOM     88  F   UNL     1      -0.909  -8.596  -0.517  1.00  0.00    -0.206 F 
ATOM     89  C   UNL     1      -2.016  -7.231   1.019  1.00  0.00     0.059 A 
ATOM     90  C   UNL     1      -2.770  -5.031   0.355  1.00  0.00     0.059 A 
ATOM     91  F   UNL     1      -2.288  -4.219  -1.800  1.00  0.00    -0.206 F 
ATOM     92  C   UNL     1      -2.592  -6.008   1.339  1.00  0.00     0.060 A 
BRANCH  92  93
ATOM     93  S   UNL     1      -2.928  -5.681   3.091  1.00  0.00     0.124 S 
ATOM     94  O   UNL     1      -3.879  -6.734   3.426  1.00  0.00    -0.237 OA
ATOM     95  O   UNL     1      -1.596  -5.825   3.678  1.00  0.00    -0.237 OA
ATOM     96  O   UNL     1      -3.469  -4.326   3.079  1.00  0.00    -0.744 OA
ENDBRANCH  92  93
ENDBRANCH  60  85
BRANCH  72  97
ATOM     97  C   UNL     1       0.293  -3.586  -7.747  1.00  0.00     0.058 A 
ATOM     98  C   UNL     1      -0.389  -4.351  -8.698  1.00  0.00     0.135 A 
ATOM     99  C   UNL     1       0.644  -2.268  -8.128  1.00  0.00     0.135 A 
ATOM    100  F   UNL     1      -0.736  -5.620  -8.429  1.00  0.00    -0.206 F 
ATOM    101  C   UNL     1      -0.719  -3.837  -9.949  1.00  0.00     0.059 A 
ATOM    102  C   UNL     1       0.397  -1.764  -9.396  1.00  0.00     0.059 A 
ATOM    103  F   UNL     1       1.218  -1.414  -7.267  1.00  0.00    -0.206 F 
ATOM    104  C   UNL     1      -0.312  -2.547 -10.291  1.00  0.00     0.060 A 
BRANCH 104 105
ATOM    105  S   UNL     1      -0.722  -1.886 -11.913  1.00  0.00     0.124 S 
ATOM    106  O   UNL     1      -0.607  -3.058 -12.775  1.00  0.00    -0.237 OA
ATOM    107  O   UNL     1      -2.078  -1.398 -11.686  1.00  0.00    -0.237 OA
ATOM    108  O   UNL     1       0.291  -0.857 -12.126  1.00  0.00    -0.744 OA
ENDBRANCH 104 105
ENDBRANCH  72  97
ENDBRANCH  46  47
ENDBRANCH  39  41
ENDBRANCH  38  39
ENDBRANCH  37  38
ENDBRANCH  36  37
ENDBRANCH  35  36
ENDBRANCH  34  35
ENDBRANCH   1  34
TORSDOF 23
