REMARK SMILES O=C(OCCOCCOCCOC(=O)[C@]1(NC(=O)C2CCN(C(=O)C3CC3)CC2)CCCc2ccccc21)c1ccc(-c2c3nc(c(-c4c(F)cc(S(=O)(=O)[O-])cc4F)c4ccc([nH]4)c(-c4c(F)cc(S(=O)(=O)[O-])cc4F)c4nc(c(-c5c(F)cc(S(=O)(=O)[O-])cc5F)c5ccc2[nH]5)C=C4)C=C3)cc1
REMARK SMILES IDX 7 1 6 2 5 3 4 4 3 5 2 6 1 7 39 8 40 9 104 10 41 11 103 12
REMARK SMILES IDX 42 13 43 14 44 15 97 16 45 17 102 18 96 19 98 20 46 21
REMARK SMILES IDX 101 22 95 23 94 24 47 26 81 27 60 28 80 29 61 30 64 31 79 32
REMARK SMILES IDX 99 33 62 34 63 35 78 37 100 38 65 39 48 40 49 41 58 42 50 43
REMARK SMILES IDX 51 44 57 45 59 46 52 47 53 48 54 49 55 50 56 51 82 52 83 53
REMARK SMILES IDX 92 54 84 55 85 56 91 57 93 58 86 59 87 60 88 61 89 62 90 63
REMARK SMILES IDX 66 64 67 65 76 66 68 67 69 68 75 69 77 70 70 71 71 72 72 73
REMARK SMILES IDX 73 74 74 75 8 76 9 77 10 78 11 79 12 80 13 81 14 82 15 83
REMARK SMILES IDX 30 84 38 85 31 86 33 87 37 88 32 89 34 90 36 91 35 92 16 93
REMARK SMILES IDX 17 94 18 96 19 97 20 98 29 99 21 100 28 101 22 102 23 103
REMARK SMILES IDX 24 104 25 105 26 106 27 107
REMARK H PARENT 98 25 64 36 16 95
REMARK Flexibility Score: inf
ROOT
ATOM      1  C   UNL     1       2.087   0.099   2.302  1.00  0.00     0.188 C 
ENDROOT
BRANCH   1   2
ATOM      2  O   UNL     1       3.447   0.306   1.961  1.00  0.00    -0.376 OA
BRANCH   2   3
ATOM      3  C   UNL     1       3.695   1.533   1.270  1.00  0.00     0.202 C 
BRANCH   3   4
ATOM      4  C   UNL     1       3.106   1.657  -0.154  1.00  0.00     0.261 C 
BRANCH   4   5
ATOM      5  O   UNL     1       2.607   0.406  -0.653  1.00  0.00    -0.460 OA
BRANCH   5   6
ATOM      6  C   UNL     1       1.997   0.395  -1.871  1.00  0.00     0.338 C 
ATOM      7  O   UNL     1       1.565   1.365  -2.468  1.00  0.00    -0.246 OA
BRANCH   6   8
ATOM      8  C   UNL     1       2.146  -0.983  -2.444  1.00  0.00     0.060 A 
ATOM      9  C   UNL     1       2.443  -2.031  -1.593  1.00  0.00     0.016 A 
ATOM     10  C   UNL     1       2.256  -1.205  -3.824  1.00  0.00     0.016 A 
ATOM     11  C   UNL     1       3.121  -3.134  -2.105  1.00  0.00     0.010 A 
ATOM     12  C   UNL     1       2.810  -2.417  -4.326  1.00  0.00     0.010 A 
ATOM     13  C   UNL     1       3.350  -3.379  -3.459  1.00  0.00    -0.014 A 
BRANCH  13  14
ATOM     14  C   UNL     1       4.290  -4.520  -3.826  1.00  0.00     0.031 A 
ATOM     15  C   UNL     1       5.436  -4.299  -4.799  1.00  0.00     0.074 A 
ATOM     16  C   UNL     1       4.303  -5.708  -3.159  1.00  0.00     0.049 A 
ATOM     17  N   UNL     1       6.230  -5.186  -5.350  1.00  0.00    -0.248 NA
ATOM     18  C   UNL     1       5.747  -2.914  -5.190  1.00  0.00     0.031 C 
ATOM     19  C   UNL     1       3.414  -6.080  -2.053  1.00  0.00     0.029 A 
ATOM     20  N   UNL     1       5.152  -6.797  -3.242  1.00  0.00    -0.354 N 
ATOM     21  C   UNL     1       7.039  -4.487  -6.238  1.00  0.00     0.074 A 
ATOM     22  C   UNL     1       6.699  -3.088  -6.099  1.00  0.00     0.031 C 
ATOM     23  C   UNL     1       3.880  -7.183  -1.452  1.00  0.00     0.029 A 
ATOM     24  C   UNL     1       4.934  -7.759  -2.273  1.00  0.00     0.049 A 
ATOM     25  H   UNL     1       5.851  -6.880  -3.931  1.00  0.00     0.167 HD
ATOM     26  C   UNL     1       7.945  -4.974  -7.119  1.00  0.00     0.037 A 
ATOM     27  C   UNL     1       5.432  -9.005  -2.095  1.00  0.00     0.037 A 
ATOM     28  C   UNL     1       8.356  -6.354  -7.198  1.00  0.00     0.049 A 
ATOM     29  C   UNL     1       6.373  -9.559  -3.132  1.00  0.00     0.074 A 
ATOM     30  C   UNL     1       9.197  -6.951  -8.125  1.00  0.00     0.029 A 
ATOM     31  N   UNL     1       7.984  -7.347  -6.307  1.00  0.00    -0.354 N 
ATOM     32  N   UNL     1       6.968  -8.937  -4.120  1.00  0.00    -0.248 NA
ATOM     33  C   UNL     1       6.650 -11.004  -3.081  1.00  0.00     0.031 C 
ATOM     34  C   UNL     1       9.282  -8.316  -7.830  1.00  0.00     0.029 A 
ATOM     35  C   UNL     1       8.540  -8.559  -6.688  1.00  0.00     0.049 A 
ATOM     36  H   UNL     1       7.409  -7.212  -5.519  1.00  0.00     0.167 HD
ATOM     37  C   UNL     1       7.650  -9.920  -4.830  1.00  0.00     0.074 A 
ATOM     38  C   UNL     1       7.458 -11.165  -4.119  1.00  0.00     0.031 C 
ATOM     39  C   UNL     1       8.337  -9.802  -5.992  1.00  0.00     0.037 A 
BRANCH  26  40
ATOM     40  C   UNL     1       8.449  -4.046  -8.189  1.00  0.00     0.058 A 
ATOM     41  C   UNL     1       9.477  -3.118  -7.988  1.00  0.00     0.135 A 
ATOM     42  C   UNL     1       7.918  -4.172  -9.486  1.00  0.00     0.135 A 
ATOM     43  F   UNL     1      10.000  -2.939  -6.765  1.00  0.00    -0.206 F 
ATOM     44  C   UNL     1       9.968  -2.348  -9.042  1.00  0.00     0.059 A 
ATOM     45  C   UNL     1       8.406  -3.431 -10.554  1.00  0.00     0.059 A 
ATOM     46  F   UNL     1       6.925  -5.044  -9.726  1.00  0.00    -0.206 F 
ATOM     47  C   UNL     1       9.432  -2.519 -10.322  1.00  0.00     0.060 A 
BRANCH  47  48
ATOM     48  S   UNL     1      10.107  -1.552 -11.689  1.00  0.00     0.124 S 
ATOM     49  O   UNL     1       9.609  -0.216 -11.376  1.00  0.00    -0.237 OA
ATOM     50  O   UNL     1      11.544  -1.747 -11.527  1.00  0.00    -0.237 OA
ATOM     51  O   UNL     1       9.523  -2.177 -12.872  1.00  0.00    -0.744 OA
ENDBRANCH  47  48
ENDBRANCH  26  40
BRANCH  27  52
ATOM     52  C   UNL     1       4.922  -9.890  -0.995  1.00  0.00     0.058 A 
ATOM     53  C   UNL     1       5.783 -10.473  -0.050  1.00  0.00     0.135 A 
ATOM     54  C   UNL     1       3.556 -10.213  -0.893  1.00  0.00     0.135 A 
ATOM     55  F   UNL     1       7.104 -10.247  -0.114  1.00  0.00    -0.206 F 
ATOM     56  C   UNL     1       5.312 -11.330   0.946  1.00  0.00     0.059 A 
ATOM     57  C   UNL     1       3.055 -11.016   0.125  1.00  0.00     0.059 A 
ATOM     58  F   UNL     1       2.677  -9.726  -1.783  1.00  0.00    -0.206 F 
ATOM     59  C   UNL     1       3.942 -11.586   1.032  1.00  0.00     0.060 A 
BRANCH  59  60
ATOM     60  S   UNL     1       3.314 -12.627   2.366  1.00  0.00     0.124 S 
ATOM     61  O   UNL     1       3.608 -13.963   1.862  1.00  0.00    -0.237 OA
ATOM     62  O   UNL     1       4.108 -12.184   3.508  1.00  0.00    -0.237 OA
ATOM     63  O   UNL     1       1.899 -12.270   2.429  1.00  0.00    -0.744 OA
ENDBRANCH  59  60
ENDBRANCH  27  52
BRANCH  39  64
ATOM     64  C   UNL     1       8.899 -11.059  -6.594  1.00  0.00     0.058 A 
ATOM     65  C   UNL     1       8.060 -12.011  -7.197  1.00  0.00     0.135 A 
ATOM     66  C   UNL     1      10.281 -11.303  -6.608  1.00  0.00     0.135 A 
ATOM     67  F   UNL     1       6.730 -11.829  -7.206  1.00  0.00    -0.206 F 
ATOM     68  C   UNL     1       8.569 -13.171  -7.771  1.00  0.00     0.059 A 
ATOM     69  C   UNL     1      10.814 -12.446  -7.199  1.00  0.00     0.059 A 
ATOM     70  F   UNL     1      11.129 -10.422  -6.054  1.00  0.00    -0.206 F 
ATOM     71  C   UNL     1       9.948 -13.380  -7.768  1.00  0.00     0.060 A 
BRANCH  71  72
ATOM     72  S   UNL     1      10.595 -14.880  -8.537  1.00  0.00     0.124 S 
ATOM     73  O   UNL     1      10.209 -15.899  -7.567  1.00  0.00    -0.237 OA
ATOM     74  O   UNL     1       9.880 -14.912  -9.809  1.00  0.00    -0.237 OA
ATOM     75  O   UNL     1      12.028 -14.620  -8.637  1.00  0.00    -0.744 OA
ENDBRANCH  71  72
ENDBRANCH  39  64
ENDBRANCH  13  14
ENDBRANCH   6   8
ENDBRANCH   5   6
ENDBRANCH   4   5
ENDBRANCH   3   4
ENDBRANCH   2   3
ENDBRANCH   1   2
BRANCH   1  76
ATOM     76  C   UNL     1       1.882  -0.521   3.694  1.00  0.00     0.188 C 
BRANCH  76  77
ATOM     77  O   UNL     1       2.678  -0.043   4.772  1.00  0.00    -0.376 OA
BRANCH  77  78
ATOM     78  C   UNL     1       4.089  -0.267   4.720  1.00  0.00     0.202 C 
BRANCH  78  79
ATOM     79  C   UNL     1       4.608  -1.708   4.639  1.00  0.00     0.261 C 
BRANCH  79  80
ATOM     80  O   UNL     1       4.218  -2.399   3.442  1.00  0.00    -0.461 OA
BRANCH  80  81
ATOM     81  C   UNL     1       3.459  -3.512   3.643  1.00  0.00     0.336 C 
ATOM     82  O   UNL     1       3.036  -3.849   4.746  1.00  0.00    -0.249 OA
BRANCH  81  83
ATOM     83  C   UNL     1       3.105  -4.250   2.319  1.00  0.00     0.164 C 
ATOM     84  C   UNL     1       1.583  -3.976   2.013  1.00  0.00     0.046 C 
ATOM     85  C   UNL     1       3.264  -5.763   2.562  1.00  0.00    -0.008 A 
ATOM     86  C   UNL     1       0.603  -4.563   3.023  1.00  0.00     0.008 C 
ATOM     87  C   UNL     1       2.180  -6.570   2.994  1.00  0.00    -0.042 A 
ATOM     88  C   UNL     1       4.536  -6.358   2.502  1.00  0.00     0.007 A 
ATOM     89  C   UNL     1       0.765  -6.069   3.148  1.00  0.00     0.036 C 
ATOM     90  C   UNL     1       2.394  -7.927   3.303  1.00  0.00     0.004 A 
ATOM     91  C   UNL     1       4.729  -7.707   2.800  1.00  0.00     0.000 A 
ATOM     92  C   UNL     1       3.661  -8.489   3.208  1.00  0.00     0.000 A 
BRANCH  83  93
ATOM     93  N   UNL     1       3.799  -3.744   1.060  1.00  0.00    -0.336 N 
ATOM     94  C   UNL     1       5.109  -3.736   0.647  1.00  0.00     0.224 C 
ATOM     95  H   UNL     1       3.181  -3.341   0.408  1.00  0.00     0.164 HD
ATOM     96  O   UNL     1       5.535  -4.746   0.089  1.00  0.00    -0.275 OA
BRANCH  94  97
ATOM     97  C   UNL     1       5.971  -2.454   0.683  1.00  0.00     0.082 C 
ATOM     98  C   UNL     1       5.320  -1.197   0.090  1.00  0.00     0.035 C 
ATOM     99  C   UNL     1       7.388  -2.673   0.065  1.00  0.00     0.035 C 
ATOM    100  C   UNL     1       5.589  -0.914  -1.388  1.00  0.00     0.120 C 
ATOM    101  C   UNL     1       7.507  -2.332  -1.432  1.00  0.00     0.120 C 
ATOM    102  N   UNL     1       7.005  -0.980  -1.654  1.00  0.00    -0.342 N 
ATOM    103  C   UNL     1       7.671   0.224  -1.882  1.00  0.00     0.225 C 
ATOM    104  O   UNL     1       7.064   1.296  -1.821  1.00  0.00    -0.275 OA
BRANCH 103 105
ATOM    105  C   UNL     1       9.119   0.344  -2.215  1.00  0.00     0.079 C 
ATOM    106  C   UNL     1      10.241  -0.520  -1.723  1.00  0.00     0.014 C 
ATOM    107  C   UNL     1       9.828  -0.573  -3.173  1.00  0.00     0.014 C 
ENDBRANCH 103 105
ENDBRANCH  94  97
ENDBRANCH  83  93
ENDBRANCH  81  83
ENDBRANCH  80  81
ENDBRANCH  79  80
ENDBRANCH  78  79
ENDBRANCH  77  78
ENDBRANCH  76  77
ENDBRANCH   1  76
TORSDOF 23
