REMARK SMILES CS(=O)(=O)N1CCC[C@@H]1C(=O)N1CCC[C@@H]1C(=O)OCCOCCOCCOC(=O)c1ccc(-c2c3nc(c(-c4c(F)cc(S(=O)(=O)[O-])cc4F)c4ccc([nH]4)c(-c4c(F)cc(S(=O)(=O)[O-])cc4F)c4nc(c(-c5c(F)cc(S(=O)(=O)[O-])cc5F)c5ccc2[nH]5)C=C4)C=C3)cc1
REMARK SMILES IDX 23 1 22 2 21 3 20 4 19 5 17 6 18 7 16 8 12 9 13 10 14 11
REMARK SMILES IDX 15 12 10 13 11 14 9 15 5 16 6 17 7 18 8 19 2 20 1 21 3 22
REMARK SMILES IDX 4 23 24 24 25 25 26 26 27 27 28 28 29 29 30 30 31 31 32 32
REMARK SMILES IDX 96 33 33 34 95 35 34 36 35 37 36 38 89 39 37 40 94 41 88 42
REMARK SMILES IDX 90 43 38 44 93 45 87 46 86 47 39 49 73 50 52 51 72 52 53 53
REMARK SMILES IDX 56 54 71 55 91 56 54 57 55 58 70 60 92 61 57 62 40 63 41 64
REMARK SMILES IDX 50 65 42 66 43 67 49 68 51 69 44 70 45 71 46 72 47 73 48 74
REMARK SMILES IDX 74 75 75 76 84 77 76 78 77 79 83 80 85 81 78 82 79 83 80 84
REMARK SMILES IDX 81 85 82 86 58 87 59 88 68 89 60 90 61 91 67 92 69 93 62 94
REMARK SMILES IDX 63 95 64 96 65 97 66 98
REMARK H PARENT 90 48 56 59
REMARK Flexibility Score: inf
ROOT
ATOM      1  C   UNL     1      -0.051   2.447   2.303  1.00  0.00     0.188 C 
ENDROOT
BRANCH   1   2
ATOM      2  O   UNL     1      -0.877   2.729   1.188  1.00  0.00    -0.376 OA
BRANCH   2   3
ATOM      3  C   UNL     1      -0.458   2.066   0.004  1.00  0.00     0.202 C 
BRANCH   3   4
ATOM      4  C   UNL     1      -0.599   0.543   0.008  1.00  0.00     0.261 C 
BRANCH   4   5
ATOM      5  O   UNL     1       0.009  -0.207   1.084  1.00  0.00    -0.462 OA
BRANCH   5   6
ATOM      6  C   UNL     1       1.349  -0.392   1.148  1.00  0.00     0.328 C 
ATOM      7  O   UNL     1       2.138   0.232   0.448  1.00  0.00    -0.250 OA
BRANCH   6   8
ATOM      8  C   UNL     1       1.758  -1.546   2.116  1.00  0.00     0.195 C 
ATOM      9  N   UNL     1       1.967  -2.867   1.487  1.00  0.00    -0.327 N 
ATOM     10  C   UNL     1       1.784  -3.874   2.513  1.00  0.00     0.120 C 
ATOM     11  C   UNL     1       0.614  -3.364   3.313  1.00  0.00     0.024 C 
ATOM     12  C   UNL     1       0.789  -1.851   3.282  1.00  0.00     0.039 C 
BRANCH   9  13
ATOM     13  C   UNL     1       2.886  -3.011   0.472  1.00  0.00     0.241 C 
ATOM     14  O   UNL     1       3.861  -2.257   0.412  1.00  0.00    -0.273 OA
BRANCH  13  15
ATOM     15  C   UNL     1       2.645  -4.031  -0.666  1.00  0.00     0.162 C 
ATOM     16  N   UNL     1       1.569  -3.837  -1.710  1.00  0.00    -0.190 NA
ATOM     17  C   UNL     1       0.637  -5.001  -1.645  1.00  0.00     0.103 C 
ATOM     18  C   UNL     1       0.981  -5.720  -0.359  1.00  0.00     0.019 C 
ATOM     19  C   UNL     1       2.474  -5.488  -0.239  1.00  0.00     0.032 C 
BRANCH  16  20
ATOM     20  S   UNL     1       0.754  -2.383  -1.857  1.00  0.00     0.211 S 
ATOM     21  C   UNL     1       2.022  -1.154  -2.161  1.00  0.00     0.176 C 
ATOM     22  O   UNL     1       0.092  -2.204  -0.598  1.00  0.00    -0.212 OA
ATOM     23  O   UNL     1      -0.059  -2.462  -3.064  1.00  0.00    -0.212 OA
ENDBRANCH  16  20
ENDBRANCH  13  15
ENDBRANCH   9  13
ENDBRANCH   6   8
ENDBRANCH   5   6
ENDBRANCH   4   5
ENDBRANCH   3   4
ENDBRANCH   2   3
ENDBRANCH   1   2
BRANCH   1  24
ATOM     24  C   UNL     1      -0.587   1.337   3.219  1.00  0.00     0.188 C 
BRANCH  24  25
ATOM     25  O   UNL     1      -1.818   0.679   2.971  1.00  0.00    -0.376 OA
BRANCH  25  26
ATOM     26  C   UNL     1      -2.950   1.455   2.609  1.00  0.00     0.202 C 
BRANCH  26  27
ATOM     27  C   UNL     1      -3.356   2.682   3.450  1.00  0.00     0.261 C 
BRANCH  27  28
ATOM     28  O   UNL     1      -2.280   3.462   3.996  1.00  0.00    -0.460 OA
BRANCH  28  29
ATOM     29  C   UNL     1      -1.963   3.202   5.296  1.00  0.00     0.338 C 
ATOM     30  O   UNL     1      -2.551   2.457   6.054  1.00  0.00    -0.246 OA
BRANCH  29  31
ATOM     31  C   UNL     1      -0.600   3.740   5.565  1.00  0.00     0.060 A 
ATOM     32  C   UNL     1       0.380   2.852   6.051  1.00  0.00     0.016 A 
ATOM     33  C   UNL     1      -0.264   5.061   5.274  1.00  0.00     0.016 A 
ATOM     34  C   UNL     1       1.688   3.280   6.256  1.00  0.00     0.010 A 
ATOM     35  C   UNL     1       1.033   5.510   5.545  1.00  0.00     0.010 A 
ATOM     36  C   UNL     1       1.998   4.631   6.075  1.00  0.00    -0.014 A 
BRANCH  36  37
ATOM     37  C   UNL     1       3.184   5.177   6.776  1.00  0.00     0.031 A 
ATOM     38  C   UNL     1       2.960   5.699   8.172  1.00  0.00     0.074 A 
ATOM     39  C   UNL     1       4.413   5.177   6.234  1.00  0.00     0.049 A 
ATOM     40  N   UNL     1       3.794   6.286   8.987  1.00  0.00    -0.248 NA
ATOM     41  C   UNL     1       1.601   5.535   8.718  1.00  0.00     0.031 C 
ATOM     42  C   UNL     1       4.767   4.635   4.924  1.00  0.00     0.029 A 
ATOM     43  N   UNL     1       5.597   5.664   6.729  1.00  0.00    -0.354 N 
ATOM     44  C   UNL     1       3.058   6.574  10.130  1.00  0.00     0.074 A 
ATOM     45  C   UNL     1       1.705   6.125   9.896  1.00  0.00     0.031 C 
ATOM     46  C   UNL     1       6.080   4.841   4.709  1.00  0.00     0.029 A 
ATOM     47  C   UNL     1       6.649   5.556   5.852  1.00  0.00     0.049 A 
ATOM     48  H   UNL     1       5.684   6.054   7.629  1.00  0.00     0.167 HD
ATOM     49  C   UNL     1       3.472   7.158  11.278  1.00  0.00     0.037 A 
ATOM     50  C   UNL     1       7.916   6.008   5.956  1.00  0.00     0.037 A 
ATOM     51  C   UNL     1       4.817   7.609  11.501  1.00  0.00     0.049 A 
ATOM     52  C   UNL     1       8.339   6.729   7.214  1.00  0.00     0.074 A 
ATOM     53  C   UNL     1       5.345   8.216  12.625  1.00  0.00     0.029 A 
ATOM     54  N   UNL     1       5.847   7.509  10.576  1.00  0.00    -0.354 N 
ATOM     55  N   UNL     1       7.637   6.998   8.291  1.00  0.00    -0.248 NA
ATOM     56  C   UNL     1       9.729   7.204   7.274  1.00  0.00     0.031 C 
ATOM     57  C   UNL     1       6.681   8.534  12.360  1.00  0.00     0.029 A 
ATOM     58  C   UNL     1       7.004   8.062  11.097  1.00  0.00     0.049 A 
ATOM     59  H   UNL     1       5.767   7.104   9.682  1.00  0.00     0.167 HD
ATOM     60  C   UNL     1       8.509   7.636   9.169  1.00  0.00     0.074 A 
ATOM     61  C   UNL     1       9.791   7.709   8.499  1.00  0.00     0.031 C 
ATOM     62  C   UNL     1       8.276   8.112  10.419  1.00  0.00     0.037 A 
BRANCH  49  63
ATOM     63  C   UNL     1       2.444   7.375  12.353  1.00  0.00     0.058 A 
ATOM     64  C   UNL     1       1.883   6.308  13.073  1.00  0.00     0.135 A 
ATOM     65  C   UNL     1       2.015   8.675  12.669  1.00  0.00     0.135 A 
ATOM     66  F   UNL     1       2.233   5.043  12.791  1.00  0.00    -0.206 F 
ATOM     67  C   UNL     1       0.915   6.519  14.049  1.00  0.00     0.059 A 
ATOM     68  C   UNL     1       1.073   8.912  13.664  1.00  0.00     0.059 A 
ATOM     69  F   UNL     1       2.510   9.730  12.003  1.00  0.00    -0.206 F 
ATOM     70  C   UNL     1       0.518   7.826  14.338  1.00  0.00     0.060 A 
BRANCH  70  71
ATOM     71  S   UNL     1      -0.733   8.084  15.614  1.00  0.00     0.124 S 
ATOM     72  O   UNL     1      -1.934   7.588  14.949  1.00  0.00    -0.237 OA
ATOM     73  O   UNL     1      -0.232   7.263  16.711  1.00  0.00    -0.237 OA
ATOM     74  O   UNL     1      -0.693   9.525  15.844  1.00  0.00    -0.744 OA
ENDBRANCH  70  71
ENDBRANCH  49  63
BRANCH  50  75
ATOM     75  C   UNL     1       8.877   5.808   4.836  1.00  0.00     0.058 A 
ATOM     76  C   UNL     1       9.984   4.957   4.971  1.00  0.00     0.135 A 
ATOM     77  C   UNL     1       8.714   6.473   3.610  1.00  0.00     0.135 A 
ATOM     78  F   UNL     1      10.195   4.311   6.128  1.00  0.00    -0.206 F 
ATOM     79  C   UNL     1      10.902   4.783   3.940  1.00  0.00     0.059 A 
ATOM     80  C   UNL     1       9.602   6.293   2.554  1.00  0.00     0.059 A 
ATOM     81  F   UNL     1       7.670   7.296   3.425  1.00  0.00    -0.206 F 
ATOM     82  C   UNL     1      10.700   5.452   2.732  1.00  0.00     0.060 A 
BRANCH  82  83
ATOM     83  S   UNL     1      11.871   5.180   1.384  1.00  0.00     0.124 S 
ATOM     84  O   UNL     1      13.052   5.882   1.874  1.00  0.00    -0.237 OA
ATOM     85  O   UNL     1      11.963   3.724   1.349  1.00  0.00    -0.237 OA
ATOM     86  O   UNL     1      11.208   5.787   0.234  1.00  0.00    -0.744 OA
ENDBRANCH  82  83
ENDBRANCH  50  75
BRANCH  62  87
ATOM     87  C   UNL     1       9.439   8.699  11.174  1.00  0.00     0.058 A 
ATOM     88  C   UNL     1      10.008   9.934  10.826  1.00  0.00     0.135 A 
ATOM     89  C   UNL     1       9.953   8.037  12.302  1.00  0.00     0.135 A 
ATOM     90  F   UNL     1       9.557  10.610   9.758  1.00  0.00    -0.206 F 
ATOM     91  C   UNL     1      11.066  10.476  11.550  1.00  0.00     0.059 A 
ATOM     92  C   UNL     1      10.987   8.575  13.060  1.00  0.00     0.059 A 
ATOM     93  F   UNL     1       9.435   6.860  12.690  1.00  0.00    -0.206 F 
ATOM     94  C   UNL     1      11.548   9.789  12.667  1.00  0.00     0.060 A 
BRANCH  94  95
ATOM     95  S   UNL     1      12.906  10.512  13.610  1.00  0.00     0.124 S 
ATOM     96  O   UNL     1      14.034  10.306  12.707  1.00  0.00    -0.237 OA
ATOM     97  O   UNL     1      12.470  11.896  13.774  1.00  0.00    -0.237 OA
ATOM     98  O   UNL     1      12.930   9.719  14.836  1.00  0.00    -0.744 OA
ENDBRANCH  94  95
ENDBRANCH  62  87
ENDBRANCH  36  37
ENDBRANCH  29  31
ENDBRANCH  28  29
ENDBRANCH  27  28
ENDBRANCH  26  27
ENDBRANCH  25  26
ENDBRANCH  24  25
ENDBRANCH   1  24
TORSDOF 23
