REMARK SMILES Cc1cc(S(=O)(=O)N[C@@H](CO)C(=O)OCCOCCOCCOC(=O)c2ccc(-c3c4nc(c(-c5c(F)cc(S(=O)(=O)[O-])cc5F)c5ccc([nH]5)c(-c5c(F)cc(S(=O)(=O)[O-])cc5F)c5nc(c(-c6c(F)cc(S(=O)(=O)[O-])cc6F)c6ccc3[nH]6)C=C5)C=C4)cc2)ccc1OC(C)C
REMARK SMILES IDX 18 1 17 2 16 3 15 4 14 5 12 6 13 7 9 8 8 9 5 11 6 12 7 13
REMARK SMILES IDX 4 14 1 15 2 16 3 17 94 18 93 19 92 20 95 21 96 22 97 23
REMARK SMILES IDX 98 24 10 25 11 26 19 28 20 29 21 30 22 31 23 32 24 33 25 34
REMARK SMILES IDX 26 35 27 36 91 37 28 38 90 39 29 40 30 41 31 42 84 43 32 44
REMARK SMILES IDX 89 45 83 46 85 47 33 48 88 49 82 50 81 51 34 53 68 54 47 55
REMARK SMILES IDX 67 56 48 57 51 58 66 59 86 60 49 61 50 62 65 64 87 65 52 66
REMARK SMILES IDX 35 67 36 68 45 69 37 70 38 71 44 72 46 73 39 74 40 75 41 76
REMARK SMILES IDX 42 77 43 78 69 79 70 80 79 81 71 82 72 83 78 84 80 85 73 86
REMARK SMILES IDX 74 87 75 88 76 89 77 90 53 91 54 92 63 93 55 94 56 95 62 96
REMARK SMILES IDX 64 97 57 98 58 99 59 100 60 101 61 102
REMARK H PARENT 8 10 11 27 85 52 51 63
REMARK Flexibility Score: inf
ROOT
ATOM      1  C   UNL     1      -8.873  -0.508   0.931  1.00  0.00     0.188 C 
ENDROOT
BRANCH   1   2
ATOM      2  O   UNL     1      -9.154  -1.521  -0.054  1.00  0.00    -0.376 OA
BRANCH   2   3
ATOM      3  C   UNL     1      -8.861  -2.925   0.074  1.00  0.00     0.202 C 
BRANCH   3   4
ATOM      4  C   UNL     1      -7.683  -3.947  -0.649  1.00  0.00     0.261 C 
BRANCH   4   5
ATOM      5  O   UNL     1      -5.864  -3.902  -0.891  1.00  0.00    -0.462 OA
BRANCH   5   6
ATOM      6  C   UNL     1      -4.795  -3.188  -1.637  1.00  0.00     0.326 C 
ATOM      7  O   UNL     1      -4.925  -2.311  -2.509  1.00  0.00    -0.250 OA
BRANCH   6   8
ATOM      8  C   UNL     1      -3.338  -3.232  -1.325  1.00  0.00     0.205 C 
BRANCH   8   9
ATOM      9  N   UNL     1      -2.853  -3.690  -0.042  1.00  0.00    -0.194 NA
ATOM     10  H   UNL     1      -3.372  -3.175   0.669  1.00  0.00     0.142 HD
BRANCH   9  11
ATOM     11  S   UNL     1      -1.239  -3.545   0.342  1.00  0.00     0.241 S 
ATOM     12  O   UNL     1      -0.527  -4.363  -0.610  1.00  0.00    -0.207 OA
ATOM     13  O   UNL     1      -1.165  -3.830   1.765  1.00  0.00    -0.207 OA
BRANCH  11  14
ATOM     14  C   UNL     1      -0.639  -1.869   0.139  1.00  0.00     0.083 A 
ATOM     15  C   UNL     1       2.920  -0.644  -0.047  1.00  0.00     0.048 C 
ATOM     16  C   UNL     1       1.428  -0.490  -0.015  1.00  0.00    -0.008 A 
ATOM     17  C   UNL     1       0.752  -1.741   0.024  1.00  0.00     0.029 A 
ATOM     18  C   UNL     1       0.659   0.679   0.011  1.00  0.00     0.122 A 
ATOM     19  C   UNL     1      -0.750   0.537   0.090  1.00  0.00     0.048 A 
ATOM     20  C   UNL     1      -1.402  -0.713   0.172  1.00  0.00     0.025 A 
BRANCH  18  21
ATOM     21  O   UNL     1       1.010   1.997  -0.019  1.00  0.00    -0.491 OA
BRANCH  21  22
ATOM     22  C   UNL     1       2.317   2.563  -0.006  1.00  0.00     0.167 C 
ATOM     23  C   UNL     1       3.077   2.328   1.303  1.00  0.00     0.052 C 
ATOM     24  C   UNL     1       3.084   2.346  -1.312  1.00  0.00     0.052 C 
ENDBRANCH  21  22
ENDBRANCH  18  21
ENDBRANCH  11  14
ENDBRANCH   9  11
ENDBRANCH   8   9
BRANCH   8  25
ATOM     25  C   UNL     1      -2.572  -3.644  -2.610  1.00  0.00     0.188 C 
BRANCH  25  26
ATOM     26  O   UNL     1      -2.465  -5.055  -2.730  1.00  0.00    -0.394 OA
ATOM     27  H   UNL     1      -1.971  -5.407  -1.973  1.00  0.00     0.210 HD
ENDBRANCH  25  26
ENDBRANCH   8  25
ENDBRANCH   6   8
ENDBRANCH   5   6
ENDBRANCH   4   5
ENDBRANCH   3   4
ENDBRANCH   2   3
ENDBRANCH   1   2
BRANCH   1  28
ATOM     28  C   UNL     1      -8.841  -0.838   2.408  1.00  0.00     0.188 C 
BRANCH  28  29
ATOM     29  O   UNL     1      -8.317  -2.136   2.567  1.00  0.00    -0.376 OA
BRANCH  29  30
ATOM     30  C   UNL     1      -8.390  -2.689   3.854  1.00  0.00     0.202 C 
BRANCH  30  31
ATOM     31  C   UNL     1      -7.476  -1.963   4.846  1.00  0.00     0.261 C 
BRANCH  31  32
ATOM     32  O   UNL     1      -6.061  -2.134   4.559  1.00  0.00    -0.460 OA
BRANCH  32  33
ATOM     33  C   UNL     1      -5.340  -1.083   4.007  1.00  0.00     0.338 C 
ATOM     34  O   UNL     1      -4.641  -0.353   4.685  1.00  0.00    -0.246 OA
BRANCH  33  35
ATOM     35  C   UNL     1      -5.308  -1.172   2.506  1.00  0.00     0.060 A 
ATOM     36  C   UNL     1      -5.177  -0.189   1.508  1.00  0.00     0.016 A 
ATOM     37  C   UNL     1      -5.564  -2.403   2.043  1.00  0.00     0.016 A 
ATOM     38  C   UNL     1      -5.607  -0.388   0.101  1.00  0.00     0.010 A 
ATOM     39  C   UNL     1      -6.172  -2.467   0.801  1.00  0.00     0.010 A 
ATOM     40  C   UNL     1      -6.284  -1.536  -0.317  1.00  0.00    -0.014 A 
BRANCH  40  41
ATOM     41  C   UNL     1      -7.098  -1.810  -1.900  1.00  0.00     0.031 A 
ATOM     42  C   UNL     1      -6.941  -3.154  -3.126  1.00  0.00     0.074 A 
ATOM     43  C   UNL     1      -7.896  -0.836  -2.381  1.00  0.00     0.049 A 
ATOM     44  N   UNL     1      -6.692  -3.002  -4.416  1.00  0.00    -0.248 NA
ATOM     45  C   UNL     1      -6.754  -4.670  -2.885  1.00  0.00     0.031 C 
ATOM     46  C   UNL     1      -8.790  -0.911  -3.531  1.00  0.00     0.029 A 
ATOM     47  N   UNL     1      -8.066   0.463  -1.904  1.00  0.00    -0.354 N 
ATOM     48  C   UNL     1      -6.389  -4.284  -4.957  1.00  0.00     0.074 A 
ATOM     49  C   UNL     1      -6.064  -5.136  -3.896  1.00  0.00     0.031 C 
ATOM     50  C   UNL     1      -9.190   0.335  -3.839  1.00  0.00     0.029 A 
ATOM     51  C   UNL     1      -8.434   1.254  -3.001  1.00  0.00     0.049 A 
ATOM     52  H   UNL     1      -7.948   0.767  -0.975  1.00  0.00     0.167 HD
ATOM     53  C   UNL     1      -6.753  -4.756  -6.183  1.00  0.00     0.037 A 
ATOM     54  C   UNL     1      -7.561   2.216  -3.417  1.00  0.00     0.037 A 
ATOM     55  C   UNL     1      -7.427  -3.693  -6.871  1.00  0.00     0.049 A 
ATOM     56  C   UNL     1      -6.947   1.867  -4.761  1.00  0.00     0.074 A 
ATOM     57  C   UNL     1      -8.711  -3.187  -6.800  1.00  0.00     0.029 A 
ATOM     58  N   UNL     1      -6.621  -2.673  -7.295  1.00  0.00    -0.354 N 
ATOM     59  N   UNL     1      -7.239   0.793  -5.451  1.00  0.00    -0.248 NA
ATOM     60  C   UNL     1      -5.938   2.689  -5.425  1.00  0.00     0.031 C 
ATOM     61  C   UNL     1      -8.609  -1.773  -7.018  1.00  0.00     0.029 A 
ATOM     62  C   UNL     1      -7.282  -1.462  -7.270  1.00  0.00     0.049 A 
ATOM     63  H   UNL     1      -5.687  -2.788  -7.582  1.00  0.00     0.167 HD
ATOM     64  C   UNL     1      -6.459   0.738  -6.566  1.00  0.00     0.074 A 
ATOM     65  C   UNL     1      -5.670   1.956  -6.519  1.00  0.00     0.031 C 
ATOM     66  C   UNL     1      -6.461  -0.283  -7.467  1.00  0.00     0.037 A 
BRANCH  53  67
ATOM     67  C   UNL     1      -6.759  -6.248  -6.547  1.00  0.00     0.058 A 
ATOM     68  C   UNL     1      -7.766  -6.764  -7.380  1.00  0.00     0.135 A 
ATOM     69  C   UNL     1      -5.846  -7.231  -6.072  1.00  0.00     0.135 A 
ATOM     70  F   UNL     1      -8.653  -5.947  -7.966  1.00  0.00    -0.206 F 
ATOM     71  C   UNL     1      -7.913  -8.134  -7.645  1.00  0.00     0.059 A 
ATOM     72  C   UNL     1      -6.028  -8.613  -6.240  1.00  0.00     0.059 A 
ATOM     73  F   UNL     1      -4.712  -6.883  -5.443  1.00  0.00    -0.206 F 
ATOM     74  C   UNL     1      -7.063  -9.057  -7.045  1.00  0.00     0.060 A 
BRANCH  74  75
ATOM     75  S   UNL     1      -7.300 -10.819  -7.374  1.00  0.00     0.124 S 
ATOM     76  O   UNL     1      -8.725 -10.999  -7.110  1.00  0.00    -0.237 OA
ATOM     77  O   UNL     1      -6.898 -10.920  -8.773  1.00  0.00    -0.237 OA
ATOM     78  O   UNL     1      -6.411 -11.473  -6.418  1.00  0.00    -0.744 OA
ENDBRANCH  74  75
ENDBRANCH  53  67
BRANCH  54  79
ATOM     79  C   UNL     1      -6.940   2.946  -2.256  1.00  0.00     0.058 A 
ATOM     80  C   UNL     1      -7.825   3.547  -1.325  1.00  0.00     0.135 A 
ATOM     81  C   UNL     1      -5.623   2.751  -1.820  1.00  0.00     0.135 A 
ATOM     82  F   UNL     1      -9.098   3.796  -1.675  1.00  0.00    -0.206 F 
ATOM     83  C   UNL     1      -7.480   3.765   0.007  1.00  0.00     0.059 A 
ATOM     84  C   UNL     1      -5.241   3.002  -0.489  1.00  0.00     0.059 A 
ATOM     85  F   UNL     1      -4.720   2.176  -2.628  1.00  0.00    -0.206 F 
ATOM     86  C   UNL     1      -6.199   3.436   0.431  1.00  0.00     0.060 A 
BRANCH  86  87
ATOM     87  S   UNL     1      -5.894   3.412   2.219  1.00  0.00     0.124 S 
ATOM     88  O   UNL     1      -6.172   4.790   2.601  1.00  0.00    -0.237 OA
ATOM     89  O   UNL     1      -6.872   2.419   2.666  1.00  0.00    -0.237 OA
ATOM     90  O   UNL     1      -4.497   3.004   2.311  1.00  0.00    -0.744 OA
ENDBRANCH  86  87
ENDBRANCH  54  79
BRANCH  66  91
ATOM     91  C   UNL     1      -5.608  -0.206  -8.686  1.00  0.00     0.058 A 
ATOM     92  C   UNL     1      -5.847   0.799  -9.628  1.00  0.00     0.135 A 
ATOM     93  C   UNL     1      -4.657  -1.193  -9.011  1.00  0.00     0.135 A 
ATOM     94  F   UNL     1      -6.753   1.759  -9.383  1.00  0.00    -0.206 F 
ATOM     95  C   UNL     1      -5.157   0.838 -10.830  1.00  0.00     0.059 A 
ATOM     96  C   UNL     1      -4.010  -1.215 -10.235  1.00  0.00     0.059 A 
ATOM     97  F   UNL     1      -4.335  -2.164  -8.141  1.00  0.00    -0.206 F 
ATOM     98  C   UNL     1      -4.246  -0.176 -11.125  1.00  0.00     0.060 A 
BRANCH  98  99
ATOM     99  S   UNL     1      -3.346  -0.123 -12.680  1.00  0.00     0.124 S 
ATOM    100  O   UNL     1      -4.309   0.493 -13.588  1.00  0.00    -0.237 OA
ATOM    101  O   UNL     1      -2.202   0.705 -12.314  1.00  0.00    -0.237 OA
ATOM    102  O   UNL     1      -3.054  -1.528 -12.945  1.00  0.00    -0.744 OA
ENDBRANCH  98  99
ENDBRANCH  66  91
ENDBRANCH  40  41
ENDBRANCH  33  35
ENDBRANCH  32  33
ENDBRANCH  31  32
ENDBRANCH  30  31
ENDBRANCH  29  30
ENDBRANCH  28  29
ENDBRANCH   1  28
TORSDOF 27
