REMARK SMILES CO[C@@H]1C[C@H](C(=O)OCCOCCOCCOC(=O)c2ccc(-c3c4nc(c(-c5c(F)cc(S(=O)(=O)[O-])cc5F)c5ccc([nH]5)c(-c5c(F)cc(S(=O)(=O)[O-])cc5F)c5nc(c(-c6c(F)cc(S(=O)(=O)[O-])cc6F)c6ccc3[nH]6)C=C5)C=C4)cc2)N(C(=O)c2ccn(C)c(=O)c2)C1
REMARK SMILES IDX 13 1 12 2 11 3 10 4 9 5 8 6 6 7 7 8 5 9 3 10 4 11 97 12
REMARK SMILES IDX 86 13 2 14 1 15 87 16 88 17 89 18 90 19 96 20 91 21 94 22
REMARK SMILES IDX 92 23 95 24 93 25 14 26 15 27 16 28 17 29 18 30 19 31 20 32
REMARK SMILES IDX 21 33 85 34 22 35 84 36 23 37 24 38 25 39 78 40 26 41 83 42
REMARK SMILES IDX 77 43 79 44 27 45 82 46 76 47 75 48 28 50 62 51 41 52 61 53
REMARK SMILES IDX 42 54 45 55 60 56 80 57 43 58 44 59 59 61 81 62 46 63 29 64
REMARK SMILES IDX 30 65 39 66 31 67 32 68 38 69 40 70 33 71 34 72 35 73 36 74
REMARK SMILES IDX 37 75 63 76 64 77 73 78 65 79 66 80 72 81 74 82 67 83 68 84
REMARK SMILES IDX 69 85 70 86 71 87 47 88 48 89 57 90 49 91 50 92 56 93 58 94
REMARK SMILES IDX 51 95 52 96 53 97 54 98 55 99
REMARK H PARENT 79 49 45 60
REMARK Flexibility Score: inf
ROOT
ATOM      1  C   UNL     1      -3.207   0.469  -1.622  1.00  0.00     0.188 C 
ENDROOT
BRANCH   1   2
ATOM      2  C   UNL     1      -4.119  -0.752  -1.786  1.00  0.00     0.188 C 
BRANCH   2   3
ATOM      3  O   UNL     1      -4.913  -1.081  -0.648  1.00  0.00    -0.376 OA
BRANCH   3   4
ATOM      4  C   UNL     1      -4.222  -1.343   0.576  1.00  0.00     0.202 C 
BRANCH   4   5
ATOM      5  C   UNL     1      -3.154  -2.447   0.542  1.00  0.00     0.261 C 
BRANCH   5   6
ATOM      6  O   UNL     1      -2.100  -2.189  -0.409  1.00  0.00    -0.462 OA
BRANCH   6   7
ATOM      7  C   UNL     1      -1.883  -3.170  -1.319  1.00  0.00     0.329 C 
ATOM      8  O   UNL     1      -2.424  -4.273  -1.274  1.00  0.00    -0.250 OA
BRANCH   7   9
ATOM      9  C   UNL     1      -0.993  -2.737  -2.507  1.00  0.00     0.198 C 
ATOM     10  C   UNL     1       1.177  -2.192  -1.595  1.00  0.00     0.140 C 
ATOM     11  C   UNL     1      -0.013  -1.586  -2.350  1.00  0.00     0.071 C 
ATOM     12  C   UNL     1       1.083  -3.706  -1.898  1.00  0.00     0.152 C 
ATOM     13  N   UNL     1      -0.095  -3.855  -2.743  1.00  0.00    -0.322 N 
BRANCH  10  14
ATOM     14  O   UNL     1       1.044  -1.913  -0.199  1.00  0.00    -0.380 OA
ATOM     15  C   UNL     1       1.418  -0.571   0.120  1.00  0.00     0.195 C 
ENDBRANCH  10  14
BRANCH  13  16
ATOM     16  C   UNL     1      -0.371  -4.996  -3.462  1.00  0.00     0.254 C 
ATOM     17  O   UNL     1       0.335  -6.000  -3.411  1.00  0.00    -0.269 OA
BRANCH  16  18
ATOM     18  C   UNL     1      -1.564  -4.960  -4.362  1.00  0.00     0.046 A 
ATOM     19  C   UNL     1      -2.711  -5.804  -4.127  1.00  0.00     0.032 A 
ATOM     20  C   UNL     1      -1.522  -4.155  -5.434  1.00  0.00     0.085 A 
ATOM     21  C   UNL     1      -3.735  -5.795  -4.990  1.00  0.00     0.089 A 
ATOM     22  C   UNL     1      -2.674  -4.100  -6.372  1.00  0.00     0.251 A 
ATOM     23  N   UNL     1      -3.725  -4.973  -6.105  1.00  0.00    -0.319 N 
ATOM     24  O   UNL     1      -2.626  -3.300  -7.301  1.00  0.00    -0.269 OA
ATOM     25  C   UNL     1      -4.852  -5.043  -7.031  1.00  0.00     0.153 C 
ENDBRANCH  16  18
ENDBRANCH  13  16
ENDBRANCH   7   9
ENDBRANCH   6   7
ENDBRANCH   5   6
ENDBRANCH   4   5
ENDBRANCH   3   4
ENDBRANCH   2   3
ENDBRANCH   1   2
BRANCH   1  26
ATOM     26  O   UNL     1      -2.478   0.491  -0.408  1.00  0.00    -0.376 OA
BRANCH  26  27
ATOM     27  C   UNL     1      -1.997   1.725   0.113  1.00  0.00     0.202 C 
BRANCH  27  28
ATOM     28  C   UNL     1      -2.882   2.987   0.035  1.00  0.00     0.261 C 
BRANCH  28  29
ATOM     29  O   UNL     1      -3.368   3.370  -1.265  1.00  0.00    -0.460 OA
BRANCH  29  30
ATOM     30  C   UNL     1      -2.478   3.409  -2.290  1.00  0.00     0.338 C 
ATOM     31  O   UNL     1      -1.272   3.410  -2.192  1.00  0.00    -0.246 OA
BRANCH  30  32
ATOM     32  C   UNL     1      -3.229   3.149  -3.557  1.00  0.00     0.060 A 
ATOM     33  C   UNL     1      -2.626   2.322  -4.516  1.00  0.00     0.016 A 
ATOM     34  C   UNL     1      -4.533   3.611  -3.766  1.00  0.00     0.016 A 
ATOM     35  C   UNL     1      -3.302   1.988  -5.694  1.00  0.00     0.010 A 
ATOM     36  C   UNL     1      -5.204   3.289  -4.954  1.00  0.00     0.010 A 
ATOM     37  C   UNL     1      -4.580   2.505  -5.941  1.00  0.00    -0.014 A 
BRANCH  37  38
ATOM     38  C   UNL     1      -5.167   2.417  -7.306  1.00  0.00     0.031 A 
ATOM     39  C   UNL     1      -5.038   3.620  -8.206  1.00  0.00     0.074 A 
ATOM     40  C   UNL     1      -5.783   1.309  -7.758  1.00  0.00     0.049 A 
ATOM     41  N   UNL     1      -5.514   3.818  -9.407  1.00  0.00    -0.248 NA
ATOM     42  C   UNL     1      -4.266   4.754  -7.670  1.00  0.00     0.031 C 
ATOM     43  C   UNL     1      -5.934   0.058  -7.018  1.00  0.00     0.029 A 
ATOM     44  N   UNL     1      -6.407   1.065  -8.959  1.00  0.00    -0.354 N 
ATOM     45  C   UNL     1      -5.110   5.099  -9.767  1.00  0.00     0.074 A 
ATOM     46  C   UNL     1      -4.378   5.644  -8.644  1.00  0.00     0.031 C 
ATOM     47  C   UNL     1      -6.622  -0.816  -7.776  1.00  0.00     0.029 A 
ATOM     48  C   UNL     1      -6.989  -0.178  -9.040  1.00  0.00     0.049 A 
ATOM     49  H   UNL     1      -6.434   1.720  -9.694  1.00  0.00     0.167 HD
ATOM     50  C   UNL     1      -5.320   5.762 -10.929  1.00  0.00     0.037 A 
ATOM     51  C   UNL     1      -7.750  -0.728 -10.011  1.00  0.00     0.037 A 
ATOM     52  C   UNL     1      -6.046   5.221 -12.047  1.00  0.00     0.049 A 
ATOM     53  C   UNL     1      -8.039   0.058 -11.268  1.00  0.00     0.074 A 
ATOM     54  C   UNL     1      -6.295   5.811 -13.274  1.00  0.00     0.029 A 
ATOM     55  N   UNL     1      -6.647   3.971 -12.076  1.00  0.00    -0.354 N 
ATOM     56  N   UNL     1      -7.636   1.261 -11.603  1.00  0.00    -0.248 NA
ATOM     57  C   UNL     1      -8.886  -0.590 -12.282  1.00  0.00     0.031 C 
ATOM     58  C   UNL     1      -7.099   4.944 -14.021  1.00  0.00     0.029 A 
ATOM     59  C   UNL     1      -7.293   3.785 -13.287  1.00  0.00     0.049 A 
ATOM     60  H   UNL     1      -6.618   3.314 -11.344  1.00  0.00     0.167 HD
ATOM     61  C   UNL     1      -8.150   1.497 -12.877  1.00  0.00     0.074 A 
ATOM     62  C   UNL     1      -8.887   0.311 -13.255  1.00  0.00     0.031 C 
ATOM     63  C   UNL     1      -8.018   2.596 -13.662  1.00  0.00     0.037 A 
BRANCH  50  64
ATOM     64  C   UNL     1      -4.785   7.164 -11.037  1.00  0.00     0.058 A 
ATOM     65  C   UNL     1      -3.409   7.430 -11.125  1.00  0.00     0.135 A 
ATOM     66  C   UNL     1      -5.667   8.256 -11.086  1.00  0.00     0.135 A 
ATOM     67  F   UNL     1      -2.519   6.426 -11.061  1.00  0.00    -0.206 F 
ATOM     68  C   UNL     1      -2.926   8.730 -11.231  1.00  0.00     0.059 A 
ATOM     69  C   UNL     1      -5.207   9.562 -11.223  1.00  0.00     0.059 A 
ATOM     70  F   UNL     1      -6.992   8.059 -11.001  1.00  0.00    -0.206 F 
ATOM     71  C   UNL     1      -3.833   9.790 -11.281  1.00  0.00     0.060 A 
BRANCH  71  72
ATOM     72  S   UNL     1      -3.189  11.469 -11.424  1.00  0.00     0.124 S 
ATOM     73  O   UNL     1      -2.606  11.671 -10.101  1.00  0.00    -0.237 OA
ATOM     74  O   UNL     1      -2.238  11.345 -12.524  1.00  0.00    -0.237 OA
ATOM     75  O   UNL     1      -4.377  12.267 -11.713  1.00  0.00    -0.744 OA
ENDBRANCH  71  72
ENDBRANCH  50  64
BRANCH  51  76
ATOM     76  C   UNL     1      -8.319  -2.094  -9.831  1.00  0.00     0.058 A 
ATOM     77  C   UNL     1      -7.902  -3.170 -10.628  1.00  0.00     0.135 A 
ATOM     78  C   UNL     1      -9.309  -2.345  -8.866  1.00  0.00     0.135 A 
ATOM     79  F   UNL     1      -6.977  -2.979 -11.581  1.00  0.00    -0.206 F 
ATOM     80  C   UNL     1      -8.448  -4.442 -10.483  1.00  0.00     0.059 A 
ATOM     81  C   UNL     1      -9.849  -3.615  -8.682  1.00  0.00     0.059 A 
ATOM     82  F   UNL     1      -9.746  -1.353  -8.076  1.00  0.00    -0.206 F 
ATOM     83  C   UNL     1      -9.416  -4.656  -9.501  1.00  0.00     0.060 A 
BRANCH  83  84
ATOM     84  S   UNL     1     -10.065  -6.326  -9.276  1.00  0.00     0.124 S 
ATOM     85  O   UNL     1     -10.858  -6.502 -10.486  1.00  0.00    -0.237 OA
ATOM     86  O   UNL     1      -8.839  -7.115  -9.190  1.00  0.00    -0.237 OA
ATOM     87  O   UNL     1     -10.823  -6.227  -8.032  1.00  0.00    -0.744 OA
ENDBRANCH  83  84
ENDBRANCH  51  76
BRANCH  63  88
ATOM     88  C   UNL     1      -8.644   2.563 -15.033  1.00  0.00     0.058 A 
ATOM     89  C   UNL     1     -10.034   2.617 -15.218  1.00  0.00     0.135 A 
ATOM     90  C   UNL     1      -7.833   2.543 -16.181  1.00  0.00     0.135 A 
ATOM     91  F   UNL     1     -10.857   2.634 -14.158  1.00  0.00    -0.206 F 
ATOM     92  C   UNL     1     -10.599   2.627 -16.491  1.00  0.00     0.059 A 
ATOM     93  C   UNL     1      -8.375   2.585 -17.462  1.00  0.00     0.059 A 
ATOM     94  F   UNL     1      -6.496   2.505 -16.064  1.00  0.00    -0.206 F 
ATOM     95  C   UNL     1      -9.760   2.616 -17.608  1.00  0.00     0.060 A 
BRANCH  95  96
ATOM     96  S   UNL     1     -10.506   2.667 -19.252  1.00  0.00     0.124 S 
ATOM     97  O   UNL     1     -11.077   1.328 -19.358  1.00  0.00    -0.237 OA
ATOM     98  O   UNL     1     -11.467   3.758 -19.124  1.00  0.00    -0.237 OA
ATOM     99  O   UNL     1      -9.373   2.937 -20.132  1.00  0.00    -0.744 OA
ENDBRANCH  95  96
ENDBRANCH  63  88
ENDBRANCH  37  38
ENDBRANCH  30  32
ENDBRANCH  29  30
ENDBRANCH  28  29
ENDBRANCH  27  28
ENDBRANCH  26  27
ENDBRANCH   1  26
TORSDOF 23
