REMARK SMILES CCCCc1nc(C[N@H+]2CC[NH2+][C@H](C(=O)OCCOCCOCCOC(=O)c3ccc(-c4c5nc(c(-c6c(F)cc(S(=O)(=O)[O-])cc6F)c6ccc([nH]6)c(-c6c(F)cc(S(=O)(=O)[O-])cc6F)c6nc(c(-c7c(F)cc(S(=O)(=O)[O-])cc7F)c7ccc4[nH]7)C=C6)C=C5)cc3)C2)c(Cl)[nH]1
REMARK SMILES IDX 20 1 19 2 18 3 17 4 16 5 14 6 15 7 13 8 9 9 10 10 94 11
REMARK SMILES IDX 11 13 12 14 8 17 7 18 5 19 6 20 97 21 95 22 96 24 4 25 3 26
REMARK SMILES IDX 2 27 1 28 21 29 22 30 23 31 24 32 25 33 26 34 27 35 28 36
REMARK SMILES IDX 29 37 93 38 30 39 92 40 31 41 32 42 33 43 86 44 34 45 91 46
REMARK SMILES IDX 85 47 87 48 35 49 90 50 84 51 83 52 36 54 70 55 49 56 69 57
REMARK SMILES IDX 50 58 53 59 68 60 88 61 51 62 52 63 67 65 89 66 54 67 37 68
REMARK SMILES IDX 38 69 47 70 39 71 40 72 46 73 48 74 41 75 42 76 43 77 44 78
REMARK SMILES IDX 45 79 71 80 72 81 81 82 73 83 74 84 80 85 82 86 75 87 76 88
REMARK SMILES IDX 77 89 78 90 79 91 55 92 56 93 65 94 57 95 58 96 64 97 66 98
REMARK SMILES IDX 59 99 60 100 61 101 62 102 63 103
REMARK H PARENT 9 12 12 15 12 16 97 23 87 53 53 64
REMARK Flexibility Score: inf
ROOT
ATOM      1  C   UNL     1       0.938  -5.501  -1.797  1.00  0.00     0.188 C 
ENDROOT
BRANCH   1   2
ATOM      2  O   UNL     1       1.750  -6.610  -2.173  1.00  0.00    -0.376 OA
BRANCH   2   3
ATOM      3  C   UNL     1       2.321  -6.631  -3.471  1.00  0.00     0.202 C 
BRANCH   3   4
ATOM      4  C   UNL     1       1.338  -6.701  -4.649  1.00  0.00     0.261 C 
BRANCH   4   5
ATOM      5  O   UNL     1       0.272  -5.735  -4.613  1.00  0.00    -0.459 OA
BRANCH   5   6
ATOM      6  C   UNL     1      -0.994  -6.159  -4.307  1.00  0.00     0.371 C 
ATOM      7  O   UNL     1      -1.325  -7.333  -4.207  1.00  0.00    -0.245 OA
BRANCH   6   8
ATOM      8  C   UNL     1      -1.935  -4.951  -4.057  1.00  0.00     0.348 C 
ATOM      9  N   UNL     1      -4.263  -4.318  -3.224  1.00  0.00    -0.320 N 
ATOM     10  C   UNL     1      -4.385  -3.490  -4.430  1.00  0.00     0.324 C 
ATOM     11  C   UNL     1      -3.275  -5.397  -3.428  1.00  0.00     0.341 C 
ATOM     12  H   UNL     1      -5.168  -4.771  -3.097  1.00  0.00     0.348 HD
ATOM     13  C   UNL     1      -3.048  -3.059  -5.082  1.00  0.00     0.323 C 
ATOM     14  N   UNL     1      -2.101  -4.164  -5.313  1.00  0.00    -0.325 N 
ATOM     15  H   UNL     1      -1.199  -3.784  -5.598  1.00  0.00     0.347 HD
ATOM     16  H   UNL     1      -2.462  -4.772  -6.049  1.00  0.00     0.347 HD
BRANCH   9  17
ATOM     17  C   UNL     1      -4.161  -3.586  -1.940  1.00  0.00     0.323 C 
BRANCH  17  18
ATOM     18  C   UNL     1      -3.322  -2.340  -1.927  1.00  0.00     0.132 A 
ATOM     19  C   UNL     1      -1.537  -1.117  -2.140  1.00  0.00     0.107 A 
ATOM     20  N   UNL     1      -1.942  -2.374  -2.004  1.00  0.00    -0.231 NA
ATOM     21  N   UNL     1      -2.591  -0.259  -1.972  1.00  0.00    -0.333 N 
ATOM     22  C   UNL     1      -3.713  -1.024  -1.884  1.00  0.00     0.135 A 
ATOM     23  H   UNL     1      -2.545   0.723  -1.923  1.00  0.00     0.169 HD
ATOM     24  Cl  UNL     1      -5.214  -0.243  -1.841  1.00  0.00    -0.062 Cl
BRANCH  19  25
ATOM     25  C   UNL     1      -0.196  -0.719  -2.645  1.00  0.00     0.075 C 
BRANCH  25  26
ATOM     26  C   UNL     1       0.360   0.691  -2.485  1.00  0.00     0.008 C 
BRANCH  26  27
ATOM     27  C   UNL     1       0.231   1.487  -1.184  1.00  0.00    -0.003 C 
ATOM     28  C   UNL     1       0.909   0.933   0.055  1.00  0.00     0.004 C 
ENDBRANCH  26  27
ENDBRANCH  25  26
ENDBRANCH  19  25
ENDBRANCH  17  18
ENDBRANCH   9  17
ENDBRANCH   6   8
ENDBRANCH   5   6
ENDBRANCH   4   5
ENDBRANCH   3   4
ENDBRANCH   2   3
ENDBRANCH   1   2
BRANCH   1  29
ATOM     29  C   UNL     1       1.127  -4.133  -2.482  1.00  0.00     0.188 C 
BRANCH  29  30
ATOM     30  O   UNL     1       2.440  -3.958  -2.983  1.00  0.00    -0.376 OA
BRANCH  30  31
ATOM     31  C   UNL     1       2.994  -2.665  -2.911  1.00  0.00     0.202 C 
BRANCH  31  32
ATOM     32  C   UNL     1       3.611  -2.390  -1.550  1.00  0.00     0.261 C 
BRANCH  32  33
ATOM     33  O   UNL     1       3.086  -3.218  -0.514  1.00  0.00    -0.460 OA
BRANCH  33  34
ATOM     34  C   UNL     1       1.993  -2.718   0.074  1.00  0.00     0.338 C 
ATOM     35  O   UNL     1       1.302  -1.792  -0.364  1.00  0.00    -0.246 OA
BRANCH  34  36
ATOM     36  C   UNL     1       1.819  -3.199   1.434  1.00  0.00     0.060 A 
ATOM     37  C   UNL     1       0.778  -2.535   2.101  1.00  0.00     0.016 A 
ATOM     38  C   UNL     1       3.041  -3.497   2.040  1.00  0.00     0.016 A 
ATOM     39  C   UNL     1       1.109  -1.818   3.221  1.00  0.00     0.010 A 
ATOM     40  C   UNL     1       3.387  -2.740   3.121  1.00  0.00     0.010 A 
ATOM     41  C   UNL     1       2.436  -1.865   3.658  1.00  0.00    -0.014 A 
BRANCH  41  42
ATOM     42  C   UNL     1       2.748  -1.250   4.926  1.00  0.00     0.031 A 
ATOM     43  C   UNL     1       2.134  -2.070   6.002  1.00  0.00     0.074 A 
ATOM     44  C   UNL     1       3.657  -0.264   5.026  1.00  0.00     0.049 A 
ATOM     45  N   UNL     1       1.108  -1.789   6.739  1.00  0.00    -0.248 NA
ATOM     46  C   UNL     1       2.484  -3.511   6.020  1.00  0.00     0.031 C 
ATOM     47  C   UNL     1       4.477   0.289   3.940  1.00  0.00     0.029 A 
ATOM     48  N   UNL     1       4.171   0.332   6.134  1.00  0.00    -0.354 N 
ATOM     49  C   UNL     1       0.945  -2.928   7.527  1.00  0.00     0.074 A 
ATOM     50  C   UNL     1       1.521  -4.011   6.792  1.00  0.00     0.031 C 
ATOM     51  C   UNL     1       5.539   0.935   4.471  1.00  0.00     0.029 A 
ATOM     52  C   UNL     1       5.405   0.946   5.916  1.00  0.00     0.049 A 
ATOM     53  H   UNL     1       3.716   0.331   7.008  1.00  0.00     0.167 HD
ATOM     54  C   UNL     1       0.832  -2.808   8.878  1.00  0.00     0.037 A 
ATOM     55  C   UNL     1       6.275   1.320   6.888  1.00  0.00     0.037 A 
ATOM     56  C   UNL     1       0.493  -1.452   9.223  1.00  0.00     0.049 A 
ATOM     57  C   UNL     1       5.503   1.369   8.159  1.00  0.00     0.074 A 
ATOM     58  C   UNL     1      -0.619  -0.647   9.107  1.00  0.00     0.029 A 
ATOM     59  N   UNL     1       1.585  -0.634   9.370  1.00  0.00    -0.354 N 
ATOM     60  N   UNL     1       4.518   2.202   8.370  1.00  0.00    -0.248 NA
ATOM     61  C   UNL     1       5.541   0.215   9.054  1.00  0.00     0.031 C 
ATOM     62  C   UNL     1      -0.136   0.692   9.056  1.00  0.00     0.029 A 
ATOM     63  C   UNL     1       1.251   0.681   9.198  1.00  0.00     0.049 A 
ATOM     64  H   UNL     1       2.494  -0.954   9.572  1.00  0.00     0.167 HD
ATOM     65  C   UNL     1       3.606   1.481   9.122  1.00  0.00     0.074 A 
ATOM     66  C   UNL     1       4.347   0.339   9.641  1.00  0.00     0.031 C 
ATOM     67  C   UNL     1       2.266   1.692   8.984  1.00  0.00     0.037 A 
BRANCH  54  68
ATOM     68  C   UNL     1       1.535  -3.716   9.877  1.00  0.00     0.058 A 
ATOM     69  C   UNL     1       1.236  -3.566  11.245  1.00  0.00     0.135 A 
ATOM     70  C   UNL     1       2.670  -4.519   9.600  1.00  0.00     0.135 A 
ATOM     71  F   UNL     1       0.190  -2.821  11.635  1.00  0.00    -0.206 F 
ATOM     72  C   UNL     1       2.031  -4.120  12.253  1.00  0.00     0.059 A 
ATOM     73  C   UNL     1       3.442  -5.119  10.583  1.00  0.00     0.059 A 
ATOM     74  F   UNL     1       3.160  -4.704   8.372  1.00  0.00    -0.206 F 
ATOM     75  C   UNL     1       3.138  -4.889  11.909  1.00  0.00     0.060 A 
BRANCH  75  76
ATOM     76  S   UNL     1       4.206  -5.560  13.190  1.00  0.00     0.124 S 
ATOM     77  O   UNL     1       4.806  -4.349  13.736  1.00  0.00    -0.237 OA
ATOM     78  O   UNL     1       3.247  -6.247  14.048  1.00  0.00    -0.237 OA
ATOM     79  O   UNL     1       5.112  -6.434  12.449  1.00  0.00    -0.744 OA
ENDBRANCH  75  76
ENDBRANCH  54  68
BRANCH  55  80
ATOM     80  C   UNL     1       7.761   1.297   6.849  1.00  0.00     0.058 A 
ATOM     81  C   UNL     1       8.534   2.029   7.768  1.00  0.00     0.135 A 
ATOM     82  C   UNL     1       8.455   0.346   6.074  1.00  0.00     0.135 A 
ATOM     83  F   UNL     1       7.949   2.937   8.564  1.00  0.00    -0.206 F 
ATOM     84  C   UNL     1       9.908   1.810   7.931  1.00  0.00     0.059 A 
ATOM     85  C   UNL     1       9.823   0.114   6.213  1.00  0.00     0.059 A 
ATOM     86  F   UNL     1       7.803  -0.450   5.213  1.00  0.00    -0.206 F 
ATOM     87  C   UNL     1      10.541   0.836   7.158  1.00  0.00     0.060 A 
BRANCH  87  88
ATOM     88  S   UNL     1      12.283   0.449   7.463  1.00  0.00     0.124 S 
ATOM     89  O   UNL     1      12.946   1.668   7.012  1.00  0.00    -0.237 OA
ATOM     90  O   UNL     1      12.299   0.209   8.902  1.00  0.00    -0.237 OA
ATOM     91  O   UNL     1      12.518  -0.731   6.633  1.00  0.00    -0.744 OA
ENDBRANCH  87  88
ENDBRANCH  55  80
BRANCH  67  92
ATOM     92  C   UNL     1       1.812   3.026   8.473  1.00  0.00     0.058 A 
ATOM     93  C   UNL     1       1.961   3.487   7.155  1.00  0.00     0.135 A 
ATOM     94  C   UNL     1       1.073   3.823   9.360  1.00  0.00     0.135 A 
ATOM     95  F   UNL     1       2.592   2.744   6.234  1.00  0.00    -0.206 F 
ATOM     96  C   UNL     1       1.410   4.704   6.745  1.00  0.00     0.059 A 
ATOM     97  C   UNL     1       0.490   5.018   8.966  1.00  0.00     0.059 A 
ATOM     98  F   UNL     1       0.862   3.406  10.620  1.00  0.00    -0.206 F 
ATOM     99  C   UNL     1       0.670   5.459   7.659  1.00  0.00     0.060 A 
BRANCH  99 100
ATOM    100  S   UNL     1      -0.113   6.993   7.117  1.00  0.00     0.124 S 
ATOM    101  O   UNL     1       1.035   7.872   6.927  1.00  0.00    -0.237 OA
ATOM    102  O   UNL     1      -0.806   6.581   5.900  1.00  0.00    -0.237 OA
ATOM    103  O   UNL     1      -0.988   7.342   8.234  1.00  0.00    -0.744 OA
ENDBRANCH  99 100
ENDBRANCH  67  92
ENDBRANCH  41  42
ENDBRANCH  34  36
ENDBRANCH  33  34
ENDBRANCH  32  33
ENDBRANCH  31  32
ENDBRANCH  30  31
ENDBRANCH  29  30
ENDBRANCH   1  29
TORSDOF 25
