REMARK SMILES NS(=O)(=O)CCNC(=O)N1[C@@H]2CC[C@H]1C[C@H](CC(=O)OCCOCCOCCOC(=O)c1ccc(-c3c4nc(c(-c5c(F)cc(S(=O)(=O)[O-])cc5F)c5ccc([nH]5)c(-c5c(F)cc(S(=O)(=O)[O-])cc5F)c5nc(c(-c6c(F)cc(S(=O)(=O)[O-])cc6F)c6ccc3[nH]6)C=C5)C=C4)cc1)C2
REMARK SMILES IDX 23 1 22 2 21 3 20 4 18 5 19 6 17 7 16 8 10 9 11 10 14 11
REMARK SMILES IDX 12 12 98 13 13 14 15 15 8 16 7 17 9 19 6 20 5 21 2 22 3 23
REMARK SMILES IDX 4 24 1 25 24 28 25 29 26 30 27 31 28 32 29 33 30 34 31 35
REMARK SMILES IDX 32 36 33 37 97 38 34 39 96 40 35 41 36 42 37 43 90 44 38 45
REMARK SMILES IDX 95 46 89 47 91 48 39 49 94 50 88 51 87 52 40 54 74 55 53 56
REMARK SMILES IDX 73 57 54 58 57 59 72 60 92 61 55 62 56 63 71 65 93 66 58 67
REMARK SMILES IDX 41 68 42 69 51 70 43 71 44 72 50 73 52 74 45 75 46 76 47 77
REMARK SMILES IDX 48 78 49 79 75 80 76 81 85 82 77 83 78 84 84 85 86 86 79 87
REMARK SMILES IDX 80 88 81 89 82 90 83 91 59 92 60 93 69 94 61 95 62 96 68 97
REMARK SMILES IDX 70 98 63 99 64 100 65 101 66 102 67 103
REMARK H PARENT 7 18 1 26 1 27 91 53 57 64
REMARK Flexibility Score: inf
ROOT
ATOM      1  O   UNL     1       1.964  -1.784  10.502  1.00  0.00    -0.376 OA
ENDROOT
BRANCH   1   2
ATOM      2  C   UNL     1       0.689  -1.435   9.966  1.00  0.00     0.202 C 
BRANCH   2   3
ATOM      3  C   UNL     1       0.698  -0.667   8.636  1.00  0.00     0.261 C 
BRANCH   3   4
ATOM      4  O   UNL     1       1.455  -1.323   7.598  1.00  0.00    -0.463 OA
BRANCH   4   5
ATOM      5  C   UNL     1       2.459  -0.600   7.041  1.00  0.00     0.306 C 
ATOM      6  O   UNL     1       2.671   0.585   7.274  1.00  0.00    -0.252 OA
BRANCH   5   7
ATOM      7  C   UNL     1       3.378  -1.395   6.127  1.00  0.00     0.126 C 
BRANCH   7   8
ATOM      8  C   UNL     1       3.000  -2.799   5.602  1.00  0.00     0.004 C 
ATOM      9  N   UNL     1       2.115  -3.739   3.034  1.00  0.00    -0.319 N 
ATOM     10  C   UNL     1       3.422  -4.218   3.454  1.00  0.00     0.087 C 
ATOM     11  C   UNL     1       1.227  -3.989   4.148  1.00  0.00     0.087 C 
ATOM     12  C   UNL     1       3.113  -5.534   4.165  1.00  0.00     0.027 C 
ATOM     13  C   UNL     1       3.972  -3.160   4.427  1.00  0.00     0.029 C 
ATOM     14  C   UNL     1       1.663  -5.381   4.633  1.00  0.00     0.027 C 
ATOM     15  C   UNL     1       1.510  -2.915   5.206  1.00  0.00     0.029 C 
BRANCH   9  16
ATOM     16  C   UNL     1       1.892  -3.228   1.801  1.00  0.00     0.317 C 
ATOM     17  N   UNL     1       0.804  -2.472   1.537  1.00  0.00    -0.337 N 
ATOM     18  H   UNL     1       0.497  -2.526   0.603  1.00  0.00     0.165 HD
ATOM     19  O   UNL     1       2.679  -3.396   0.868  1.00  0.00    -0.249 OA
BRANCH  17  20
ATOM     20  C   UNL     1      -0.001  -1.591   2.375  1.00  0.00     0.135 C 
BRANCH  20  21
ATOM     21  C   UNL     1       0.711  -0.286   2.698  1.00  0.00     0.175 C 
BRANCH  21  22
ATOM     22  S   UNL     1       0.444   0.957   1.443  1.00  0.00     0.210 S 
ATOM     23  O   UNL     1       1.322   2.079   1.683  1.00  0.00    -0.213 OA
ATOM     24  O   UNL     1      -0.972   1.134   1.228  1.00  0.00    -0.213 OA
BRANCH  22  25
ATOM     25  N   UNL     1       1.028   0.227   0.054  1.00  0.00    -0.229 NA
ATOM     26  H   UNL     1       0.921   0.864  -0.735  1.00  0.00     0.137 HD
ATOM     27  H   UNL     1       0.505  -0.629  -0.126  1.00  0.00     0.137 HD
ENDBRANCH  22  25
ENDBRANCH  21  22
ENDBRANCH  20  21
ENDBRANCH  17  20
ENDBRANCH   9  16
ENDBRANCH   7   8
ENDBRANCH   5   7
ENDBRANCH   4   5
ENDBRANCH   3   4
ENDBRANCH   2   3
ENDBRANCH   1   2
BRANCH   1  28
ATOM     28  C   UNL     1       2.769  -2.654   9.715  1.00  0.00     0.188 C 
BRANCH  28  29
ATOM     29  C   UNL     1       2.148  -4.005   9.360  1.00  0.00     0.188 C 
BRANCH  29  30
ATOM     30  O   UNL     1       0.821  -3.985   8.853  1.00  0.00    -0.376 OA
BRANCH  30  31
ATOM     31  C   UNL     1       0.198  -5.256   8.644  1.00  0.00     0.202 C 
BRANCH  31  32
ATOM     32  C   UNL     1       0.319  -6.328   9.751  1.00  0.00     0.261 C 
BRANCH  32  33
ATOM     33  O   UNL     1       1.654  -6.704  10.158  1.00  0.00    -0.460 OA
BRANCH  33  34
ATOM     34  C   UNL     1       2.562  -7.017   9.201  1.00  0.00     0.338 C 
ATOM     35  O   UNL     1       2.317  -7.242   8.029  1.00  0.00    -0.246 OA
BRANCH  34  36
ATOM     36  C   UNL     1       3.932  -6.752   9.739  1.00  0.00     0.060 A 
ATOM     37  C   UNL     1       4.887  -6.199   8.871  1.00  0.00     0.016 A 
ATOM     38  C   UNL     1       4.264  -6.953  11.083  1.00  0.00     0.016 A 
ATOM     39  C   UNL     1       6.174  -5.891   9.328  1.00  0.00     0.010 A 
ATOM     40  C   UNL     1       5.559  -6.658  11.536  1.00  0.00     0.010 A 
ATOM     41  C   UNL     1       6.535  -6.159  10.654  1.00  0.00    -0.014 A 
BRANCH  41  42
ATOM     42  C   UNL     1       7.969  -6.123  11.059  1.00  0.00     0.031 A 
ATOM     43  C   UNL     1       8.723  -7.429  11.117  1.00  0.00     0.074 A 
ATOM     44  C   UNL     1       8.613  -4.975  11.345  1.00  0.00     0.049 A 
ATOM     45  N   UNL     1       9.954  -7.667  11.487  1.00  0.00    -0.248 NA
ATOM     46  C   UNL     1       7.979  -8.630  10.700  1.00  0.00     0.031 C 
ATOM     47  C   UNL     1       8.030  -3.637  11.286  1.00  0.00     0.029 A 
ATOM     48  N   UNL     1       9.909  -4.757  11.754  1.00  0.00    -0.354 N 
ATOM     49  C   UNL     1      10.130  -9.041  11.358  1.00  0.00     0.074 A 
ATOM     50  C   UNL     1       8.870  -9.587  10.905  1.00  0.00     0.031 C 
ATOM     51  C   UNL     1       8.960  -2.738  11.658  1.00  0.00     0.029 A 
ATOM     52  C   UNL     1      10.195  -3.437  12.016  1.00  0.00     0.049 A 
ATOM     53  H   UNL     1      10.571  -5.479  11.850  1.00  0.00     0.167 HD
ATOM     54  C   UNL     1      11.240  -9.783  11.586  1.00  0.00     0.037 A 
ATOM     55  C   UNL     1      11.312  -2.861  12.511  1.00  0.00     0.037 A 
ATOM     56  C   UNL     1      12.497  -9.244  12.037  1.00  0.00     0.049 A 
ATOM     57  C   UNL     1      12.514  -3.717  12.836  1.00  0.00     0.074 A 
ATOM     58  C   UNL     1      13.681  -9.917  12.280  1.00  0.00     0.029 A 
ATOM     59  N   UNL     1      12.732  -7.908  12.323  1.00  0.00    -0.354 N 
ATOM     60  N   UNL     1      12.672  -5.012  12.690  1.00  0.00    -0.248 NA
ATOM     61  C   UNL     1      13.692  -3.033  13.392  1.00  0.00     0.031 C 
ATOM     62  C   UNL     1      14.614  -8.999  12.771  1.00  0.00     0.029 A 
ATOM     63  C   UNL     1      14.034  -7.742  12.769  1.00  0.00     0.049 A 
ATOM     64  H   UNL     1      12.072  -7.184  12.224  1.00  0.00     0.167 HD
ATOM     65  C   UNL     1      13.974  -5.289  13.103  1.00  0.00     0.074 A 
ATOM     66  C   UNL     1      14.564  -4.027  13.496  1.00  0.00     0.031 C 
ATOM     67  C   UNL     1      14.622  -6.480  13.149  1.00  0.00     0.037 A 
BRANCH  54  68
ATOM     68  C   UNL     1      11.138 -11.270  11.382  1.00  0.00     0.058 A 
ATOM     69  C   UNL     1      11.010 -11.839  10.105  1.00  0.00     0.135 A 
ATOM     70  C   UNL     1      11.202 -12.142  12.482  1.00  0.00     0.135 A 
ATOM     71  F   UNL     1      10.923 -11.053   9.020  1.00  0.00    -0.206 F 
ATOM     72  C   UNL     1      10.921 -13.216   9.927  1.00  0.00     0.059 A 
ATOM     73  C   UNL     1      11.148 -13.523  12.325  1.00  0.00     0.059 A 
ATOM     74  F   UNL     1      11.321 -11.653  13.726  1.00  0.00    -0.206 F 
ATOM     75  C   UNL     1      10.992 -14.050  11.044  1.00  0.00     0.060 A 
BRANCH  75  76
ATOM     76  S   UNL     1      10.878 -15.834  10.796  1.00  0.00     0.124 S 
ATOM     77  O   UNL     1       9.474 -15.987  10.425  1.00  0.00    -0.237 OA
ATOM     78  O   UNL     1      11.844 -16.061   9.725  1.00  0.00    -0.237 OA
ATOM     79  O   UNL     1      11.247 -16.384  12.096  1.00  0.00    -0.744 OA
ENDBRANCH  75  76
ENDBRANCH  54  68
BRANCH  55  80
ATOM     80  C   UNL     1      11.353  -1.390  12.755  1.00  0.00     0.058 A 
ATOM     81  C   UNL     1      12.193  -0.549  12.009  1.00  0.00     0.135 A 
ATOM     82  C   UNL     1      10.568  -0.799  13.758  1.00  0.00     0.135 A 
ATOM     83  F   UNL     1      12.980  -1.066  11.053  1.00  0.00    -0.206 F 
ATOM     84  C   UNL     1      12.264   0.819  12.255  1.00  0.00     0.059 A 
ATOM     85  C   UNL     1      10.599   0.571  14.003  1.00  0.00     0.059 A 
ATOM     86  F   UNL     1       9.747  -1.556  14.503  1.00  0.00    -0.206 F 
ATOM     87  C   UNL     1      11.458   1.371  13.252  1.00  0.00     0.060 A 
BRANCH  87  88
ATOM     88  S   UNL     1      11.521   3.155  13.528  1.00  0.00     0.124 S 
ATOM     89  O   UNL     1      12.835   3.313  14.140  1.00  0.00    -0.237 OA
ATOM     90  O   UNL     1      11.381   3.678  12.172  1.00  0.00    -0.237 OA
ATOM     91  O   UNL     1      10.382   3.399  14.407  1.00  0.00    -0.744 OA
ENDBRANCH  87  88
ENDBRANCH  55  80
BRANCH  67  92
ATOM     92  C   UNL     1      16.062  -6.486  13.593  1.00  0.00     0.058 A 
ATOM     93  C   UNL     1      16.432  -6.251  14.927  1.00  0.00     0.135 A 
ATOM     94  C   UNL     1      17.085  -6.794  12.679  1.00  0.00     0.135 A 
ATOM     95  F   UNL     1      15.499  -5.949  15.844  1.00  0.00    -0.206 F 
ATOM     96  C   UNL     1      17.763  -6.297  15.334  1.00  0.00     0.059 A 
ATOM     97  C   UNL     1      18.419  -6.876  13.070  1.00  0.00     0.059 A 
ATOM     98  F   UNL     1      16.790  -7.040  11.393  1.00  0.00    -0.206 F 
ATOM     99  C   UNL     1      18.750  -6.614  14.398  1.00  0.00     0.060 A 
BRANCH  99 100
ATOM    100  S   UNL     1      20.468  -6.703  14.946  1.00  0.00     0.124 S 
ATOM    101  O   UNL     1      20.781  -5.295  15.167  1.00  0.00    -0.237 OA
ATOM    102  O   UNL     1      20.369  -7.528  16.146  1.00  0.00    -0.237 OA
ATOM    103  O   UNL     1      21.154  -7.328  13.819  1.00  0.00    -0.744 OA
ENDBRANCH  99 100
ENDBRANCH  67  92
ENDBRANCH  41  42
ENDBRANCH  34  36
ENDBRANCH  33  34
ENDBRANCH  32  33
ENDBRANCH  31  32
ENDBRANCH  30  31
ENDBRANCH  29  30
ENDBRANCH  28  29
ENDBRANCH   1  28
TORSDOF 26
