REMARK SMILES Cc1cc(C[N@@H+]2C[C@@H](C(=O)OCCOCCOCCOC(=O)c3ccc(-c4c5nc(c(-c6c(F)cc(S(=O)(=O)[O-])cc6F)c6ccc([nH]6)c(-c6c(F)cc(S(=O)(=O)[O-])cc6F)c6nc(c(-c7c(F)cc(S(=O)(=O)[O-])cc7F)c7ccc4[nH]7)C=C6)C=C5)cc3)[C@H](C3CC3)C2)on1
REMARK SMILES IDX 16 1 15 2 14 3 13 4 12 5 11 6 9 7 10 8 8 9 6 10 7 11 93 12
REMARK SMILES IDX 89 14 5 15 4 16 1 17 2 18 3 19 95 20 94 21 90 22 91 23 92 24
REMARK SMILES IDX 17 25 18 26 19 27 20 28 21 29 22 30 23 31 24 32 88 33 25 34
REMARK SMILES IDX 87 35 26 36 27 37 28 38 81 39 29 40 86 41 80 42 82 43 30 44
REMARK SMILES IDX 85 45 79 46 78 47 31 49 65 50 44 51 64 52 45 53 48 54 63 55
REMARK SMILES IDX 83 56 46 57 47 58 62 60 84 61 49 62 32 63 33 64 42 65 34 66
REMARK SMILES IDX 35 67 41 68 43 69 36 70 37 71 38 72 39 73 40 74 66 75 67 76
REMARK SMILES IDX 76 77 68 78 69 79 75 80 77 81 70 82 71 83 72 84 73 85 74 86
REMARK SMILES IDX 50 87 51 88 60 89 52 90 53 91 59 92 61 93 54 94 55 95 56 96
REMARK SMILES IDX 57 97 58 98
REMARK H PARENT 6 13 82 48 48 59
REMARK Flexibility Score: inf
ROOT
ATOM      1  C   UNL     1      -4.727   1.555   4.156  1.00  0.00     0.188 C 
ENDROOT
BRANCH   1   2
ATOM      2  C   UNL     1      -3.689   2.639   4.520  1.00  0.00     0.188 C 
BRANCH   2   3
ATOM      3  O   UNL     1      -3.997   4.011   4.362  1.00  0.00    -0.376 OA
BRANCH   3   4
ATOM      4  C   UNL     1      -4.606   4.443   3.159  1.00  0.00     0.202 C 
BRANCH   4   5
ATOM      5  C   UNL     1      -3.899   4.170   1.830  1.00  0.00     0.261 C 
BRANCH   5   6
ATOM      6  O   UNL     1      -3.655   2.774   1.577  1.00  0.00    -0.463 OA
BRANCH   6   7
ATOM      7  C   UNL     1      -2.348   2.418   1.457  1.00  0.00     0.315 C 
ATOM      8  O   UNL     1      -1.417   3.203   1.590  1.00  0.00    -0.252 OA
BRANCH   7   9
ATOM      9  C   UNL     1      -2.133   0.944   1.173  1.00  0.00     0.163 C 
ATOM     10  N   UNL     1      -3.053  -1.202   0.681  1.00  0.00    -0.328 N 
ATOM     11  C   UNL     1      -3.308   0.236   0.509  1.00  0.00     0.278 C 
ATOM     12  C   UNL     1      -2.353  -1.340   1.967  1.00  0.00     0.267 C 
ATOM     13  H   UNL     1      -3.934  -1.717   0.693  1.00  0.00     0.348 HD
ATOM     14  C   UNL     1      -1.839   0.058   2.387  1.00  0.00     0.067 C 
BRANCH  10  15
ATOM     15  C   UNL     1      -2.348  -1.836  -0.453  1.00  0.00     0.341 C 
BRANCH  15  16
ATOM     16  C   UNL     1      -1.002  -1.293  -0.775  1.00  0.00     0.191 A 
ATOM     17  C   UNL     1       2.470  -0.167  -0.673  1.00  0.00     0.070 C 
ATOM     18  C   UNL     1       1.051  -0.510  -0.923  1.00  0.00     0.081 A 
ATOM     19  C   UNL     1       0.265  -1.493  -0.280  1.00  0.00     0.078 A 
ATOM     20  N   UNL     1       0.331   0.177  -1.819  1.00  0.00    -0.085 NA
ATOM     21  O   UNL     1      -0.955  -0.325  -1.731  1.00  0.00    -0.355 OA
ENDBRANCH  15  16
ENDBRANCH  10  15
BRANCH  14  22
ATOM     22  C   UNL     1      -0.413  -0.002   2.882  1.00  0.00    -0.001 C 
ATOM     23  C   UNL     1       0.718   0.871   2.392  1.00  0.00     0.004 C 
ATOM     24  C   UNL     1       0.109   1.128   3.735  1.00  0.00     0.004 C 
ENDBRANCH  14  22
ENDBRANCH   7   9
ENDBRANCH   6   7
ENDBRANCH   5   6
ENDBRANCH   4   5
ENDBRANCH   3   4
ENDBRANCH   2   3
ENDBRANCH   1   2
BRANCH   1  25
ATOM     25  O   UNL     1      -6.110   1.837   4.092  1.00  0.00    -0.376 OA
BRANCH  25  26
ATOM     26  C   UNL     1      -6.753   2.512   5.156  1.00  0.00     0.202 C 
BRANCH  26  27
ATOM     27  C   UNL     1      -6.557   2.058   6.606  1.00  0.00     0.261 C 
BRANCH  27  28
ATOM     28  O   UNL     1      -5.196   1.882   7.025  1.00  0.00    -0.460 OA
BRANCH  28  29
ATOM     29  C   UNL     1      -4.832   0.612   7.300  1.00  0.00     0.338 C 
ATOM     30  O   UNL     1      -5.543  -0.396   7.199  1.00  0.00    -0.246 OA
BRANCH  29  31
ATOM     31  C   UNL     1      -3.396   0.525   7.606  1.00  0.00     0.060 A 
ATOM     32  C   UNL     1      -2.596  -0.326   6.830  1.00  0.00     0.016 A 
ATOM     33  C   UNL     1      -2.851   1.196   8.704  1.00  0.00     0.016 A 
ATOM     34  C   UNL     1      -1.262  -0.542   7.179  1.00  0.00     0.010 A 
ATOM     35  C   UNL     1      -1.515   0.966   9.059  1.00  0.00     0.010 A 
ATOM     36  C   UNL     1      -0.723   0.069   8.320  1.00  0.00    -0.014 A 
BRANCH  36  37
ATOM     37  C   UNL     1       0.621  -0.341   8.809  1.00  0.00     0.031 A 
ATOM     38  C   UNL     1       0.725  -1.357   9.915  1.00  0.00     0.074 A 
ATOM     39  C   UNL     1       1.741   0.152   8.251  1.00  0.00     0.049 A 
ATOM     40  N   UNL     1       1.792  -1.856  10.483  1.00  0.00    -0.248 NA
ATOM     41  C   UNL     1      -0.543  -1.870  10.457  1.00  0.00     0.031 C 
ATOM     42  C   UNL     1       1.777   1.141   7.178  1.00  0.00     0.029 A 
ATOM     43  N   UNL     1       3.064  -0.116   8.505  1.00  0.00    -0.354 N 
ATOM     44  C   UNL     1       1.329  -2.731  11.459  1.00  0.00     0.074 A 
ATOM     45  C   UNL     1      -0.118  -2.679  11.417  1.00  0.00     0.031 C 
ATOM     46  C   UNL     1       3.056   1.372   6.837  1.00  0.00     0.029 A 
ATOM     47  C   UNL     1       3.933   0.591   7.708  1.00  0.00     0.049 A 
ATOM     48  H   UNL     1       3.362  -0.753   9.193  1.00  0.00     0.167 HD
ATOM     49  C   UNL     1       2.042  -3.507  12.311  1.00  0.00     0.037 A 
ATOM     50  C   UNL     1       5.282   0.622   7.696  1.00  0.00     0.037 A 
ATOM     51  C   UNL     1       3.481  -3.554  12.359  1.00  0.00     0.049 A 
ATOM     52  C   UNL     1       6.051  -0.225   8.677  1.00  0.00     0.074 A 
ATOM     53  C   UNL     1       4.290  -4.317  13.184  1.00  0.00     0.029 A 
ATOM     54  N   UNL     1       4.329  -2.805  11.557  1.00  0.00    -0.354 N 
ATOM     55  N   UNL     1       5.598  -1.060   9.583  1.00  0.00    -0.248 NA
ATOM     56  C   UNL     1       7.517  -0.120   8.638  1.00  0.00     0.031 C 
ATOM     57  C   UNL     1       5.625  -3.995  12.913  1.00  0.00     0.029 A 
ATOM     58  C   UNL     1       5.651  -3.071  11.881  1.00  0.00     0.049 A 
ATOM     59  H   UNL     1       4.035  -2.175  10.860  1.00  0.00     0.167 HD
ATOM     60  C   UNL     1       6.723  -1.588  10.211  1.00  0.00     0.074 A 
ATOM     61  C   UNL     1       7.876  -1.000   9.562  1.00  0.00     0.031 C 
ATOM     62  C   UNL     1       6.794  -2.476  11.235  1.00  0.00     0.037 A 
BRANCH  49  63
ATOM     63  C   UNL     1       1.269  -4.350  13.289  1.00  0.00     0.058 A 
ATOM     64  C   UNL     1       0.548  -5.483  12.880  1.00  0.00     0.135 A 
ATOM     65  C   UNL     1       1.274  -4.035  14.657  1.00  0.00     0.135 A 
ATOM     66  F   UNL     1       0.494  -5.819  11.582  1.00  0.00    -0.206 F 
ATOM     67  C   UNL     1      -0.164  -6.258  13.790  1.00  0.00     0.059 A 
ATOM     68  C   UNL     1       0.591  -4.811  15.589  1.00  0.00     0.059 A 
ATOM     69  F   UNL     1       1.946  -2.961  15.101  1.00  0.00    -0.206 F 
ATOM     70  C   UNL     1      -0.138  -5.913  15.143  1.00  0.00     0.060 A 
BRANCH  70  71
ATOM     71  S   UNL     1      -1.066  -6.929  16.311  1.00  0.00     0.124 S 
ATOM     72  O   UNL     1      -2.440  -6.548  15.999  1.00  0.00    -0.237 OA
ATOM     73  O   UNL     1      -0.681  -8.282  15.924  1.00  0.00    -0.237 OA
ATOM     74  O   UNL     1      -0.573  -6.488  17.613  1.00  0.00    -0.744 OA
ENDBRANCH  70  71
ENDBRANCH  49  63
BRANCH  50  75
ATOM     75  C   UNL     1       6.002   1.502   6.734  1.00  0.00     0.058 A 
ATOM     76  C   UNL     1       6.773   0.961   5.694  1.00  0.00     0.135 A 
ATOM     77  C   UNL     1       5.948   2.900   6.847  1.00  0.00     0.135 A 
ATOM     78  F   UNL     1       6.870  -0.370   5.553  1.00  0.00    -0.206 F 
ATOM     79  C   UNL     1       7.478   1.773   4.811  1.00  0.00     0.059 A 
ATOM     80  C   UNL     1       6.619   3.733   5.957  1.00  0.00     0.059 A 
ATOM     81  F   UNL     1       5.220   3.469   7.821  1.00  0.00    -0.206 F 
ATOM     82  C   UNL     1       7.392   3.159   4.949  1.00  0.00     0.060 A 
BRANCH  82  83
ATOM     83  S   UNL     1       8.270   4.205   3.768  1.00  0.00     0.124 S 
ATOM     84  O   UNL     1       9.651   4.050   4.210  1.00  0.00    -0.237 OA
ATOM     85  O   UNL     1       7.934   3.576   2.494  1.00  0.00    -0.237 OA
ATOM     86  O   UNL     1       7.681   5.522   3.984  1.00  0.00    -0.744 OA
ENDBRANCH  82  83
ENDBRANCH  50  75
BRANCH  62  87
ATOM     87  C   UNL     1       8.168  -2.885  11.698  1.00  0.00     0.058 A 
ATOM     88  C   UNL     1       9.010  -2.001  12.392  1.00  0.00     0.135 A 
ATOM     89  C   UNL     1       8.647  -4.182  11.450  1.00  0.00     0.135 A 
ATOM     90  F   UNL     1       8.605  -0.748  12.655  1.00  0.00    -0.206 F 
ATOM     91  C   UNL     1      10.294  -2.372  12.782  1.00  0.00     0.059 A 
ATOM     92  C   UNL     1       9.915  -4.585  11.857  1.00  0.00     0.059 A 
ATOM     93  F   UNL     1       7.880  -5.075  10.804  1.00  0.00    -0.206 F 
ATOM     94  C   UNL     1      10.740  -3.665  12.503  1.00  0.00     0.060 A 
BRANCH  94  95
ATOM     95  S   UNL     1      12.412  -4.133  13.001  1.00  0.00     0.124 S 
ATOM     96  O   UNL     1      13.219  -3.449  11.996  1.00  0.00    -0.237 OA
ATOM     97  O   UNL     1      12.499  -3.598  14.356  1.00  0.00    -0.237 OA
ATOM     98  O   UNL     1      12.397  -5.590  12.909  1.00  0.00    -0.744 OA
ENDBRANCH  94  95
ENDBRANCH  62  87
ENDBRANCH  36  37
ENDBRANCH  29  31
ENDBRANCH  28  29
ENDBRANCH  27  28
ENDBRANCH  26  27
ENDBRANCH  25  26
ENDBRANCH   1  25
TORSDOF 23
