REMARK SMILES O=C(OCCOCCOCCOC(=O)c1cncc(Nc2cccnc2)n1)c1ccc(-c2c3nc(c(-c4c(F)cc(S(=O)(=O)[O-])cc4F)c4ccc([nH]4)c(-c4c(F)cc(S(=O)(=O)[O-])cc4F)c4nc(c(-c5c(F)cc(S(=O)(=O)[O-])cc5F)c5ccc2[nH]5)C=C4)C=C3)cc1
REMARK SMILES IDX 7 1 6 2 5 3 4 4 3 5 2 6 1 7 28 8 29 9 93 10 30 11 92 12
REMARK SMILES IDX 31 13 32 14 33 15 86 16 34 17 91 18 85 19 87 20 35 21 90 22
REMARK SMILES IDX 84 23 83 24 36 26 70 27 49 28 69 29 50 30 53 31 68 32 88 33
REMARK SMILES IDX 51 34 52 35 67 37 89 38 54 39 37 40 38 41 47 42 39 43 40 44
REMARK SMILES IDX 46 45 48 46 41 47 42 48 43 49 44 50 45 51 71 52 72 53 81 54
REMARK SMILES IDX 73 55 74 56 80 57 82 58 75 59 76 60 77 61 78 62 79 63 55 64
REMARK SMILES IDX 56 65 65 66 57 67 58 68 64 69 66 70 59 71 60 72 61 73 62 74
REMARK SMILES IDX 63 75 8 76 9 77 10 78 11 79 12 80 13 81 14 82 15 83 16 84
REMARK SMILES IDX 27 85 17 86 19 87 18 88 20 89 21 91 22 92 26 93 23 94 25 95
REMARK SMILES IDX 24 96
REMARK H PARENT 87 25 53 36 20 90
REMARK Flexibility Score: inf
ROOT
ATOM      1  C   UNL     1       2.394  -0.753   1.995  1.00  0.00     0.188 C 
ENDROOT
BRANCH   1   2
ATOM      2  O   UNL     1       3.679  -0.835   1.362  1.00  0.00    -0.376 OA
BRANCH   2   3
ATOM      3  C   UNL     1       4.501   0.316   1.563  1.00  0.00     0.202 C 
BRANCH   3   4
ATOM      4  C   UNL     1       4.324   1.411   0.504  1.00  0.00     0.261 C 
BRANCH   4   5
ATOM      5  O   UNL     1       2.947   1.568   0.126  1.00  0.00    -0.460 OA
BRANCH   5   6
ATOM      6  C   UNL     1       2.329   1.068  -0.974  1.00  0.00     0.338 C 
ATOM      7  O   UNL     1       1.142   1.337  -1.157  1.00  0.00    -0.246 OA
BRANCH   6   8
ATOM      8  C   UNL     1       3.029   0.248  -2.010  1.00  0.00     0.060 A 
ATOM      9  C   UNL     1       4.090  -0.623  -1.757  1.00  0.00     0.016 A 
ATOM     10  C   UNL     1       2.531   0.315  -3.323  1.00  0.00     0.016 A 
ATOM     11  C   UNL     1       4.724  -1.309  -2.789  1.00  0.00     0.010 A 
ATOM     12  C   UNL     1       3.118  -0.428  -4.354  1.00  0.00     0.010 A 
ATOM     13  C   UNL     1       4.244  -1.219  -4.094  1.00  0.00    -0.014 A 
BRANCH  13  14
ATOM     14  C   UNL     1       4.965  -1.914  -5.182  1.00  0.00     0.031 A 
ATOM     15  C   UNL     1       5.736  -1.104  -6.181  1.00  0.00     0.074 A 
ATOM     16  C   UNL     1       4.985  -3.260  -5.227  1.00  0.00     0.049 A 
ATOM     17  N   UNL     1       6.369  -1.502  -7.251  1.00  0.00    -0.248 NA
ATOM     18  C   UNL     1       5.821   0.345  -5.931  1.00  0.00     0.031 C 
ATOM     19  C   UNL     1       4.361  -4.142  -4.240  1.00  0.00     0.029 A 
ATOM     20  N   UNL     1       5.556  -4.121  -6.129  1.00  0.00    -0.354 N 
ATOM     21  C   UNL     1       6.910  -0.354  -7.815  1.00  0.00     0.074 A 
ATOM     22  C   UNL     1       6.527   0.758  -6.974  1.00  0.00     0.031 C 
ATOM     23  C   UNL     1       4.578  -5.418  -4.596  1.00  0.00     0.029 A 
ATOM     24  C   UNL     1       5.280  -5.443  -5.870  1.00  0.00     0.049 A 
ATOM     25  H   UNL     1       6.108  -3.822  -6.887  1.00  0.00     0.167 HD
ATOM     26  C   UNL     1       7.661  -0.247  -8.935  1.00  0.00     0.037 A 
ATOM     27  C   UNL     1       5.517  -6.548  -6.601  1.00  0.00     0.037 A 
ATOM     28  C   UNL     1       8.040  -1.368  -9.751  1.00  0.00     0.049 A 
ATOM     29  C   UNL     1       6.250  -6.393  -7.902  1.00  0.00     0.074 A 
ATOM     30  C   UNL     1       8.797  -1.377 -10.907  1.00  0.00     0.029 A 
ATOM     31  N   UNL     1       7.679  -2.684  -9.495  1.00  0.00    -0.354 N 
ATOM     32  N   UNL     1       6.746  -5.300  -8.435  1.00  0.00    -0.248 NA
ATOM     33  C   UNL     1       6.451  -7.603  -8.707  1.00  0.00     0.031 C 
ATOM     34  C   UNL     1       8.861  -2.696 -11.372  1.00  0.00     0.029 A 
ATOM     35  C   UNL     1       8.171  -3.511 -10.488  1.00  0.00     0.049 A 
ATOM     36  H   UNL     1       7.151  -2.984  -8.720  1.00  0.00     0.167 HD
ATOM     37  C   UNL     1       7.327  -5.692  -9.633  1.00  0.00     0.074 A 
ATOM     38  C   UNL     1       7.134  -7.125  -9.740  1.00  0.00     0.031 C 
ATOM     39  C   UNL     1       7.963  -4.936 -10.561  1.00  0.00     0.037 A 
BRANCH  26  40
ATOM     40  C   UNL     1       8.070   1.133  -9.356  1.00  0.00     0.058 A 
ATOM     41  C   UNL     1       9.095   1.836  -8.704  1.00  0.00     0.135 A 
ATOM     42  C   UNL     1       7.413   1.768 -10.423  1.00  0.00     0.135 A 
ATOM     43  F   UNL     1       9.735   1.284  -7.661  1.00  0.00    -0.206 F 
ATOM     44  C   UNL     1       9.439   3.131  -9.080  1.00  0.00     0.059 A 
ATOM     45  C   UNL     1       7.753   3.055 -10.827  1.00  0.00     0.059 A 
ATOM     46  F   UNL     1       6.418   1.142 -11.071  1.00  0.00    -0.206 F 
ATOM     47  C   UNL     1       8.757   3.734 -10.138  1.00  0.00     0.060 A 
BRANCH  47  48
ATOM     48  S   UNL     1       9.198   5.423 -10.601  1.00  0.00     0.124 S 
ATOM     49  O   UNL     1       8.590   6.189  -9.518  1.00  0.00    -0.237 OA
ATOM     50  O   UNL     1      10.656   5.377 -10.603  1.00  0.00    -0.237 OA
ATOM     51  O   UNL     1       8.577   5.588 -11.912  1.00  0.00    -0.744 OA
ENDBRANCH  47  48
ENDBRANCH  26  40
BRANCH  27  52
ATOM     52  C   UNL     1       4.987  -7.867  -6.156  1.00  0.00     0.058 A 
ATOM     53  C   UNL     1       5.838  -8.901  -5.744  1.00  0.00     0.135 A 
ATOM     54  C   UNL     1       3.603  -8.114  -6.131  1.00  0.00     0.135 A 
ATOM     55  F   UNL     1       7.167  -8.719  -5.750  1.00  0.00    -0.206 F 
ATOM     56  C   UNL     1       5.340 -10.139  -5.343  1.00  0.00     0.059 A 
ATOM     57  C   UNL     1       3.080  -9.334  -5.713  1.00  0.00     0.059 A 
ATOM     58  F   UNL     1       2.740  -7.153  -6.497  1.00  0.00    -0.206 F 
ATOM     59  C   UNL     1       3.958 -10.347  -5.335  1.00  0.00     0.060 A 
BRANCH  59  60
ATOM     60  S   UNL     1       3.318 -11.950  -4.803  1.00  0.00     0.124 S 
ATOM     61  O   UNL     1       3.633 -12.787  -5.955  1.00  0.00    -0.237 OA
ATOM     62  O   UNL     1       4.096 -12.211  -3.595  1.00  0.00    -0.237 OA
ATOM     63  O   UNL     1       1.898 -11.691  -4.583  1.00  0.00    -0.744 OA
ENDBRANCH  59  60
ENDBRANCH  27  52
BRANCH  39  64
ATOM     64  C   UNL     1       8.504  -5.647 -11.763  1.00  0.00     0.058 A 
ATOM     65  C   UNL     1       7.664  -6.033 -12.818  1.00  0.00     0.135 A 
ATOM     66  C   UNL     1       9.882  -5.874 -11.894  1.00  0.00     0.135 A 
ATOM     67  F   UNL     1       6.338  -5.845 -12.729  1.00  0.00    -0.206 F 
ATOM     68  C   UNL     1       8.174  -6.625 -13.967  1.00  0.00     0.059 A 
ATOM     69  C   UNL     1      10.416  -6.446 -13.043  1.00  0.00     0.059 A 
ATOM     70  F   UNL     1      10.723  -5.516 -10.911  1.00  0.00    -0.206 F 
ATOM     71  C   UNL     1       9.553  -6.822 -14.072  1.00  0.00     0.060 A 
BRANCH  71  72
ATOM     72  S   UNL     1      10.213  -7.527 -15.596  1.00  0.00     0.124 S 
ATOM     73  O   UNL     1       9.903  -8.942 -15.423  1.00  0.00    -0.237 OA
ATOM     74  O   UNL     1       9.447  -6.830 -16.624  1.00  0.00    -0.237 OA
ATOM     75  O   UNL     1      11.631  -7.183 -15.540  1.00  0.00    -0.744 OA
ENDBRANCH  71  72
ENDBRANCH  39  64
ENDBRANCH  13  14
ENDBRANCH   6   8
ENDBRANCH   5   6
ENDBRANCH   4   5
ENDBRANCH   3   4
ENDBRANCH   2   3
ENDBRANCH   1   2
BRANCH   1  76
ATOM     76  C   UNL     1       1.846  -2.155   2.284  1.00  0.00     0.188 C 
BRANCH  76  77
ATOM     77  O   UNL     1       2.472  -2.827   3.383  1.00  0.00    -0.376 OA
BRANCH  77  78
ATOM     78  C   UNL     1       3.869  -3.074   3.268  1.00  0.00     0.202 C 
BRANCH  78  79
ATOM     79  C   UNL     1       4.296  -4.238   2.369  1.00  0.00     0.261 C 
BRANCH  79  80
ATOM     80  O   UNL     1       3.681  -4.277   1.072  1.00  0.00    -0.458 OA
BRANCH  80  81
ATOM     81  C   UNL     1       2.708  -5.220   0.950  1.00  0.00     0.358 C 
ATOM     82  O   UNL     1       2.257  -5.925   1.840  1.00  0.00    -0.244 OA
BRANCH  81  83
ATOM     83  C   UNL     1       2.382  -5.443  -0.467  1.00  0.00     0.169 A 
ATOM     84  C   UNL     1       2.849  -6.625  -1.017  1.00  0.00     0.147 A 
ATOM     85  N   UNL     1       1.533  -4.588  -1.114  1.00  0.00    -0.220 NA
ATOM     86  N   UNL     1       2.503  -7.013  -2.257  1.00  0.00    -0.258 NA
ATOM     87  C   UNL     1       1.136  -4.995  -2.347  1.00  0.00     0.149 A 
ATOM     88  C   UNL     1       1.640  -6.186  -2.894  1.00  0.00     0.158 A 
BRANCH  87  89
ATOM     89  N   UNL     1       0.232  -4.188  -3.049  1.00  0.00    -0.338 N 
ATOM     90  H   UNL     1       0.159  -3.261  -2.724  1.00  0.00     0.168 HD
BRANCH  89  91
ATOM     91  C   UNL     1      -0.585  -4.503  -4.145  1.00  0.00     0.058 A 
ATOM     92  C   UNL     1      -1.181  -5.759  -4.300  1.00  0.00     0.029 A 
ATOM     93  C   UNL     1      -0.774  -3.601  -5.192  1.00  0.00     0.137 A 
ATOM     94  C   UNL     1      -1.878  -6.075  -5.464  1.00  0.00     0.022 A 
ATOM     95  N   UNL     1      -1.467  -3.866  -6.328  1.00  0.00    -0.263 NA
ATOM     96  C   UNL     1      -1.981  -5.109  -6.447  1.00  0.00     0.111 A 
ENDBRANCH  89  91
ENDBRANCH  87  89
ENDBRANCH  81  83
ENDBRANCH  80  81
ENDBRANCH  79  80
ENDBRANCH  78  79
ENDBRANCH  77  78
ENDBRANCH  76  77
ENDBRANCH   1  76
TORSDOF 22
