REMARK SMILES C[C@@H](C(=O)OCCOCCOCCOC(=O)c1ccc(-c2c3nc(c(-c4c(F)cc(S(=O)(=O)[O-])cc4F)c4ccc([nH]4)c(-c4c(F)cc(S(=O)(=O)[O-])cc4F)c4nc(c(-c5c(F)cc(S(=O)(=O)[O-])cc5F)c5ccc2[nH]5)C=C4)C=C3)cc1)c1cc(C(=O)c2ccccc2)ccc1O
REMARK SMILES IDX 9 1 8 2 7 3 6 4 5 5 3 6 4 7 2 8 1 9 83 10 84 11 96 12 85 13
REMARK SMILES IDX 95 14 94 15 97 16 86 18 87 19 88 20 89 21 93 22 90 23 92 24
REMARK SMILES IDX 91 25 10 26 11 27 12 28 13 29 14 30 15 31 16 32 17 33 18 34
REMARK SMILES IDX 82 35 19 36 81 37 20 38 21 39 22 40 75 41 23 42 80 43 74 44
REMARK SMILES IDX 76 45 24 46 79 47 73 48 72 49 25 51 59 52 38 53 58 54 39 55
REMARK SMILES IDX 42 56 57 57 77 58 40 59 41 60 56 62 78 63 43 64 26 65 27 66
REMARK SMILES IDX 36 67 28 68 29 69 35 70 37 71 30 72 31 73 32 74 33 75 34 76
REMARK SMILES IDX 60 77 61 78 70 79 62 80 63 81 69 82 71 83 64 84 65 85 66 86
REMARK SMILES IDX 67 87 68 88 44 89 45 90 54 91 46 92 47 93 53 94 55 95 48 96
REMARK SMILES IDX 49 97 50 98 51 99 52 100
REMARK H PARENT 97 17 76 50 42 61
REMARK Flexibility Score: inf
ROOT
ATOM      1  C   UNL     1       0.537  -3.575   1.051  1.00  0.00     0.188 C 
ENDROOT
BRANCH   1   2
ATOM      2  O   UNL     1       1.292  -4.755   0.858  1.00  0.00    -0.376 OA
BRANCH   2   3
ATOM      3  C   UNL     1       2.460  -4.705   0.054  1.00  0.00     0.202 C 
BRANCH   3   4
ATOM      4  C   UNL     1       2.571  -3.803  -1.190  1.00  0.00     0.261 C 
BRANCH   4   5
ATOM      5  O   UNL     1       2.027  -2.477  -1.055  1.00  0.00    -0.463 OA
BRANCH   5   6
ATOM      6  C   UNL     1       1.249  -2.036  -2.078  1.00  0.00     0.313 C 
ATOM      7  O   UNL     1       1.070  -2.665  -3.122  1.00  0.00    -0.252 OA
BRANCH   6   8
ATOM      8  C   UNL     1       0.500  -0.728  -1.807  1.00  0.00     0.130 C 
ATOM      9  C   UNL     1       1.264   0.239  -0.881  1.00  0.00     0.025 C 
BRANCH   8  10
ATOM     10  C   UNL     1      -1.001  -0.869  -1.488  1.00  0.00     0.009 A 
ATOM     11  C   UNL     1      -1.728   0.285  -1.093  1.00  0.00     0.020 A 
ATOM     12  C   UNL     1      -1.751  -2.046  -1.632  1.00  0.00     0.119 A 
ATOM     13  C   UNL     1      -3.117   0.261  -0.833  1.00  0.00     0.023 A 
ATOM     14  C   UNL     1      -3.122  -2.085  -1.364  1.00  0.00     0.047 A 
ATOM     15  C   UNL     1      -3.810  -0.938  -0.979  1.00  0.00     0.016 A 
BRANCH  12  16
ATOM     16  O   UNL     1      -1.239  -3.245  -2.034  1.00  0.00    -0.508 OA
ATOM     17  H   UNL     1      -0.328  -3.321  -2.238  1.00  0.00     0.293 HD
ENDBRANCH  12  16
BRANCH  13  18
ATOM     18  C   UNL     1      -3.812   1.540  -0.484  1.00  0.00     0.193 C 
ATOM     19  O   UNL     1      -3.217   2.608  -0.602  1.00  0.00    -0.289 OA
BRANCH  18  20
ATOM     20  C   UNL     1      -5.230   1.562  -0.046  1.00  0.00     0.022 A 
ATOM     21  C   UNL     1      -6.145   2.337  -0.763  1.00  0.00     0.012 A 
ATOM     22  C   UNL     1      -5.657   0.833   1.068  1.00  0.00     0.012 A 
ATOM     23  C   UNL     1      -7.493   2.335  -0.395  1.00  0.00     0.001 A 
ATOM     24  C   UNL     1      -7.005   0.825   1.428  1.00  0.00     0.001 A 
ATOM     25  C   UNL     1      -7.923   1.571   0.691  1.00  0.00     0.000 A 
ENDBRANCH  18  20
ENDBRANCH  13  18
ENDBRANCH   8  10
ENDBRANCH   6   8
ENDBRANCH   5   6
ENDBRANCH   4   5
ENDBRANCH   3   4
ENDBRANCH   2   3
ENDBRANCH   1   2
BRANCH   1  26
ATOM     26  C   UNL     1       1.224  -2.340   1.655  1.00  0.00     0.188 C 
BRANCH  26  27
ATOM     27  O   UNL     1       2.600  -2.384   1.942  1.00  0.00    -0.376 OA
BRANCH  27  28
ATOM     28  C   UNL     1       3.066  -3.119   3.059  1.00  0.00     0.202 C 
BRANCH  28  29
ATOM     29  C   UNL     1       2.200  -3.625   4.232  1.00  0.00     0.261 C 
BRANCH  29  30
ATOM     30  O   UNL     1       0.783  -3.697   4.055  1.00  0.00    -0.460 OA
BRANCH  30  31
ATOM     31  C   UNL     1       0.070  -2.710   4.651  1.00  0.00     0.338 C 
ATOM     32  O   UNL     1       0.511  -1.768   5.295  1.00  0.00    -0.246 OA
BRANCH  31  33
ATOM     33  C   UNL     1      -1.340  -2.822   4.236  1.00  0.00     0.060 A 
ATOM     34  C   UNL     1      -1.865  -1.858   3.366  1.00  0.00     0.016 A 
ATOM     35  C   UNL     1      -2.150  -3.847   4.724  1.00  0.00     0.016 A 
ATOM     36  C   UNL     1      -3.204  -1.915   2.991  1.00  0.00     0.010 A 
ATOM     37  C   UNL     1      -3.506  -3.875   4.376  1.00  0.00     0.010 A 
ATOM     38  C   UNL     1      -4.049  -2.891   3.530  1.00  0.00    -0.014 A 
BRANCH  38  39
ATOM     39  C   UNL     1      -5.521  -2.776   3.361  1.00  0.00     0.031 A 
ATOM     40  C   UNL     1      -6.333  -2.210   4.495  1.00  0.00     0.074 A 
ATOM     41  C   UNL     1      -6.135  -3.146   2.223  1.00  0.00     0.049 A 
ATOM     42  N   UNL     1      -7.631  -2.100   4.613  1.00  0.00    -0.248 NA
ATOM     43  C   UNL     1      -5.578  -1.703   5.652  1.00  0.00     0.031 C 
ATOM     44  C   UNL     1      -5.463  -3.660   1.033  1.00  0.00     0.029 A 
ATOM     45  N   UNL     1      -7.468  -3.156   1.887  1.00  0.00    -0.354 N 
ATOM     46  C   UNL     1      -7.851  -1.551   5.872  1.00  0.00     0.074 A 
ATOM     47  C   UNL     1      -6.552  -1.350   6.477  1.00  0.00     0.031 C 
ATOM     48  C   UNL     1      -6.387  -3.935   0.095  1.00  0.00     0.029 A 
ATOM     49  C   UNL     1      -7.719  -3.672   0.637  1.00  0.00     0.049 A 
ATOM     50  H   UNL     1      -8.176  -2.824   2.486  1.00  0.00     0.167 HD
ATOM     51  C   UNL     1      -9.027  -1.251   6.472  1.00  0.00     0.037 A 
ATOM     52  C   UNL     1      -8.888  -3.938   0.018  1.00  0.00     0.037 A 
ATOM     53  C   UNL     1     -10.319  -1.453   5.868  1.00  0.00     0.049 A 
ATOM     54  C   UNL     1     -10.188  -3.656   0.733  1.00  0.00     0.074 A 
ATOM     55  C   UNL     1     -11.566  -1.158   6.391  1.00  0.00     0.029 A 
ATOM     56  N   UNL     1     -10.534  -2.011   4.617  1.00  0.00    -0.354 N 
ATOM     57  N   UNL     1     -10.383  -3.127   1.918  1.00  0.00    -0.248 NA
ATOM     58  C   UNL     1     -11.428  -4.019   0.030  1.00  0.00     0.031 C 
ATOM     59  C   UNL     1     -12.536  -1.592   5.482  1.00  0.00     0.029 A 
ATOM     60  C   UNL     1     -11.893  -2.093   4.362  1.00  0.00     0.049 A 
ATOM     61  H   UNL     1      -9.824  -2.305   4.000  1.00  0.00     0.167 HD
ATOM     62  C   UNL     1     -11.764  -3.070   2.089  1.00  0.00     0.074 A 
ATOM     63  C   UNL     1     -12.356  -3.604   0.881  1.00  0.00     0.031 C 
ATOM     64  C   UNL     1     -12.477  -2.615   3.150  1.00  0.00     0.037 A 
BRANCH  51  65
ATOM     65  C   UNL     1      -8.976  -0.715   7.877  1.00  0.00     0.058 A 
ATOM     66  C   UNL     1      -8.499   0.574   8.166  1.00  0.00     0.135 A 
ATOM     67  C   UNL     1      -9.443  -1.495   8.948  1.00  0.00     0.135 A 
ATOM     68  F   UNL     1      -8.024   1.355   7.183  1.00  0.00    -0.206 F 
ATOM     69  C   UNL     1      -8.461   1.059   9.469  1.00  0.00     0.059 A 
ATOM     70  C   UNL     1      -9.443  -1.018  10.255  1.00  0.00     0.059 A 
ATOM     71  F   UNL     1      -9.907  -2.735   8.729  1.00  0.00    -0.206 F 
ATOM     72  C   UNL     1      -8.937   0.255  10.507  1.00  0.00     0.060 A 
BRANCH  72  73
ATOM     73  S   UNL     1      -8.885   0.902  12.192  1.00  0.00     0.124 S 
ATOM     74  O   UNL     1      -7.452   0.876  12.469  1.00  0.00    -0.237 OA
ATOM     75  O   UNL     1      -9.476   2.227  12.034  1.00  0.00    -0.237 OA
ATOM     76  O   UNL     1      -9.687  -0.054  12.949  1.00  0.00    -0.744 OA
ENDBRANCH  72  73
ENDBRANCH  51  65
BRANCH  52  77
ATOM     77  C   UNL     1      -8.896  -4.533  -1.348  1.00  0.00     0.058 A 
ATOM     78  C   UNL     1      -9.383  -3.811  -2.448  1.00  0.00     0.135 A 
ATOM     79  C   UNL     1      -8.435  -5.839  -1.579  1.00  0.00     0.135 A 
ATOM     80  F   UNL     1      -9.854  -2.566  -2.278  1.00  0.00    -0.206 F 
ATOM     81  C   UNL     1      -9.425  -4.364  -3.724  1.00  0.00     0.059 A 
ATOM     82  C   UNL     1      -8.437  -6.403  -2.851  1.00  0.00     0.059 A 
ATOM     83  F   UNL     1      -7.957  -6.573  -0.562  1.00  0.00    -0.206 F 
ATOM     84  C   UNL     1      -8.944  -5.661  -3.916  1.00  0.00     0.060 A 
BRANCH  84  85
ATOM     85  S   UNL     1      -8.956  -6.349  -5.586  1.00  0.00     0.124 S 
ATOM     86  O   UNL     1     -10.380  -6.574  -5.801  1.00  0.00    -0.237 OA
ATOM     87  O   UNL     1      -8.355  -5.271  -6.364  1.00  0.00    -0.237 OA
ATOM     88  O   UNL     1      -8.138  -7.552  -5.459  1.00  0.00    -0.744 OA
ENDBRANCH  84  85
ENDBRANCH  52  77
BRANCH  64  89
ATOM     89  C   UNL     1     -13.980  -2.621   3.044  1.00  0.00     0.058 A 
ATOM     90  C   UNL     1     -14.726  -3.810   3.077  1.00  0.00     0.135 A 
ATOM     91  C   UNL     1     -14.688  -1.409   2.968  1.00  0.00     0.135 A 
ATOM     92  F   UNL     1     -14.103  -4.997   3.143  1.00  0.00    -0.206 F 
ATOM     93  C   UNL     1     -16.117  -3.799   3.014  1.00  0.00     0.059 A 
ATOM     94  C   UNL     1     -16.079  -1.373   2.937  1.00  0.00     0.059 A 
ATOM     95  F   UNL     1     -14.027  -0.241   2.945  1.00  0.00    -0.206 F 
ATOM     96  C   UNL     1     -16.785  -2.574   2.949  1.00  0.00     0.060 A 
BRANCH  96  97
ATOM     97  S   UNL     1     -18.590  -2.572   2.902  1.00  0.00     0.124 S 
ATOM     98  O   UNL     1     -18.851  -3.064   1.554  1.00  0.00    -0.237 OA
ATOM     99  O   UNL     1     -18.930  -3.487   3.988  1.00  0.00    -0.237 OA
ATOM    100  O   UNL     1     -18.936  -1.174   3.138  1.00  0.00    -0.744 OA
ENDBRANCH  96  97
ENDBRANCH  64  89
ENDBRANCH  38  39
ENDBRANCH  31  33
ENDBRANCH  30  31
ENDBRANCH  29  30
ENDBRANCH  28  29
ENDBRANCH  27  28
ENDBRANCH  26  27
ENDBRANCH   1  26
TORSDOF 24
