REMARK SMILES O=C(OCCOCCOCCOC(=O)[C@H]1[C@H]2CC[C@H](C2)[C@@H]1C(=O)N1CCN(c2cccc(Cl)c2)CC1)c1ccc(-c2c3nc(c(-c4c(F)cc(S(=O)(=O)[O-])cc4F)c4ccc([nH]4)c(-c4c(F)cc(S(=O)(=O)[O-])cc4F)c4nc(c(-c5c(F)cc(S(=O)(=O)[O-])cc5F)c5ccc2[nH]5)C=C4)C=C3)cc1
REMARK SMILES IDX 7 1 6 2 5 3 4 4 3 5 2 6 1 7 37 8 38 9 102 10 39 11 101 12
REMARK SMILES IDX 40 13 41 14 42 15 95 16 43 17 100 18 94 19 96 20 44 21 99 22
REMARK SMILES IDX 93 23 92 24 45 26 79 27 58 28 78 29 59 30 62 31 77 32 97 33
REMARK SMILES IDX 60 34 61 35 76 37 98 38 63 39 46 40 47 41 56 42 48 43 49 44
REMARK SMILES IDX 55 45 57 46 50 47 51 48 52 49 53 50 54 51 80 52 81 53 90 54
REMARK SMILES IDX 82 55 83 56 89 57 91 58 84 59 85 60 86 61 87 62 88 63 64 64
REMARK SMILES IDX 65 65 74 66 66 67 67 68 73 69 75 70 68 71 69 72 70 73 71 74
REMARK SMILES IDX 72 75 8 76 9 77 10 78 11 79 12 80 13 81 14 82 15 83 16 84
REMARK SMILES IDX 21 85 17 86 20 87 19 88 18 89 22 90 23 91 24 92 25 93 36 94
REMARK SMILES IDX 26 95 35 96 27 97 28 98 29 99 34 100 30 101 32 102 31 103
REMARK SMILES IDX 33 104
REMARK H PARENT 96 25 62 36
REMARK Flexibility Score: inf
ROOT
ATOM      1  C   UNL     1       3.989   3.035   2.426  1.00  0.00     0.188 C 
ENDROOT
BRANCH   1   2
ATOM      2  O   UNL     1       3.643   1.744   1.940  1.00  0.00    -0.376 OA
BRANCH   2   3
ATOM      3  C   UNL     1       4.327   0.634   2.525  1.00  0.00     0.202 C 
BRANCH   3   4
ATOM      4  C   UNL     1       5.874   0.656   2.579  1.00  0.00     0.261 C 
BRANCH   4   5
ATOM      5  O   UNL     1       6.492   1.951   2.428  1.00  0.00    -0.460 OA
BRANCH   5   6
ATOM      6  C   UNL     1       7.032   2.510   1.306  1.00  0.00     0.338 C 
ATOM      7  O   UNL     1       7.759   3.485   1.413  1.00  0.00    -0.246 OA
BRANCH   6   8
ATOM      8  C   UNL     1       6.758   1.940  -0.044  1.00  0.00     0.060 A 
ATOM      9  C   UNL     1       5.634   1.175  -0.325  1.00  0.00     0.016 A 
ATOM     10  C   UNL     1       7.626   2.219  -1.099  1.00  0.00     0.016 A 
ATOM     11  C   UNL     1       5.472   0.481  -1.501  1.00  0.00     0.010 A 
ATOM     12  C   UNL     1       7.383   1.658  -2.358  1.00  0.00     0.010 A 
ATOM     13  C   UNL     1       6.335   0.728  -2.546  1.00  0.00    -0.014 A 
BRANCH  13  14
ATOM     14  C   UNL     1       6.204  -0.076  -3.781  1.00  0.00     0.031 A 
ATOM     15  C   UNL     1       7.440  -0.818  -4.188  1.00  0.00     0.074 A 
ATOM     16  C   UNL     1       5.034  -0.178  -4.455  1.00  0.00     0.049 A 
ATOM     17  N   UNL     1       7.749  -1.352  -5.331  1.00  0.00    -0.248 NA
ATOM     18  C   UNL     1       8.497  -0.936  -3.161  1.00  0.00     0.031 C 
ATOM     19  C   UNL     1       3.745   0.398  -4.040  1.00  0.00     0.029 A 
ATOM     20  N   UNL     1       4.733  -0.766  -5.660  1.00  0.00    -0.354 N 
ATOM     21  C   UNL     1       9.031  -1.858  -5.155  1.00  0.00     0.074 A 
ATOM     22  C   UNL     1       9.496  -1.446  -3.856  1.00  0.00     0.031 C 
ATOM     23  C   UNL     1       2.821   0.180  -4.989  1.00  0.00     0.029 A 
ATOM     24  C   UNL     1       3.455  -0.484  -6.114  1.00  0.00     0.049 A 
ATOM     25  H   UNL     1       5.366  -1.335  -6.154  1.00  0.00     0.167 HD
ATOM     26  C   UNL     1       9.722  -2.671  -5.981  1.00  0.00     0.037 A 
ATOM     27  C   UNL     1       2.899  -0.678  -7.329  1.00  0.00     0.037 A 
ATOM     28  C   UNL     1       9.188  -3.095  -7.240  1.00  0.00     0.049 A 
ATOM     29  C   UNL     1       3.777  -1.417  -8.332  1.00  0.00     0.074 A 
ATOM     30  C   UNL     1       9.748  -3.922  -8.189  1.00  0.00     0.029 A 
ATOM     31  N   UNL     1       7.934  -2.716  -7.710  1.00  0.00    -0.354 N 
ATOM     32  N   UNL     1       5.026  -1.822  -8.190  1.00  0.00    -0.248 NA
ATOM     33  C   UNL     1       3.200  -1.746  -9.639  1.00  0.00     0.031 C 
ATOM     34  C   UNL     1       8.845  -4.012  -9.254  1.00  0.00     0.029 A 
ATOM     35  C   UNL     1       7.697  -3.295  -8.937  1.00  0.00     0.049 A 
ATOM     36  H   UNL     1       7.308  -2.122  -7.236  1.00  0.00     0.167 HD
ATOM     37  C   UNL     1       5.352  -2.501  -9.360  1.00  0.00     0.074 A 
ATOM     38  C   UNL     1       4.185  -2.420 -10.215  1.00  0.00     0.031 C 
ATOM     39  C   UNL     1       6.485  -3.165  -9.708  1.00  0.00     0.037 A 
BRANCH  26  40
ATOM     40  C   UNL     1      11.070  -3.138  -5.511  1.00  0.00     0.058 A 
ATOM     41  C   UNL     1      11.208  -3.979  -4.391  1.00  0.00     0.135 A 
ATOM     42  C   UNL     1      12.242  -2.686  -6.134  1.00  0.00     0.135 A 
ATOM     43  F   UNL     1      10.121  -4.416  -3.733  1.00  0.00    -0.206 F 
ATOM     44  C   UNL     1      12.457  -4.310  -3.876  1.00  0.00     0.059 A 
ATOM     45  C   UNL     1      13.503  -3.033  -5.655  1.00  0.00     0.059 A 
ATOM     46  F   UNL     1      12.171  -1.870  -7.197  1.00  0.00    -0.206 F 
ATOM     47  C   UNL     1      13.599  -3.827  -4.513  1.00  0.00     0.060 A 
BRANCH  47  48
ATOM     48  S   UNL     1      15.211  -4.250  -3.820  1.00  0.00     0.124 S 
ATOM     49  O   UNL     1      15.238  -3.423  -2.617  1.00  0.00    -0.237 OA
ATOM     50  O   UNL     1      15.087  -5.687  -3.596  1.00  0.00    -0.237 OA
ATOM     51  O   UNL     1      16.145  -3.860  -4.871  1.00  0.00    -0.744 OA
ENDBRANCH  47  48
ENDBRANCH  26  40
BRANCH  27  52
ATOM     52  C   UNL     1       1.540  -0.120  -7.697  1.00  0.00     0.058 A 
ATOM     53  C   UNL     1       0.532  -0.913  -8.267  1.00  0.00     0.135 A 
ATOM     54  C   UNL     1       1.227   1.252  -7.570  1.00  0.00     0.135 A 
ATOM     55  F   UNL     1       0.692  -2.244  -8.342  1.00  0.00    -0.206 F 
ATOM     56  C   UNL     1      -0.643  -0.369  -8.800  1.00  0.00     0.059 A 
ATOM     57  C   UNL     1       0.062   1.821  -8.081  1.00  0.00     0.059 A 
ATOM     58  F   UNL     1       2.037   2.084  -6.903  1.00  0.00    -0.206 F 
ATOM     59  C   UNL     1      -0.859   1.005  -8.722  1.00  0.00     0.060 A 
BRANCH  59  60
ATOM     60  S   UNL     1      -2.339   1.721  -9.470  1.00  0.00     0.124 S 
ATOM     61  O   UNL     1      -2.315   1.149 -10.811  1.00  0.00    -0.237 OA
ATOM     62  O   UNL     1      -3.385   1.225  -8.581  1.00  0.00    -0.237 OA
ATOM     63  O   UNL     1      -2.091   3.159  -9.401  1.00  0.00    -0.744 OA
ENDBRANCH  59  60
ENDBRANCH  27  52
BRANCH  39  64
ATOM     64  C   UNL     1       6.443  -3.939 -10.992  1.00  0.00     0.058 A 
ATOM     65  C   UNL     1       6.578  -3.327 -12.244  1.00  0.00     0.135 A 
ATOM     66  C   UNL     1       6.340  -5.339 -10.939  1.00  0.00     0.135 A 
ATOM     67  F   UNL     1       6.674  -1.992 -12.339  1.00  0.00    -0.206 F 
ATOM     68  C   UNL     1       6.593  -4.082 -13.411  1.00  0.00     0.059 A 
ATOM     69  C   UNL     1       6.384  -6.113 -12.088  1.00  0.00     0.059 A 
ATOM     70  F   UNL     1       6.225  -5.965  -9.757  1.00  0.00    -0.206 F 
ATOM     71  C   UNL     1       6.499  -5.474 -13.321  1.00  0.00     0.060 A 
BRANCH  71  72
ATOM     72  S   UNL     1       6.556  -6.448 -14.838  1.00  0.00     0.124 S 
ATOM     73  O   UNL     1       5.237  -6.185 -15.403  1.00  0.00    -0.237 OA
ATOM     74  O   UNL     1       7.683  -5.852 -15.549  1.00  0.00    -0.237 OA
ATOM     75  O   UNL     1       6.774  -7.809 -14.358  1.00  0.00    -0.744 OA
ENDBRANCH  71  72
ENDBRANCH  39  64
ENDBRANCH  13  14
ENDBRANCH   6   8
ENDBRANCH   5   6
ENDBRANCH   4   5
ENDBRANCH   3   4
ENDBRANCH   2   3
ENDBRANCH   1   2
BRANCH   1  76
ATOM     76  C   UNL     1       2.815   4.005   2.548  1.00  0.00     0.188 C 
BRANCH  76  77
ATOM     77  O   UNL     1       1.610   3.531   3.130  1.00  0.00    -0.376 OA
BRANCH  77  78
ATOM     78  C   UNL     1       1.078   2.307   2.642  1.00  0.00     0.202 C 
BRANCH  78  79
ATOM     79  C   UNL     1       0.721   2.132   1.146  1.00  0.00     0.261 C 
BRANCH  79  80
ATOM     80  O   UNL     1       1.544   2.753   0.132  1.00  0.00    -0.463 OA
BRANCH  80  81
ATOM     81  C   UNL     1       1.118   4.001  -0.215  1.00  0.00     0.310 C 
ATOM     82  O   UNL     1       0.305   4.615   0.464  1.00  0.00    -0.252 OA
BRANCH  81  83
ATOM     83  C   UNL     1       1.692   4.504  -1.547  1.00  0.00     0.115 C 
ATOM     84  C   UNL     1       0.638   5.418  -2.262  1.00  0.00     0.004 C 
ATOM     85  C   UNL     1       2.946   5.432  -1.500  1.00  0.00     0.096 C 
ATOM     86  C   UNL     1       0.182   6.641  -1.437  1.00  0.00     0.005 C 
ATOM     87  C   UNL     1       1.518   6.153  -3.265  1.00  0.00     0.009 C 
ATOM     88  C   UNL     1       2.452   6.712  -2.180  1.00  0.00     0.003 C 
ATOM     89  C   UNL     1       1.474   7.433  -1.240  1.00  0.00     0.005 C 
BRANCH  85  90
ATOM     90  C   UNL     1       4.217   4.824  -2.134  1.00  0.00     0.226 C 
ATOM     91  O   UNL     1       4.998   4.261  -1.355  1.00  0.00    -0.275 OA
ATOM     92  N   UNL     1       4.415   4.738  -3.513  1.00  0.00    -0.339 N 
ATOM     93  C   UNL     1       5.223   3.606  -3.965  1.00  0.00     0.141 C 
ATOM     94  C   UNL     1       4.512   5.860  -4.474  1.00  0.00     0.141 C 
ATOM     95  C   UNL     1       4.912   3.159  -5.403  1.00  0.00     0.138 C 
ATOM     96  C   UNL     1       4.203   5.444  -5.939  1.00  0.00     0.138 C 
ATOM     97  N   UNL     1       5.033   4.290  -6.331  1.00  0.00    -0.368 N 
BRANCH  97  98
ATOM     98  C   UNL     1       5.114   4.016  -7.698  1.00  0.00     0.038 A 
ATOM     99  C   UNL     1       5.842   4.871  -8.533  1.00  0.00     0.026 A 
ATOM    100  C   UNL     1       4.502   2.910  -8.302  1.00  0.00     0.046 A 
ATOM    101  C   UNL     1       5.946   4.641  -9.911  1.00  0.00     0.004 A 
ATOM    102  C   UNL     1       4.535   2.722  -9.685  1.00  0.00     0.043 A 
ATOM    103  C   UNL     1       5.273   3.574 -10.492  1.00  0.00     0.020 A 
ATOM    104  Cl  UNL     1       3.620   1.469 -10.421  1.00  0.00    -0.084 Cl
ENDBRANCH  97  98
ENDBRANCH  85  90
ENDBRANCH  81  83
ENDBRANCH  80  81
ENDBRANCH  79  80
ENDBRANCH  78  79
ENDBRANCH  77  78
ENDBRANCH  76  77
ENDBRANCH   1  76
TORSDOF 22
