REMARK SMILES Cc1ccc2c(c1C)O[C@@H](C(=O)OCCOCCOCCOC(=O)c1ccc(-c3c4nc(c(-c5c(F)cc(S(=O)(=O)[O-])cc5F)c5ccc([nH]5)c(-c5c(F)cc(S(=O)(=O)[O-])cc5F)c5nc(c(-c6c(F)cc(S(=O)(=O)[O-])cc6F)c6ccc3[nH]6)C=C5)C=C4)cc1)CC2=O
REMARK SMILES IDX 19 1 18 2 17 3 16 4 15 5 14 6 13 7 11 8 12 9 10 10 1 11 2 12
REMARK SMILES IDX 3 13 7 14 4 15 6 16 8 17 5 18 9 19 92 20 91 21 93 22 20 23
REMARK SMILES IDX 21 24 22 25 23 26 24 27 25 28 26 29 90 30 27 31 89 32 28 33
REMARK SMILES IDX 29 34 30 35 83 36 31 37 88 38 82 39 84 40 32 41 87 42 81 43
REMARK SMILES IDX 80 44 33 46 67 47 46 48 66 49 47 50 50 51 65 52 85 53 48 54
REMARK SMILES IDX 49 55 64 57 86 58 51 59 34 60 35 61 44 62 36 63 37 64 43 65
REMARK SMILES IDX 45 66 38 67 39 68 40 69 41 70 42 71 68 72 69 73 78 74 70 75
REMARK SMILES IDX 71 76 77 77 79 78 72 79 73 80 74 81 75 82 76 83 52 84 53 85
REMARK SMILES IDX 62 86 54 87 55 88 61 89 63 90 56 91 57 92 58 93 59 94 60 95
REMARK H PARENT 84 45 50 56
REMARK Flexibility Score: inf
ROOT
ATOM      1  O   UNL     1       1.873   2.067  -7.989  1.00  0.00    -0.376 OA
ENDROOT
BRANCH   1   2
ATOM      2  C   UNL     1       1.726   3.476  -7.966  1.00  0.00     0.188 C 
BRANCH   2   3
ATOM      3  C   UNL     1       2.806   4.275  -7.232  1.00  0.00     0.188 C 
BRANCH   3   4
ATOM      4  O   UNL     1       4.091   3.687  -7.138  1.00  0.00    -0.376 OA
BRANCH   4   5
ATOM      5  C   UNL     1       4.165   2.398  -6.537  1.00  0.00     0.202 C 
BRANCH   5   6
ATOM      6  C   UNL     1       3.523   2.227  -5.150  1.00  0.00     0.261 C 
BRANCH   6   7
ATOM      7  O   UNL     1       2.121   2.586  -5.052  1.00  0.00    -0.460 OA
BRANCH   7   8
ATOM      8  C   UNL     1       1.838   3.603  -4.189  1.00  0.00     0.347 C 
ATOM      9  O   UNL     1       2.689   4.224  -3.558  1.00  0.00    -0.248 OA
BRANCH   8  10
ATOM     10  C   UNL     1       0.336   3.888  -3.993  1.00  0.00     0.290 C 
ATOM     11  C   UNL     1       1.114  -0.274   0.222  1.00  0.00     0.045 C 
ATOM     12  C   UNL     1       0.561   0.315  -1.044  1.00  0.00    -0.044 A 
ATOM     13  C   UNL     1       0.114  -0.559  -2.056  1.00  0.00     0.005 A 
ATOM     14  C   UNL     1       0.520   1.707  -1.256  1.00  0.00    -0.005 A 
ATOM     15  C   UNL     1      -0.371  -0.071  -3.268  1.00  0.00     0.016 A 
ATOM     16  C   UNL     1       0.014   2.182  -2.473  1.00  0.00     0.134 A 
ATOM     17  C   UNL     1       1.080   2.710  -0.279  1.00  0.00     0.049 C 
ATOM     18  C   UNL     1      -0.413   1.303  -3.472  1.00  0.00     0.060 A 
ATOM     19  O   UNL     1      -0.015   3.546  -2.649  1.00  0.00    -0.477 OA
ATOM     20  C   UNL     1      -0.857   1.856  -4.764  1.00  0.00     0.170 C 
ATOM     21  C   UNL     1      -0.722   3.341  -4.932  1.00  0.00     0.138 C 
ATOM     22  O   UNL     1      -1.353   1.137  -5.625  1.00  0.00    -0.294 OA
ENDBRANCH   8  10
ENDBRANCH   7   8
ENDBRANCH   6   7
ENDBRANCH   5   6
ENDBRANCH   4   5
ENDBRANCH   3   4
ENDBRANCH   2   3
ENDBRANCH   1   2
BRANCH   1  23
ATOM     23  C   UNL     1       1.040   1.375  -8.925  1.00  0.00     0.202 C 
BRANCH  23  24
ATOM     24  C   UNL     1       1.336   1.670 -10.414  1.00  0.00     0.261 C 
BRANCH  24  25
ATOM     25  O   UNL     1       1.156   3.036 -10.855  1.00  0.00    -0.460 OA
BRANCH  25  26
ATOM     26  C   UNL     1      -0.027   3.642 -10.587  1.00  0.00     0.338 C 
ATOM     27  O   UNL     1      -1.051   3.092 -10.215  1.00  0.00    -0.246 OA
BRANCH  26  28
ATOM     28  C   UNL     1       0.204   5.113 -10.518  1.00  0.00     0.060 A 
ATOM     29  C   UNL     1      -0.278   5.813  -9.399  1.00  0.00     0.016 A 
ATOM     30  C   UNL     1       0.953   5.790 -11.485  1.00  0.00     0.016 A 
ATOM     31  C   UNL     1      -0.038   7.185  -9.258  1.00  0.00     0.010 A 
ATOM     32  C   UNL     1       1.160   7.171 -11.362  1.00  0.00     0.010 A 
ATOM     33  C   UNL     1       0.642   7.882 -10.264  1.00  0.00    -0.014 A 
BRANCH  33  34
ATOM     34  C   UNL     1       0.603   9.369 -10.308  1.00  0.00     0.031 A 
ATOM     35  C   UNL     1      -0.530  10.015 -11.063  1.00  0.00     0.074 A 
ATOM     36  C   UNL     1       1.536  10.140  -9.718  1.00  0.00     0.049 A 
ATOM     37  N   UNL     1      -0.737  11.276 -11.339  1.00  0.00    -0.248 NA
ATOM     38  C   UNL     1      -1.570   9.108 -11.577  1.00  0.00     0.031 C 
ATOM     39  C   UNL     1       2.648   9.656  -8.905  1.00  0.00     0.029 A 
ATOM     40  N   UNL     1       1.697  11.507  -9.728  1.00  0.00    -0.354 N 
ATOM     41  C   UNL     1      -1.928  11.315 -12.054  1.00  0.00     0.074 A 
ATOM     42  C   UNL     1      -2.384   9.950 -12.195  1.00  0.00     0.031 C 
ATOM     43  C   UNL     1       3.388  10.709  -8.509  1.00  0.00     0.029 A 
ATOM     44  C   UNL     1       2.825  11.938  -9.070  1.00  0.00     0.049 A 
ATOM     45  H   UNL     1       1.062  12.119 -10.166  1.00  0.00     0.167 HD
ATOM     46  C   UNL     1      -2.588  12.389 -12.547  1.00  0.00     0.037 A 
ATOM     47  C   UNL     1       3.355  13.175  -8.958  1.00  0.00     0.037 A 
ATOM     48  C   UNL     1      -2.125  13.746 -12.432  1.00  0.00     0.049 A 
ATOM     49  C   UNL     1       2.662  14.348  -9.612  1.00  0.00     0.074 A 
ATOM     50  C   UNL     1      -2.720  14.899 -12.912  1.00  0.00     0.029 A 
ATOM     51  N   UNL     1      -0.952  14.133 -11.802  1.00  0.00    -0.354 N 
ATOM     52  N   UNL     1       1.538  14.372 -10.289  1.00  0.00    -0.248 NA
ATOM     53  C   UNL     1       3.312  15.663  -9.490  1.00  0.00     0.031 C 
ATOM     54  C   UNL     1      -1.880  15.978 -12.620  1.00  0.00     0.029 A 
ATOM     55  C   UNL     1      -0.793  15.506 -11.903  1.00  0.00     0.049 A 
ATOM     56  H   UNL     1      -0.325  13.524 -11.351  1.00  0.00     0.167 HD
ATOM     57  C   UNL     1       1.332  15.703 -10.645  1.00  0.00     0.074 A 
ATOM     58  C   UNL     1       2.443  16.456 -10.103  1.00  0.00     0.031 C 
ATOM     59  C   UNL     1       0.313  16.251 -11.355  1.00  0.00     0.037 A 
BRANCH  46  60
ATOM     60  C   UNL     1      -3.876  12.136 -13.279  1.00  0.00     0.058 A 
ATOM     61  C   UNL     1      -5.041  11.739 -12.603  1.00  0.00     0.135 A 
ATOM     62  C   UNL     1      -3.960  12.336 -14.667  1.00  0.00     0.135 A 
ATOM     63  F   UNL     1      -5.010  11.509 -11.281  1.00  0.00    -0.206 F 
ATOM     64  C   UNL     1      -6.239  11.534 -13.279  1.00  0.00     0.059 A 
ATOM     65  C   UNL     1      -5.154  12.166 -15.359  1.00  0.00     0.059 A 
ATOM     66  F   UNL     1      -2.874  12.709 -15.363  1.00  0.00    -0.206 F 
ATOM     67  C   UNL     1      -6.287  11.756 -14.656  1.00  0.00     0.060 A 
BRANCH  67  68
ATOM     68  S   UNL     1      -7.856  11.505 -15.511  1.00  0.00     0.124 S 
ATOM     69  O   UNL     1      -8.014  10.057 -15.413  1.00  0.00    -0.237 OA
ATOM     70  O   UNL     1      -8.777  12.299 -14.704  1.00  0.00    -0.237 OA
ATOM     71  O   UNL     1      -7.600  12.017 -16.854  1.00  0.00    -0.744 OA
ENDBRANCH  67  68
ENDBRANCH  46  60
BRANCH  47  72
ATOM     72  C   UNL     1       4.620  13.381  -8.197  1.00  0.00     0.058 A 
ATOM     73  C   UNL     1       4.628  14.085  -6.984  1.00  0.00     0.135 A 
ATOM     74  C   UNL     1       5.847  12.884  -8.668  1.00  0.00     0.135 A 
ATOM     75  F   UNL     1       3.487  14.602  -6.502  1.00  0.00    -0.206 F 
ATOM     76  C   UNL     1       5.801  14.290  -6.264  1.00  0.00     0.059 A 
ATOM     77  C   UNL     1       7.030  13.053  -7.953  1.00  0.00     0.059 A 
ATOM     78  F   UNL     1       5.899  12.207  -9.825  1.00  0.00    -0.206 F 
ATOM     79  C   UNL     1       6.997  13.761  -6.753  1.00  0.00     0.060 A 
BRANCH  79  80
ATOM     80  S   UNL     1       8.500  13.979  -5.774  1.00  0.00     0.124 S 
ATOM     81  O   UNL     1       8.726  15.415  -5.892  1.00  0.00    -0.237 OA
ATOM     82  O   UNL     1       8.077  13.505  -4.460  1.00  0.00    -0.237 OA
ATOM     83  O   UNL     1       9.472  13.130  -6.456  1.00  0.00    -0.744 OA
ENDBRANCH  79  80
ENDBRANCH  47  72
BRANCH  59  84
ATOM     84  C   UNL     1       0.319  17.743 -11.566  1.00  0.00     0.058 A 
ATOM     85  C   UNL     1       1.224  18.365 -12.440  1.00  0.00     0.135 A 
ATOM     86  C   UNL     1      -0.648  18.553 -10.945  1.00  0.00     0.135 A 
ATOM     87  F   UNL     1       2.170  17.642 -13.060  1.00  0.00    -0.206 F 
ATOM     88  C   UNL     1       1.185  19.737 -12.673  1.00  0.00     0.059 A 
ATOM     89  C   UNL     1      -0.725  19.921 -11.187  1.00  0.00     0.059 A 
ATOM     90  F   UNL     1      -1.550  18.010 -10.111  1.00  0.00    -0.206 F 
ATOM     91  C   UNL     1       0.203  20.506 -12.046  1.00  0.00     0.060 A 
BRANCH  91  92
ATOM     92  S   UNL     1       0.146  22.279 -12.386  1.00  0.00     0.124 S 
ATOM     93  O   UNL     1       1.355  22.747 -11.714  1.00  0.00    -0.237 OA
ATOM     94  O   UNL     1       0.177  22.316 -13.845  1.00  0.00    -0.237 OA
ATOM     95  O   UNL     1      -1.112  22.704 -11.779  1.00  0.00    -0.744 OA
ENDBRANCH  91  92
ENDBRANCH  59  84
ENDBRANCH  33  34
ENDBRANCH  26  28
ENDBRANCH  25  26
ENDBRANCH  24  25
ENDBRANCH  23  24
ENDBRANCH   1  23
TORSDOF 20
