REMARK SMILES Cc1ccn(CC(=O)N2CCC3(CC2)NC(=O)C[C@@H]3C(=O)OCCOCCOCCOC(=O)c2ccc(-c3c4nc(c(-c5c(F)cc(S(=O)(=O)[O-])cc5F)c5ccc([nH]5)c(-c5c(F)cc(S(=O)(=O)[O-])cc5F)c5nc(c(-c6c(F)cc(S(=O)(=O)[O-])cc6F)c6ccc3[nH]6)C=C5)C=C4)cc2)n1
REMARK SMILES IDX 27 1 26 2 25 3 24 4 23 5 22 6 20 7 21 8 19 9 7 10 8 11 9 12
REMARK SMILES IDX 10 13 14 14 11 15 13 16 12 17 15 18 16 19 18 21 17 22 6 23
REMARK SMILES IDX 5 24 1 25 2 26 3 27 100 28 4 29 28 30 29 31 30 32 31 33
REMARK SMILES IDX 32 34 33 35 34 36 35 37 99 38 36 39 98 40 37 41 38 42 39 43
REMARK SMILES IDX 92 44 40 45 97 46 91 47 93 48 41 49 96 50 90 51 89 52 42 54
REMARK SMILES IDX 76 55 55 56 75 57 56 58 59 59 74 60 94 61 57 62 58 63 73 65
REMARK SMILES IDX 95 66 60 67 43 68 44 69 53 70 45 71 46 72 52 73 54 74 47 75
REMARK SMILES IDX 48 76 49 77 50 78 51 79 77 80 78 81 87 82 79 83 80 84 86 85
REMARK SMILES IDX 88 86 81 87 82 88 83 89 84 90 85 91 61 92 62 93 71 94 63 95
REMARK SMILES IDX 64 96 70 97 72 98 65 99 66 100 67 101 68 102 69 103
REMARK H PARENT 15 20 93 53 59 64
REMARK Flexibility Score: inf
ROOT
ATOM      1  C   UNL     1       0.169  -4.333  -6.789  1.00  0.00     0.188 C 
ENDROOT
BRANCH   1   2
ATOM      2  C   UNL     1      -0.209  -5.418  -5.756  1.00  0.00     0.188 C 
BRANCH   2   3
ATOM      3  O   UNL     1      -0.564  -6.689  -6.279  1.00  0.00    -0.376 OA
BRANCH   3   4
ATOM      4  C   UNL     1      -1.957  -7.002  -6.218  1.00  0.00     0.202 C 
BRANCH   4   5
ATOM      5  C   UNL     1      -2.812  -6.201  -7.206  1.00  0.00     0.261 C 
BRANCH   5   6
ATOM      6  O   UNL     1      -2.753  -4.793  -6.919  1.00  0.00    -0.463 OA
BRANCH   6   7
ATOM      7  C   UNL     1      -3.622  -4.290  -6.002  1.00  0.00     0.311 C 
ATOM      8  O   UNL     1      -4.577  -4.899  -5.553  1.00  0.00    -0.252 OA
BRANCH   7   9
ATOM      9  C   UNL     1      -3.167  -2.885  -5.637  1.00  0.00     0.134 C 
ATOM     10  C   UNL     1      -2.331  -4.511  -0.853  1.00  0.00     0.244 C 
ATOM     11  O   UNL     1      -2.598  -5.716  -0.814  1.00  0.00    -0.273 OA
ATOM     12  N   UNL     1      -2.727  -3.728  -1.940  1.00  0.00    -0.341 N 
ATOM     13  C   UNL     1      -3.890  -4.182  -2.690  1.00  0.00     0.122 C 
ATOM     14  C   UNL     1      -1.756  -2.961  -2.711  1.00  0.00     0.122 C 
ATOM     15  C   UNL     1      -4.576  -3.019  -3.409  1.00  0.00     0.051 C 
ATOM     16  C   UNL     1      -2.399  -1.795  -3.449  1.00  0.00     0.051 C 
ATOM     17  C   UNL     1      -3.620  -2.222  -4.309  1.00  0.00     0.057 C 
ATOM     18  N   UNL     1      -4.272  -1.006  -4.764  1.00  0.00    -0.350 N 
ATOM     19  C   UNL     1      -4.208  -0.774  -6.111  1.00  0.00     0.221 C 
ATOM     20  H   UNL     1      -4.728  -0.391  -4.145  1.00  0.00     0.164 HD
ATOM     21  C   UNL     1      -3.558  -1.941  -6.780  1.00  0.00     0.117 C 
ATOM     22  O   UNL     1      -4.623   0.229  -6.664  1.00  0.00    -0.275 OA
BRANCH  10  23
ATOM     23  C   UNL     1      -1.831  -3.807   0.392  1.00  0.00     0.244 C 
BRANCH  23  24
ATOM     24  N   UNL     1      -0.563  -3.127   0.258  1.00  0.00    -0.263 N 
ATOM     25  C   UNL     1       1.189  -0.060   0.066  1.00  0.00     0.069 C 
ATOM     26  C   UNL     1       0.761  -1.477   0.138  1.00  0.00     0.059 A 
ATOM     27  C   UNL     1       1.560  -2.641   0.072  1.00  0.00     0.045 A 
ATOM     28  N   UNL     1      -0.536  -1.778   0.271  1.00  0.00    -0.178 NA
ATOM     29  C   UNL     1       0.675  -3.690   0.167  1.00  0.00     0.109 A 
ENDBRANCH  23  24
ENDBRANCH  10  23
ENDBRANCH   7   9
ENDBRANCH   6   7
ENDBRANCH   5   6
ENDBRANCH   4   5
ENDBRANCH   3   4
ENDBRANCH   2   3
ENDBRANCH   1   2
BRANCH   1  30
ATOM     30  O   UNL     1       0.130  -4.562  -8.190  1.00  0.00    -0.376 OA
BRANCH  30  31
ATOM     31  C   UNL     1       0.530  -5.803  -8.750  1.00  0.00     0.202 C 
BRANCH  31  32
ATOM     32  C   UNL     1       1.952  -6.303  -8.542  1.00  0.00     0.261 C 
BRANCH  32  33
ATOM     33  O   UNL     1       2.370  -6.243  -7.191  1.00  0.00    -0.460 OA
BRANCH  33  34
ATOM     34  C   UNL     1       3.073  -5.128  -6.897  1.00  0.00     0.338 C 
ATOM     35  O   UNL     1       3.249  -4.155  -7.609  1.00  0.00    -0.246 OA
BRANCH  34  36
ATOM     36  C   UNL     1       3.667  -5.279  -5.566  1.00  0.00     0.060 A 
ATOM     37  C   UNL     1       4.382  -4.179  -5.087  1.00  0.00     0.016 A 
ATOM     38  C   UNL     1       3.772  -6.554  -4.993  1.00  0.00     0.016 A 
ATOM     39  C   UNL     1       5.414  -4.415  -4.214  1.00  0.00     0.010 A 
ATOM     40  C   UNL     1       4.814  -6.792  -4.134  1.00  0.00     0.010 A 
ATOM     41  C   UNL     1       5.680  -5.737  -3.850  1.00  0.00    -0.014 A 
BRANCH  41  42
ATOM     42  C   UNL     1       6.950  -6.002  -3.217  1.00  0.00     0.031 A 
ATOM     43  C   UNL     1       6.969  -5.735  -1.771  1.00  0.00     0.074 A 
ATOM     44  C   UNL     1       7.972  -6.537  -3.911  1.00  0.00     0.049 A 
ATOM     45  N   UNL     1       7.639  -4.833  -1.136  1.00  0.00    -0.248 NA
ATOM     46  C   UNL     1       6.002  -6.471  -0.943  1.00  0.00     0.031 C 
ATOM     47  C   UNL     1       7.928  -7.107  -5.263  1.00  0.00     0.029 A 
ATOM     48  N   UNL     1       9.241  -6.801  -3.503  1.00  0.00    -0.354 N 
ATOM     49  C   UNL     1       7.369  -5.068   0.206  1.00  0.00     0.074 A 
ATOM     50  C   UNL     1       6.208  -5.918   0.250  1.00  0.00     0.031 C 
ATOM     51  C   UNL     1       9.041  -7.845  -5.463  1.00  0.00     0.029 A 
ATOM     52  C   UNL     1       9.913  -7.712  -4.307  1.00  0.00     0.049 A 
ATOM     53  H   UNL     1       9.648  -6.385  -2.709  1.00  0.00     0.167 HD
ATOM     54  C   UNL     1       8.298  -4.810   1.163  1.00  0.00     0.037 A 
ATOM     55  C   UNL     1      11.046  -8.384  -3.984  1.00  0.00     0.037 A 
ATOM     56  C   UNL     1       9.297  -3.878   0.702  1.00  0.00     0.049 A 
ATOM     57  C   UNL     1      11.695  -7.650  -2.864  1.00  0.00     0.074 A 
ATOM     58  C   UNL     1       9.259  -2.608   0.158  1.00  0.00     0.029 A 
ATOM     59  N   UNL     1      10.559  -4.357   0.444  1.00  0.00    -0.354 N 
ATOM     60  N   UNL     1      12.239  -6.468  -2.970  1.00  0.00    -0.248 NA
ATOM     61  C   UNL     1      11.381  -8.063  -1.502  1.00  0.00     0.031 C 
ATOM     62  C   UNL     1      10.329  -2.566  -0.781  1.00  0.00     0.029 A 
ATOM     63  C   UNL     1      10.983  -3.797  -0.734  1.00  0.00     0.049 A 
ATOM     64  H   UNL     1      11.067  -4.987   1.004  1.00  0.00     0.167 HD
ATOM     65  C   UNL     1      11.957  -5.833  -1.769  1.00  0.00     0.074 A 
ATOM     66  C   UNL     1      11.533  -6.899  -0.868  1.00  0.00     0.031 C 
ATOM     67  C   UNL     1      11.820  -4.476  -1.700  1.00  0.00     0.037 A 
BRANCH  54  68
ATOM     68  C   UNL     1       8.507  -5.714   2.353  1.00  0.00     0.058 A 
ATOM     69  C   UNL     1       9.334  -5.282   3.406  1.00  0.00     0.135 A 
ATOM     70  C   UNL     1       8.163  -7.087   2.369  1.00  0.00     0.135 A 
ATOM     71  F   UNL     1       9.735  -4.002   3.477  1.00  0.00    -0.206 F 
ATOM     72  C   UNL     1       9.844  -6.163   4.359  1.00  0.00     0.059 A 
ATOM     73  C   UNL     1       8.604  -7.967   3.345  1.00  0.00     0.059 A 
ATOM     74  F   UNL     1       7.470  -7.669   1.383  1.00  0.00    -0.206 F 
ATOM     75  C   UNL     1       9.486  -7.507   4.306  1.00  0.00     0.060 A 
BRANCH  75  76
ATOM     76  S   UNL     1      10.244  -8.677   5.444  1.00  0.00     0.124 S 
ATOM     77  O   UNL     1      11.592  -8.769   4.898  1.00  0.00    -0.237 OA
ATOM     78  O   UNL     1      10.113  -7.986   6.722  1.00  0.00    -0.237 OA
ATOM     79  O   UNL     1       9.415  -9.870   5.295  1.00  0.00    -0.744 OA
ENDBRANCH  75  76
ENDBRANCH  54  68
BRANCH  55  80
ATOM     80  C   UNL     1      11.421  -9.775  -4.356  1.00  0.00     0.058 A 
ATOM     81  C   UNL     1      12.718 -10.262  -4.116  1.00  0.00     0.135 A 
ATOM     82  C   UNL     1      10.455 -10.741  -4.710  1.00  0.00     0.135 A 
ATOM     83  F   UNL     1      13.697  -9.421  -3.749  1.00  0.00    -0.206 F 
ATOM     84  C   UNL     1      13.028 -11.625  -4.175  1.00  0.00     0.059 A 
ATOM     85  C   UNL     1      10.745 -12.101  -4.798  1.00  0.00     0.059 A 
ATOM     86  F   UNL     1       9.168 -10.411  -4.890  1.00  0.00    -0.206 F 
ATOM     87  C   UNL     1      12.028 -12.540  -4.501  1.00  0.00     0.060 A 
BRANCH  87  88
ATOM     88  S   UNL     1      12.374 -14.311  -4.410  1.00  0.00     0.124 S 
ATOM     89  O   UNL     1      13.269 -14.502  -5.546  1.00  0.00    -0.237 OA
ATOM     90  O   UNL     1      12.981 -14.439  -3.090  1.00  0.00    -0.237 OA
ATOM     91  O   UNL     1      11.054 -14.922  -4.547  1.00  0.00    -0.744 OA
ENDBRANCH  87  88
ENDBRANCH  55  80
BRANCH  67  92
ATOM     92  C   UNL     1      12.352  -3.647  -2.838  1.00  0.00     0.058 A 
ATOM     93  C   UNL     1      11.867  -3.701  -4.156  1.00  0.00     0.135 A 
ATOM     94  C   UNL     1      13.299  -2.652  -2.544  1.00  0.00     0.135 A 
ATOM     95  F   UNL     1      10.883  -4.548  -4.495  1.00  0.00    -0.206 F 
ATOM     96  C   UNL     1      12.336  -2.836  -5.147  1.00  0.00     0.059 A 
ATOM     97  C   UNL     1      13.757  -1.758  -3.508  1.00  0.00     0.059 A 
ATOM     98  F   UNL     1      13.754  -2.507  -1.288  1.00  0.00    -0.206 F 
ATOM     99  C   UNL     1      13.280  -1.865  -4.812  1.00  0.00     0.060 A 
BRANCH  99 100
ATOM    100  S   UNL     1      13.819  -0.690  -6.073  1.00  0.00     0.124 S 
ATOM    101  O   UNL     1      14.692  -1.510  -6.905  1.00  0.00    -0.237 OA
ATOM    102  O   UNL     1      12.558  -0.281  -6.687  1.00  0.00    -0.237 OA
ATOM    103  O   UNL     1      14.490   0.354  -5.302  1.00  0.00    -0.744 OA
ENDBRANCH  99 100
ENDBRANCH  67  92
ENDBRANCH  41  42
ENDBRANCH  34  36
ENDBRANCH  33  34
ENDBRANCH  32  33
ENDBRANCH  31  32
ENDBRANCH  30  31
ENDBRANCH   1  30
TORSDOF 22
