REMARK SMILES CC[C@H]1CC[C@](C(=O)OCCOCCOCCOC(=O)c2ccc(-c3c4nc(c(-c5c(F)cc(S(=O)(=O)[O-])cc5F)c5ccc([nH]5)c(-c5c(F)cc(S(=O)(=O)[O-])cc5F)c5nc(c(-c6c(F)cc(S(=O)(=O)[O-])cc6F)c6ccc3[nH]6)C=C5)C=C4)cc2)([C@H]2CCC[C@@H](S(C)(=O)=O)C2)CC1
REMARK SMILES IDX 14 1 13 2 12 3 11 4 10 5 9 6 7 7 8 8 6 9 3 10 98 11 4 12
REMARK SMILES IDX 97 13 5 14 2 15 1 16 87 17 88 18 96 19 89 20 91 21 90 22
REMARK SMILES IDX 92 23 93 24 94 25 95 26 15 27 16 28 17 29 18 30 19 31 20 32
REMARK SMILES IDX 21 33 22 34 86 35 23 36 85 37 24 38 25 39 26 40 79 41 27 42
REMARK SMILES IDX 84 43 78 44 80 45 28 46 83 47 77 48 76 49 29 51 63 52 42 53
REMARK SMILES IDX 62 54 43 55 46 56 61 57 81 58 44 59 45 60 60 62 82 63 47 64
REMARK SMILES IDX 30 65 31 66 40 67 32 68 33 69 39 70 41 71 34 72 35 73 36 74
REMARK SMILES IDX 37 75 38 76 64 77 65 78 74 79 66 80 67 81 73 82 75 83 68 84
REMARK SMILES IDX 69 85 70 86 71 87 72 88 48 89 49 90 58 91 50 92 51 93 57 94
REMARK SMILES IDX 59 95 52 96 53 97 54 98 55 99 56 100
REMARK H PARENT 80 50 46 61
REMARK Flexibility Score: inf
ROOT
ATOM      1  C   UNL     1       5.694  11.270   0.896  1.00  0.00     0.188 C 
ENDROOT
BRANCH   1   2
ATOM      2  C   UNL     1       5.036  12.223  -0.114  1.00  0.00     0.188 C 
BRANCH   2   3
ATOM      3  O   UNL     1       3.732  11.852  -0.582  1.00  0.00    -0.376 OA
BRANCH   3   4
ATOM      4  C   UNL     1       2.669  12.196   0.310  1.00  0.00     0.202 C 
BRANCH   4   5
ATOM      5  C   UNL     1       1.393  11.369   0.052  1.00  0.00     0.261 C 
BRANCH   5   6
ATOM      6  O   UNL     1       1.472  10.014   0.569  1.00  0.00    -0.463 OA
BRANCH   6   7
ATOM      7  C   UNL     1       0.898   9.018  -0.163  1.00  0.00     0.312 C 
ATOM      8  O   UNL     1       0.297   9.223  -1.216  1.00  0.00    -0.252 OA
BRANCH   7   9
ATOM      9  C   UNL     1       0.950   7.603   0.492  1.00  0.00     0.071 C 
ATOM     10  C   UNL     1      -1.196   8.253   2.594  1.00  0.00    -0.011 C 
ATOM     11  C   UNL     1      -1.531   7.951   1.130  1.00  0.00     0.005 C 
ATOM     12  C   UNL     1       0.299   8.482   2.866  1.00  0.00     0.005 C 
ATOM     13  C   UNL     1      -0.516   7.061   0.418  1.00  0.00     0.019 C 
ATOM     14  C   UNL     1       1.276   7.665   2.013  1.00  0.00     0.019 C 
BRANCH  10  15
ATOM     15  C   UNL     1      -2.023   9.483   3.037  1.00  0.00    -0.000 C 
ATOM     16  C   UNL     1      -2.068   9.685   4.542  1.00  0.00     0.004 C 
ENDBRANCH  10  15
BRANCH   9  17
ATOM     17  C   UNL     1       1.916   6.511  -0.224  1.00  0.00     0.008 C 
ATOM     18  C   UNL     1       1.559   5.991  -1.644  1.00  0.00     0.005 C 
ATOM     19  C   UNL     1       3.440   6.578  -0.007  1.00  0.00     0.024 C 
ATOM     20  C   UNL     1       2.568   6.102  -2.798  1.00  0.00     0.002 C 
ATOM     21  C   UNL     1       4.291   7.055  -1.190  1.00  0.00     0.108 C 
ATOM     22  C   UNL     1       4.038   6.261  -2.447  1.00  0.00     0.020 C 
BRANCH  21  23
ATOM     23  S   UNL     1       4.273   8.813  -1.397  1.00  0.00     0.150 S 
ATOM     24  C   UNL     1       3.035   9.259  -2.593  1.00  0.00     0.158 C 
ATOM     25  O   UNL     1       3.840   9.282  -0.100  1.00  0.00    -0.229 OA
ATOM     26  O   UNL     1       5.556   9.223  -1.935  1.00  0.00    -0.229 OA
ENDBRANCH  21  23
ENDBRANCH   9  17
ENDBRANCH   7   9
ENDBRANCH   6   7
ENDBRANCH   5   6
ENDBRANCH   4   5
ENDBRANCH   3   4
ENDBRANCH   2   3
ENDBRANCH   1   2
BRANCH   1  27
ATOM     27  O   UNL     1       4.889  10.969   2.030  1.00  0.00    -0.376 OA
BRANCH  27  28
ATOM     28  C   UNL     1       5.027  11.791   3.178  1.00  0.00     0.202 C 
BRANCH  28  29
ATOM     29  C   UNL     1       6.442  11.834   3.764  1.00  0.00     0.261 C 
BRANCH  29  30
ATOM     30  O   UNL     1       7.250  10.702   3.411  1.00  0.00    -0.460 OA
BRANCH  30  31
ATOM     31  C   UNL     1       6.728   9.473   3.644  1.00  0.00     0.338 C 
ATOM     32  O   UNL     1       5.853   9.206   4.452  1.00  0.00    -0.246 OA
BRANCH  31  33
ATOM     33  C   UNL     1       7.326   8.513   2.671  1.00  0.00     0.060 A 
ATOM     34  C   UNL     1       6.684   7.290   2.438  1.00  0.00     0.016 A 
ATOM     35  C   UNL     1       8.510   8.809   1.982  1.00  0.00     0.016 A 
ATOM     36  C   UNL     1       7.258   6.341   1.580  1.00  0.00     0.010 A 
ATOM     37  C   UNL     1       9.076   7.871   1.116  1.00  0.00     0.010 A 
ATOM     38  C   UNL     1       8.481   6.611   0.949  1.00  0.00    -0.014 A 
BRANCH  38  39
ATOM     39  C   UNL     1       9.294   5.521   0.347  1.00  0.00     0.031 A 
ATOM     40  C   UNL     1      10.344   4.880   1.218  1.00  0.00     0.074 A 
ATOM     41  C   UNL     1       9.156   5.126  -0.932  1.00  0.00     0.049 A 
ATOM     42  N   UNL     1      11.261   4.001   0.908  1.00  0.00    -0.248 NA
ATOM     43  C   UNL     1      10.368   5.305   2.628  1.00  0.00     0.031 C 
ATOM     44  C   UNL     1       8.175   5.643  -1.881  1.00  0.00     0.029 A 
ATOM     45  N   UNL     1       9.869   4.200  -1.657  1.00  0.00    -0.354 N 
ATOM     46  C   UNL     1      11.975   3.776   2.079  1.00  0.00     0.074 A 
ATOM     47  C   UNL     1      11.405   4.630   3.098  1.00  0.00     0.031 C 
ATOM     48  C   UNL     1       8.345   5.027  -3.065  1.00  0.00     0.029 A 
ATOM     49  C   UNL     1       9.482   4.109  -2.974  1.00  0.00     0.049 A 
ATOM     50  H   UNL     1      10.590   3.653  -1.270  1.00  0.00     0.167 HD
ATOM     51  C   UNL     1      13.011   2.932   2.295  1.00  0.00     0.037 A 
ATOM     52  C   UNL     1      10.007   3.394  -3.993  1.00  0.00     0.037 A 
ATOM     53  C   UNL     1      13.596   2.094   1.285  1.00  0.00     0.049 A 
ATOM     54  C   UNL     1      11.214   2.517  -3.749  1.00  0.00     0.074 A 
ATOM     55  C   UNL     1      14.655   1.212   1.408  1.00  0.00     0.029 A 
ATOM     56  N   UNL     1      13.180   2.039  -0.036  1.00  0.00    -0.354 N 
ATOM     57  N   UNL     1      11.869   2.299  -2.633  1.00  0.00    -0.248 NA
ATOM     58  C   UNL     1      11.759   1.792  -4.909  1.00  0.00     0.031 C 
ATOM     59  C   UNL     1      14.911   0.659   0.150  1.00  0.00     0.029 A 
ATOM     60  C   UNL     1      13.973   1.151  -0.743  1.00  0.00     0.049 A 
ATOM     61  H   UNL     1      12.433   2.555  -0.416  1.00  0.00     0.167 HD
ATOM     62  C   UNL     1      12.872   1.384  -2.949  1.00  0.00     0.074 A 
ATOM     63  C   UNL     1      12.741   1.089  -4.359  1.00  0.00     0.031 C 
ATOM     64  C   UNL     1      13.814   0.836  -2.141  1.00  0.00     0.037 A 
BRANCH  51  65
ATOM     65  C   UNL     1      13.595   2.903   3.678  1.00  0.00     0.058 A 
ATOM     66  C   UNL     1      12.904   2.330   4.757  1.00  0.00     0.135 A 
ATOM     67  C   UNL     1      14.866   3.447   3.924  1.00  0.00     0.135 A 
ATOM     68  F   UNL     1      11.676   1.818   4.579  1.00  0.00    -0.206 F 
ATOM     69  C   UNL     1      13.440   2.325   6.040  1.00  0.00     0.059 A 
ATOM     70  C   UNL     1      15.433   3.426   5.194  1.00  0.00     0.059 A 
ATOM     71  F   UNL     1      15.565   4.011   2.927  1.00  0.00    -0.206 F 
ATOM     72  C   UNL     1      14.705   2.877   6.248  1.00  0.00     0.060 A 
BRANCH  72  73
ATOM     73  S   UNL     1      15.385   2.867   7.920  1.00  0.00     0.124 S 
ATOM     74  O   UNL     1      14.570   3.888   8.571  1.00  0.00    -0.237 OA
ATOM     75  O   UNL     1      15.140   1.494   8.347  1.00  0.00    -0.237 OA
ATOM     76  O   UNL     1      16.787   3.218   7.719  1.00  0.00    -0.744 OA
ENDBRANCH  72  73
ENDBRANCH  51  65
BRANCH  52  77
ATOM     77  C   UNL     1       9.415   3.479  -5.358  1.00  0.00     0.058 A 
ATOM     78  C   UNL     1       8.774   2.373  -5.937  1.00  0.00     0.135 A 
ATOM     79  C   UNL     1       9.514   4.649  -6.126  1.00  0.00     0.135 A 
ATOM     80  F   UNL     1       8.670   1.224  -5.252  1.00  0.00    -0.206 F 
ATOM     81  C   UNL     1       8.271   2.416  -7.234  1.00  0.00     0.059 A 
ATOM     82  C   UNL     1       8.993   4.726  -7.415  1.00  0.00     0.059 A 
ATOM     83  F   UNL     1      10.115   5.737  -5.621  1.00  0.00    -0.206 F 
ATOM     84  C   UNL     1       8.384   3.599  -7.965  1.00  0.00     0.060 A 
BRANCH  84  85
ATOM     85  S   UNL     1       7.693   3.656  -9.633  1.00  0.00     0.124 S 
ATOM     86  O   UNL     1       8.645   2.836 -10.374  1.00  0.00    -0.237 OA
ATOM     87  O   UNL     1       6.369   3.076  -9.435  1.00  0.00    -0.237 OA
ATOM     88  O   UNL     1       7.704   5.081  -9.953  1.00  0.00    -0.744 OA
ENDBRANCH  84  85
ENDBRANCH  52  77
BRANCH  64  89
ATOM     89  C   UNL     1      14.743  -0.196  -2.725  1.00  0.00     0.058 A 
ATOM     90  C   UNL     1      15.787   0.147  -3.598  1.00  0.00     0.135 A 
ATOM     91  C   UNL     1      14.640  -1.540  -2.326  1.00  0.00     0.135 A 
ATOM     92  F   UNL     1      15.930   1.415  -4.014  1.00  0.00    -0.206 F 
ATOM     93  C   UNL     1      16.689  -0.807  -4.063  1.00  0.00     0.059 A 
ATOM     94  C   UNL     1      15.546  -2.504  -2.756  1.00  0.00     0.059 A 
ATOM     95  F   UNL     1      13.668  -1.921  -1.482  1.00  0.00    -0.206 F 
ATOM     96  C   UNL     1      16.564  -2.129  -3.631  1.00  0.00     0.060 A 
BRANCH  96  97
ATOM     97  S   UNL     1      17.775  -3.345  -4.195  1.00  0.00     0.124 S 
ATOM     98  O   UNL     1      17.376  -3.536  -5.585  1.00  0.00    -0.237 OA
ATOM     99  O   UNL     1      19.040  -2.646  -3.988  1.00  0.00    -0.237 OA
ATOM    100  O   UNL     1      17.547  -4.487  -3.314  1.00  0.00    -0.744 OA
ENDBRANCH  96  97
ENDBRANCH  64  89
ENDBRANCH  38  39
ENDBRANCH  31  33
ENDBRANCH  30  31
ENDBRANCH  29  30
ENDBRANCH  28  29
ENDBRANCH  27  28
ENDBRANCH   1  27
TORSDOF 23
