REMARK SMILES O=C(CCC(=O)N1CCN(S(=O)(=O)c2cccs2)CC1)OCCOCCOCCOC(=O)c1ccc(-c2c3nc(c(-c4c(F)cc(S(=O)(=O)[O-])cc4F)c4ccc([nH]4)c(-c4c(F)cc(S(=O)(=O)[O-])cc4F)c4nc(c(-c5c(F)cc(S(=O)(=O)[O-])cc5F)c5ccc2[nH]5)C=C4)C=C3)cc1
REMARK SMILES IDX 25 1 24 2 23 3 22 4 21 5 2 6 1 7 3 8 4 9 5 10 6 11 7 12 8 13
REMARK SMILES IDX 20 14 9 15 19 16 10 17 11 18 12 19 13 20 14 21 15 22 18 23
REMARK SMILES IDX 16 24 17 25 26 26 27 27 28 28 29 29 30 30 31 31 32 32 33 33
REMARK SMILES IDX 34 34 98 35 35 36 97 37 36 38 37 39 38 40 91 41 39 42 96 43
REMARK SMILES IDX 90 44 92 45 40 46 95 47 89 48 88 49 41 51 75 52 54 53 74 54
REMARK SMILES IDX 55 55 58 56 73 57 93 58 56 59 57 60 72 62 94 63 59 64 42 65
REMARK SMILES IDX 43 66 52 67 44 68 45 69 51 70 53 71 46 72 47 73 48 74 49 75
REMARK SMILES IDX 50 76 76 77 77 78 86 79 78 80 79 81 85 82 87 83 80 84 81 85
REMARK SMILES IDX 82 86 83 87 84 88 60 89 61 90 70 91 62 92 63 93 69 94 71 95
REMARK SMILES IDX 64 96 65 97 66 98 67 99 68 100
REMARK H PARENT 92 50 58 61
REMARK Flexibility Score: inf
ROOT
ATOM      1  C   UNL     1       3.415   2.616   0.640  1.00  0.00     0.188 C 
ENDROOT
BRANCH   1   2
ATOM      2  O   UNL     1       4.784   2.525   0.283  1.00  0.00    -0.376 OA
BRANCH   2   3
ATOM      3  C   UNL     1       5.317   1.217   0.165  1.00  0.00     0.202 C 
BRANCH   3   4
ATOM      4  C   UNL     1       4.571   0.305  -0.797  1.00  0.00     0.261 C 
BRANCH   4   5
ATOM      5  O   UNL     1       3.155   0.138  -0.533  1.00  0.00    -0.463 OA
BRANCH   5   6
ATOM      6  C   UNL     1       2.494  -0.433   0.489  1.00  0.00     0.306 C 
ATOM      7  O   UNL     1       1.266  -0.500   0.450  1.00  0.00    -0.252 OA
BRANCH   6   8
ATOM      8  C   UNL     1       3.253  -1.021   1.630  1.00  0.00     0.132 C 
BRANCH   8   9
ATOM      9  C   UNL     1       3.552  -2.496   1.463  1.00  0.00     0.112 C 
BRANCH   9  10
ATOM     10  C   UNL     1       4.451  -2.845   0.292  1.00  0.00     0.223 C 
ATOM     11  O   UNL     1       5.675  -2.805   0.447  1.00  0.00    -0.275 OA
ATOM     12  N   UNL     1       3.880  -3.203  -0.930  1.00  0.00    -0.340 N 
ATOM     13  C   UNL     1       4.812  -3.622  -1.983  1.00  0.00     0.136 C 
ATOM     14  C   UNL     1       2.558  -2.733  -1.375  1.00  0.00     0.136 C 
ATOM     15  C   UNL     1       4.132  -4.338  -3.160  1.00  0.00     0.124 C 
ATOM     16  C   UNL     1       1.962  -3.390  -2.615  1.00  0.00     0.124 C 
ATOM     17  N   UNL     1       2.966  -3.559  -3.699  1.00  0.00    -0.194 NA
BRANCH  17  18
ATOM     18  S   UNL     1       3.433  -2.190  -4.612  1.00  0.00     0.252 S 
ATOM     19  O   UNL     1       4.108  -1.262  -3.721  1.00  0.00    -0.206 OA
ATOM     20  O   UNL     1       4.109  -2.675  -5.792  1.00  0.00    -0.206 OA
BRANCH  18  21
ATOM     21  C   UNL     1       2.014  -1.265  -5.162  1.00  0.00     0.135 A 
ATOM     22  C   UNL     1       1.389  -0.152  -4.625  1.00  0.00     0.033 A 
ATOM     23  S   UNL     1       1.292  -1.733  -6.639  1.00  0.00    -0.131 S 
ATOM     24  C   UNL     1       0.354   0.351  -5.465  1.00  0.00     0.013 A 
ATOM     25  C   UNL     1       0.212  -0.403  -6.609  1.00  0.00     0.066 A 
ENDBRANCH  18  21
ENDBRANCH  17  18
ENDBRANCH   9  10
ENDBRANCH   8   9
ENDBRANCH   6   8
ENDBRANCH   5   6
ENDBRANCH   4   5
ENDBRANCH   3   4
ENDBRANCH   2   3
ENDBRANCH   1   2
BRANCH   1  26
ATOM     26  C   UNL     1       2.431   2.883  -0.530  1.00  0.00     0.188 C 
BRANCH  26  27
ATOM     27  O   UNL     1       2.918   3.118  -1.846  1.00  0.00    -0.376 OA
BRANCH  27  28
ATOM     28  C   UNL     1       4.083   3.910  -2.025  1.00  0.00     0.202 C 
BRANCH  28  29
ATOM     29  C   UNL     1       4.159   5.314  -1.395  1.00  0.00     0.261 C 
BRANCH  29  30
ATOM     30  O   UNL     1       3.845   5.389   0.008  1.00  0.00    -0.460 OA
BRANCH  30  31
ATOM     31  C   UNL     1       2.647   5.947   0.328  1.00  0.00     0.338 C 
ATOM     32  O   UNL     1       1.857   6.461  -0.445  1.00  0.00    -0.246 OA
BRANCH  31  33
ATOM     33  C   UNL     1       2.301   5.625   1.739  1.00  0.00     0.060 A 
ATOM     34  C   UNL     1       1.063   5.008   1.988  1.00  0.00     0.016 A 
ATOM     35  C   UNL     1       3.182   5.865   2.797  1.00  0.00     0.016 A 
ATOM     36  C   UNL     1       0.682   4.674   3.289  1.00  0.00     0.010 A 
ATOM     37  C   UNL     1       2.784   5.563   4.108  1.00  0.00     0.010 A 
ATOM     38  C   UNL     1       1.514   5.011   4.364  1.00  0.00    -0.014 A 
BRANCH  38  39
ATOM     39  C   UNL     1       0.925   5.085   5.729  1.00  0.00     0.031 A 
ATOM     40  C   UNL     1       0.376   6.421   6.166  1.00  0.00     0.074 A 
ATOM     41  C   UNL     1       0.821   4.017   6.542  1.00  0.00     0.049 A 
ATOM     42  N   UNL     1      -0.156   6.774   7.307  1.00  0.00    -0.248 NA
ATOM     43  C   UNL     1       0.440   7.508   5.172  1.00  0.00     0.031 C 
ATOM     44  C   UNL     1       1.254   2.659   6.224  1.00  0.00     0.029 A 
ATOM     45  N   UNL     1       0.317   3.918   7.818  1.00  0.00    -0.354 N 
ATOM     46  C   UNL     1      -0.489   8.117   7.166  1.00  0.00     0.074 A 
ATOM     47  C   UNL     1      -0.062   8.527   5.848  1.00  0.00     0.031 C 
ATOM     48  C   UNL     1       1.014   1.865   7.286  1.00  0.00     0.029 A 
ATOM     49  C   UNL     1       0.436   2.663   8.367  1.00  0.00     0.049 A 
ATOM     50  H   UNL     1      -0.093   4.676   8.294  1.00  0.00     0.167 HD
ATOM     51  C   UNL     1      -1.110   8.936   8.047  1.00  0.00     0.037 A 
ATOM     52  C   UNL     1       0.133   2.219   9.606  1.00  0.00     0.037 A 
ATOM     53  C   UNL     1      -1.524   8.534   9.363  1.00  0.00     0.049 A 
ATOM     54  C   UNL     1      -0.473   3.176  10.609  1.00  0.00     0.074 A 
ATOM     55  C   UNL     1      -2.147   9.293  10.338  1.00  0.00     0.029 A 
ATOM     56  N   UNL     1      -1.352   7.264   9.893  1.00  0.00    -0.354 N 
ATOM     57  N   UNL     1      -0.791   4.441  10.460  1.00  0.00    -0.248 NA
ATOM     58  C   UNL     1      -0.767   2.641  11.948  1.00  0.00     0.031 C 
ATOM     59  C   UNL     1      -2.307   8.495  11.475  1.00  0.00     0.029 A 
ATOM     60  C   UNL     1      -1.839   7.223  11.188  1.00  0.00     0.049 A 
ATOM     61  H   UNL     1      -0.944   6.504   9.418  1.00  0.00     0.167 HD
ATOM     62  C   UNL     1      -1.353   4.840  11.671  1.00  0.00     0.074 A 
ATOM     63  C   UNL     1      -1.343   3.680  12.537  1.00  0.00     0.031 C 
ATOM     64  C   UNL     1      -1.837   6.055  12.034  1.00  0.00     0.037 A 
BRANCH  51  65
ATOM     65  C   UNL     1      -1.353  10.356   7.617  1.00  0.00     0.058 A 
ATOM     66  C   UNL     1      -2.298  10.677   6.628  1.00  0.00     0.135 A 
ATOM     67  C   UNL     1      -0.645  11.412   8.213  1.00  0.00     0.135 A 
ATOM     68  F   UNL     1      -2.983   9.704   6.006  1.00  0.00    -0.206 F 
ATOM     69  C   UNL     1      -2.515  11.991   6.229  1.00  0.00     0.059 A 
ATOM     70  C   UNL     1      -0.869  12.737   7.852  1.00  0.00     0.059 A 
ATOM     71  F   UNL     1       0.275  11.161   9.157  1.00  0.00    -0.206 F 
ATOM     72  C   UNL     1      -1.797  13.015   6.850  1.00  0.00     0.060 A 
BRANCH  72  73
ATOM     73  S   UNL     1      -2.101  14.716   6.329  1.00  0.00     0.124 S 
ATOM     74  O   UNL     1      -1.494  14.728   5.002  1.00  0.00    -0.237 OA
ATOM     75  O   UNL     1      -3.558  14.795   6.360  1.00  0.00    -0.237 OA
ATOM     76  O   UNL     1      -1.411  15.511   7.341  1.00  0.00    -0.744 OA
ENDBRANCH  72  73
ENDBRANCH  51  65
BRANCH  52  77
ATOM     77  C   UNL     1       0.414   0.807   9.994  1.00  0.00     0.058 A 
ATOM     78  C   UNL     1      -0.624  -0.091  10.291  1.00  0.00     0.135 A 
ATOM     79  C   UNL     1       1.732   0.337  10.116  1.00  0.00     0.135 A 
ATOM     80  F   UNL     1      -1.901   0.311  10.208  1.00  0.00    -0.206 F 
ATOM     81  C   UNL     1      -0.367  -1.392  10.715  1.00  0.00     0.059 A 
ATOM     82  C   UNL     1       2.013  -0.968  10.510  1.00  0.00     0.059 A 
ATOM     83  F   UNL     1       2.764   1.150   9.842  1.00  0.00    -0.206 F 
ATOM     84  C   UNL     1       0.956  -1.822  10.820  1.00  0.00     0.060 A 
BRANCH  84  85
ATOM     85  S   UNL     1       1.278  -3.524  11.334  1.00  0.00     0.124 S 
ATOM     86  O   UNL     1       0.928  -3.477  12.748  1.00  0.00    -0.237 OA
ATOM     87  O   UNL     1       0.370  -4.279  10.475  1.00  0.00    -0.237 OA
ATOM     88  O   UNL     1       2.697  -3.700  11.039  1.00  0.00    -0.744 OA
ENDBRANCH  84  85
ENDBRANCH  52  77
BRANCH  64  89
ATOM     89  C   UNL     1      -2.444   6.188  13.407  1.00  0.00     0.058 A 
ATOM     90  C   UNL     1      -1.662   6.161  14.572  1.00  0.00     0.135 A 
ATOM     91  C   UNL     1      -3.826   6.398  13.552  1.00  0.00     0.135 A 
ATOM     92  F   UNL     1      -0.337   5.963  14.493  1.00  0.00    -0.206 F 
ATOM     93  C   UNL     1      -2.232   6.306  15.834  1.00  0.00     0.059 A 
ATOM     94  C   UNL     1      -4.412   6.578  14.801  1.00  0.00     0.059 A 
ATOM     95  F   UNL     1      -4.620   6.448  12.471  1.00  0.00    -0.206 F 
ATOM     96  C   UNL     1      -3.608   6.515  15.938  1.00  0.00     0.060 A 
BRANCH  96  97
ATOM     97  S   UNL     1      -4.331   6.724  17.579  1.00  0.00     0.124 S 
ATOM     98  O   UNL     1      -4.261   5.365  18.106  1.00  0.00    -0.237 OA
ATOM     99  O   UNL     1      -3.429   7.691  18.197  1.00  0.00    -0.237 OA
ATOM    100  O   UNL     1      -5.675   7.220  17.300  1.00  0.00    -0.744 OA
ENDBRANCH  96  97
ENDBRANCH  64  89
ENDBRANCH  38  39
ENDBRANCH  31  33
ENDBRANCH  30  31
ENDBRANCH  29  30
ENDBRANCH  28  29
ENDBRANCH  27  28
ENDBRANCH  26  27
ENDBRANCH   1  26
TORSDOF 24
