REMARK SMILES CCn1c([C@@H]2CCC[N@@H+](Cc3ccc(C(=O)OCCOCCOCCOC(=O)c4ccc(-c5c6nc(c(-c7c(F)cc(S(=O)(=O)[O-])cc7F)c7ccc([nH]7)c(-c7c(F)cc(S(=O)(=O)[O-])cc7F)c7nc(c(-c8c(F)cc(S(=O)(=O)[O-])cc8F)c8ccc5[nH]8)C=C7)C=C6)cc4)cc3)C2)nn(C)c1=O
REMARK SMILES IDX 21 1 20 2 19 3 18 4 17 5 15 6 16 7 14 8 11 9 12 10 96 11
REMARK SMILES IDX 13 12 95 13 10 14 9 15 5 16 6 17 97 18 7 19 8 20 4 22 3 23
REMARK SMILES IDX 101 24 98 25 99 26 102 27 100 28 2 29 1 30 22 31 23 32 24 33
REMARK SMILES IDX 25 34 26 35 27 36 28 37 29 38 30 39 94 40 31 41 93 42 32 43
REMARK SMILES IDX 33 44 34 45 87 46 35 47 92 48 86 49 88 50 36 51 91 52 85 53
REMARK SMILES IDX 84 54 37 56 71 57 50 58 70 59 51 60 54 61 69 62 89 63 52 64
REMARK SMILES IDX 53 65 68 67 90 68 55 69 38 70 39 71 48 72 40 73 41 74 47 75
REMARK SMILES IDX 49 76 42 77 43 78 44 79 45 80 46 81 72 82 73 83 82 84 74 85
REMARK SMILES IDX 75 86 81 87 83 88 76 89 77 90 78 91 79 92 80 93 56 94 57 95
REMARK SMILES IDX 66 96 58 97 59 98 65 99 67 100 60 101 61 102 62 103 63 104
REMARK SMILES IDX 64 105
REMARK H PARENT 9 21 88 55 54 66
REMARK Flexibility Score: inf
ROOT
ATOM      1  C   UNL     1      -0.040   4.020  -8.121  1.00  0.00     0.188 C 
ENDROOT
BRANCH   1   2
ATOM      2  O   UNL     1      -0.874   4.700  -9.047  1.00  0.00    -0.376 OA
BRANCH   2   3
ATOM      3  C   UNL     1      -1.702   5.774  -8.614  1.00  0.00     0.202 C 
BRANCH   3   4
ATOM      4  C   UNL     1      -2.518   5.690  -7.311  1.00  0.00     0.261 C 
BRANCH   4   5
ATOM      5  O   UNL     1      -1.749   5.317  -6.164  1.00  0.00    -0.460 OA
BRANCH   5   6
ATOM      6  C   UNL     1      -2.145   4.191  -5.534  1.00  0.00     0.338 C 
ATOM      7  O   UNL     1      -3.185   3.578  -5.704  1.00  0.00    -0.246 OA
BRANCH   6   8
ATOM      8  C   UNL     1      -1.032   3.663  -4.719  1.00  0.00     0.060 A 
ATOM      9  C   UNL     1       0.858   2.498  -3.049  1.00  0.00     0.006 A 
ATOM     10  C   UNL     1       0.166   1.706  -3.978  1.00  0.00     0.010 A 
ATOM     11  C   UNL     1       0.730   3.895  -3.089  1.00  0.00     0.010 A 
ATOM     12  C   UNL     1      -0.798   2.285  -4.790  1.00  0.00     0.016 A 
ATOM     13  C   UNL     1      -0.226   4.481  -3.921  1.00  0.00     0.016 A 
BRANCH   9  14
ATOM     14  C   UNL     1       1.466   1.810  -1.843  1.00  0.00     0.299 C 
BRANCH  14  15
ATOM     15  N   UNL     1       0.551   1.748  -0.667  1.00  0.00    -0.331 N 
ATOM     16  C   UNL     1      -0.050   2.747   1.518  1.00  0.00     0.113 C 
ATOM     17  C   UNL     1      -1.524   2.414   1.301  1.00  0.00     0.023 C 
ATOM     18  C   UNL     1       0.758   2.881   0.230  1.00  0.00     0.274 C 
ATOM     19  C   UNL     1      -1.818   1.458   0.154  1.00  0.00     0.062 C 
ATOM     20  C   UNL     1      -0.870   1.604  -1.029  1.00  0.00     0.262 C 
ATOM     21  H   UNL     1       0.800   0.893  -0.170  1.00  0.00     0.348 HD
BRANCH  16  22
ATOM     22  C   UNL     1       0.700   1.972   2.593  1.00  0.00     0.142 A 
ATOM     23  N   UNL     1       0.958   0.652   2.663  1.00  0.00    -0.279 N 
ATOM     24  C   UNL     1       1.716   0.478   3.805  1.00  0.00     0.345 A 
ATOM     25  N   UNL     1       1.206   2.662   3.584  1.00  0.00    -0.155 NA
ATOM     26  N   UNL     1       1.845   1.742   4.357  1.00  0.00    -0.216 N 
ATOM     27  O   UNL     1       2.153  -0.570   4.255  1.00  0.00    -0.246 OA
ATOM     28  C   UNL     1       2.495   2.084   5.588  1.00  0.00     0.179 C 
BRANCH  23  29
ATOM     29  C   UNL     1       0.539  -0.512   1.903  1.00  0.00     0.125 C 
ATOM     30  C   UNL     1       1.485  -0.920   0.785  1.00  0.00     0.028 C 
ENDBRANCH  23  29
ENDBRANCH  16  22
ENDBRANCH  14  15
ENDBRANCH   9  14
ENDBRANCH   6   8
ENDBRANCH   5   6
ENDBRANCH   4   5
ENDBRANCH   3   4
ENDBRANCH   2   3
ENDBRANCH   1   2
BRANCH   1  31
ATOM     31  C   UNL     1       0.992   4.794  -7.273  1.00  0.00     0.188 C 
BRANCH  31  32
ATOM     32  O   UNL     1       0.659   6.132  -6.979  1.00  0.00    -0.376 OA
BRANCH  32  33
ATOM     33  C   UNL     1       1.228   7.223  -7.686  1.00  0.00     0.202 C 
BRANCH  33  34
ATOM     34  C   UNL     1       1.818   7.159  -9.100  1.00  0.00     0.261 C 
BRANCH  34  35
ATOM     35  O   UNL     1       1.927   5.885  -9.698  1.00  0.00    -0.460 OA
BRANCH  35  36
ATOM     36  C   UNL     1       3.113   5.276  -9.477  1.00  0.00     0.338 C 
ATOM     37  O   UNL     1       3.962   5.610  -8.669  1.00  0.00    -0.246 OA
BRANCH  36  38
ATOM     38  C   UNL     1       3.234   4.126 -10.380  1.00  0.00     0.060 A 
ATOM     39  C   UNL     1       4.274   3.231 -10.124  1.00  0.00     0.016 A 
ATOM     40  C   UNL     1       2.497   4.089 -11.574  1.00  0.00     0.016 A 
ATOM     41  C   UNL     1       4.725   2.442 -11.157  1.00  0.00     0.010 A 
ATOM     42  C   UNL     1       2.954   3.304 -12.610  1.00  0.00     0.010 A 
ATOM     43  C   UNL     1       4.123   2.572 -12.412  1.00  0.00    -0.014 A 
BRANCH  43  44
ATOM     44  C   UNL     1       4.855   2.037 -13.541  1.00  0.00     0.031 A 
ATOM     45  C   UNL     1       4.783   0.579 -13.739  1.00  0.00     0.074 A 
ATOM     46  C   UNL     1       5.528   2.849 -14.377  1.00  0.00     0.049 A 
ATOM     47  N   UNL     1       5.747  -0.279 -13.676  1.00  0.00    -0.248 NA
ATOM     48  C   UNL     1       3.455  -0.008 -13.954  1.00  0.00     0.031 C 
ATOM     49  C   UNL     1       5.454   4.311 -14.470  1.00  0.00     0.029 A 
ATOM     50  N   UNL     1       6.342   2.510 -15.411  1.00  0.00    -0.354 N 
ATOM     51  C   UNL     1       5.185  -1.497 -14.037  1.00  0.00     0.074 A 
ATOM     52  C   UNL     1       3.757  -1.301 -14.062  1.00  0.00     0.031 C 
ATOM     53  C   UNL     1       6.007   4.701 -15.639  1.00  0.00     0.029 A 
ATOM     54  C   UNL     1       6.565   3.539 -16.310  1.00  0.00     0.049 A 
ATOM     55  H   UNL     1       6.738   1.614 -15.510  1.00  0.00     0.167 HD
ATOM     56  C   UNL     1       5.939  -2.532 -14.494  1.00  0.00     0.037 A 
ATOM     57  C   UNL     1       7.064   3.407 -17.563  1.00  0.00     0.037 A 
ATOM     58  C   UNL     1       7.333  -2.380 -14.175  1.00  0.00     0.049 A 
ATOM     59  C   UNL     1       7.813   2.120 -17.613  1.00  0.00     0.074 A 
ATOM     60  C   UNL     1       8.039  -2.221 -12.996  1.00  0.00     0.029 A 
ATOM     61  N   UNL     1       8.206  -2.030 -15.177  1.00  0.00    -0.354 N 
ATOM     62  N   UNL     1       8.924   1.888 -16.966  1.00  0.00    -0.248 NA
ATOM     63  C   UNL     1       7.099   0.930 -18.057  1.00  0.00     0.031 C 
ATOM     64  C   UNL     1       9.107  -1.335 -13.316  1.00  0.00     0.029 A 
ATOM     65  C   UNL     1       9.005  -1.032 -14.675  1.00  0.00     0.049 A 
ATOM     66  H   UNL     1       8.250  -2.419 -16.080  1.00  0.00     0.167 HD
ATOM     67  C   UNL     1       8.839   0.561 -16.567  1.00  0.00     0.074 A 
ATOM     68  C   UNL     1       7.748  -0.002 -17.356  1.00  0.00     0.031 C 
ATOM     69  C   UNL     1       9.468   0.106 -15.442  1.00  0.00     0.037 A 
BRANCH  56  70
ATOM     70  C   UNL     1       5.431  -3.530 -15.496  1.00  0.00     0.058 A 
ATOM     71  C   UNL     1       6.095  -4.756 -15.672  1.00  0.00     0.135 A 
ATOM     72  C   UNL     1       4.455  -3.207 -16.466  1.00  0.00     0.135 A 
ATOM     73  F   UNL     1       7.061  -5.138 -14.821  1.00  0.00    -0.206 F 
ATOM     74  C   UNL     1       5.837  -5.587 -16.762  1.00  0.00     0.059 A 
ATOM     75  C   UNL     1       4.140  -4.046 -17.526  1.00  0.00     0.059 A 
ATOM     76  F   UNL     1       3.837  -2.018 -16.479  1.00  0.00    -0.206 F 
ATOM     77  C   UNL     1       4.866  -5.214 -17.690  1.00  0.00     0.060 A 
BRANCH  77  78
ATOM     78  S   UNL     1       4.607  -6.221 -19.160  1.00  0.00     0.124 S 
ATOM     79  O   UNL     1       5.777  -5.870 -19.957  1.00  0.00    -0.237 OA
ATOM     80  O   UNL     1       4.590  -7.572 -18.610  1.00  0.00    -0.237 OA
ATOM     81  O   UNL     1       3.326  -5.743 -19.670  1.00  0.00    -0.744 OA
ENDBRANCH  77  78
ENDBRANCH  56  70
BRANCH  57  82
ATOM     82  C   UNL     1       6.621   4.148 -18.774  1.00  0.00     0.058 A 
ATOM     83  C   UNL     1       7.339   4.066 -19.979  1.00  0.00     0.135 A 
ATOM     84  C   UNL     1       5.350   4.758 -18.854  1.00  0.00     0.135 A 
ATOM     85  F   UNL     1       8.540   3.469 -20.009  1.00  0.00    -0.206 F 
ATOM     86  C   UNL     1       6.816   4.530 -21.192  1.00  0.00     0.059 A 
ATOM     87  C   UNL     1       4.820   5.250 -20.043  1.00  0.00     0.059 A 
ATOM     88  F   UNL     1       4.532   4.815 -17.793  1.00  0.00    -0.206 F 
ATOM     89  C   UNL     1       5.548   5.111 -21.214  1.00  0.00     0.060 A 
BRANCH  89  90
ATOM     90  S   UNL     1       4.801   5.571 -22.794  1.00  0.00     0.124 S 
ATOM     91  O   UNL     1       5.619   6.712 -23.192  1.00  0.00    -0.237 OA
ATOM     92  O   UNL     1       4.973   4.355 -23.581  1.00  0.00    -0.237 OA
ATOM     93  O   UNL     1       3.421   5.888 -22.436  1.00  0.00    -0.744 OA
ENDBRANCH  89  90
ENDBRANCH  57  82
BRANCH  69  94
ATOM     94  C   UNL     1      10.510   0.980 -14.789  1.00  0.00     0.058 A 
ATOM     95  C   UNL     1      10.240   2.248 -14.245  1.00  0.00     0.135 A 
ATOM     96  C   UNL     1      11.786   0.443 -14.551  1.00  0.00     0.135 A 
ATOM     97  F   UNL     1       9.015   2.785 -14.324  1.00  0.00    -0.206 F 
ATOM     98  C   UNL     1      11.205   2.967 -13.537  1.00  0.00     0.059 A 
ATOM     99  C   UNL     1      12.754   1.128 -13.818  1.00  0.00     0.059 A 
ATOM    100  F   UNL     1      12.088  -0.793 -14.984  1.00  0.00    -0.206 F 
ATOM    101  C   UNL     1      12.459   2.397 -13.325  1.00  0.00     0.060 A 
BRANCH 101 102
ATOM    102  S   UNL     1      13.668   3.288 -12.319  1.00  0.00     0.124 S 
ATOM    103  O   UNL     1      14.128   4.323 -13.239  1.00  0.00    -0.237 OA
ATOM    104  O   UNL     1      12.866   3.753 -11.191  1.00  0.00    -0.237 OA
ATOM    105  O   UNL     1      14.655   2.263 -11.987  1.00  0.00    -0.744 OA
ENDBRANCH 101 102
ENDBRANCH  69  94
ENDBRANCH  43  44
ENDBRANCH  36  38
ENDBRANCH  35  36
ENDBRANCH  34  35
ENDBRANCH  33  34
ENDBRANCH  32  33
ENDBRANCH  31  32
ENDBRANCH   1  31
TORSDOF 24
