REMARK SMILES C[C@@H]1[C@@H](C(=O)OCCOCCOCCOC(=O)c2ccc(-c3c4nc(c(-c5c(F)cc(S(=O)(=O)[O-])cc5F)c5ccc([nH]5)c(-c5c(F)cc(S(=O)(=O)[O-])cc5F)c5nc(c(-c6c(F)cc(S(=O)(=O)[O-])cc6F)c6ccc3[nH]6)C=C5)C=C4)cc2)CC[N@@H+]1[C@H]1CC[C@@H](C(F)(F)F)CC1
REMARK SMILES IDX 11 1 10 2 9 3 8 4 7 5 6 6 4 7 5 8 3 9 1 10 2 11 86 12 84 13
REMARK SMILES IDX 85 14 87 16 88 17 96 18 89 19 95 20 90 21 91 22 92 23 93 24
REMARK SMILES IDX 94 25 12 26 13 27 14 28 15 29 16 30 17 31 18 32 19 33 83 34
REMARK SMILES IDX 20 35 82 36 21 37 22 38 23 39 76 40 24 41 81 42 75 43 77 44
REMARK SMILES IDX 25 45 80 46 74 47 73 48 26 50 60 51 39 52 59 53 40 54 43 55
REMARK SMILES IDX 58 56 78 57 41 58 42 59 57 61 79 62 44 63 27 64 28 65 37 66
REMARK SMILES IDX 29 67 30 68 36 69 38 70 31 71 32 72 33 73 34 74 35 75 61 76
REMARK SMILES IDX 62 77 71 78 63 79 64 80 70 81 72 82 65 83 66 84 67 85 68 86
REMARK SMILES IDX 69 87 45 88 46 89 55 90 47 91 48 92 54 93 56 94 49 95 50 96
REMARK SMILES IDX 51 97 52 98 53 99
REMARK H PARENT 86 15 77 49 43 60
REMARK Flexibility Score: inf
ROOT
ATOM      1  C   UNL     1       0.215   3.549  -2.335  1.00  0.00     0.188 C 
ENDROOT
BRANCH   1   2
ATOM      2  C   UNL     1       0.355   2.493  -3.450  1.00  0.00     0.188 C 
BRANCH   2   3
ATOM      3  O   UNL     1      -0.339   2.764  -4.648  1.00  0.00    -0.376 OA
BRANCH   3   4
ATOM      4  C   UNL     1      -1.677   2.327  -4.838  1.00  0.00     0.202 C 
BRANCH   4   5
ATOM      5  C   UNL     1      -2.549   1.606  -3.793  1.00  0.00     0.261 C 
BRANCH   5   6
ATOM      6  O   UNL     1      -2.087   1.651  -2.445  1.00  0.00    -0.463 OA
BRANCH   6   7
ATOM      7  C   UNL     1      -1.750   0.449  -1.894  1.00  0.00     0.315 C 
ATOM      8  O   UNL     1      -1.935  -0.638  -2.421  1.00  0.00    -0.252 OA
BRANCH   7   9
ATOM      9  C   UNL     1      -1.076   0.672  -0.556  1.00  0.00     0.162 C 
ATOM     10  C   UNL     1       1.321   0.663   0.172  1.00  0.00     0.076 C 
ATOM     11  C   UNL     1       0.190  -0.191  -0.414  1.00  0.00     0.195 C 
ATOM     12  N   UNL     1      -0.268  -1.324   0.384  1.00  0.00    -0.330 N 
ATOM     13  C   UNL     1      -1.968   0.263   0.596  1.00  0.00     0.083 C 
ATOM     14  C   UNL     1      -1.668  -1.208   0.758  1.00  0.00     0.263 C 
ATOM     15  H   UNL     1      -0.050  -2.017  -0.332  1.00  0.00     0.348 HD
BRANCH  12  16
ATOM     16  C   UNL     1       0.565  -2.224   1.154  1.00  0.00     0.184 C 
ATOM     17  C   UNL     1       1.802  -2.743   0.400  1.00  0.00     0.066 C 
ATOM     18  C   UNL     1       0.909  -1.631   2.529  1.00  0.00     0.066 C 
ATOM     19  C   UNL     1       2.670  -3.654   1.273  1.00  0.00     0.019 C 
ATOM     20  C   UNL     1       1.754  -2.583   3.364  1.00  0.00     0.019 C 
ATOM     21  C   UNL     1       3.022  -3.059   2.646  1.00  0.00     0.095 C 
BRANCH  21  22
ATOM     22  C   UNL     1       4.091  -1.972   2.565  1.00  0.00     0.391 C 
ATOM     23  F   UNL     1       4.362  -1.485   3.800  1.00  0.00    -0.171 F 
ATOM     24  F   UNL     1       5.244  -2.466   2.068  1.00  0.00    -0.171 F 
ATOM     25  F   UNL     1       3.723  -0.929   1.797  1.00  0.00    -0.171 F 
ENDBRANCH  21  22
ENDBRANCH  12  16
ENDBRANCH   7   9
ENDBRANCH   6   7
ENDBRANCH   5   6
ENDBRANCH   4   5
ENDBRANCH   3   4
ENDBRANCH   2   3
ENDBRANCH   1   2
BRANCH   1  26
ATOM     26  O   UNL     1      -0.892   4.426  -2.323  1.00  0.00    -0.376 OA
BRANCH  26  27
ATOM     27  C   UNL     1      -1.036   5.350  -3.392  1.00  0.00     0.202 C 
BRANCH  27  28
ATOM     28  C   UNL     1       0.157   6.027  -4.104  1.00  0.00     0.261 C 
BRANCH  28  29
ATOM     29  O   UNL     1       1.349   5.246  -4.287  1.00  0.00    -0.460 OA
BRANCH  29  30
ATOM     30  C   UNL     1       2.414   5.618  -3.535  1.00  0.00     0.338 C 
ATOM     31  O   UNL     1       2.464   6.556  -2.745  1.00  0.00    -0.246 OA
BRANCH  30  32
ATOM     32  C   UNL     1       3.476   4.599  -3.630  1.00  0.00     0.060 A 
ATOM     33  C   UNL     1       3.782   3.827  -2.498  1.00  0.00     0.016 A 
ATOM     34  C   UNL     1       4.210   4.447  -4.806  1.00  0.00     0.016 A 
ATOM     35  C   UNL     1       4.829   2.905  -2.535  1.00  0.00     0.010 A 
ATOM     36  C   UNL     1       5.280   3.546  -4.830  1.00  0.00     0.010 A 
ATOM     37  C   UNL     1       5.611   2.790  -3.689  1.00  0.00    -0.014 A 
BRANCH  37  38
ATOM     38  C   UNL     1       6.883   2.026  -3.655  1.00  0.00     0.031 A 
ATOM     39  C   UNL     1       8.167   2.784  -3.447  1.00  0.00     0.074 A 
ATOM     40  C   UNL     1       6.904   0.689  -3.805  1.00  0.00     0.049 A 
ATOM     41  N   UNL     1       9.402   2.357  -3.492  1.00  0.00    -0.248 NA
ATOM     42  C   UNL     1       8.037   4.221  -3.153  1.00  0.00     0.031 C 
ATOM     43  C   UNL     1       5.728  -0.166  -3.954  1.00  0.00     0.029 A 
ATOM     44  N   UNL     1       7.964  -0.181  -3.874  1.00  0.00    -0.354 N 
ATOM     45  C   UNL     1      10.196   3.469  -3.240  1.00  0.00     0.074 A 
ATOM     46  C   UNL     1       9.305   4.597  -3.073  1.00  0.00     0.031 C 
ATOM     47  C   UNL     1       6.133  -1.438  -4.118  1.00  0.00     0.029 A 
ATOM     48  C   UNL     1       7.595  -1.482  -4.125  1.00  0.00     0.049 A 
ATOM     49  H   UNL     1       8.900   0.099  -3.755  1.00  0.00     0.167 HD
ATOM     50  C   UNL     1      11.545   3.544  -3.149  1.00  0.00     0.037 A 
ATOM     51  C   UNL     1       8.351  -2.573  -4.362  1.00  0.00     0.037 A 
ATOM     52  C   UNL     1      12.428   2.420  -3.323  1.00  0.00     0.049 A 
ATOM     53  C   UNL     1       9.856  -2.447  -4.351  1.00  0.00     0.074 A 
ATOM     54  C   UNL     1      13.810   2.393  -3.254  1.00  0.00     0.029 A 
ATOM     55  N   UNL     1      12.017   1.125  -3.605  1.00  0.00    -0.354 N 
ATOM     56  N   UNL     1      10.597  -1.391  -4.111  1.00  0.00    -0.248 NA
ATOM     57  C   UNL     1      10.629  -3.663  -4.646  1.00  0.00     0.031 C 
ATOM     58  C   UNL     1      14.237   1.093  -3.544  1.00  0.00     0.029 A 
ATOM     59  C   UNL     1      13.119   0.296  -3.735  1.00  0.00     0.049 A 
ATOM     60  H   UNL     1      11.080   0.838  -3.699  1.00  0.00     0.167 HD
ATOM     61  C   UNL     1      11.918  -1.825  -4.187  1.00  0.00     0.074 A 
ATOM     62  C   UNL     1      11.876  -3.239  -4.490  1.00  0.00     0.031 C 
ATOM     63  C   UNL     1      13.063  -1.117  -4.019  1.00  0.00     0.037 A 
BRANCH  50  64
ATOM     64  C   UNL     1      12.152   4.892  -2.871  1.00  0.00     0.058 A 
ATOM     65  C   UNL     1      12.034   5.510  -1.616  1.00  0.00     0.135 A 
ATOM     66  C   UNL     1      12.893   5.557  -3.861  1.00  0.00     0.135 A 
ATOM     67  F   UNL     1      11.319   4.928  -0.639  1.00  0.00    -0.206 F 
ATOM     68  C   UNL     1      12.610   6.750  -1.359  1.00  0.00     0.059 A 
ATOM     69  C   UNL     1      13.503   6.784  -3.617  1.00  0.00     0.059 A 
ATOM     70  F   UNL     1      13.034   5.014  -5.080  1.00  0.00    -0.206 F 
ATOM     71  C   UNL     1      13.345   7.378  -2.366  1.00  0.00     0.060 A 
BRANCH  71  72
ATOM     72  S   UNL     1      14.097   8.980  -2.010  1.00  0.00     0.124 S 
ATOM     73  O   UNL     1      12.924   9.848  -1.957  1.00  0.00    -0.237 OA
ATOM     74  O   UNL     1      14.763   8.736  -0.735  1.00  0.00    -0.237 OA
ATOM     75  O   UNL     1      14.986   9.200  -3.147  1.00  0.00    -0.744 OA
ENDBRANCH  71  72
ENDBRANCH  50  64
BRANCH  51  76
ATOM     76  C   UNL     1       7.710  -3.886  -4.651  1.00  0.00     0.058 A 
ATOM     77  C   UNL     1       7.827  -4.961  -3.758  1.00  0.00     0.135 A 
ATOM     78  C   UNL     1       6.992  -4.102  -5.839  1.00  0.00     0.135 A 
ATOM     79  F   UNL     1       8.516  -4.812  -2.616  1.00  0.00    -0.206 F 
ATOM     80  C   UNL     1       7.279  -6.209  -4.040  1.00  0.00     0.059 A 
ATOM     81  C   UNL     1       6.409  -5.332  -6.130  1.00  0.00     0.059 A 
ATOM     82  F   UNL     1       6.844  -3.106  -6.727  1.00  0.00    -0.206 F 
ATOM     83  C   UNL     1       6.570  -6.384  -5.230  1.00  0.00     0.060 A 
BRANCH  83  84
ATOM     84  S   UNL     1       5.838  -7.999  -5.571  1.00  0.00     0.124 S 
ATOM     85  O   UNL     1       7.019  -8.800  -5.871  1.00  0.00    -0.237 OA
ATOM     86  O   UNL     1       5.165  -8.301  -4.311  1.00  0.00    -0.237 OA
ATOM     87  O   UNL     1       4.951  -7.734  -6.700  1.00  0.00    -0.744 OA
ENDBRANCH  83  84
ENDBRANCH  51  76
BRANCH  63  88
ATOM     88  C   UNL     1      14.369  -1.863  -4.103  1.00  0.00     0.058 A 
ATOM     89  C   UNL     1      14.875  -2.341  -5.322  1.00  0.00     0.135 A 
ATOM     90  C   UNL     1      15.154  -2.048  -2.952  1.00  0.00     0.135 A 
ATOM     91  F   UNL     1      14.165  -2.196  -6.452  1.00  0.00    -0.206 F 
ATOM     92  C   UNL     1      16.101  -2.995  -5.394  1.00  0.00     0.059 A 
ATOM     93  C   UNL     1      16.397  -2.672  -3.006  1.00  0.00     0.059 A 
ATOM     94  F   UNL     1      14.725  -1.600  -1.762  1.00  0.00    -0.206 F 
ATOM     95  C   UNL     1      16.857  -3.153  -4.230  1.00  0.00     0.060 A 
BRANCH  95  96
ATOM     96  S   UNL     1      18.463  -3.970  -4.345  1.00  0.00     0.124 S 
ATOM     97  O   UNL     1      18.073  -5.360  -4.557  1.00  0.00    -0.237 OA
ATOM     98  O   UNL     1      19.073  -3.301  -5.490  1.00  0.00    -0.237 OA
ATOM     99  O   UNL     1      19.085  -3.682  -3.056  1.00  0.00    -0.744 OA
ENDBRANCH  95  96
ENDBRANCH  63  88
ENDBRANCH  37  38
ENDBRANCH  30  32
ENDBRANCH  29  30
ENDBRANCH  28  29
ENDBRANCH  27  28
ENDBRANCH  26  27
ENDBRANCH   1  26
TORSDOF 22
