REMARK SMILES O=C(OCCOCCOCCOC(=O)c1ccc(O[C@@H]2CCCCNC2=O)cn1)c1ccc(-c2c3nc(c(-c4c(F)cc(S(=O)(=O)[O-])cc4F)c4ccc([nH]4)c(-c4c(F)cc(S(=O)(=O)[O-])cc4F)c4nc(c(-c5c(F)cc(S(=O)(=O)[O-])cc5F)c5ccc2[nH]5)C=C4)C=C3)cc1
REMARK SMILES IDX 9 1 8 2 7 3 6 4 5 5 4 6 3 7 2 8 1 9 30 10 31 11 95 12 32 13
REMARK SMILES IDX 94 14 33 15 34 16 35 17 88 18 36 19 93 20 87 21 89 22 37 23
REMARK SMILES IDX 92 24 86 25 85 26 38 28 72 29 51 30 71 31 52 32 55 33 70 34
REMARK SMILES IDX 90 35 53 36 54 37 69 39 91 40 56 41 39 42 40 43 49 44 41 45
REMARK SMILES IDX 42 46 48 47 50 48 43 49 44 50 45 51 46 52 47 53 73 54 74 55
REMARK SMILES IDX 83 56 75 57 76 58 82 59 84 60 77 61 78 62 79 63 80 64 81 65
REMARK SMILES IDX 57 66 58 67 67 68 59 69 60 70 66 71 68 72 61 73 62 74 63 75
REMARK SMILES IDX 64 76 65 77 10 78 11 79 12 80 13 81 14 82 15 83 16 84 29 85
REMARK SMILES IDX 17 86 28 87 18 88 19 89 20 90 21 91 26 93 25 94 27 95 24 97
REMARK SMILES IDX 23 98 22 99
REMARK H PARENT 89 27 55 38 25 96
REMARK Flexibility Score: 80.00
ROOT
ATOM      1  O   UNL     1       1.061  17.065   7.307  1.00  0.00    -0.376 OA
ENDROOT
BRANCH   1   2
ATOM      2  C   UNL     1      -0.052  16.202   7.066  1.00  0.00     0.188 C 
BRANCH   2   3
ATOM      3  C   UNL     1      -1.192  16.794   6.239  1.00  0.00     0.188 C 
BRANCH   3   4
ATOM      4  O   UNL     1      -0.793  17.069   4.889  1.00  0.00    -0.376 OA
BRANCH   4   5
ATOM      5  C   UNL     1      -1.329  18.298   4.387  1.00  0.00     0.202 C 
BRANCH   5   6
ATOM      6  C   UNL     1      -2.750  18.183   3.820  1.00  0.00     0.261 C 
BRANCH   6   7
ATOM      7  O   UNL     1      -3.527  17.183   4.500  1.00  0.00    -0.460 OA
BRANCH   7   8
ATOM      8  C   UNL     1      -3.664  15.867   4.186  1.00  0.00     0.338 C 
ATOM      9  O   UNL     1      -4.327  15.153   4.937  1.00  0.00    -0.246 OA
BRANCH   8  10
ATOM     10  C   UNL     1      -3.135  15.263   2.923  1.00  0.00     0.060 A 
ATOM     11  C   UNL     1      -2.004  15.699   2.233  1.00  0.00     0.016 A 
ATOM     12  C   UNL     1      -3.839  14.164   2.401  1.00  0.00     0.016 A 
ATOM     13  C   UNL     1      -1.709  15.211   0.962  1.00  0.00     0.010 A 
ATOM     14  C   UNL     1      -3.495  13.609   1.162  1.00  0.00     0.010 A 
ATOM     15  C   UNL     1      -2.478  14.191   0.397  1.00  0.00    -0.014 A 
BRANCH  15  16
ATOM     16  C   UNL     1      -2.310  13.883  -1.044  1.00  0.00     0.031 A 
ATOM     17  C   UNL     1      -3.388  14.316  -2.005  1.00  0.00     0.074 A 
ATOM     18  C   UNL     1      -1.156  13.364  -1.504  1.00  0.00     0.049 A 
ATOM     19  N   UNL     1      -3.437  14.196  -3.307  1.00  0.00    -0.248 NA
ATOM     20  C   UNL     1      -4.561  14.994  -1.425  1.00  0.00     0.031 C 
ATOM     21  C   UNL     1      -0.006  12.985  -0.680  1.00  0.00     0.029 A 
ATOM     22  N   UNL     1      -0.747  13.101  -2.786  1.00  0.00    -0.354 N 
ATOM     23  C   UNL     1      -4.643  14.770  -3.696  1.00  0.00     0.074 A 
ATOM     24  C   UNL     1      -5.310  15.216  -2.494  1.00  0.00     0.031 C 
ATOM     25  C   UNL     1       0.989  12.571  -1.483  1.00  0.00     0.029 A 
ATOM     26  C   UNL     1       0.526  12.591  -2.865  1.00  0.00     0.049 A 
ATOM     27  H   UNL     1      -1.313  13.261  -3.576  1.00  0.00     0.167 HD
ATOM     28  C   UNL     1      -5.145  14.926  -4.943  1.00  0.00     0.037 A 
ATOM     29  C   UNL     1       1.226  12.165  -3.932  1.00  0.00     0.037 A 
ATOM     30  C   UNL     1      -4.476  14.489  -6.137  1.00  0.00     0.049 A 
ATOM     31  C   UNL     1       0.610  12.257  -5.294  1.00  0.00     0.074 A 
ATOM     32  C   UNL     1      -4.906  14.568  -7.449  1.00  0.00     0.029 A 
ATOM     33  N   UNL     1      -3.226  13.889  -6.159  1.00  0.00    -0.354 N 
ATOM     34  N   UNL     1      -0.556  12.746  -5.636  1.00  0.00    -0.248 NA
ATOM     35  C   UNL     1       1.407  11.739  -6.413  1.00  0.00     0.031 C 
ATOM     36  C   UNL     1      -3.924  13.991  -8.264  1.00  0.00     0.029 A 
ATOM     37  C   UNL     1      -2.870  13.585  -7.461  1.00  0.00     0.049 A 
ATOM     38  H   UNL     1      -2.672  13.707  -5.365  1.00  0.00     0.167 HD
ATOM     39  C   UNL     1      -0.630  12.609  -7.015  1.00  0.00     0.074 A 
ATOM     40  C   UNL     1       0.613  11.995  -7.442  1.00  0.00     0.031 C 
ATOM     41  C   UNL     1      -1.631  12.967  -7.855  1.00  0.00     0.037 A 
BRANCH  28  42
ATOM     42  C   UNL     1      -6.499  15.567  -5.058  1.00  0.00     0.058 A 
ATOM     43  C   UNL     1      -6.682  16.946  -4.870  1.00  0.00     0.135 A 
ATOM     44  C   UNL     1      -7.633  14.785  -5.327  1.00  0.00     0.135 A 
ATOM     45  F   UNL     1      -5.633  17.735  -4.584  1.00  0.00    -0.206 F 
ATOM     46  C   UNL     1      -7.947  17.524  -4.913  1.00  0.00     0.059 A 
ATOM     47  C   UNL     1      -8.906  15.344  -5.393  1.00  0.00     0.059 A 
ATOM     48  F   UNL     1      -7.513  13.460  -5.506  1.00  0.00    -0.206 F 
ATOM     49  C   UNL     1      -9.055  16.712  -5.165  1.00  0.00     0.060 A 
BRANCH  49  50
ATOM     50  S   UNL     1     -10.696  17.465  -5.184  1.00  0.00     0.124 S 
ATOM     51  O   UNL     1     -10.949  17.644  -3.758  1.00  0.00    -0.237 OA
ATOM     52  O   UNL     1     -10.472  18.689  -5.946  1.00  0.00    -0.237 OA
ATOM     53  O   UNL     1     -11.521  16.460  -5.848  1.00  0.00    -0.744 OA
ENDBRANCH  49  50
ENDBRANCH  28  42
BRANCH  29  54
ATOM     54  C   UNL     1       2.565  11.554  -3.757  1.00  0.00     0.058 A 
ATOM     55  C   UNL     1       3.742  12.277  -3.987  1.00  0.00     0.135 A 
ATOM     56  C   UNL     1       2.681  10.220  -3.344  1.00  0.00     0.135 A 
ATOM     57  F   UNL     1       3.677  13.549  -4.409  1.00  0.00    -0.206 F 
ATOM     58  C   UNL     1       4.995  11.710  -3.773  1.00  0.00     0.059 A 
ATOM     59  C   UNL     1       3.920   9.627  -3.137  1.00  0.00     0.059 A 
ATOM     60  F   UNL     1       1.581   9.505  -3.065  1.00  0.00    -0.206 F 
ATOM     61  C   UNL     1       5.073  10.388  -3.330  1.00  0.00     0.060 A 
BRANCH  61  62
ATOM     62  S   UNL     1       6.668   9.704  -2.826  1.00  0.00     0.124 S 
ATOM     63  O   UNL     1       7.120   9.070  -4.057  1.00  0.00    -0.237 OA
ATOM     64  O   UNL     1       7.404  10.893  -2.405  1.00  0.00    -0.237 OA
ATOM     65  O   UNL     1       6.293   8.805  -1.738  1.00  0.00    -0.744 OA
ENDBRANCH  61  62
ENDBRANCH  29  54
BRANCH  41  66
ATOM     66  C   UNL     1      -1.396  12.732  -9.314  1.00  0.00     0.058 A 
ATOM     67  C   UNL     1      -1.506  11.454  -9.879  1.00  0.00     0.135 A 
ATOM     68  C   UNL     1      -1.066  13.805 -10.155  1.00  0.00     0.135 A 
ATOM     69  F   UNL     1      -1.806  10.397  -9.107  1.00  0.00    -0.206 F 
ATOM     70  C   UNL     1      -1.270  11.241 -11.232  1.00  0.00     0.059 A 
ATOM     71  C   UNL     1      -0.845  13.618 -11.514  1.00  0.00     0.059 A 
ATOM     72  F   UNL     1      -0.952  15.046  -9.656  1.00  0.00    -0.206 F 
ATOM     73  C   UNL     1      -0.935  12.330 -12.040  1.00  0.00     0.060 A 
BRANCH  73  74
ATOM     74  S   UNL     1      -0.640  12.051 -13.798  1.00  0.00     0.124 S 
ATOM     75  O   UNL     1       0.726  11.538 -13.785  1.00  0.00    -0.237 OA
ATOM     76  O   UNL     1      -1.678  11.085 -14.145  1.00  0.00    -0.237 OA
ATOM     77  O   UNL     1      -0.808  13.379 -14.381  1.00  0.00    -0.744 OA
ENDBRANCH  73  74
ENDBRANCH  41  66
ENDBRANCH  15  16
ENDBRANCH   8  10
ENDBRANCH   7   8
ENDBRANCH   6   7
ENDBRANCH   5   6
ENDBRANCH   4   5
ENDBRANCH   3   4
ENDBRANCH   2   3
ENDBRANCH   1   2
BRANCH   1  78
ATOM     78  C   UNL     1       1.825  17.488   6.180  1.00  0.00     0.202 C 
BRANCH  78  79
ATOM     79  C   UNL     1       2.738  16.450   5.520  1.00  0.00     0.261 C 
BRANCH  79  80
ATOM     80  O   UNL     1       2.050  15.328   4.953  1.00  0.00    -0.459 OA
BRANCH  80  81
ATOM     81  C   UNL     1       2.130  14.182   5.683  1.00  0.00     0.357 C 
ATOM     82  O   UNL     1       2.660  14.039   6.772  1.00  0.00    -0.244 OA
BRANCH  81  83
ATOM     83  C   UNL     1       1.518  13.077   4.917  1.00  0.00     0.148 A 
ATOM     84  C   UNL     1       2.176  12.669   3.776  1.00  0.00     0.040 A 
ATOM     85  N   UNL     1       0.487  12.396   5.481  1.00  0.00    -0.245 NA
ATOM     86  C   UNL     1       1.796  11.458   3.219  1.00  0.00     0.050 A 
ATOM     87  C   UNL     1       0.152  11.221   4.882  1.00  0.00     0.158 A 
ATOM     88  C   UNL     1       0.816  10.675   3.788  1.00  0.00     0.138 A 
BRANCH  88  89
ATOM     89  O   UNL     1       0.496   9.412   3.421  1.00  0.00    -0.479 OA
BRANCH  89  90
ATOM     90  C   UNL     1       1.121   8.725   2.332  1.00  0.00     0.262 C 
BRANCH  90  91
ATOM     91  C   UNL     1       2.451   8.026   2.648  1.00  0.00     0.055 CG0
ATOM     92  G   UNL     1       3.744   8.825   2.568  1.00  0.00     0.000 G0
ENDBRANCH  90  91
BRANCH  90  93
ATOM     93  C   UNL     1       0.897   9.200   0.887  1.00  0.00     0.261 C 
ATOM     94  N   UNL     1       1.911   9.590   0.076  1.00  0.00    -0.353 N 
ATOM     95  O   UNL     1      -0.245   9.205   0.414  1.00  0.00    -0.271 OA
ATOM     96  H   UNL     1       1.694   9.533  -0.883  1.00  0.00     0.163 HD
BRANCH  94  97
ATOM     97  C   UNL     1       3.251  10.075   0.340  1.00  0.00     0.116 C 
BRANCH  97  98
ATOM     98  C   UNL     1       4.177   9.197   1.156  1.00  0.00     0.021 C 
BRANCH  98  99
ATOM     99  C   UNL     1       3.744   8.825   2.568  1.00  0.00     0.006 CG0
ATOM    100  G   UNL     1       2.451   8.026   2.648  1.00  0.00     0.000 G0
ENDBRANCH  98  99
ENDBRANCH  97  98
ENDBRANCH  94  97
ENDBRANCH  90  93
ENDBRANCH  89  90
ENDBRANCH  88  89
ENDBRANCH  81  83
ENDBRANCH  80  81
ENDBRANCH  79  80
ENDBRANCH  78  79
ENDBRANCH   1  78
TORSDOF 22
