REMARK SMILES CC[C@H]1CCCC[N@H+]1[C@@H]1CC(=O)N(c2nc(CC(=O)OCCOCCOCCOC(=O)c3ccc(-c4c5nc(c(-c6c(F)cc(S(=O)(=O)[O-])cc6F)c6ccc([nH]6)c(-c6c(F)cc(S(=O)(=O)[O-])cc6F)c6nc(c(-c7c(F)cc(S(=O)(=O)[O-])cc7F)c7ccc4[nH]7)C=C6)C=C5)cc3)cs2)C1=O
REMARK SMILES IDX 24 1 23 2 22 3 21 4 20 5 18 6 19 7 17 8 16 9 14 10 15 11
REMARK SMILES IDX 99 12 98 13 13 14 9 15 10 16 100 17 11 18 101 19 12 20 8 21
REMARK SMILES IDX 3 22 4 23 5 24 7 25 6 27 2 28 1 29 25 30 26 31 27 32 28 33
REMARK SMILES IDX 29 34 30 35 31 36 32 37 33 38 97 39 34 40 96 41 35 42 36 43
REMARK SMILES IDX 37 44 90 45 38 46 95 47 89 48 91 49 39 50 94 51 88 52 87 53
REMARK SMILES IDX 40 55 74 56 53 57 73 58 54 59 57 60 72 61 92 62 55 63 56 64
REMARK SMILES IDX 71 66 93 67 58 68 41 69 42 70 51 71 43 72 44 73 50 74 52 75
REMARK SMILES IDX 45 76 46 77 47 78 48 79 49 80 75 81 76 82 85 83 77 84 78 85
REMARK SMILES IDX 84 86 86 87 79 88 80 89 81 90 82 91 83 92 59 93 60 94 69 95
REMARK SMILES IDX 61 96 62 97 68 98 70 99 63 100 64 101 65 102 66 103 67 104
REMARK H PARENT 8 26 91 54 57 65
REMARK Flexibility Score: inf
ROOT
ATOM      1  C   UNL     1      -6.447  10.812   2.591  1.00  0.00     0.188 C 
ENDROOT
BRANCH   1   2
ATOM      2  O   UNL     1      -7.452  10.760   3.600  1.00  0.00    -0.376 OA
BRANCH   2   3
ATOM      3  C   UNL     1      -7.680   9.536   4.285  1.00  0.00     0.202 C 
BRANCH   3   4
ATOM      4  C   UNL     1      -8.195   8.366   3.439  1.00  0.00     0.261 C 
BRANCH   4   5
ATOM      5  O   UNL     1      -7.331   8.012   2.336  1.00  0.00    -0.463 OA
BRANCH   5   6
ATOM      6  C   UNL     1      -7.934   7.826   1.135  1.00  0.00     0.311 C 
ATOM      7  O   UNL     1      -9.152   7.882   0.977  1.00  0.00    -0.252 OA
BRANCH   6   8
ATOM      8  C   UNL     1      -7.020   7.623  -0.054  1.00  0.00     0.179 C 
BRANCH   8   9
ATOM      9  C   UNL     1      -5.557   7.378   0.155  1.00  0.00     0.065 A 
ATOM     10  C   UNL     1      -3.785   6.066   0.447  1.00  0.00     0.199 A 
ATOM     11  N   UNL     1      -5.102   6.090   0.418  1.00  0.00    -0.224 NA
ATOM     12  S   UNL     1      -3.011   7.584   0.237  1.00  0.00    -0.104 S 
ATOM     13  C   UNL     1      -4.538   8.279  -0.111  1.00  0.00     0.093 A 
BRANCH  10  14
ATOM     14  N   UNL     1      -2.989   4.965   0.282  1.00  0.00    -0.219 N 
ATOM     15  C   UNL     1      -1.177   3.485   0.371  1.00  0.00     0.285 C 
ATOM     16  C   UNL     1      -1.947   3.289  -0.931  1.00  0.00     0.176 C 
ATOM     17  C   UNL     1      -1.883   4.678   1.036  1.00  0.00     0.294 C 
ATOM     18  C   UNL     1      -3.119   4.211  -0.847  1.00  0.00     0.242 C 
ATOM     19  O   UNL     1      -1.525   5.219   2.074  1.00  0.00    -0.267 OA
ATOM     20  O   UNL     1      -3.939   4.301  -1.750  1.00  0.00    -0.274 OA
BRANCH  15  21
ATOM     21  N   UNL     1       0.289   3.669   0.275  1.00  0.00    -0.322 N 
ATOM     22  C   UNL     1       1.072   2.475  -0.127  1.00  0.00     0.184 C 
ATOM     23  C   UNL     1       2.559   2.743   0.194  1.00  0.00     0.065 C 
ATOM     24  C   UNL     1       3.078   3.994  -0.507  1.00  0.00     0.012 C 
ATOM     25  C   UNL     1       0.725   4.913  -0.373  1.00  0.00     0.263 C 
ATOM     26  H   UNL     1       0.539   3.794   1.256  1.00  0.00     0.349 HD
ATOM     27  C   UNL     1       2.212   5.187  -0.132  1.00  0.00     0.062 C 
BRANCH  22  28
ATOM     28  C   UNL     1       0.853   2.012  -1.591  1.00  0.00     0.061 C 
ATOM     29  C   UNL     1       1.738   0.861  -2.050  1.00  0.00     0.010 C 
ENDBRANCH  22  28
ENDBRANCH  15  21
ENDBRANCH  10  14
ENDBRANCH   8   9
ENDBRANCH   6   8
ENDBRANCH   5   6
ENDBRANCH   4   5
ENDBRANCH   3   4
ENDBRANCH   2   3
ENDBRANCH   1   2
BRANCH   1  30
ATOM     30  C   UNL     1      -5.199   9.931   2.745  1.00  0.00     0.188 C 
BRANCH  30  31
ATOM     31  O   UNL     1      -4.857   9.694   4.098  1.00  0.00    -0.376 OA
BRANCH  31  32
ATOM     32  C   UNL     1      -3.505   9.937   4.432  1.00  0.00     0.202 C 
BRANCH  32  33
ATOM     33  C   UNL     1      -3.261  11.428   4.675  1.00  0.00     0.261 C 
BRANCH  33  34
ATOM     34  O   UNL     1      -3.575  12.286   3.560  1.00  0.00    -0.460 OA
BRANCH  34  35
ATOM     35  C   UNL     1      -2.787  12.198   2.469  1.00  0.00     0.338 C 
ATOM     36  O   UNL     1      -1.823  11.455   2.316  1.00  0.00    -0.246 OA
BRANCH  35  37
ATOM     37  C   UNL     1      -3.398  13.009   1.397  1.00  0.00     0.060 A 
ATOM     38  C   UNL     1      -3.800  12.388   0.207  1.00  0.00     0.016 A 
ATOM     39  C   UNL     1      -3.587  14.380   1.571  1.00  0.00     0.016 A 
ATOM     40  C   UNL     1      -4.401  13.135  -0.811  1.00  0.00     0.010 A 
ATOM     41  C   UNL     1      -4.165  15.131   0.543  1.00  0.00     0.010 A 
ATOM     42  C   UNL     1      -4.568  14.518  -0.657  1.00  0.00    -0.014 A 
BRANCH  42  43
ATOM     43  C   UNL     1      -5.056  15.365  -1.775  1.00  0.00     0.031 A 
ATOM     44  C   UNL     1      -4.059  16.165  -2.567  1.00  0.00     0.074 A 
ATOM     45  C   UNL     1      -6.370  15.462  -2.052  1.00  0.00     0.049 A 
ATOM     46  N   UNL     1      -4.264  17.105  -3.452  1.00  0.00    -0.248 NA
ATOM     47  C   UNL     1      -2.639  15.864  -2.322  1.00  0.00     0.031 C 
ATOM     48  C   UNL     1      -7.430  14.698  -1.398  1.00  0.00     0.029 A 
ATOM     49  N   UNL     1      -7.037  16.270  -2.941  1.00  0.00    -0.354 N 
ATOM     50  C   UNL     1      -3.002  17.525  -3.855  1.00  0.00     0.074 A 
ATOM     51  C   UNL     1      -2.038  16.744  -3.110  1.00  0.00     0.031 C 
ATOM     52  C   UNL     1      -8.618  15.095  -1.887  1.00  0.00     0.029 A 
ATOM     53  C   UNL     1      -8.406  16.178  -2.846  1.00  0.00     0.049 A 
ATOM     54  H   UNL     1      -6.579  16.859  -3.584  1.00  0.00     0.167 HD
ATOM     55  C   UNL     1      -2.679  18.478  -4.762  1.00  0.00     0.037 A 
ATOM     56  C   UNL     1      -9.375  16.916  -3.426  1.00  0.00     0.037 A 
ATOM     57  C   UNL     1      -3.646  19.251  -5.498  1.00  0.00     0.049 A 
ATOM     58  C   UNL     1      -8.993  18.043  -4.353  1.00  0.00     0.074 A 
ATOM     59  C   UNL     1      -3.419  20.222  -6.457  1.00  0.00     0.029 A 
ATOM     60  N   UNL     1      -5.021  19.153  -5.346  1.00  0.00    -0.354 N 
ATOM     61  N   UNL     1      -7.798  18.424  -4.740  1.00  0.00    -0.248 NA
ATOM     62  C   UNL     1     -10.088  18.852  -4.910  1.00  0.00     0.031 C 
ATOM     63  C   UNL     1      -4.654  20.752  -6.843  1.00  0.00     0.029 A 
ATOM     64  C   UNL     1      -5.654  20.073  -6.165  1.00  0.00     0.049 A 
ATOM     65  H   UNL     1      -5.479  18.522  -4.746  1.00  0.00     0.167 HD
ATOM     66  C   UNL     1      -8.000  19.505  -5.595  1.00  0.00     0.074 A 
ATOM     67  C   UNL     1      -9.431  19.706  -5.684  1.00  0.00     0.031 C 
ATOM     68  C   UNL     1      -7.082  20.264  -6.244  1.00  0.00     0.037 A 
BRANCH  55  69
ATOM     69  C   UNL     1      -1.220  18.767  -4.982  1.00  0.00     0.058 A 
ATOM     70  C   UNL     1      -0.379  17.869  -5.657  1.00  0.00     0.135 A 
ATOM     71  C   UNL     1      -0.664  19.981  -4.546  1.00  0.00     0.135 A 
ATOM     72  F   UNL     1      -0.853  16.686  -6.080  1.00  0.00    -0.206 F 
ATOM     73  C   UNL     1       0.966  18.152  -5.870  1.00  0.00     0.059 A 
ATOM     74  C   UNL     1       0.672  20.298  -4.771  1.00  0.00     0.059 A 
ATOM     75  F   UNL     1      -1.423  20.876  -3.893  1.00  0.00    -0.206 F 
ATOM     76  C   UNL     1       1.482  19.371  -5.423  1.00  0.00     0.060 A 
BRANCH  76  77
ATOM     77  S   UNL     1       3.229  19.723  -5.712  1.00  0.00     0.124 S 
ATOM     78  O   UNL     1       3.870  18.805  -4.774  1.00  0.00    -0.237 OA
ATOM     79  O   UNL     1       3.384  19.395  -7.125  1.00  0.00    -0.237 OA
ATOM     80  O   UNL     1       3.350  21.140  -5.382  1.00  0.00    -0.744 OA
ENDBRANCH  76  77
ENDBRANCH  55  69
BRANCH  56  81
ATOM     81  C   UNL     1     -10.806  16.651  -3.108  1.00  0.00     0.058 A 
ATOM     82  C   UNL     1     -11.681  16.143  -4.079  1.00  0.00     0.135 A 
ATOM     83  C   UNL     1     -11.328  16.908  -1.830  1.00  0.00     0.135 A 
ATOM     84  F   UNL     1     -11.237  15.900  -5.321  1.00  0.00    -0.206 F 
ATOM     85  C   UNL     1     -13.024  15.906  -3.798  1.00  0.00     0.059 A 
ATOM     86  C   UNL     1     -12.660  16.652  -1.517  1.00  0.00     0.059 A 
ATOM     87  F   UNL     1     -10.534  17.394  -0.864  1.00  0.00    -0.206 F 
ATOM     88  C   UNL     1     -13.502  16.159  -2.511  1.00  0.00     0.060 A 
BRANCH  88  89
ATOM     89  S   UNL     1     -15.234  15.798  -2.146  1.00  0.00     0.124 S 
ATOM     90  O   UNL     1     -15.916  16.864  -2.871  1.00  0.00    -0.237 OA
ATOM     91  O   UNL     1     -15.389  14.454  -2.693  1.00  0.00    -0.237 OA
ATOM     92  O   UNL     1     -15.296  15.886  -0.690  1.00  0.00    -0.744 OA
ENDBRANCH  88  89
ENDBRANCH  56  81
BRANCH  68  93
ATOM     93  C   UNL     1      -7.586  21.380  -7.119  1.00  0.00     0.058 A 
ATOM     94  C   UNL     1      -8.107  22.563  -6.571  1.00  0.00     0.135 A 
ATOM     95  C   UNL     1      -7.470  21.302  -8.516  1.00  0.00     0.135 A 
ATOM     96  F   UNL     1      -8.249  22.687  -5.242  1.00  0.00    -0.206 F 
ATOM     97  C   UNL     1      -8.501  23.626  -7.378  1.00  0.00     0.059 A 
ATOM     98  C   UNL     1      -7.832  22.363  -9.341  1.00  0.00     0.059 A 
ATOM     99  F   UNL     1      -6.971  20.197  -9.092  1.00  0.00    -0.206 F 
ATOM    100  C   UNL     1      -8.351  23.521  -8.762  1.00  0.00     0.060 A 
BRANCH 100 101
ATOM    101  S   UNL     1      -8.805  24.934  -9.790  1.00  0.00     0.124 S 
ATOM    102  O   UNL     1     -10.261  24.912  -9.696  1.00  0.00    -0.237 OA
ATOM    103  O   UNL     1      -8.142  26.041  -9.108  1.00  0.00    -0.237 OA
ATOM    104  O   UNL     1      -8.256  24.593 -11.100  1.00  0.00    -0.744 OA
ENDBRANCH 100 101
ENDBRANCH  68  93
ENDBRANCH  42  43
ENDBRANCH  35  37
ENDBRANCH  34  35
ENDBRANCH  33  34
ENDBRANCH  32  33
ENDBRANCH  31  32
ENDBRANCH  30  31
ENDBRANCH   1  30
TORSDOF 24
