REMARK SMILES COc1ccc(-c2nc3ccc(C)cc3[nH]2)c(C(=O)OCCOCCOCCOC(=O)c2ccc(-c3c4nc(c(-c5c(F)cc(S(=O)(=O)[O-])cc5F)c5ccc([nH]5)c(-c5c(F)cc(S(=O)(=O)[O-])cc5F)c5nc(c(-c6c(F)cc(S(=O)(=O)[O-])cc6F)c6ccc3[nH]6)C=C5)C=C4)cc2)c1OC
REMARK SMILES IDX 25 1 24 2 23 3 22 4 21 5 20 6 18 7 19 8 17 9 3 10 4 11 98 12
REMARK SMILES IDX 5 13 6 14 2 15 1 16 99 17 100 18 7 19 8 20 16 21 9 22 15 23
REMARK SMILES IDX 10 25 14 26 11 27 12 28 13 29 26 30 27 31 28 32 29 33 30 34
REMARK SMILES IDX 31 35 32 36 33 37 97 38 34 39 96 40 35 41 36 42 37 43 90 44
REMARK SMILES IDX 38 45 95 46 89 47 91 48 39 49 94 50 88 51 87 52 40 54 74 55
REMARK SMILES IDX 53 56 73 57 54 58 57 59 72 60 92 61 55 62 56 63 71 65 93 66
REMARK SMILES IDX 58 67 41 68 42 69 51 70 43 71 44 72 50 73 52 74 45 75 46 76
REMARK SMILES IDX 47 77 48 78 49 79 75 80 76 81 85 82 77 83 78 84 84 85 86 86
REMARK SMILES IDX 79 87 80 88 81 89 82 90 83 91 59 92 60 93 69 94 61 95 62 96
REMARK SMILES IDX 68 97 70 98 63 99 64 100 65 101 66 102 67 103
REMARK H PARENT 16 24 91 53 57 64
REMARK Flexibility Score: inf
ROOT
ATOM      1  C   UNL     1       4.965  -0.061   4.284  1.00  0.00     0.188 C 
ENDROOT
BRANCH   1   2
ATOM      2  C   UNL     1       5.744  -1.254   4.856  1.00  0.00     0.188 C 
BRANCH   2   3
ATOM      3  O   UNL     1       6.845  -1.677   4.050  1.00  0.00    -0.376 OA
BRANCH   3   4
ATOM      4  C   UNL     1       6.775  -3.058   3.688  1.00  0.00     0.202 C 
BRANCH   4   5
ATOM      5  C   UNL     1       5.978  -3.230   2.397  1.00  0.00     0.261 C 
BRANCH   5   6
ATOM      6  O   UNL     1       4.648  -2.703   2.530  1.00  0.00    -0.460 OA
BRANCH   6   7
ATOM      7  C   UNL     1       3.650  -3.557   2.849  1.00  0.00     0.342 C 
ATOM      8  O   UNL     1       3.741  -4.766   2.993  1.00  0.00    -0.246 OA
BRANCH   7   9
ATOM      9  C   UNL     1       2.408  -2.770   3.060  1.00  0.00     0.116 A 
ATOM     10  C   UNL     1       0.853  -1.064   2.323  1.00  0.00     0.161 A 
ATOM     11  C   UNL     1       0.133  -1.214   3.511  1.00  0.00     0.051 A 
ATOM     12  C   UNL     1       1.983  -1.854   2.073  1.00  0.00     0.176 A 
ATOM     13  C   UNL     1       0.545  -2.133   4.481  1.00  0.00     0.017 A 
ATOM     14  C   UNL     1       1.708  -2.891   4.285  1.00  0.00     0.036 A 
BRANCH  10  15
ATOM     15  O   UNL     1       0.492  -0.016   1.518  1.00  0.00    -0.493 OA
ATOM     16  C   UNL     1      -0.215  -0.427   0.353  1.00  0.00     0.278 C 
ENDBRANCH  10  15
BRANCH  12  17
ATOM     17  O   UNL     1       2.655  -1.832   0.876  1.00  0.00    -0.492 OA
ATOM     18  C   UNL     1       3.129  -0.548   0.471  1.00  0.00     0.278 C 
ENDBRANCH  12  17
BRANCH  14  19
ATOM     19  C   UNL     1       2.321  -3.562   5.431  1.00  0.00     0.139 A 
ATOM     20  N   UNL     1       3.448  -3.145   5.966  1.00  0.00    -0.228 NA
ATOM     21  N   UNL     1       1.869  -4.682   6.091  1.00  0.00    -0.338 N 
ATOM     22  C   UNL     1       3.828  -4.100   6.859  1.00  0.00     0.089 A 
ATOM     23  C   UNL     1       2.849  -5.075   6.981  1.00  0.00     0.066 A 
ATOM     24  H   UNL     1       1.001  -5.125   5.954  1.00  0.00     0.168 HD
ATOM     25  C   UNL     1       5.018  -4.194   7.588  1.00  0.00     0.031 A 
ATOM     26  C   UNL     1       2.983  -6.167   7.844  1.00  0.00     0.031 A 
ATOM     27  C   UNL     1       5.188  -5.287   8.439  1.00  0.00     0.006 A 
ATOM     28  C   UNL     1       4.183  -6.255   8.582  1.00  0.00    -0.049 A 
ATOM     29  C   UNL     1       4.421  -7.405   9.522  1.00  0.00     0.044 C 
ENDBRANCH  14  19
ENDBRANCH   7   9
ENDBRANCH   6   7
ENDBRANCH   5   6
ENDBRANCH   4   5
ENDBRANCH   3   4
ENDBRANCH   2   3
ENDBRANCH   1   2
BRANCH   1  30
ATOM     30  O   UNL     1       5.654   1.070   3.756  1.00  0.00    -0.376 OA
BRANCH  30  31
ATOM     31  C   UNL     1       6.995   1.291   4.154  1.00  0.00     0.202 C 
BRANCH  31  32
ATOM     32  C   UNL     1       7.206   1.866   5.558  1.00  0.00     0.261 C 
BRANCH  32  33
ATOM     33  O   UNL     1       6.551   1.139   6.612  1.00  0.00    -0.460 OA
BRANCH  33  34
ATOM     34  C   UNL     1       5.394   1.692   7.051  1.00  0.00     0.338 C 
ATOM     35  O   UNL     1       4.885   2.730   6.660  1.00  0.00    -0.246 OA
BRANCH  34  36
ATOM     36  C   UNL     1       4.733   0.817   8.044  1.00  0.00     0.060 A 
ATOM     37  C   UNL     1       3.372   0.540   7.867  1.00  0.00     0.016 A 
ATOM     38  C   UNL     1       5.389   0.394   9.203  1.00  0.00     0.016 A 
ATOM     39  C   UNL     1       2.648  -0.102   8.872  1.00  0.00     0.010 A 
ATOM     40  C   UNL     1       4.658  -0.242  10.216  1.00  0.00     0.010 A 
ATOM     41  C   UNL     1       3.274  -0.451  10.076  1.00  0.00    -0.014 A 
BRANCH  41  42
ATOM     42  C   UNL     1       2.444  -0.864  11.240  1.00  0.00     0.031 A 
ATOM     43  C   UNL     1       2.103   0.155  12.294  1.00  0.00     0.074 A 
ATOM     44  C   UNL     1       1.961  -2.115  11.349  1.00  0.00     0.049 A 
ATOM     45  N   UNL     1       1.411   0.011  13.396  1.00  0.00    -0.248 NA
ATOM     46  C   UNL     1       2.608   1.520  12.075  1.00  0.00     0.031 C 
ATOM     47  C   UNL     1       2.185  -3.188  10.387  1.00  0.00     0.029 A 
ATOM     48  N   UNL     1       1.187  -2.693  12.326  1.00  0.00    -0.354 N 
ATOM     49  C   UNL     1       1.397   1.263  14.001  1.00  0.00     0.074 A 
ATOM     50  C   UNL     1       2.179   2.145  13.161  1.00  0.00     0.031 C 
ATOM     51  C   UNL     1       1.581  -4.304  10.830  1.00  0.00     0.029 A 
ATOM     52  C   UNL     1       0.946  -4.030  12.117  1.00  0.00     0.049 A 
ATOM     53  H   UNL     1       0.839  -2.197  13.102  1.00  0.00     0.167 HD
ATOM     54  C   UNL     1       0.781   1.648  15.145  1.00  0.00     0.037 A 
ATOM     55  C   UNL     1       0.306  -4.936  12.883  1.00  0.00     0.037 A 
ATOM     56  C   UNL     1       0.009   0.772  15.989  1.00  0.00     0.049 A 
ATOM     57  C   UNL     1      -0.325  -4.504  14.181  1.00  0.00     0.074 A 
ATOM     58  C   UNL     1      -0.652   1.074  17.167  1.00  0.00     0.029 A 
ATOM     59  N   UNL     1      -0.200  -0.578  15.750  1.00  0.00    -0.354 N 
ATOM     60  N   UNL     1      -0.344  -3.313  14.731  1.00  0.00    -0.248 NA
ATOM     61  C   UNL     1      -1.029  -5.535  14.957  1.00  0.00     0.031 C 
ATOM     62  C   UNL     1      -1.227  -0.102  17.662  1.00  0.00     0.029 A 
ATOM     63  C   UNL     1      -0.966  -1.127  16.767  1.00  0.00     0.049 A 
ATOM     64  H   UNL     1       0.145  -1.074  14.973  1.00  0.00     0.167 HD
ATOM     65  C   UNL     1      -1.080  -3.447  15.905  1.00  0.00     0.074 A 
ATOM     66  C   UNL     1      -1.498  -4.832  15.979  1.00  0.00     0.031 C 
ATOM     67  C   UNL     1      -1.382  -2.506  16.834  1.00  0.00     0.037 A 
BRANCH  54  68
ATOM     68  C   UNL     1       0.941   3.084  15.560  1.00  0.00     0.058 A 
ATOM     69  C   UNL     1       0.298   4.125  14.872  1.00  0.00     0.135 A 
ATOM     70  C   UNL     1       1.741   3.423  16.663  1.00  0.00     0.135 A 
ATOM     71  F   UNL     1      -0.466   3.858  13.801  1.00  0.00    -0.206 F 
ATOM     72  C   UNL     1       0.469   5.456  15.242  1.00  0.00     0.059 A 
ATOM     73  C   UNL     1       1.906   4.745  17.067  1.00  0.00     0.059 A 
ATOM     74  F   UNL     1       2.378   2.466  17.356  1.00  0.00    -0.206 F 
ATOM     75  C   UNL     1       1.280   5.755  16.338  1.00  0.00     0.060 A 
BRANCH  75  76
ATOM     76  S   UNL     1       1.507   7.486  16.798  1.00  0.00     0.124 S 
ATOM     77  O   UNL     1       2.411   7.949  15.750  1.00  0.00    -0.237 OA
ATOM     78  O   UNL     1       0.145   8.008  16.736  1.00  0.00    -0.237 OA
ATOM     79  O   UNL     1       2.085   7.410  18.136  1.00  0.00    -0.744 OA
ENDBRANCH  75  76
ENDBRANCH  54  68
BRANCH  55  80
ATOM     80  C   UNL     1       0.238  -6.355  12.443  1.00  0.00     0.058 A 
ATOM     81  C   UNL     1      -0.965  -6.925  12.004  1.00  0.00     0.135 A 
ATOM     82  C   UNL     1       1.385  -7.165  12.442  1.00  0.00     0.135 A 
ATOM     83  F   UNL     1      -2.091  -6.195  11.998  1.00  0.00    -0.206 F 
ATOM     84  C   UNL     1      -1.032  -8.249  11.583  1.00  0.00     0.059 A 
ATOM     85  C   UNL     1       1.348  -8.484  12.005  1.00  0.00     0.059 A 
ATOM     86  F   UNL     1       2.564  -6.664  12.844  1.00  0.00    -0.206 F 
ATOM     87  C   UNL     1       0.133  -9.019  11.581  1.00  0.00     0.060 A 
BRANCH  87  88
ATOM     88  S   UNL     1       0.054 -10.710  10.952  1.00  0.00     0.124 S 
ATOM     89  O   UNL     1      -0.617 -11.400  12.047  1.00  0.00    -0.237 OA
ATOM     90  O   UNL     1      -0.722 -10.543   9.727  1.00  0.00    -0.237 OA
ATOM     91  O   UNL     1       1.459 -11.054  10.750  1.00  0.00    -0.744 OA
ENDBRANCH  87  88
ENDBRANCH  55  80
BRANCH  67  92
ATOM     92  C   UNL     1      -2.235  -2.928  17.999  1.00  0.00     0.058 A 
ATOM     93  C   UNL     1      -1.730  -3.731  19.034  1.00  0.00     0.135 A 
ATOM     94  C   UNL     1      -3.564  -2.486  18.104  1.00  0.00     0.135 A 
ATOM     95  F   UNL     1      -0.468  -4.186  18.981  1.00  0.00    -0.206 F 
ATOM     96  C   UNL     1      -2.519  -4.102  20.118  1.00  0.00     0.059 A 
ATOM     97  C   UNL     1      -4.364  -2.823  19.192  1.00  0.00     0.059 A 
ATOM     98  F   UNL     1      -4.095  -1.707  17.148  1.00  0.00    -0.206 F 
ATOM     99  C   UNL     1      -3.837  -3.643  20.188  1.00  0.00     0.060 A 
BRANCH  99 100
ATOM    100  S   UNL     1      -4.845  -4.111  21.611  1.00  0.00     0.124 S 
ATOM    101  O   UNL     1      -5.163  -5.501  21.302  1.00  0.00    -0.237 OA
ATOM    102  O   UNL     1      -3.928  -3.904  22.728  1.00  0.00    -0.237 OA
ATOM    103  O   UNL     1      -5.969  -3.181  21.551  1.00  0.00    -0.744 OA
ENDBRANCH  99 100
ENDBRANCH  67  92
ENDBRANCH  41  42
ENDBRANCH  34  36
ENDBRANCH  33  34
ENDBRANCH  32  33
ENDBRANCH  31  32
ENDBRANCH  30  31
ENDBRANCH   1  30
TORSDOF 23
