REMARK SMILES O=C1C[C@H](c2cn[nH]c2C(=O)OCCOCCOCCOC(=O)c2ccc(-c3c4nc(c(-c5c(F)cc(S(=O)(=O)[O-])cc5F)c5ccc([nH]5)c(-c5c(F)cc(S(=O)(=O)[O-])cc5F)c5nc(c(-c6c(F)cc(S(=O)(=O)[O-])cc6F)c6ccc3[nH]6)C=C5)C=C4)cc2)c2c(-c3cccs3)n[nH]c2N1
REMARK SMILES IDX 17 1 16 2 15 3 14 4 13 5 12 6 10 7 11 8 9 9 5 10 6 11 7 12
REMARK SMILES IDX 8 13 4 15 1 16 2 17 3 18 100 19 99 20 90 22 98 23 91 24
REMARK SMILES IDX 97 25 92 27 93 28 96 29 94 30 95 31 18 32 19 33 20 34 21 35
REMARK SMILES IDX 22 36 23 37 24 38 25 39 89 40 26 41 88 42 27 43 28 44 29 45
REMARK SMILES IDX 82 46 30 47 87 48 81 49 83 50 31 51 86 52 80 53 79 54 32 56
REMARK SMILES IDX 66 57 45 58 65 59 46 60 49 61 64 62 84 63 47 64 48 65 63 67
REMARK SMILES IDX 85 68 50 69 33 70 34 71 43 72 35 73 36 74 42 75 44 76 37 77
REMARK SMILES IDX 38 78 39 79 40 80 41 81 67 82 68 83 77 84 69 85 70 86 76 87
REMARK SMILES IDX 78 88 71 89 72 90 73 91 74 92 75 93 51 94 52 95 61 96 53 97
REMARK SMILES IDX 54 98 60 99 62 100 55 101 56 102 57 103 58 104 59 105
REMARK H PARENT 8 14 100 21 98 26 83 55 49 66
REMARK Flexibility Score: inf
ROOT
ATOM      1  C   UNL     1       3.779  -1.418  -3.003  1.00  0.00     0.188 C 
ENDROOT
BRANCH   1   2
ATOM      2  C   UNL     1       4.801  -1.632  -4.144  1.00  0.00     0.188 C 
BRANCH   2   3
ATOM      3  O   UNL     1       5.668  -2.763  -4.097  1.00  0.00    -0.376 OA
BRANCH   3   4
ATOM      4  C   UNL     1       6.391  -3.026  -2.896  1.00  0.00     0.202 C 
BRANCH   4   5
ATOM      5  C   UNL     1       7.174  -1.873  -2.250  1.00  0.00     0.261 C 
BRANCH   5   6
ATOM      6  O   UNL     1       6.359  -0.737  -1.890  1.00  0.00    -0.459 OA
BRANCH   6   7
ATOM      7  C   UNL     1       6.766   0.466  -2.368  1.00  0.00     0.356 C 
ATOM      8  O   UNL     1       7.785   0.643  -3.021  1.00  0.00    -0.244 OA
BRANCH   7   9
ATOM      9  C   UNL     1       5.766   1.498  -2.201  1.00  0.00     0.147 A 
ATOM     10  C   UNL     1       4.792   1.894  -1.275  1.00  0.00     0.013 A 
ATOM     11  C   UNL     1       4.241   3.071  -1.874  1.00  0.00     0.140 A 
ATOM     12  N   UNL     1       4.783   3.379  -3.045  1.00  0.00    -0.183 NA
ATOM     13  N   UNL     1       5.705   2.431  -3.211  1.00  0.00    -0.271 N 
ATOM     14  H   UNL     1       6.297   2.400  -3.996  1.00  0.00     0.190 HD
BRANCH  10  15
ATOM     15  C   UNL     1       4.352   1.448   0.117  1.00  0.00     0.069 C 
ATOM     16  O   UNL     1       1.041  -0.329   0.350  1.00  0.00    -0.275 OA
ATOM     17  C   UNL     1       2.244  -0.102   0.486  1.00  0.00     0.226 C 
ATOM     18  C   UNL     1       2.812   1.291   0.243  1.00  0.00     0.114 C 
ATOM     19  N   UNL     1       3.066  -1.084   0.968  1.00  0.00    -0.311 N 
ATOM     20  C   UNL     1       4.409  -0.866   1.044  1.00  0.00     0.132 A 
ATOM     21  H   UNL     1       2.688  -1.945   1.258  1.00  0.00     0.171 HD
ATOM     22  C   UNL     1       5.059   0.286   0.703  1.00  0.00     0.031 A 
ATOM     23  N   UNL     1       5.359  -1.771   1.395  1.00  0.00    -0.262 N 
ATOM     24  C   UNL     1       6.415   0.027   1.016  1.00  0.00     0.108 A 
ATOM     25  N   UNL     1       6.605  -1.254   1.376  1.00  0.00    -0.173 NA
ATOM     26  H   UNL     1       5.160  -2.704   1.638  1.00  0.00     0.192 HD
BRANCH  24  27
ATOM     27  C   UNL     1       7.548   0.992   0.865  1.00  0.00     0.055 A 
ATOM     28  C   UNL     1       8.786   0.644   0.368  1.00  0.00     0.022 A 
ATOM     29  S   UNL     1       7.447   2.660   1.214  1.00  0.00    -0.142 S 
ATOM     30  C   UNL     1       9.617   1.786   0.170  1.00  0.00     0.012 A 
ATOM     31  C   UNL     1       9.025   2.942   0.627  1.00  0.00     0.065 A 
ENDBRANCH  24  27
ENDBRANCH  10  15
ENDBRANCH   7   9
ENDBRANCH   6   7
ENDBRANCH   5   6
ENDBRANCH   4   5
ENDBRANCH   3   4
ENDBRANCH   2   3
ENDBRANCH   1   2
BRANCH   1  32
ATOM     32  O   UNL     1       4.026  -2.228  -1.866  1.00  0.00    -0.376 OA
BRANCH  32  33
ATOM     33  C   UNL     1       3.026  -3.139  -1.445  1.00  0.00     0.202 C 
BRANCH  33  34
ATOM     34  C   UNL     1       2.610  -4.278  -2.365  1.00  0.00     0.261 C 
BRANCH  34  35
ATOM     35  O   UNL     1       2.725  -3.989  -3.741  1.00  0.00    -0.460 OA
BRANCH  35  36
ATOM     36  C   UNL     1       1.682  -3.320  -4.271  1.00  0.00     0.338 C 
ATOM     37  O   UNL     1       0.788  -2.760  -3.666  1.00  0.00    -0.246 OA
BRANCH  36  38
ATOM     38  C   UNL     1       1.779  -3.436  -5.728  1.00  0.00     0.060 A 
ATOM     39  C   UNL     1       0.893  -2.673  -6.488  1.00  0.00     0.016 A 
ATOM     40  C   UNL     1       2.551  -4.469  -6.287  1.00  0.00     0.016 A 
ATOM     41  C   UNL     1       0.617  -3.095  -7.768  1.00  0.00     0.010 A 
ATOM     42  C   UNL     1       2.262  -4.899  -7.558  1.00  0.00     0.010 A 
ATOM     43  C   UNL     1       1.232  -4.260  -8.239  1.00  0.00    -0.014 A 
BRANCH  43  44
ATOM     44  C   UNL     1       0.692  -4.847  -9.441  1.00  0.00     0.031 A 
ATOM     45  C   UNL     1       1.117  -4.214 -10.698  1.00  0.00     0.074 A 
ATOM     46  C   UNL     1      -0.110  -5.925  -9.397  1.00  0.00     0.049 A 
ATOM     47  N   UNL     1       0.397  -3.522 -11.515  1.00  0.00    -0.248 NA
ATOM     48  C   UNL     1       2.547  -4.264 -11.028  1.00  0.00     0.031 C 
ATOM     49  C   UNL     1      -0.362  -6.823  -8.267  1.00  0.00     0.029 A 
ATOM     50  N   UNL     1      -0.799  -6.497 -10.417  1.00  0.00    -0.354 N 
ATOM     51  C   UNL     1       1.237  -3.216 -12.575  1.00  0.00     0.074 A 
ATOM     52  C   UNL     1       2.575  -3.559 -12.158  1.00  0.00     0.031 C 
ATOM     53  C   UNL     1      -0.978  -7.936  -8.723  1.00  0.00     0.029 A 
ATOM     54  C   UNL     1      -1.270  -7.768 -10.138  1.00  0.00     0.049 A 
ATOM     55  H   UNL     1      -0.950  -6.048 -11.280  1.00  0.00     0.167 HD
ATOM     56  C   UNL     1       0.754  -2.908 -13.806  1.00  0.00     0.037 A 
ATOM     57  C   UNL     1      -1.776  -8.641 -11.041  1.00  0.00     0.037 A 
ATOM     58  C   UNL     1      -0.643  -2.570 -13.778  1.00  0.00     0.049 A 
ATOM     59  C   UNL     1      -2.217  -7.855 -12.225  1.00  0.00     0.074 A 
ATOM     60  C   UNL     1      -1.388  -1.594 -13.143  1.00  0.00     0.029 A 
ATOM     61  N   UNL     1      -1.546  -3.515 -14.201  1.00  0.00    -0.354 N 
ATOM     62  N   UNL     1      -3.222  -7.020 -12.224  1.00  0.00    -0.248 NA
ATOM     63  C   UNL     1      -1.284  -7.691 -13.331  1.00  0.00     0.031 C 
ATOM     64  C   UNL     1      -2.631  -2.215 -12.825  1.00  0.00     0.029 A 
ATOM     65  C   UNL     1      -2.584  -3.526 -13.302  1.00  0.00     0.049 A 
ATOM     66  H   UNL     1      -1.464  -4.082 -15.002  1.00  0.00     0.167 HD
ATOM     67  C   UNL     1      -2.836  -5.988 -13.069  1.00  0.00     0.074 A 
ATOM     68  C   UNL     1      -1.693  -6.512 -13.806  1.00  0.00     0.031 C 
ATOM     69  C   UNL     1      -3.305  -4.716 -12.899  1.00  0.00     0.037 A 
BRANCH  56  70
ATOM     70  C   UNL     1       1.492  -3.236 -15.069  1.00  0.00     0.058 A 
ATOM     71  C   UNL     1       1.165  -2.582 -16.269  1.00  0.00     0.135 A 
ATOM     72  C   UNL     1       2.349  -4.354 -15.182  1.00  0.00     0.135 A 
ATOM     73  F   UNL     1       0.330  -1.531 -16.266  1.00  0.00    -0.206 F 
ATOM     74  C   UNL     1       1.633  -3.028 -17.504  1.00  0.00     0.059 A 
ATOM     75  C   UNL     1       2.874  -4.780 -16.393  1.00  0.00     0.059 A 
ATOM     76  F   UNL     1       2.634  -5.135 -14.131  1.00  0.00    -0.206 F 
ATOM     77  C   UNL     1       2.478  -4.136 -17.554  1.00  0.00     0.060 A 
BRANCH  77  78
ATOM     78  S   UNL     1       3.002  -4.782 -19.151  1.00  0.00     0.124 S 
ATOM     79  O   UNL     1       1.785  -5.446 -19.604  1.00  0.00    -0.237 OA
ATOM     80  O   UNL     1       3.374  -3.567 -19.868  1.00  0.00    -0.237 OA
ATOM     81  O   UNL     1       4.114  -5.663 -18.805  1.00  0.00    -0.744 OA
ENDBRANCH  77  78
ENDBRANCH  56  70
BRANCH  57  82
ATOM     82  C   UNL     1      -1.582 -10.112 -11.071  1.00  0.00     0.058 A 
ATOM     83  C   UNL     1      -2.342 -10.922 -11.931  1.00  0.00     0.135 A 
ATOM     84  C   UNL     1      -0.468 -10.726 -10.460  1.00  0.00     0.135 A 
ATOM     85  F   UNL     1      -3.403 -10.413 -12.575  1.00  0.00    -0.206 F 
ATOM     86  C   UNL     1      -1.991 -12.246 -12.208  1.00  0.00     0.059 A 
ATOM     87  C   UNL     1      -0.110 -12.048 -10.705  1.00  0.00     0.059 A 
ATOM     88  F   UNL     1       0.369 -10.031  -9.675  1.00  0.00    -0.206 F 
ATOM     89  C   UNL     1      -0.860 -12.795 -11.603  1.00  0.00     0.060 A 
BRANCH  89  90
ATOM     90  S   UNL     1      -0.298 -14.440 -12.096  1.00  0.00     0.124 S 
ATOM     91  O   UNL     1      -1.329 -15.295 -11.519  1.00  0.00    -0.237 OA
ATOM     92  O   UNL     1      -0.292 -14.338 -13.551  1.00  0.00    -0.237 OA
ATOM     93  O   UNL     1       1.021 -14.547 -11.477  1.00  0.00    -0.744 OA
ENDBRANCH  89  90
ENDBRANCH  57  82
BRANCH  69  94
ATOM     94  C   UNL     1      -4.506  -4.515 -12.011  1.00  0.00     0.058 A 
ATOM     95  C   UNL     1      -4.521  -4.783 -10.630  1.00  0.00     0.135 A 
ATOM     96  C   UNL     1      -5.641  -3.890 -12.553  1.00  0.00     0.135 A 
ATOM     97  F   UNL     1      -3.438  -5.278 -10.014  1.00  0.00    -0.206 F 
ATOM     98  C   UNL     1      -5.629  -4.485  -9.835  1.00  0.00     0.059 A 
ATOM     99  C   UNL     1      -6.745  -3.555 -11.773  1.00  0.00     0.059 A 
ATOM    100  F   UNL     1      -5.665  -3.549 -13.852  1.00  0.00    -0.206 F 
ATOM    101  C   UNL     1      -6.738  -3.869 -10.415  1.00  0.00     0.060 A 
BRANCH 101 102
ATOM    102  S   UNL     1      -8.135  -3.405  -9.368  1.00  0.00     0.124 S 
ATOM    103  O   UNL     1      -8.776  -4.692  -9.123  1.00  0.00    -0.237 OA
ATOM    104  O   UNL     1      -7.481  -2.793  -8.215  1.00  0.00    -0.237 OA
ATOM    105  O   UNL     1      -8.895  -2.478 -10.204  1.00  0.00    -0.744 OA
ENDBRANCH 101 102
ENDBRANCH  69  94
ENDBRANCH  43  44
ENDBRANCH  36  38
ENDBRANCH  35  36
ENDBRANCH  34  35
ENDBRANCH  33  34
ENDBRANCH  32  33
ENDBRANCH   1  32
TORSDOF 22
