REMARK SMILES O=C(OCCOCCOCCOC(=O)[C@@H]1CCCN(c2ccc3cc(S(=O)(=O)N4CCCCC4)ccc3n2)C1)c1ccc(-c2c3nc(c(-c4c(F)cc(S(=O)(=O)[O-])cc4F)c4ccc([nH]4)c(-c4c(F)cc(S(=O)(=O)[O-])cc4F)c4nc(c(-c5c(F)cc(S(=O)(=O)[O-])cc5F)c5ccc2[nH]5)C=C4)C=C3)cc1
REMARK SMILES IDX 7 1 6 2 5 3 4 4 3 5 2 6 1 7 40 8 41 9 105 10 42 11 104 12
REMARK SMILES IDX 43 13 44 14 45 15 98 16 46 17 103 18 97 19 99 20 47 21
REMARK SMILES IDX 102 22 96 23 95 24 48 26 82 27 61 28 81 29 62 30 65 31 80 32
REMARK SMILES IDX 100 33 63 34 64 35 79 37 101 38 66 39 49 40 50 41 59 42
REMARK SMILES IDX 51 43 52 44 58 45 60 46 53 47 54 48 55 49 56 50 57 51 83 52
REMARK SMILES IDX 84 53 93 54 85 55 86 56 92 57 94 58 87 59 88 60 89 61 90 62
REMARK SMILES IDX 91 63 67 64 68 65 77 66 69 67 70 68 76 69 78 70 71 71 72 72
REMARK SMILES IDX 73 73 74 74 75 75 8 76 9 77 10 78 11 79 12 80 13 81 14 82
REMARK SMILES IDX 15 83 16 84 39 85 17 86 19 87 18 88 20 89 21 90 38 91 22 92
REMARK SMILES IDX 37 93 23 94 36 95 24 96 35 97 25 98 26 99 27 100 28 101
REMARK SMILES IDX 29 102 30 103 34 104 31 105 33 106 32 107
REMARK H PARENT 99 25 65 36
REMARK Flexibility Score: inf
ROOT
ATOM      1  C   UNL     1       3.147   2.024  -0.535  1.00  0.00     0.188 C 
ENDROOT
BRANCH   1   2
ATOM      2  O   UNL     1       4.451   1.540  -0.203  1.00  0.00    -0.376 OA
BRANCH   2   3
ATOM      3  C   UNL     1       5.282   1.398  -1.352  1.00  0.00     0.202 C 
BRANCH   3   4
ATOM      4  C   UNL     1       5.009   0.125  -2.163  1.00  0.00     0.261 C 
BRANCH   4   5
ATOM      5  O   UNL     1       3.703  -0.427  -1.941  1.00  0.00    -0.460 OA
BRANCH   5   6
ATOM      6  C   UNL     1       3.429  -1.515  -1.179  1.00  0.00     0.338 C 
ATOM      7  O   UNL     1       2.546  -2.288  -1.548  1.00  0.00    -0.246 OA
BRANCH   6   8
ATOM      8  C   UNL     1       4.053  -1.743   0.167  1.00  0.00     0.060 A 
ATOM      9  C   UNL     1       5.346  -1.373   0.542  1.00  0.00     0.016 A 
ATOM     10  C   UNL     1       3.290  -2.477   1.097  1.00  0.00     0.016 A 
ATOM     11  C   UNL     1       5.883  -1.756   1.772  1.00  0.00     0.010 A 
ATOM     12  C   UNL     1       3.820  -2.859   2.337  1.00  0.00     0.010 A 
ATOM     13  C   UNL     1       5.139  -2.529   2.663  1.00  0.00    -0.014 A 
BRANCH  13  14
ATOM     14  C   UNL     1       5.835  -3.112   3.831  1.00  0.00     0.031 A 
ATOM     15  C   UNL     1       6.322  -4.529   3.729  1.00  0.00     0.074 A 
ATOM     16  C   UNL     1       6.149  -2.355   4.899  1.00  0.00     0.049 A 
ATOM     17  N   UNL     1       7.133  -5.176   4.523  1.00  0.00    -0.248 NA
ATOM     18  C   UNL     1       5.888  -5.299   2.551  1.00  0.00     0.031 C 
ATOM     19  C   UNL     1       5.813  -0.942   5.060  1.00  0.00     0.029 A 
ATOM     20  N   UNL     1       6.821  -2.664   6.052  1.00  0.00    -0.354 N 
ATOM     21  C   UNL     1       7.382  -6.387   3.891  1.00  0.00     0.074 A 
ATOM     22  C   UNL     1       6.556  -6.432   2.706  1.00  0.00     0.031 C 
ATOM     23  C   UNL     1       6.191  -0.530   6.281  1.00  0.00     0.029 A 
ATOM     24  C   UNL     1       6.857  -1.634   6.961  1.00  0.00     0.049 A 
ATOM     25  H   UNL     1       7.239  -3.541   6.213  1.00  0.00     0.167 HD
ATOM     26  C   UNL     1       8.269  -7.347   4.238  1.00  0.00     0.037 A 
ATOM     27  C   UNL     1       7.389  -1.583   8.197  1.00  0.00     0.037 A 
ATOM     28  C   UNL     1       9.037  -7.319   5.452  1.00  0.00     0.049 A 
ATOM     29  C   UNL     1       8.227  -2.744   8.655  1.00  0.00     0.074 A 
ATOM     30  C   UNL     1       9.922  -8.261   5.939  1.00  0.00     0.029 A 
ATOM     31  N   UNL     1       8.988  -6.291   6.385  1.00  0.00    -0.354 N 
ATOM     32  N   UNL     1       8.502  -3.858   8.019  1.00  0.00    -0.248 NA
ATOM     33  C   UNL     1       8.876  -2.620   9.966  1.00  0.00     0.031 C 
ATOM     34  C   UNL     1      10.382  -7.819   7.186  1.00  0.00     0.029 A 
ATOM     35  C   UNL     1       9.810  -6.585   7.457  1.00  0.00     0.049 A 
ATOM     36  H   UNL     1       8.447  -5.473   6.295  1.00  0.00     0.167 HD
ATOM     37  C   UNL     1       9.396  -4.547   8.827  1.00  0.00     0.074 A 
ATOM     38  C   UNL     1       9.609  -3.725  10.003  1.00  0.00     0.031 C 
ATOM     39  C   UNL     1      10.002  -5.742   8.611  1.00  0.00     0.037 A 
BRANCH  26  40
ATOM     40  C   UNL     1       8.447  -8.479   3.270  1.00  0.00     0.058 A 
ATOM     41  C   UNL     1       9.138  -8.288   2.060  1.00  0.00     0.135 A 
ATOM     42  C   UNL     1       7.896  -9.743   3.518  1.00  0.00     0.135 A 
ATOM     43  F   UNL     1       9.662  -7.087   1.763  1.00  0.00    -0.206 F 
ATOM     44  C   UNL     1       9.249  -9.303   1.118  1.00  0.00     0.059 A 
ATOM     45  C   UNL     1       8.010 -10.780   2.596  1.00  0.00     0.059 A 
ATOM     46  F   UNL     1       7.215  -9.972   4.652  1.00  0.00    -0.206 F 
ATOM     47  C   UNL     1       8.673 -10.544   1.391  1.00  0.00     0.060 A 
BRANCH  47  48
ATOM     48  S   UNL     1       8.792 -11.842   0.142  1.00  0.00     0.124 S 
ATOM     49  O   UNL     1       7.838 -11.372  -0.858  1.00  0.00    -0.237 OA
ATOM     50  O   UNL     1      10.198 -11.777  -0.245  1.00  0.00    -0.237 OA
ATOM     51  O   UNL     1       8.399 -13.047   0.866  1.00  0.00    -0.744 OA
ENDBRANCH  47  48
ENDBRANCH  26  40
BRANCH  27  52
ATOM     52  C   UNL     1       7.166  -0.394   9.060  1.00  0.00     0.058 A 
ATOM     53  C   UNL     1       8.194   0.511   9.359  1.00  0.00     0.135 A 
ATOM     54  C   UNL     1       5.899  -0.148   9.615  1.00  0.00     0.135 A 
ATOM     55  F   UNL     1       9.421   0.324   8.850  1.00  0.00    -0.206 F 
ATOM     56  C   UNL     1       7.984   1.600  10.202  1.00  0.00     0.059 A 
ATOM     57  C   UNL     1       5.660   0.942  10.445  1.00  0.00     0.059 A 
ATOM     58  F   UNL     1       4.875  -0.973   9.344  1.00  0.00    -0.206 F 
ATOM     59  C   UNL     1       6.713   1.804  10.745  1.00  0.00     0.060 A 
BRANCH  59  60
ATOM     60  S   UNL     1       6.447   3.225  11.828  1.00  0.00     0.124 S 
ATOM     61  O   UNL     1       7.138   2.803  13.041  1.00  0.00    -0.237 OA
ATOM     62  O   UNL     1       7.077   4.305  11.076  1.00  0.00    -0.237 OA
ATOM     63  O   UNL     1       4.992   3.304  11.924  1.00  0.00    -0.744 OA
ENDBRANCH  59  60
ENDBRANCH  27  52
BRANCH  39  64
ATOM     64  C   UNL     1      10.973  -6.206   9.655  1.00  0.00     0.058 A 
ATOM     65  C   UNL     1      10.536  -6.707  10.890  1.00  0.00     0.135 A 
ATOM     66  C   UNL     1      12.353  -6.179   9.401  1.00  0.00     0.135 A 
ATOM     67  F   UNL     1       9.226  -6.744  11.179  1.00  0.00    -0.206 F 
ATOM     68  C   UNL     1      11.439  -7.144  11.852  1.00  0.00     0.059 A 
ATOM     69  C   UNL     1      13.272  -6.633  10.339  1.00  0.00     0.059 A 
ATOM     70  F   UNL     1      12.817  -5.716   8.229  1.00  0.00    -0.206 F 
ATOM     71  C   UNL     1      12.805  -7.101  11.567  1.00  0.00     0.060 A 
BRANCH  71  72
ATOM     72  S   UNL     1      13.970  -7.696  12.810  1.00  0.00     0.124 S 
ATOM     73  O   UNL     1      14.029  -6.559  13.723  1.00  0.00    -0.237 OA
ATOM     74  O   UNL     1      13.302  -8.888  13.324  1.00  0.00    -0.237 OA
ATOM     75  O   UNL     1      15.184  -7.949  12.040  1.00  0.00    -0.744 OA
ENDBRANCH  71  72
ENDBRANCH  39  64
ENDBRANCH  13  14
ENDBRANCH   6   8
ENDBRANCH   5   6
ENDBRANCH   4   5
ENDBRANCH   3   4
ENDBRANCH   2   3
ENDBRANCH   1   2
BRANCH   1  76
ATOM     76  C   UNL     1       2.733   3.215   0.326  1.00  0.00     0.188 C 
BRANCH  76  77
ATOM     77  O   UNL     1       3.604   4.343   0.293  1.00  0.00    -0.376 OA
BRANCH  77  78
ATOM     78  C   UNL     1       4.801   4.233   1.064  1.00  0.00     0.202 C 
BRANCH  78  79
ATOM     79  C   UNL     1       4.648   4.340   2.588  1.00  0.00     0.261 C 
BRANCH  79  80
ATOM     80  O   UNL     1       3.893   3.268   3.192  1.00  0.00    -0.463 OA
BRANCH  80  81
ATOM     81  C   UNL     1       2.682   3.617   3.705  1.00  0.00     0.310 C 
ATOM     82  O   UNL     1       2.179   4.732   3.592  1.00  0.00    -0.252 OA
BRANCH  81  83
ATOM     83  C   UNL     1       1.957   2.498   4.438  1.00  0.00     0.118 C 
ATOM     84  C   UNL     1       2.792   1.287   4.862  1.00  0.00     0.019 C 
ATOM     85  C   UNL     1       0.636   2.167   3.717  1.00  0.00     0.133 C 
ATOM     86  C   UNL     1       2.714   0.110   3.898  1.00  0.00     0.022 C 
ATOM     87  N   UNL     1       0.727   0.980   2.860  1.00  0.00    -0.356 N 
ATOM     88  C   UNL     1       1.283  -0.206   3.503  1.00  0.00     0.118 C 
BRANCH  87  89
ATOM     89  C   UNL     1       0.102   0.823   1.635  1.00  0.00     0.129 A 
ATOM     90  C   UNL     1      -0.298   1.907   0.863  1.00  0.00     0.047 A 
ATOM     91  N   UNL     1      -0.034  -0.427   1.130  1.00  0.00    -0.231 NA
ATOM     92  C   UNL     1      -0.710   1.721  -0.459  1.00  0.00     0.014 A 
ATOM     93  C   UNL     1      -0.457  -0.625  -0.134  1.00  0.00     0.073 A 
ATOM     94  C   UNL     1      -0.768   0.437  -0.993  1.00  0.00     0.002 A 
ATOM     95  C   UNL     1      -0.580  -1.915  -0.636  1.00  0.00     0.030 A 
ATOM     96  C   UNL     1      -1.111   0.202  -2.337  1.00  0.00     0.032 A 
ATOM     97  C   UNL     1      -0.936  -2.168  -1.970  1.00  0.00     0.024 A 
ATOM     98  C   UNL     1      -1.175  -1.105  -2.835  1.00  0.00     0.083 A 
BRANCH  98  99
ATOM     99  S   UNL     1      -1.585  -1.303  -4.562  1.00  0.00     0.243 S 
ATOM    100  O   UNL     1      -2.595  -0.292  -4.843  1.00  0.00    -0.207 OA
ATOM    101  O   UNL     1      -0.346  -1.326  -5.297  1.00  0.00    -0.207 OA
BRANCH  99 102
ATOM    102  N   UNL     1      -2.363  -2.810  -4.753  1.00  0.00    -0.198 NA
ATOM    103  C   UNL     1      -1.495  -4.003  -4.909  1.00  0.00     0.102 C 
ATOM    104  C   UNL     1      -3.630  -2.990  -4.011  1.00  0.00     0.102 C 
ATOM    105  C   UNL     1      -2.294  -5.222  -5.360  1.00  0.00     0.017 C 
ATOM    106  C   UNL     1      -4.393  -4.211  -4.507  1.00  0.00     0.017 C 
ATOM    107  C   UNL     1      -3.511  -5.450  -4.475  1.00  0.00     0.003 C 
ENDBRANCH  99 102
ENDBRANCH  98  99
ENDBRANCH  87  89
ENDBRANCH  81  83
ENDBRANCH  80  81
ENDBRANCH  79  80
ENDBRANCH  78  79
ENDBRANCH  77  78
ENDBRANCH  76  77
ENDBRANCH   1  76
TORSDOF 23
