REMARK SMILES Cc1cc(C(=O)N[C@@H]2CC2(C)C)sc1/C=C/C(=O)OCCOCCOCCOC(=O)c1ccc(-c2c3nc(c(-c4c(F)cc(S(=O)(=O)[O-])cc4F)c4ccc([nH]4)c(-c4c(F)cc(S(=O)(=O)[O-])cc4F)c4nc(c(-c5c(F)cc(S(=O)(=O)[O-])cc5F)c5ccc2[nH]5)C=C4)C=C3)cc1
REMARK SMILES IDX 23 1 22 2 21 3 20 4 19 5 17 6 18 7 16 8 15 9 14 10 1 11 2 12
REMARK SMILES IDX 3 13 4 14 13 15 5 16 6 17 7 18 8 20 9 21 10 22 11 23 12 24
REMARK SMILES IDX 24 25 25 26 26 27 27 28 28 29 29 30 30 31 31 32 32 33 96 34
REMARK SMILES IDX 33 35 95 36 34 37 35 38 36 39 89 40 37 41 94 42 88 43 90 44
REMARK SMILES IDX 38 45 93 46 87 47 86 48 39 50 73 51 52 52 72 53 53 54 56 55
REMARK SMILES IDX 71 56 91 57 54 58 55 59 70 61 92 62 57 63 40 64 41 65 50 66
REMARK SMILES IDX 42 67 43 68 49 69 51 70 44 71 45 72 46 73 47 74 48 75 74 76
REMARK SMILES IDX 75 77 84 78 76 79 77 80 83 81 85 82 78 83 79 84 80 85 81 86
REMARK SMILES IDX 82 87 58 88 59 89 68 90 60 91 61 92 67 93 69 94 62 95 63 96
REMARK SMILES IDX 64 97 65 98 66 99
REMARK H PARENT 7 19 90 49 56 60
REMARK Flexibility Score: inf
ROOT
ATOM      1  C   UNL     1     -11.243   0.159   1.598  1.00  0.00     0.188 C 
ENDROOT
BRANCH   1   2
ATOM      2  O   UNL     1     -12.636   0.096   1.334  1.00  0.00    -0.376 OA
BRANCH   2   3
ATOM      3  C   UNL     1     -13.174  -1.028   0.649  1.00  0.00     0.202 C 
BRANCH   3   4
ATOM      4  C   UNL     1     -12.467  -1.607  -0.586  1.00  0.00     0.261 C 
BRANCH   4   5
ATOM      5  O   UNL     1     -11.105  -2.003  -0.355  1.00  0.00    -0.460 OA
BRANCH   5   6
ATOM      6  C   UNL     1     -10.188  -1.413  -1.156  1.00  0.00     0.330 C 
ATOM      7  O   UNL     1     -10.418  -0.652  -2.084  1.00  0.00    -0.247 OA
BRANCH   6   8
ATOM      8  C   UNL     1      -8.805  -1.681  -0.724  1.00  0.00     0.095 C 
ATOM      9  C   UNL     1      -8.388  -2.707   0.038  1.00  0.00     0.027 C 
BRANCH   9  10
ATOM     10  C   UNL     1      -6.996  -2.847   0.313  1.00  0.00     0.031 A 
ATOM     11  C   UNL     1      -6.562  -5.324  -0.196  1.00  0.00     0.046 C 
ATOM     12  C   UNL     1      -6.150  -3.930   0.131  1.00  0.00    -0.032 A 
ATOM     13  C   UNL     1      -4.780  -3.491   0.168  1.00  0.00     0.029 A 
ATOM     14  C   UNL     1      -4.633  -2.136   0.450  1.00  0.00     0.093 A 
ATOM     15  S   UNL     1      -6.110  -1.586   1.083  1.00  0.00    -0.130 S 
BRANCH  14  16
ATOM     16  C   UNL     1      -3.379  -1.401   0.384  1.00  0.00     0.261 C 
ATOM     17  O   UNL     1      -2.308  -2.026   0.435  1.00  0.00    -0.268 OA
ATOM     18  N   UNL     1      -3.193  -0.048   0.171  1.00  0.00    -0.348 N 
ATOM     19  H   UNL     1      -2.225   0.130   0.122  1.00  0.00     0.164 HD
BRANCH  18  20
ATOM     20  C   UNL     1      -3.891   1.190  -0.004  1.00  0.00     0.088 C 
ATOM     21  C   UNL     1      -5.215   1.563   0.565  1.00  0.00     0.034 C 
ATOM     22  C   UNL     1      -5.036   1.521  -0.943  1.00  0.00    -0.013 C 
ATOM     23  C   UNL     1      -5.119   2.881  -1.603  1.00  0.00     0.013 C 
ATOM     24  C   UNL     1      -5.581   0.440  -1.831  1.00  0.00     0.013 C 
ENDBRANCH  18  20
ENDBRANCH  14  16
ENDBRANCH   9  10
ENDBRANCH   6   8
ENDBRANCH   5   6
ENDBRANCH   4   5
ENDBRANCH   3   4
ENDBRANCH   2   3
ENDBRANCH   1   2
BRANCH   1  25
ATOM     25  C   UNL     1     -10.575  -0.976   2.399  1.00  0.00     0.188 C 
BRANCH  25  26
ATOM     26  O   UNL     1     -11.346  -2.138   2.587  1.00  0.00    -0.376 OA
BRANCH  26  27
ATOM     27  C   UNL     1     -12.172  -2.264   3.733  1.00  0.00     0.202 C 
BRANCH  27  28
ATOM     28  C   UNL     1     -12.538  -1.142   4.729  1.00  0.00     0.261 C 
BRANCH  28  29
ATOM     29  O   UNL     1     -11.976   0.158   4.543  1.00  0.00    -0.460 OA
BRANCH  29  30
ATOM     30  C   UNL     1     -10.900   0.454   5.308  1.00  0.00     0.338 C 
ATOM     31  O   UNL     1     -10.328  -0.288   6.097  1.00  0.00    -0.246 OA
BRANCH  30  32
ATOM     32  C   UNL     1     -10.397   1.780   4.913  1.00  0.00     0.060 A 
ATOM     33  C   UNL     1      -9.165   1.870   4.251  1.00  0.00     0.016 A 
ATOM     34  C   UNL     1     -11.127   2.930   5.217  1.00  0.00     0.016 A 
ATOM     35  C   UNL     1      -8.649   3.119   3.906  1.00  0.00     0.010 A 
ATOM     36  C   UNL     1     -10.598   4.181   4.890  1.00  0.00     0.010 A 
ATOM     37  C   UNL     1      -9.346   4.283   4.257  1.00  0.00    -0.014 A 
BRANCH  37  38
ATOM     38  C   UNL     1      -8.696   5.608   4.115  1.00  0.00     0.031 A 
ATOM     39  C   UNL     1      -8.069   6.235   5.330  1.00  0.00     0.074 A 
ATOM     40  C   UNL     1      -8.662   6.243   2.929  1.00  0.00     0.049 A 
ATOM     41  N   UNL     1      -7.514   7.410   5.465  1.00  0.00    -0.248 NA
ATOM     42  C   UNL     1      -8.073   5.425   6.559  1.00  0.00     0.031 C 
ATOM     43  C   UNL     1      -9.201   5.722   1.675  1.00  0.00     0.029 A 
ATOM     44  N   UNL     1      -8.162   7.477   2.595  1.00  0.00    -0.354 N 
ATOM     45  C   UNL     1      -7.110   7.487   6.793  1.00  0.00     0.074 A 
ATOM     46  C   UNL     1      -7.511   6.251   7.429  1.00  0.00     0.031 C 
ATOM     47  C   UNL     1      -9.022   6.640   0.709  1.00  0.00     0.029 A 
ATOM     48  C   UNL     1      -8.387   7.826   1.284  1.00  0.00     0.049 A 
ATOM     49  H   UNL     1      -7.687   8.057   3.233  1.00  0.00     0.167 HD
ATOM     50  C   UNL     1      -6.457   8.493   7.422  1.00  0.00     0.037 A 
ATOM     51  C   UNL     1      -8.137   8.980   0.634  1.00  0.00     0.037 A 
ATOM     52  C   UNL     1      -6.068   9.723   6.784  1.00  0.00     0.049 A 
ATOM     53  C   UNL     1      -7.476  10.117   1.373  1.00  0.00     0.074 A 
ATOM     54  C   UNL     1      -5.391  10.799   7.331  1.00  0.00     0.029 A 
ATOM     55  N   UNL     1      -6.331  10.048   5.461  1.00  0.00    -0.354 N 
ATOM     56  N   UNL     1      -7.076  10.169   2.623  1.00  0.00    -0.248 NA
ATOM     57  C   UNL     1      -7.226  11.351   0.614  1.00  0.00     0.031 C 
ATOM     58  C   UNL     1      -5.293  11.796   6.355  1.00  0.00     0.029 A 
ATOM     59  C   UNL     1      -5.851  11.317   5.180  1.00  0.00     0.049 A 
ATOM     60  H   UNL     1      -6.790   9.462   4.816  1.00  0.00     0.167 HD
ATOM     61  C   UNL     1      -6.502  11.426   2.789  1.00  0.00     0.074 A 
ATOM     62  C   UNL     1      -6.597  12.099   1.510  1.00  0.00     0.031 C 
ATOM     63  C   UNL     1      -5.944  11.973   3.898  1.00  0.00     0.037 A 
BRANCH  50  64
ATOM     64  C   UNL     1      -6.149   8.315   8.884  1.00  0.00     0.058 A 
ATOM     65  C   UNL     1      -5.186   7.396   9.332  1.00  0.00     0.135 A 
ATOM     66  C   UNL     1      -6.806   9.095   9.850  1.00  0.00     0.135 A 
ATOM     67  F   UNL     1      -4.540   6.611   8.454  1.00  0.00    -0.206 F 
ATOM     68  C   UNL     1      -4.906   7.237  10.685  1.00  0.00     0.059 A 
ATOM     69  C   UNL     1      -6.521   8.974  11.206  1.00  0.00     0.059 A 
ATOM     70  F   UNL     1      -7.739   9.986   9.478  1.00  0.00    -0.206 F 
ATOM     71  C   UNL     1      -5.579   8.031  11.615  1.00  0.00     0.060 A 
BRANCH  71  72
ATOM     72  S   UNL     1      -5.200   7.815  13.367  1.00  0.00     0.124 S 
ATOM     73  O   UNL     1      -5.813   6.519  13.639  1.00  0.00    -0.237 OA
ATOM     74  O   UNL     1      -3.741   7.840  13.375  1.00  0.00    -0.237 OA
ATOM     75  O   UNL     1      -5.848   8.960  13.999  1.00  0.00    -0.744 OA
ENDBRANCH  71  72
ENDBRANCH  50  64
BRANCH  51  76
ATOM     76  C   UNL     1      -8.526   9.128  -0.795  1.00  0.00     0.058 A 
ATOM     77  C   UNL     1      -7.557   9.225  -1.805  1.00  0.00     0.135 A 
ATOM     78  C   UNL     1      -9.875   9.180  -1.179  1.00  0.00     0.135 A 
ATOM     79  F   UNL     1      -6.253   9.195  -1.488  1.00  0.00    -0.206 F 
ATOM     80  C   UNL     1      -7.910   9.381  -3.142  1.00  0.00     0.059 A 
ATOM     81  C   UNL     1     -10.254   9.306  -2.512  1.00  0.00     0.059 A 
ATOM     82  F   UNL     1     -10.842   9.085  -0.253  1.00  0.00    -0.206 F 
ATOM     83  C   UNL     1      -9.263   9.415  -3.486  1.00  0.00     0.060 A 
BRANCH  83  84
ATOM     84  S   UNL     1      -9.707   9.567  -5.229  1.00  0.00     0.124 S 
ATOM     85  O   UNL     1      -9.346  10.952  -5.506  1.00  0.00    -0.237 OA
ATOM     86  O   UNL     1      -8.862   8.550  -5.849  1.00  0.00    -0.237 OA
ATOM     87  O   UNL     1     -11.137   9.273  -5.238  1.00  0.00    -0.744 OA
ENDBRANCH  83  84
ENDBRANCH  51  76
BRANCH  63  88
ATOM     88  C   UNL     1      -5.348  13.350   3.776  1.00  0.00     0.058 A 
ATOM     89  C   UNL     1      -6.146  14.497   3.639  1.00  0.00     0.135 A 
ATOM     90  C   UNL     1      -3.956  13.530   3.857  1.00  0.00     0.135 A 
ATOM     91  F   UNL     1      -7.481  14.384   3.552  1.00  0.00    -0.206 F 
ATOM     92  C   UNL     1      -5.586  15.769   3.563  1.00  0.00     0.059 A 
ATOM     93  C   UNL     1      -3.376  14.794   3.814  1.00  0.00     0.059 A 
ATOM     94  F   UNL     1      -3.145  12.469   4.000  1.00  0.00    -0.206 F 
ATOM     95  C   UNL     1      -4.199  15.907   3.655  1.00  0.00     0.060 A 
BRANCH  95  96
ATOM     96  S   UNL     1      -3.488  17.566   3.590  1.00  0.00     0.124 S 
ATOM     97  O   UNL     1      -3.663  17.905   2.182  1.00  0.00    -0.237 OA
ATOM     98  O   UNL     1      -4.329  18.302   4.529  1.00  0.00    -0.237 OA
ATOM     99  O   UNL     1      -2.108  17.362   4.020  1.00  0.00    -0.744 OA
ENDBRANCH  95  96
ENDBRANCH  63  88
ENDBRANCH  37  38
ENDBRANCH  30  32
ENDBRANCH  29  30
ENDBRANCH  28  29
ENDBRANCH  27  28
ENDBRANCH  26  27
ENDBRANCH  25  26
ENDBRANCH   1  25
TORSDOF 23
