REMARK SMILES CS(=O)(=O)c1ccc(-c2cc(Cl)cnc2-c2ccc(C(=O)OCCOCCOCCOC(=O)c3ccc(-c4c5nc(c(-c6c(F)cc(S(=O)(=O)[O-])cc6F)c6ccc([nH]6)c(-c6c(F)cc(S(=O)(=O)[O-])cc6F)c6nc(c(-c7c(F)cc(S(=O)(=O)[O-])cc7F)c7ccc4[nH]7)C=C6)C=C5)cc3)nc2)cc1
REMARK SMILES IDX 26 1 25 2 24 3 23 4 22 5 20 6 21 7 19 8 16 9 17 10 101 11
REMARK SMILES IDX 18 12 100 13 15 14 9 15 10 16 11 17 14 18 12 19 13 20 8 21
REMARK SMILES IDX 5 22 6 23 103 24 7 25 102 26 2 27 1 28 3 29 4 30 27 31 28 32
REMARK SMILES IDX 29 33 30 34 31 35 32 36 33 37 34 38 35 39 99 40 36 41 98 42
REMARK SMILES IDX 37 43 38 44 39 45 92 46 40 47 97 48 91 49 93 50 41 51 96 52
REMARK SMILES IDX 90 53 89 54 42 56 76 57 55 58 75 59 56 60 59 61 74 62 94 63
REMARK SMILES IDX 57 64 58 65 73 67 95 68 60 69 43 70 44 71 53 72 45 73 46 74
REMARK SMILES IDX 52 75 54 76 47 77 48 78 49 79 50 80 51 81 77 82 78 83 87 84
REMARK SMILES IDX 79 85 80 86 86 87 88 88 81 89 82 90 83 91 84 92 85 93 61 94
REMARK SMILES IDX 62 95 71 96 63 97 64 98 70 99 72 100 65 101 66 102 67 103
REMARK SMILES IDX 68 104 69 105
REMARK H PARENT 93 55 59 66
REMARK Flexibility Score: inf
ROOT
ATOM      1  C   UNL     1      -0.883  -6.006  -5.689  1.00  0.00     0.188 C 
ENDROOT
BRANCH   1   2
ATOM      2  O   UNL     1      -1.601  -5.129  -6.553  1.00  0.00    -0.376 OA
BRANCH   2   3
ATOM      3  C   UNL     1      -1.317  -3.733  -6.533  1.00  0.00     0.202 C 
BRANCH   3   4
ATOM      4  C   UNL     1      -1.237  -2.998  -5.189  1.00  0.00     0.261 C 
BRANCH   4   5
ATOM      5  O   UNL     1      -0.254  -3.560  -4.307  1.00  0.00    -0.459 OA
BRANCH   5   6
ATOM      6  C   UNL     1      -0.704  -3.856  -3.062  1.00  0.00     0.356 C 
ATOM      7  O   UNL     1      -1.750  -3.478  -2.558  1.00  0.00    -0.244 OA
BRANCH   6   8
ATOM      8  C   UNL     1       0.236  -4.805  -2.412  1.00  0.00     0.148 A 
ATOM      9  C   UNL     1       1.794  -6.446  -0.868  1.00  0.00     0.019 A 
ATOM     10  C   UNL     1       2.374  -5.345  -1.517  1.00  0.00     0.014 A 
ATOM     11  C   UNL     1       0.467  -6.739  -1.171  1.00  0.00     0.122 A 
ATOM     12  C   UNL     1       1.586  -4.502  -2.297  1.00  0.00     0.037 A 
ATOM     13  N   UNL     1      -0.327  -5.936  -1.912  1.00  0.00    -0.249 NA
BRANCH   9  14
ATOM     14  C   UNL     1       2.436  -7.084   0.286  1.00  0.00     0.080 A 
ATOM     15  C   UNL     1       2.528  -6.402   1.527  1.00  0.00     0.010 A 
ATOM     16  C   UNL     1       3.133  -7.083   2.591  1.00  0.00     0.033 A 
ATOM     17  C   UNL     1       3.591  -8.384   2.405  1.00  0.00     0.060 A 
ATOM     18  N   UNL     1       2.875  -8.351   0.092  1.00  0.00    -0.254 NA
ATOM     19  Cl  UNL     1       4.333  -9.233   3.699  1.00  0.00    -0.083 Cl
ATOM     20  C   UNL     1       3.437  -8.973   1.159  1.00  0.00     0.132 A 
BRANCH  15  21
ATOM     21  C   UNL     1       2.015  -5.028   1.700  1.00  0.00    -0.016 A 
ATOM     22  C   UNL     1       1.073  -2.381   1.678  1.00  0.00     0.067 A 
ATOM     23  C   UNL     1       0.168  -3.432   1.547  1.00  0.00     0.021 A 
ATOM     24  C   UNL     1       2.434  -2.634   1.877  1.00  0.00     0.021 A 
ATOM     25  C   UNL     1       0.640  -4.746   1.578  1.00  0.00     0.010 A 
ATOM     26  C   UNL     1       2.900  -3.952   1.880  1.00  0.00     0.010 A 
BRANCH  22  27
ATOM     27  S   UNL     1       0.504  -0.699   1.621  1.00  0.00     0.175 S 
ATOM     28  C   UNL     1       1.036  -0.134   0.025  1.00  0.00     0.163 C 
ATOM     29  O   UNL     1       1.248   0.035   2.627  1.00  0.00    -0.224 OA
ATOM     30  O   UNL     1      -0.945  -0.710   1.627  1.00  0.00    -0.224 OA
ENDBRANCH  22  27
ENDBRANCH  15  21
ENDBRANCH   9  14
ENDBRANCH   6   8
ENDBRANCH   5   6
ENDBRANCH   4   5
ENDBRANCH   3   4
ENDBRANCH   2   3
ENDBRANCH   1   2
BRANCH   1  31
ATOM     31  C   UNL     1       0.660  -6.002  -5.732  1.00  0.00     0.188 C 
BRANCH  31  32
ATOM     32  O   UNL     1       1.232  -4.987  -6.523  1.00  0.00    -0.376 OA
BRANCH  32  33
ATOM     33  C   UNL     1       1.584  -5.252  -7.870  1.00  0.00     0.202 C 
BRANCH  33  34
ATOM     34  C   UNL     1       1.001  -6.376  -8.752  1.00  0.00     0.261 C 
BRANCH  34  35
ATOM     35  O   UNL     1       0.218  -7.399  -8.137  1.00  0.00    -0.460 OA
BRANCH  35  36
ATOM     36  C   UNL     1       0.882  -8.523  -7.779  1.00  0.00     0.338 C 
ATOM     37  O   UNL     1       2.080  -8.726  -7.866  1.00  0.00    -0.246 OA
BRANCH  36  38
ATOM     38  C   UNL     1      -0.065  -9.421  -7.089  1.00  0.00     0.060 A 
ATOM     39  C   UNL     1       0.169  -9.742  -5.747  1.00  0.00     0.016 A 
ATOM     40  C   UNL     1      -1.150  -9.972  -7.775  1.00  0.00     0.016 A 
ATOM     41  C   UNL     1      -0.661 -10.656  -5.096  1.00  0.00     0.010 A 
ATOM     42  C   UNL     1      -1.969 -10.901  -7.127  1.00  0.00     0.010 A 
ATOM     43  C   UNL     1      -1.704 -11.275  -5.798  1.00  0.00    -0.014 A 
BRANCH  43  44
ATOM     44  C   UNL     1      -2.372 -12.466  -5.219  1.00  0.00     0.031 A 
ATOM     45  C   UNL     1      -1.870 -13.828  -5.623  1.00  0.00     0.074 A 
ATOM     46  C   UNL     1      -3.381 -12.349  -4.338  1.00  0.00     0.049 A 
ATOM     47  N   UNL     1      -2.321 -15.011  -5.300  1.00  0.00    -0.248 NA
ATOM     48  C   UNL     1      -0.697 -13.854  -6.516  1.00  0.00     0.031 C 
ATOM     49  C   UNL     1      -3.924 -11.089  -3.832  1.00  0.00     0.029 A 
ATOM     50  N   UNL     1      -4.135 -13.314  -3.716  1.00  0.00    -0.354 N 
ATOM     51  C   UNL     1      -1.490 -15.920  -5.945  1.00  0.00     0.074 A 
ATOM     52  C   UNL     1      -0.529 -15.153  -6.707  1.00  0.00     0.031 C 
ATOM     53  C   UNL     1      -4.934 -11.359  -2.984  1.00  0.00     0.029 A 
ATOM     54  C   UNL     1      -5.127 -12.807  -2.911  1.00  0.00     0.049 A 
ATOM     55  H   UNL     1      -3.979 -14.278  -3.836  1.00  0.00     0.167 HD
ATOM     56  C   UNL     1      -1.516 -17.273  -5.899  1.00  0.00     0.037 A 
ATOM     57  C   UNL     1      -6.089 -13.442  -2.212  1.00  0.00     0.037 A 
ATOM     58  C   UNL     1      -2.479 -18.034  -5.148  1.00  0.00     0.049 A 
ATOM     59  C   UNL     1      -6.147 -14.951  -2.239  1.00  0.00     0.074 A 
ATOM     60  C   UNL     1      -2.606 -19.408  -5.053  1.00  0.00     0.029 A 
ATOM     61  N   UNL     1      -3.480 -17.484  -4.361  1.00  0.00    -0.354 N 
ATOM     62  N   UNL     1      -5.358 -15.799  -2.856  1.00  0.00    -0.248 NA
ATOM     63  C   UNL     1      -7.225 -15.589  -1.469  1.00  0.00     0.031 C 
ATOM     64  C   UNL     1      -3.706 -19.690  -4.235  1.00  0.00     0.029 A 
ATOM     65  C   UNL     1      -4.232 -18.491  -3.782  1.00  0.00     0.049 A 
ATOM     66  H   UNL     1      -3.632 -16.520  -4.232  1.00  0.00     0.167 HD
ATOM     67  C   UNL     1      -5.817 -17.067  -2.512  1.00  0.00     0.074 A 
ATOM     68  C   UNL     1      -6.952 -16.876  -1.633  1.00  0.00     0.031 C 
ATOM     69  C   UNL     1      -5.341 -18.282  -2.885  1.00  0.00     0.037 A 
BRANCH  56  70
ATOM     70  C   UNL     1      -0.480 -18.015  -6.695  1.00  0.00     0.058 A 
ATOM     71  C   UNL     1       0.867 -18.045  -6.300  1.00  0.00     0.135 A 
ATOM     72  C   UNL     1      -0.841 -18.727  -7.850  1.00  0.00     0.135 A 
ATOM     73  F   UNL     1       1.269 -17.361  -5.217  1.00  0.00    -0.206 F 
ATOM     74  C   UNL     1       1.823 -18.740  -7.032  1.00  0.00     0.059 A 
ATOM     75  C   UNL     1       0.095 -19.450  -8.583  1.00  0.00     0.059 A 
ATOM     76  F   UNL     1      -2.114 -18.726  -8.275  1.00  0.00    -0.206 F 
ATOM     77  C   UNL     1       1.427 -19.441  -8.172  1.00  0.00     0.060 A 
BRANCH  77  78
ATOM     78  S   UNL     1       2.678 -20.350  -9.104  1.00  0.00     0.124 S 
ATOM     79  O   UNL     1       3.410 -19.262  -9.746  1.00  0.00    -0.237 OA
ATOM     80  O   UNL     1       3.396 -21.061  -8.051  1.00  0.00    -0.237 OA
ATOM     81  O   UNL     1       1.891 -21.191 -10.000  1.00  0.00    -0.744 OA
ENDBRANCH  77  78
ENDBRANCH  56  70
BRANCH  57  82
ATOM     82  C   UNL     1      -7.089 -12.668  -1.428  1.00  0.00     0.058 A 
ATOM     83  C   UNL     1      -7.108 -12.721  -0.026  1.00  0.00     0.135 A 
ATOM     84  C   UNL     1      -8.072 -11.894  -2.064  1.00  0.00     0.135 A 
ATOM     85  F   UNL     1      -6.197 -13.456   0.629  1.00  0.00    -0.206 F 
ATOM     86  C   UNL     1      -8.084 -12.064   0.717  1.00  0.00     0.059 A 
ATOM     87  C   UNL     1      -9.042 -11.205  -1.343  1.00  0.00     0.059 A 
ATOM     88  F   UNL     1      -8.094 -11.802  -3.403  1.00  0.00    -0.206 F 
ATOM     89  C   UNL     1      -9.051 -11.311   0.048  1.00  0.00     0.060 A 
BRANCH  89  90
ATOM     90  S   UNL     1     -10.309 -10.455   1.020  1.00  0.00     0.124 S 
ATOM     91  O   UNL     1     -11.169 -11.561   1.425  1.00  0.00    -0.237 OA
ATOM     92  O   UNL     1      -9.515  -9.841   2.080  1.00  0.00    -0.237 OA
ATOM     93  O   UNL     1     -10.893  -9.520   0.062  1.00  0.00    -0.744 OA
ENDBRANCH  89  90
ENDBRANCH  57  82
BRANCH  69  94
ATOM     94  C   UNL     1      -5.994 -19.500  -2.290  1.00  0.00     0.058 A 
ATOM     95  C   UNL     1      -7.270 -19.928  -2.686  1.00  0.00     0.135 A 
ATOM     96  C   UNL     1      -5.306 -20.277  -1.344  1.00  0.00     0.135 A 
ATOM     97  F   UNL     1      -7.972 -19.221  -3.585  1.00  0.00    -0.206 F 
ATOM     98  C   UNL     1      -7.853 -21.070  -2.144  1.00  0.00     0.059 A 
ATOM     99  C   UNL     1      -5.857 -21.437  -0.810  1.00  0.00     0.059 A 
ATOM    100  F   UNL     1      -4.076 -19.920  -0.942  1.00  0.00    -0.206 F 
ATOM    101  C   UNL     1      -7.138 -21.818  -1.206  1.00  0.00     0.060 A 
BRANCH 101 102
ATOM    102  S   UNL     1      -7.893 -23.312  -0.529  1.00  0.00     0.124 S 
ATOM    103  O   UNL     1      -8.869 -22.753   0.401  1.00  0.00    -0.237 OA
ATOM    104  O   UNL     1      -8.445 -23.952  -1.719  1.00  0.00    -0.237 OA
ATOM    105  O   UNL     1      -6.768 -24.012   0.086  1.00  0.00    -0.744 OA
ENDBRANCH 101 102
ENDBRANCH  69  94
ENDBRANCH  43  44
ENDBRANCH  36  38
ENDBRANCH  35  36
ENDBRANCH  34  35
ENDBRANCH  33  34
ENDBRANCH  32  33
ENDBRANCH  31  32
ENDBRANCH   1  31
TORSDOF 23
