REMARK SMILES CC(C)Cc1ccc(-c2cc(Cl)cc3c2O[C@H](C(F)(F)F)C(C(=O)OCCOCCOCCOC(=O)c2ccc(-c4c5nc(c(-c6c(F)cc(S(=O)(=O)[O-])cc6F)c6ccc([nH]6)c(-c6c(F)cc(S(=O)(=O)[O-])cc6F)c6nc(c(-c7c(F)cc(S(=O)(=O)[O-])cc7F)c7ccc4[nH]7)C=C6)C=C5)cc2)=C3)cc1
REMARK SMILES IDX 29 1 28 2 27 3 26 4 25 5 23 6 24 7 22 8 9 9 10 10 15 11
REMARK SMILES IDX 11 12 14 13 16 14 12 15 13 16 103 17 17 18 8 19 5 20 6 21
REMARK SMILES IDX 105 22 7 23 104 24 4 25 2 26 1 27 3 28 18 29 19 30 20 31
REMARK SMILES IDX 21 32 30 33 31 34 32 35 33 36 34 37 35 38 36 39 37 40 38 41
REMARK SMILES IDX 102 42 39 43 101 44 40 45 41 46 42 47 95 48 43 49 100 50
REMARK SMILES IDX 94 51 96 52 44 53 99 54 93 55 92 56 45 58 79 59 58 60 78 61
REMARK SMILES IDX 59 62 62 63 77 64 97 65 60 66 61 67 76 69 98 70 63 71 46 72
REMARK SMILES IDX 47 73 56 74 48 75 49 76 55 77 57 78 50 79 51 80 52 81 53 82
REMARK SMILES IDX 54 83 80 84 81 85 90 86 82 87 83 88 89 89 91 90 84 91 85 92
REMARK SMILES IDX 86 93 87 94 88 95 64 96 65 97 74 98 66 99 67 100 73 101
REMARK SMILES IDX 75 102 68 103 69 104 70 105 71 106 72 107
REMARK H PARENT 96 57 62 68
REMARK Flexibility Score: inf
ROOT
ATOM      1  C   UNL     1      -5.038  -7.122  -5.813  1.00  0.00     0.188 C 
ENDROOT
BRANCH   1   2
ATOM      2  O   UNL     1      -4.706  -7.405  -7.160  1.00  0.00    -0.376 OA
BRANCH   2   3
ATOM      3  C   UNL     1      -3.732  -8.423  -7.373  1.00  0.00     0.202 C 
BRANCH   3   4
ATOM      4  C   UNL     1      -3.991  -9.772  -6.680  1.00  0.00     0.261 C 
BRANCH   4   5
ATOM      5  O   UNL     1      -3.946  -9.665  -5.234  1.00  0.00    -0.460 OA
BRANCH   5   6
ATOM      6  C   UNL     1      -2.737  -9.879  -4.672  1.00  0.00     0.338 C 
ATOM      7  O   UNL     1      -1.758 -10.303  -5.271  1.00  0.00    -0.246 OA
BRANCH   6   8
ATOM      8  C   UNL     1      -2.677  -9.405  -3.262  1.00  0.00     0.087 C 
ATOM      9  C   UNL     1      -2.971  -5.472  -1.988  1.00  0.00     0.026 A 
ATOM     10  C   UNL     1      -2.609  -4.677  -3.099  1.00  0.00     0.033 A 
ATOM     11  C   UNL     1      -2.802  -6.849  -2.163  1.00  0.00     0.135 A 
ATOM     12  C   UNL     1      -1.916  -5.188  -4.197  1.00  0.00     0.042 A 
ATOM     13  C   UNL     1      -1.895  -7.309  -3.135  1.00  0.00     0.019 A 
ATOM     14  O   UNL     1      -3.542  -7.827  -1.505  1.00  0.00    -0.475 OA
ATOM     15  Cl  UNL     1      -1.524  -4.174  -5.526  1.00  0.00    -0.084 Cl
ATOM     16  C   UNL     1      -1.474  -6.496  -4.177  1.00  0.00     0.032 A 
ATOM     17  C   UNL     1      -1.526  -8.739  -3.075  1.00  0.00     0.027 C 
ATOM     18  C   UNL     1      -3.891  -8.933  -2.462  1.00  0.00     0.316 C 
BRANCH   9  19
ATOM     19  C   UNL     1      -2.982  -4.748  -0.682  1.00  0.00    -0.015 A 
ATOM     20  C   UNL     1      -2.123  -2.830   1.265  1.00  0.00    -0.048 A 
ATOM     21  C   UNL     1      -3.231  -2.577   0.451  1.00  0.00     0.004 A 
ATOM     22  C   UNL     1      -1.552  -4.104   1.203  1.00  0.00     0.004 A 
ATOM     23  C   UNL     1      -3.653  -3.524  -0.500  1.00  0.00     0.009 A 
ATOM     24  C   UNL     1      -1.965  -5.040   0.242  1.00  0.00     0.009 A 
BRANCH  20  25
ATOM     25  C   UNL     1      -1.554  -1.720   2.134  1.00  0.00     0.038 C 
BRANCH  25  26
ATOM     26  C   UNL     1      -0.024  -1.760   2.386  1.00  0.00    -0.013 C 
ATOM     27  C   UNL     1       0.766  -1.819   1.077  1.00  0.00     0.008 C 
ATOM     28  C   UNL     1       0.413  -0.568   3.248  1.00  0.00     0.008 C 
ENDBRANCH  25  26
ENDBRANCH  20  25
ENDBRANCH   9  19
BRANCH  18  29
ATOM     29  C   UNL     1      -4.540 -10.131  -1.762  1.00  0.00     0.430 C 
ATOM     30  F   UNL     1      -3.716 -10.708  -0.859  1.00  0.00    -0.167 F 
ATOM     31  F   UNL     1      -5.682  -9.789  -1.126  1.00  0.00    -0.167 F 
ATOM     32  F   UNL     1      -4.872 -11.091  -2.665  1.00  0.00    -0.167 F 
ENDBRANCH  18  29
ENDBRANCH   6   8
ENDBRANCH   5   6
ENDBRANCH   4   5
ENDBRANCH   3   4
ENDBRANCH   2   3
ENDBRANCH   1   2
BRANCH   1  33
ATOM     33  C   UNL     1      -6.370  -7.747  -5.340  1.00  0.00     0.188 C 
BRANCH  33  34
ATOM     34  O   UNL     1      -7.096  -8.600  -6.211  1.00  0.00    -0.376 OA
BRANCH  34  35
ATOM     35  C   UNL     1      -7.360  -8.161  -7.538  1.00  0.00     0.202 C 
BRANCH  35  36
ATOM     36  C   UNL     1      -7.940  -6.756  -7.780  1.00  0.00     0.261 C 
BRANCH  36  37
ATOM     37  O   UNL     1      -7.209  -5.659  -7.193  1.00  0.00    -0.460 OA
BRANCH  37  38
ATOM     38  C   UNL     1      -7.862  -4.985  -6.214  1.00  0.00     0.338 C 
ATOM     39  O   UNL     1      -8.985  -5.229  -5.791  1.00  0.00    -0.246 OA
BRANCH  38  40
ATOM     40  C   UNL     1      -6.989  -3.987  -5.555  1.00  0.00     0.060 A 
ATOM     41  C   UNL     1      -6.798  -4.099  -4.173  1.00  0.00     0.016 A 
ATOM     42  C   UNL     1      -6.498  -2.869  -6.233  1.00  0.00     0.016 A 
ATOM     43  C   UNL     1      -6.179  -3.066  -3.461  1.00  0.00     0.010 A 
ATOM     44  C   UNL     1      -5.872  -1.833  -5.513  1.00  0.00     0.010 A 
ATOM     45  C   UNL     1      -5.739  -1.904  -4.114  1.00  0.00    -0.014 A 
BRANCH  45  46
ATOM     46  C   UNL     1      -5.419  -0.686  -3.300  1.00  0.00     0.031 A 
ATOM     47  C   UNL     1      -6.579   0.172  -2.865  1.00  0.00     0.074 A 
ATOM     48  C   UNL     1      -4.160  -0.337  -2.958  1.00  0.00     0.049 A 
ATOM     49  N   UNL     1      -6.596   1.205  -2.067  1.00  0.00    -0.248 NA
ATOM     50  C   UNL     1      -7.894  -0.167  -3.438  1.00  0.00     0.031 C 
ATOM     51  C   UNL     1      -2.970  -1.046  -3.395  1.00  0.00     0.029 A 
ATOM     52  N   UNL     1      -3.655   0.671  -2.161  1.00  0.00    -0.354 N 
ATOM     53  C   UNL     1      -7.904   1.679  -2.094  1.00  0.00     0.074 A 
ATOM     54  C   UNL     1      -8.657   0.804  -2.963  1.00  0.00     0.031 C 
ATOM     55  C   UNL     1      -1.888  -0.532  -2.784  1.00  0.00     0.029 A 
ATOM     56  C   UNL     1      -2.276   0.637  -1.998  1.00  0.00     0.049 A 
ATOM     57  H   UNL     1      -4.225   1.357  -1.744  1.00  0.00     0.167 HD
ATOM     58  C   UNL     1      -8.420   2.766  -1.474  1.00  0.00     0.037 A 
ATOM     59  C   UNL     1      -1.447   1.462  -1.304  1.00  0.00     0.037 A 
ATOM     60  C   UNL     1      -7.660   3.615  -0.597  1.00  0.00     0.049 A 
ATOM     61  C   UNL     1      -2.127   2.590  -0.527  1.00  0.00     0.074 A 
ATOM     62  C   UNL     1      -8.080   4.735   0.098  1.00  0.00     0.029 A 
ATOM     63  N   UNL     1      -6.316   3.441  -0.303  1.00  0.00    -0.354 N 
ATOM     64  N   UNL     1      -3.409   2.797  -0.305  1.00  0.00    -0.248 NA
ATOM     65  C   UNL     1      -1.258   3.570   0.137  1.00  0.00     0.031 C 
ATOM     66  C   UNL     1      -6.978   5.265   0.776  1.00  0.00     0.029 A 
ATOM     67  C   UNL     1      -5.881   4.452   0.534  1.00  0.00     0.049 A 
ATOM     68  H   UNL     1      -5.754   2.705  -0.639  1.00  0.00     0.167 HD
ATOM     69  C   UNL     1      -3.471   3.866   0.590  1.00  0.00     0.074 A 
ATOM     70  C   UNL     1      -2.106   4.160   0.965  1.00  0.00     0.031 C 
ATOM     71  C   UNL     1      -4.530   4.610   1.007  1.00  0.00     0.037 A 
BRANCH  58  72
ATOM     72  C   UNL     1      -9.846   3.135  -1.773  1.00  0.00     0.058 A 
ATOM     73  C   UNL     1     -10.932   2.384  -1.299  1.00  0.00     0.135 A 
ATOM     74  C   UNL     1     -10.127   4.284  -2.532  1.00  0.00     0.135 A 
ATOM     75  F   UNL     1     -10.721   1.263  -0.592  1.00  0.00    -0.206 F 
ATOM     76  C   UNL     1     -12.245   2.748  -1.582  1.00  0.00     0.059 A 
ATOM     77  C   UNL     1     -11.432   4.683  -2.803  1.00  0.00     0.059 A 
ATOM     78  F   UNL     1      -9.126   5.035  -3.019  1.00  0.00    -0.206 F 
ATOM     79  C   UNL     1     -12.485   3.901  -2.332  1.00  0.00     0.060 A 
BRANCH  79  80
ATOM     80  S   UNL     1     -14.195   4.371  -2.673  1.00  0.00     0.124 S 
ATOM     81  O   UNL     1     -14.590   3.352  -3.641  1.00  0.00    -0.237 OA
ATOM     82  O   UNL     1     -14.814   4.267  -1.355  1.00  0.00    -0.237 OA
ATOM     83  O   UNL     1     -14.077   5.726  -3.202  1.00  0.00    -0.744 OA
ENDBRANCH  79  80
ENDBRANCH  58  72
BRANCH  59  84
ATOM     84  C   UNL     1       0.059   1.236  -1.196  1.00  0.00     0.058 A 
ATOM     85  C   UNL     1       0.731   1.324   0.042  1.00  0.00     0.135 A 
ATOM     86  C   UNL     1       0.883   0.885  -2.282  1.00  0.00     0.135 A 
ATOM     87  F   UNL     1       0.051   1.627   1.155  1.00  0.00    -0.206 F 
ATOM     88  C   UNL     1       2.089   1.045   0.211  1.00  0.00     0.059 A 
ATOM     89  C   UNL     1       2.220   0.489  -2.124  1.00  0.00     0.059 A 
ATOM     90  F   UNL     1       0.393   0.879  -3.532  1.00  0.00    -0.206 F 
ATOM     91  C   UNL     1       2.805   0.541  -0.863  1.00  0.00     0.060 A 
BRANCH  91  92
ATOM     92  S   UNL     1       4.461  -0.125  -0.571  1.00  0.00     0.124 S 
ATOM     93  O   UNL     1       5.059   0.882   0.299  1.00  0.00    -0.237 OA
ATOM     94  O   UNL     1       4.157  -1.406   0.060  1.00  0.00    -0.237 OA
ATOM     95  O   UNL     1       5.028  -0.210  -1.912  1.00  0.00    -0.744 OA
ENDBRANCH  91  92
ENDBRANCH  59  84
BRANCH  71  96
ATOM     96  C   UNL     1      -4.250   5.742   1.969  1.00  0.00     0.058 A 
ATOM     97  C   UNL     1      -3.445   6.835   1.601  1.00  0.00     0.135 A 
ATOM     98  C   UNL     1      -4.800   5.750   3.262  1.00  0.00     0.135 A 
ATOM     99  F   UNL     1      -2.912   6.899   0.370  1.00  0.00    -0.206 F 
ATOM    100  C   UNL     1      -3.118   7.840   2.503  1.00  0.00     0.059 A 
ATOM    101  C   UNL     1      -4.529   6.776   4.165  1.00  0.00     0.059 A 
ATOM    102  F   UNL     1      -5.612   4.759   3.660  1.00  0.00    -0.206 F 
ATOM    103  C   UNL     1      -3.659   7.798   3.787  1.00  0.00     0.060 A 
BRANCH 103 104
ATOM    104  S   UNL     1      -3.215   9.105   4.949  1.00  0.00     0.124 S 
ATOM    105  O   UNL     1      -1.869   8.701   5.342  1.00  0.00    -0.237 OA
ATOM    106  O   UNL     1      -3.299  10.304   4.120  1.00  0.00    -0.237 OA
ATOM    107  O   UNL     1      -4.234   8.995   5.987  1.00  0.00    -0.744 OA
ENDBRANCH 103 104
ENDBRANCH  71  96
ENDBRANCH  45  46
ENDBRANCH  38  40
ENDBRANCH  37  38
ENDBRANCH  36  37
ENDBRANCH  35  36
ENDBRANCH  34  35
ENDBRANCH  33  34
ENDBRANCH   1  33
TORSDOF 24
