REMARK SMILES COC(=O)c1ccc(C)c2c1[C@H]1C=CC[C@H]1[C@@H](c1ccc(C(=O)OCCOCCOCCOC(=O)c3ccc(-c4c5nc(c(-c6c(F)cc(S(=O)(=O)[O-])cc6F)c6ccc([nH]6)c(-c6c(F)cc(S(=O)(=O)[O-])cc6F)c6nc(c(-c7c(F)cc(S(=O)(=O)[O-])cc7F)c7ccc4[nH]7)C=C6)C=C5)cc3)cc1)N2
REMARK SMILES IDX 28 1 27 2 26 3 25 4 24 5 22 6 23 7 21 8 18 9 19 10 103 11
REMARK SMILES IDX 20 12 102 13 17 14 5 15 6 16 11 17 7 18 10 19 12 20 8 21
REMARK SMILES IDX 104 22 13 23 16 24 9 25 14 27 15 28 3 29 4 30 2 31 1 32
REMARK SMILES IDX 29 33 30 34 31 35 32 36 33 37 34 38 35 39 36 40 37 41 101 42
REMARK SMILES IDX 38 43 100 44 39 45 40 46 41 47 94 48 42 49 99 50 93 51 95 52
REMARK SMILES IDX 43 53 98 54 92 55 91 56 44 58 78 59 57 60 77 61 58 62 61 63
REMARK SMILES IDX 76 64 96 65 59 66 60 67 75 69 97 70 62 71 45 72 46 73 55 74
REMARK SMILES IDX 47 75 48 76 54 77 56 78 49 79 50 80 51 81 52 82 53 83 79 84
REMARK SMILES IDX 80 85 89 86 81 87 82 88 88 89 90 90 83 91 84 92 85 93 86 94
REMARK SMILES IDX 87 95 63 96 64 97 73 98 65 99 66 100 72 101 74 102 67 103
REMARK SMILES IDX 68 104 69 105 70 106 71 107
REMARK H PARENT 104 26 95 57 61 68
REMARK Flexibility Score: inf
ROOT
ATOM      1  C   UNL     1       4.999   5.988  -3.256  1.00  0.00     0.188 C 
ENDROOT
BRANCH   1   2
ATOM      2  O   UNL     1       5.636   6.481  -4.410  1.00  0.00    -0.376 OA
BRANCH   2   3
ATOM      3  C   UNL     1       5.639   7.871  -4.681  1.00  0.00     0.202 C 
BRANCH   3   4
ATOM      4  C   UNL     1       5.413   8.989  -3.640  1.00  0.00     0.261 C 
BRANCH   4   5
ATOM      5  O   UNL     1       5.166   8.607  -2.285  1.00  0.00    -0.460 OA
BRANCH   5   6
ATOM      6  C   UNL     1       3.892   8.774  -1.848  1.00  0.00     0.338 C 
ATOM      7  O   UNL     1       2.958   9.240  -2.477  1.00  0.00    -0.246 OA
BRANCH   6   8
ATOM      8  C   UNL     1       3.736   8.109  -0.538  1.00  0.00     0.060 A 
ATOM      9  C   UNL     1       3.341   6.756   1.915  1.00  0.00    -0.025 A 
ATOM     10  C   UNL     1       2.537   6.490   0.791  1.00  0.00     0.007 A 
ATOM     11  C   UNL     1       4.388   7.685   1.756  1.00  0.00     0.007 A 
ATOM     12  C   UNL     1       2.712   7.171  -0.413  1.00  0.00     0.016 A 
ATOM     13  C   UNL     1       4.594   8.350   0.537  1.00  0.00     0.016 A 
BRANCH   9  14
ATOM     14  C   UNL     1       3.068   6.135   3.292  1.00  0.00     0.114 C 
ATOM     15  C   UNL     1       0.367   3.000   2.260  1.00  0.00     0.065 A 
ATOM     16  C   UNL     1      -0.967   3.329   2.005  1.00  0.00     0.016 A 
ATOM     17  C   UNL     1       1.260   3.954   2.800  1.00  0.00    -0.003 A 
ATOM     18  C   UNL     1      -1.437   4.597   2.317  1.00  0.00     0.006 A 
ATOM     19  C   UNL     1       0.770   5.244   3.131  1.00  0.00     0.042 A 
ATOM     20  C   UNL     1       2.720   3.610   3.019  1.00  0.00     0.050 C 
ATOM     21  C   UNL     1      -0.590   5.558   2.893  1.00  0.00    -0.028 A 
ATOM     22  N   UNL     1       1.647   6.216   3.605  1.00  0.00    -0.377 N 
ATOM     23  C   UNL     1       3.536   3.295   1.787  1.00  0.00    -0.023 C 
ATOM     24  C   UNL     1       3.571   4.726   3.650  1.00  0.00     0.031 C 
ATOM     25  C   UNL     1      -1.209   6.905   3.161  1.00  0.00     0.046 C 
ATOM     26  H   UNL     1       1.306   6.959   4.154  1.00  0.00     0.161 HD
ATOM     27  C   UNL     1       4.797   3.733   1.901  1.00  0.00    -0.030 C 
ATOM     28  C   UNL     1       5.008   4.435   3.201  1.00  0.00     0.034 C 
BRANCH  15  29
ATOM     29  C   UNL     1       0.795   1.613   1.972  1.00  0.00     0.338 C 
ATOM     30  O   UNL     1       1.437   0.916   2.741  1.00  0.00    -0.246 OA
BRANCH  29  31
ATOM     31  O   UNL     1       0.397   1.297   0.720  1.00  0.00    -0.465 OA
ATOM     32  C   UNL     1       0.708  -0.040   0.329  1.00  0.00     0.282 C 
ENDBRANCH  29  31
ENDBRANCH  15  29
ENDBRANCH   9  14
ENDBRANCH   6   8
ENDBRANCH   5   6
ENDBRANCH   4   5
ENDBRANCH   3   4
ENDBRANCH   2   3
ENDBRANCH   1   2
BRANCH   1  33
ATOM     33  C   UNL     1       5.944   5.768  -2.053  1.00  0.00     0.188 C 
BRANCH  33  34
ATOM     34  O   UNL     1       7.279   6.252  -2.098  1.00  0.00    -0.376 OA
BRANCH  34  35
ATOM     35  C   UNL     1       8.106   5.895  -3.198  1.00  0.00     0.202 C 
BRANCH  35  36
ATOM     36  C   UNL     1       8.167   4.453  -3.738  1.00  0.00     0.261 C 
BRANCH  36  37
ATOM     37  O   UNL     1       6.913   3.775  -3.896  1.00  0.00    -0.460 OA
BRANCH  37  38
ATOM     38  C   UNL     1       6.693   2.746  -3.040  1.00  0.00     0.338 C 
ATOM     39  O   UNL     1       7.430   2.346  -2.157  1.00  0.00    -0.246 OA
BRANCH  38  40
ATOM     40  C   UNL     1       5.322   2.243  -3.240  1.00  0.00     0.060 A 
ATOM     41  C   UNL     1       4.342   2.522  -2.278  1.00  0.00     0.016 A 
ATOM     42  C   UNL     1       5.029   1.448  -4.347  1.00  0.00     0.016 A 
ATOM     43  C   UNL     1       3.057   2.004  -2.422  1.00  0.00     0.010 A 
ATOM     44  C   UNL     1       3.750   0.901  -4.473  1.00  0.00     0.010 A 
ATOM     45  C   UNL     1       2.770   1.156  -3.498  1.00  0.00    -0.014 A 
BRANCH  45  46
ATOM     46  C   UNL     1       1.513   0.375  -3.490  1.00  0.00     0.031 A 
ATOM     47  C   UNL     1       1.538  -1.003  -2.896  1.00  0.00     0.074 A 
ATOM     48  C   UNL     1       0.365   0.896  -3.955  1.00  0.00     0.049 A 
ATOM     49  N   UNL     1       0.559  -1.855  -2.743  1.00  0.00    -0.248 NA
ATOM     50  C   UNL     1       2.831  -1.467  -2.363  1.00  0.00     0.031 C 
ATOM     51  C   UNL     1       0.210   2.240  -4.507  1.00  0.00     0.029 A 
ATOM     52  N   UNL     1      -0.889   0.345  -4.045  1.00  0.00    -0.354 N 
ATOM     53  C   UNL     1       1.105  -2.937  -2.064  1.00  0.00     0.074 A 
ATOM     54  C   UNL     1       2.513  -2.659  -1.882  1.00  0.00     0.031 C 
ATOM     55  C   UNL     1      -1.064   2.400  -4.906  1.00  0.00     0.029 A 
ATOM     56  C   UNL     1      -1.806   1.164  -4.657  1.00  0.00     0.049 A 
ATOM     57  H   UNL     1      -1.109  -0.551  -3.703  1.00  0.00     0.167 HD
ATOM     58  C   UNL     1       0.479  -4.045  -1.605  1.00  0.00     0.037 A 
ATOM     59  C   UNL     1      -3.090   0.932  -4.998  1.00  0.00     0.037 A 
ATOM     60  C   UNL     1      -0.914  -4.330  -1.820  1.00  0.00     0.049 A 
ATOM     61  C   UNL     1      -3.723  -0.387  -4.638  1.00  0.00     0.074 A 
ATOM     62  C   UNL     1      -1.637  -5.436  -1.409  1.00  0.00     0.029 A 
ATOM     63  N   UNL     1      -1.789  -3.522  -2.532  1.00  0.00    -0.354 N 
ATOM     64  N   UNL     1      -3.207  -1.395  -3.974  1.00  0.00    -0.248 NA
ATOM     65  C   UNL     1      -5.112  -0.601  -5.069  1.00  0.00     0.031 C 
ATOM     66  C   UNL     1      -2.929  -5.329  -1.932  1.00  0.00     0.029 A 
ATOM     67  C   UNL     1      -3.034  -4.125  -2.612  1.00  0.00     0.049 A 
ATOM     68  H   UNL     1      -1.560  -2.648  -2.922  1.00  0.00     0.167 HD
ATOM     69  C   UNL     1      -4.213  -2.353  -3.888  1.00  0.00     0.074 A 
ATOM     70  C   UNL     1      -5.371  -1.800  -4.561  1.00  0.00     0.031 C 
ATOM     71  C   UNL     1      -4.179  -3.575  -3.298  1.00  0.00     0.037 A 
BRANCH  58  72
ATOM     72  C   UNL     1       1.315  -5.043  -0.856  1.00  0.00     0.058 A 
ATOM     73  C   UNL     1       1.805  -4.776   0.433  1.00  0.00     0.135 A 
ATOM     74  C   UNL     1       1.631  -6.281  -1.435  1.00  0.00     0.135 A 
ATOM     75  F   UNL     1       1.547  -3.596   1.022  1.00  0.00    -0.206 F 
ATOM     76  C   UNL     1       2.607  -5.689   1.109  1.00  0.00     0.059 A 
ATOM     77  C   UNL     1       2.409  -7.221  -0.767  1.00  0.00     0.059 A 
ATOM     78  F   UNL     1       1.192  -6.583  -2.666  1.00  0.00    -0.206 F 
ATOM     79  C   UNL     1       2.907  -6.909   0.498  1.00  0.00     0.060 A 
BRANCH  79  80
ATOM     80  S   UNL     1       3.974  -8.072   1.372  1.00  0.00     0.124 S 
ATOM     81  O   UNL     1       5.253  -7.367   1.350  1.00  0.00    -0.237 OA
ATOM     82  O   UNL     1       3.325  -8.169   2.675  1.00  0.00    -0.237 OA
ATOM     83  O   UNL     1       3.911  -9.277   0.551  1.00  0.00    -0.744 OA
ENDBRANCH  79  80
ENDBRANCH  58  72
BRANCH  59  84
ATOM     84  C   UNL     1      -3.849   1.983  -5.726  1.00  0.00     0.058 A 
ATOM     85  C   UNL     1      -4.873   2.705  -5.098  1.00  0.00     0.135 A 
ATOM     86  C   UNL     1      -3.522   2.326  -7.048  1.00  0.00     0.135 A 
ATOM     87  F   UNL     1      -5.236   2.402  -3.843  1.00  0.00    -0.206 F 
ATOM     88  C   UNL     1      -5.532   3.746  -5.746  1.00  0.00     0.059 A 
ATOM     89  C   UNL     1      -4.151   3.376  -7.709  1.00  0.00     0.059 A 
ATOM     90  F   UNL     1      -2.550   1.663  -7.694  1.00  0.00    -0.206 F 
ATOM     91  C   UNL     1      -5.151   4.085  -7.046  1.00  0.00     0.060 A 
BRANCH  91  92
ATOM     92  S   UNL     1      -5.939   5.508  -7.832  1.00  0.00     0.124 S 
ATOM     93  O   UNL     1      -7.306   5.033  -8.005  1.00  0.00    -0.237 OA
ATOM     94  O   UNL     1      -5.747   6.550  -6.828  1.00  0.00    -0.237 OA
ATOM     95  O   UNL     1      -5.171   5.684  -9.062  1.00  0.00    -0.744 OA
ENDBRANCH  91  92
ENDBRANCH  59  84
BRANCH  71  96
ATOM     96  C   UNL     1      -5.430  -4.414  -3.340  1.00  0.00     0.058 A 
ATOM     97  C   UNL     1      -5.866  -5.026  -4.524  1.00  0.00     0.135 A 
ATOM     98  C   UNL     1      -6.150  -4.682  -2.162  1.00  0.00     0.135 A 
ATOM     99  F   UNL     1      -5.221  -4.801  -5.679  1.00  0.00    -0.206 F 
ATOM    100  C   UNL     1      -6.977  -5.865  -4.544  1.00  0.00     0.059 A 
ATOM    101  C   UNL     1      -7.244  -5.542  -2.152  1.00  0.00     0.059 A 
ATOM    102  F   UNL     1      -5.770  -4.132  -0.998  1.00  0.00    -0.206 F 
ATOM    103  C   UNL     1      -7.655  -6.123  -3.350  1.00  0.00     0.060 A 
BRANCH 103 104
ATOM    104  S   UNL     1      -9.064  -7.251  -3.386  1.00  0.00     0.124 S 
ATOM    105  O   UNL     1     -10.047  -6.472  -4.131  1.00  0.00    -0.237 OA
ATOM    106  O   UNL     1      -8.515  -8.411  -4.082  1.00  0.00    -0.237 OA
ATOM    107  O   UNL     1      -9.370  -7.461  -1.974  1.00  0.00    -0.744 OA
ENDBRANCH 103 104
ENDBRANCH  71  96
ENDBRANCH  45  46
ENDBRANCH  38  40
ENDBRANCH  37  38
ENDBRANCH  36  37
ENDBRANCH  35  36
ENDBRANCH  34  35
ENDBRANCH  33  34
ENDBRANCH   1  33
TORSDOF 23
