REMARK SMILES O=C(OCCOCCOCCOC(=O)[C@@H]1CCn2c(C(=O)c3ccccc3)ccc21)c1ccc(-c2c3nc(c(-c4c(F)cc(S(=O)(=O)[O-])cc4F)c4ccc([nH]4)c(-c4c(F)cc(S(=O)(=O)[O-])cc4F)c4nc(c(-c5c(F)cc(S(=O)(=O)[O-])cc5F)c5ccc2[nH]5)C=C4)C=C3)cc1
REMARK SMILES IDX 7 1 6 2 5 3 4 4 3 5 2 6 1 7 31 8 32 9 96 10 33 11 95 12
REMARK SMILES IDX 34 13 35 14 36 15 89 16 37 17 94 18 88 19 90 20 38 21 93 22
REMARK SMILES IDX 87 23 86 24 39 26 73 27 52 28 72 29 53 30 56 31 71 32 91 33
REMARK SMILES IDX 54 34 55 35 70 37 92 38 57 39 40 40 41 41 50 42 42 43 43 44
REMARK SMILES IDX 49 45 51 46 44 47 45 48 46 49 47 50 48 51 74 52 75 53 84 54
REMARK SMILES IDX 76 55 77 56 83 57 85 58 78 59 79 60 80 61 81 62 82 63 58 64
REMARK SMILES IDX 59 65 68 66 60 67 61 68 67 69 69 70 62 71 63 72 64 73 65 74
REMARK SMILES IDX 66 75 8 76 9 77 10 78 11 79 12 80 13 81 14 82 15 83 16 84
REMARK SMILES IDX 30 85 17 86 18 87 29 88 19 89 28 90 20 91 21 92 22 93 23 94
REMARK SMILES IDX 27 95 24 96 26 97 25 98
REMARK H PARENT 90 25 56 36
REMARK Flexibility Score: inf
ROOT
ATOM      1  C   UNL     1       2.469   0.117  -1.642  1.00  0.00     0.188 C 
ENDROOT
BRANCH   1   2
ATOM      2  O   UNL     1       3.847   0.303  -1.305  1.00  0.00    -0.376 OA
BRANCH   2   3
ATOM      3  C   UNL     1       4.595  -0.915  -1.317  1.00  0.00     0.202 C 
BRANCH   3   4
ATOM      4  C   UNL     1       4.426  -1.821  -0.092  1.00  0.00     0.261 C 
BRANCH   4   5
ATOM      5  O   UNL     1       3.179  -1.675   0.596  1.00  0.00    -0.460 OA
BRANCH   5   6
ATOM      6  C   UNL     1       2.772  -0.709   1.453  1.00  0.00     0.338 C 
ATOM      7  O   UNL     1       1.629  -0.807   1.903  1.00  0.00    -0.246 OA
BRANCH   6   8
ATOM      8  C   UNL     1       3.584   0.487   1.865  1.00  0.00     0.060 A 
ATOM      9  C   UNL     1       4.943   0.701   1.611  1.00  0.00     0.016 A 
ATOM     10  C   UNL     1       2.906   1.463   2.621  1.00  0.00     0.016 A 
ATOM     11  C   UNL     1       5.622   1.804   2.133  1.00  0.00     0.010 A 
ATOM     12  C   UNL     1       3.578   2.570   3.149  1.00  0.00     0.010 A 
ATOM     13  C   UNL     1       4.953   2.720   2.938  1.00  0.00    -0.014 A 
BRANCH  13  14
ATOM     14  C   UNL     1       5.745   3.664   3.752  1.00  0.00     0.031 A 
ATOM     15  C   UNL     1       6.027   3.271   5.175  1.00  0.00     0.074 A 
ATOM     16  C   UNL     1       6.262   4.791   3.229  1.00  0.00     0.049 A 
ATOM     17  N   UNL     1       6.771   3.871   6.063  1.00  0.00    -0.248 NA
ATOM     18  C   UNL     1       5.442   1.999   5.642  1.00  0.00     0.031 C 
ATOM     19  C   UNL     1       6.161   5.213   1.833  1.00  0.00     0.029 A 
ATOM     20  N   UNL     1       6.944   5.816   3.830  1.00  0.00    -0.354 N 
ATOM     21  C   UNL     1       6.814   3.011   7.152  1.00  0.00     0.074 A 
ATOM     22  C   UNL     1       5.942   1.898   6.862  1.00  0.00     0.031 C 
ATOM     23  C   UNL     1       6.623   6.471   1.717  1.00  0.00     0.029 A 
ATOM     24  C   UNL     1       7.096   6.918   3.019  1.00  0.00     0.049 A 
ATOM     25  H   UNL     1       7.291   5.769   4.751  1.00  0.00     0.167 HD
ATOM     26  C   UNL     1       7.570   3.117   8.268  1.00  0.00     0.037 A 
ATOM     27  C   UNL     1       7.550   8.147   3.321  1.00  0.00     0.037 A 
ATOM     28  C   UNL     1       8.381   4.265   8.558  1.00  0.00     0.049 A 
ATOM     29  C   UNL     1       8.165   8.354   4.674  1.00  0.00     0.074 A 
ATOM     30  C   UNL     1       9.205   4.495   9.643  1.00  0.00     0.029 A 
ATOM     31  N   UNL     1       8.436   5.401   7.760  1.00  0.00    -0.354 N 
ATOM     32  N   UNL     1       8.264   7.510   5.673  1.00  0.00    -0.248 NA
ATOM     33  C   UNL     1       8.815   9.650   4.904  1.00  0.00     0.031 C 
ATOM     34  C   UNL     1       9.720   5.792   9.525  1.00  0.00     0.029 A 
ATOM     35  C   UNL     1       9.254   6.350   8.343  1.00  0.00     0.049 A 
ATOM     36  H   UNL     1       7.962   5.513   6.904  1.00  0.00     0.167 HD
ATOM     37  C   UNL     1       9.057   8.139   6.621  1.00  0.00     0.074 A 
ATOM     38  C   UNL     1       9.366   9.456   6.095  1.00  0.00     0.031 C 
ATOM     39  C   UNL     1       9.536   7.652   7.792  1.00  0.00     0.037 A 
BRANCH  26  40
ATOM     40  C   UNL     1       7.538   1.958   9.220  1.00  0.00     0.058 A 
ATOM     41  C   UNL     1       8.145   0.732   8.894  1.00  0.00     0.135 A 
ATOM     42  C   UNL     1       6.870   2.052  10.449  1.00  0.00     0.135 A 
ATOM     43  F   UNL     1       8.774   0.580   7.717  1.00  0.00    -0.206 F 
ATOM     44  C   UNL     1       8.063  -0.369   9.740  1.00  0.00     0.059 A 
ATOM     45  C   UNL     1       6.793   0.969  11.320  1.00  0.00     0.059 A 
ATOM     46  F   UNL     1       6.263   3.195  10.802  1.00  0.00    -0.206 F 
ATOM     47  C   UNL     1       7.378  -0.242  10.949  1.00  0.00     0.060 A 
BRANCH  47  48
ATOM     48  S   UNL     1       7.259  -1.687  12.025  1.00  0.00     0.124 S 
ATOM     49  O   UNL     1       6.293  -2.509  11.304  1.00  0.00    -0.237 OA
ATOM     50  O   UNL     1       8.631  -2.184  12.035  1.00  0.00    -0.237 OA
ATOM     51  O   UNL     1       6.788  -1.130  13.290  1.00  0.00    -0.744 OA
ENDBRANCH  47  48
ENDBRANCH  26  40
BRANCH  27  52
ATOM     52  C   UNL     1       7.488   9.265   2.347  1.00  0.00     0.058 A 
ATOM     53  C   UNL     1       8.489   9.460   1.387  1.00  0.00     0.135 A 
ATOM     54  C   UNL     1       6.442  10.200   2.403  1.00  0.00     0.135 A 
ATOM     55  F   UNL     1       9.517   8.604   1.305  1.00  0.00    -0.206 F 
ATOM     56  C   UNL     1       8.454  10.543   0.512  1.00  0.00     0.059 A 
ATOM     57  C   UNL     1       6.386  11.291   1.538  1.00  0.00     0.059 A 
ATOM     58  F   UNL     1       5.474  10.067   3.321  1.00  0.00    -0.206 F 
ATOM     59  C   UNL     1       7.399  11.455   0.595  1.00  0.00     0.060 A 
BRANCH  59  60
ATOM     60  S   UNL     1       7.344  12.817  -0.594  1.00  0.00     0.124 S 
ATOM     61  O   UNL     1       8.412  13.682  -0.108  1.00  0.00    -0.237 OA
ATOM     62  O   UNL     1       7.604  12.128  -1.855  1.00  0.00    -0.237 OA
ATOM     63  O   UNL     1       5.991  13.348  -0.455  1.00  0.00    -0.744 OA
ENDBRANCH  59  60
ENDBRANCH  27  52
BRANCH  39  64
ATOM     64  C   UNL     1      10.509   8.519   8.528  1.00  0.00     0.058 A 
ATOM     65  C   UNL     1      10.104   9.657   9.238  1.00  0.00     0.135 A 
ATOM     66  C   UNL     1      11.874   8.187   8.524  1.00  0.00     0.135 A 
ATOM     67  F   UNL     1       8.812  10.019   9.257  1.00  0.00    -0.206 F 
ATOM     68  C   UNL     1      11.028  10.458   9.899  1.00  0.00     0.059 A 
ATOM     69  C   UNL     1      12.809   8.957   9.200  1.00  0.00     0.059 A 
ATOM     70  F   UNL     1      12.305   7.102   7.860  1.00  0.00    -0.206 F 
ATOM     71  C   UNL     1      12.378  10.100   9.871  1.00  0.00     0.060 A 
BRANCH  71  72
ATOM     72  S   UNL     1      13.570  11.132  10.747  1.00  0.00     0.124 S 
ATOM     73  O   UNL     1      13.737  12.242   9.815  1.00  0.00    -0.237 OA
ATOM     74  O   UNL     1      12.865  11.445  11.987  1.00  0.00    -0.237 OA
ATOM     75  O   UNL     1      14.728  10.256  10.898  1.00  0.00    -0.744 OA
ENDBRANCH  71  72
ENDBRANCH  39  64
ENDBRANCH  13  14
ENDBRANCH   6   8
ENDBRANCH   5   6
ENDBRANCH   4   5
ENDBRANCH   3   4
ENDBRANCH   2   3
ENDBRANCH   1   2
BRANCH   1  76
ATOM     76  C   UNL     1       2.005   0.937  -2.848  1.00  0.00     0.188 C 
BRANCH  76  77
ATOM     77  O   UNL     1       2.635   0.712  -4.107  1.00  0.00    -0.376 OA
BRANCH  77  78
ATOM     78  C   UNL     1       4.039   0.920  -4.205  1.00  0.00     0.202 C 
BRANCH  78  79
ATOM     79  C   UNL     1       4.616   2.332  -4.012  1.00  0.00     0.261 C 
BRANCH  79  80
ATOM     80  O   UNL     1       3.908   3.147  -3.072  1.00  0.00    -0.463 OA
BRANCH  80  81
ATOM     81  C   UNL     1       3.149   4.137  -3.621  1.00  0.00     0.315 C 
ATOM     82  O   UNL     1       3.127   4.398  -4.821  1.00  0.00    -0.251 OA
BRANCH  81  83
ATOM     83  C   UNL     1       2.182   4.768  -2.636  1.00  0.00     0.148 C 
ATOM     84  C   UNL     1       1.796   6.208  -3.068  1.00  0.00     0.043 C 
ATOM     85  C   UNL     1       2.677   4.987  -1.252  1.00  0.00     0.033 A 
ATOM     86  C   UNL     1       2.523   7.162  -2.115  1.00  0.00     0.124 C 
ATOM     87  N   UNL     1       2.853   6.316  -0.984  1.00  0.00    -0.341 N 
ATOM     88  C   UNL     1       2.873   4.288  -0.093  1.00  0.00     0.025 A 
ATOM     89  C   UNL     1       3.111   6.538   0.334  1.00  0.00     0.090 A 
ATOM     90  C   UNL     1       3.089   5.271   0.911  1.00  0.00     0.032 A 
BRANCH  89  91
ATOM     91  C   UNL     1       3.302   7.797   1.036  1.00  0.00     0.209 C 
ATOM     92  O   UNL     1       3.298   7.894   2.262  1.00  0.00    -0.287 OA
BRANCH  91  93
ATOM     93  C   UNL     1       3.409   9.041   0.256  1.00  0.00     0.024 A 
ATOM     94  C   UNL     1       4.496   9.270  -0.593  1.00  0.00     0.012 A 
ATOM     95  C   UNL     1       2.346   9.947   0.326  1.00  0.00     0.012 A 
ATOM     96  C   UNL     1       4.493  10.400  -1.407  1.00  0.00     0.001 A 
ATOM     97  C   UNL     1       2.349  11.070  -0.495  1.00  0.00     0.001 A 
ATOM     98  C   UNL     1       3.420  11.293  -1.362  1.00  0.00     0.000 A 
ENDBRANCH  91  93
ENDBRANCH  89  91
ENDBRANCH  81  83
ENDBRANCH  80  81
ENDBRANCH  79  80
ENDBRANCH  78  79
ENDBRANCH  77  78
ENDBRANCH  76  77
ENDBRANCH   1  76
TORSDOF 22
