REMARK SMILES C[NH2+][C@]1(C(=O)OCCOCCOCCOC(=O)c2ccc(-c3c4nc(c(-c5c(F)cc(S(=O)(=O)[O-])cc5F)c5ccc([nH]5)c(-c5c(F)cc(S(=O)(=O)[O-])cc5F)c5nc(c(-c6c(F)cc(S(=O)(=O)[O-])cc6F)c6ccc3[nH]6)C=C5)C=C4)cc2)CCC[C@@H](Sc2nncs2)C1
REMARK SMILES IDX 11 1 10 2 9 3 8 4 7 5 6 6 4 7 5 8 3 9 84 10 94 11 85 12
REMARK SMILES IDX 87 13 86 14 2 15 1 16 88 19 89 20 90 21 93 22 91 23 92 24
REMARK SMILES IDX 12 25 13 26 14 27 15 28 16 29 17 30 18 31 19 32 83 33 20 34
REMARK SMILES IDX 82 35 21 36 22 37 23 38 76 39 24 40 81 41 75 42 77 43 25 44
REMARK SMILES IDX 80 45 74 46 73 47 26 49 60 50 39 51 59 52 40 53 43 54 58 55
REMARK SMILES IDX 78 56 41 57 42 58 57 60 79 61 44 62 27 63 28 64 37 65 29 66
REMARK SMILES IDX 30 67 36 68 38 69 31 70 32 71 33 72 34 73 35 74 61 75 62 76
REMARK SMILES IDX 71 77 63 78 64 79 70 80 72 81 65 82 66 83 67 84 68 85 69 86
REMARK SMILES IDX 45 87 46 88 55 89 47 90 48 91 54 92 56 93 49 94 50 95 51 96
REMARK SMILES IDX 52 97 53 98
REMARK H PARENT 2 17 2 18 77 48 43 59
REMARK Flexibility Score: inf
ROOT
ATOM      1  C   UNL     1       1.214  -3.511  -1.135  1.00  0.00     0.188 C 
ENDROOT
BRANCH   1   2
ATOM      2  C   UNL     1       2.077  -2.432  -1.802  1.00  0.00     0.188 C 
BRANCH   2   3
ATOM      3  O   UNL     1       3.276  -1.999  -1.185  1.00  0.00    -0.376 OA
BRANCH   3   4
ATOM      4  C   UNL     1       3.330  -1.823   0.221  1.00  0.00     0.202 C 
BRANCH   4   5
ATOM      5  C   UNL     1       2.368  -0.839   0.893  1.00  0.00     0.261 C 
BRANCH   5   6
ATOM      6  O   UNL     1       0.982  -1.234   0.865  1.00  0.00    -0.459 OA
BRANCH   6   7
ATOM      7  C   UNL     1       0.173  -0.481   0.072  1.00  0.00     0.368 C 
ATOM      8  O   UNL     1       0.579   0.430  -0.647  1.00  0.00    -0.245 OA
BRANCH   7   9
ATOM      9  C   UNL     1      -1.346  -0.868   0.133  1.00  0.00     0.195 C 
ATOM     10  C   UNL     1      -1.653  -2.153   0.944  1.00  0.00     0.081 C 
ATOM     11  C   UNL     1      -1.986   0.328   0.877  1.00  0.00     0.096 C 
ATOM     12  C   UNL     1      -3.135  -2.377   1.248  1.00  0.00     0.008 C 
ATOM     13  C   UNL     1      -3.479   0.135   1.160  1.00  0.00     0.061 C 
ATOM     14  C   UNL     1      -3.770  -1.167   1.916  1.00  0.00     0.015 C 
BRANCH   9  15
ATOM     15  N   UNL     1      -1.868  -0.800  -1.261  1.00  0.00    -0.335 N 
ATOM     16  C   UNL     1      -2.308  -2.000  -1.933  1.00  0.00     0.331 C 
ATOM     17  H   UNL     1      -2.666  -0.164  -1.244  1.00  0.00     0.347 HD
ATOM     18  H   UNL     1      -1.050  -0.519  -1.801  1.00  0.00     0.347 HD
ENDBRANCH   9  15
BRANCH  13  19
ATOM     19  S   UNL     1      -4.198   1.582   2.038  1.00  0.00    -0.090 SA
BRANCH  19  20
ATOM     20  C   UNL     1      -3.413   1.484   3.595  1.00  0.00     0.174 A 
ATOM     21  N   UNL     1      -2.108   1.562   3.742  1.00  0.00    -0.132 NA
ATOM     22  S   UNL     1      -4.268   1.230   5.060  1.00  0.00    -0.094 S 
ATOM     23  N   UNL     1      -1.709   1.349   5.045  1.00  0.00    -0.146 NA
ATOM     24  C   UNL     1      -2.741   1.161   5.837  1.00  0.00     0.203 A 
ENDBRANCH  19  20
ENDBRANCH  13  19
ENDBRANCH   7   9
ENDBRANCH   6   7
ENDBRANCH   5   6
ENDBRANCH   4   5
ENDBRANCH   3   4
ENDBRANCH   2   3
ENDBRANCH   1   2
BRANCH   1  25
ATOM     25  O   UNL     1       1.734  -4.339  -0.126  1.00  0.00    -0.376 OA
BRANCH  25  26
ATOM     26  C   UNL     1       2.728  -5.306  -0.389  1.00  0.00     0.202 C 
BRANCH  26  27
ATOM     27  C   UNL     1       3.074  -5.885  -1.772  1.00  0.00     0.261 C 
BRANCH  27  28
ATOM     28  O   UNL     1       2.580  -5.210  -2.928  1.00  0.00    -0.460 OA
BRANCH  28  29
ATOM     29  C   UNL     1       1.469  -5.743  -3.486  1.00  0.00     0.338 C 
ATOM     30  O   UNL     1       0.829  -6.706  -3.081  1.00  0.00    -0.246 OA
BRANCH  29  31
ATOM     31  C   UNL     1       1.020  -4.857  -4.573  1.00  0.00     0.060 A 
ATOM     32  C   UNL     1      -0.222  -4.220  -4.449  1.00  0.00     0.016 A 
ATOM     33  C   UNL     1       1.799  -4.674  -5.716  1.00  0.00     0.016 A 
ATOM     34  C   UNL     1      -0.698  -3.409  -5.476  1.00  0.00     0.010 A 
ATOM     35  C   UNL     1       1.307  -3.882  -6.758  1.00  0.00     0.010 A 
ATOM     36  C   UNL     1       0.046  -3.268  -6.654  1.00  0.00    -0.014 A 
BRANCH  36  37
ATOM     37  C   UNL     1      -0.576  -2.642  -7.846  1.00  0.00     0.031 A 
ATOM     38  C   UNL     1      -1.171  -3.542  -8.895  1.00  0.00     0.074 A 
ATOM     39  C   UNL     1      -0.637  -1.306  -7.988  1.00  0.00     0.049 A 
ATOM     40  N   UNL     1      -1.672  -3.239 -10.063  1.00  0.00    -0.248 NA
ATOM     41  C   UNL     1      -1.203  -4.980  -8.579  1.00  0.00     0.031 C 
ATOM     42  C   UNL     1      -0.160  -0.328  -7.012  1.00  0.00     0.029 A 
ATOM     43  N   UNL     1      -1.120  -0.543  -9.022  1.00  0.00    -0.354 N 
ATOM     44  C   UNL     1      -2.064  -4.446 -10.629  1.00  0.00     0.074 A 
ATOM     45  C   UNL     1      -1.727  -5.488  -9.684  1.00  0.00     0.031 C 
ATOM     46  C   UNL     1      -0.356   0.908  -7.504  1.00  0.00     0.029 A 
ATOM     47  C   UNL     1      -0.933   0.807  -8.844  1.00  0.00     0.049 A 
ATOM     48  H   UNL     1      -1.558  -0.927  -9.816  1.00  0.00     0.167 HD
ATOM     49  C   UNL     1      -2.654  -4.665 -11.828  1.00  0.00     0.037 A 
ATOM     50  C   UNL     1      -1.169   1.837  -9.681  1.00  0.00     0.037 A 
ATOM     51  C   UNL     1      -2.986  -3.626 -12.766  1.00  0.00     0.049 A 
ATOM     52  C   UNL     1      -1.751   1.563 -11.046  1.00  0.00     0.074 A 
ATOM     53  C   UNL     1      -3.575  -3.746 -14.011  1.00  0.00     0.029 A 
ATOM     54  N   UNL     1      -2.753  -2.273 -12.562  1.00  0.00    -0.354 N 
ATOM     55  N   UNL     1      -2.103   0.417 -11.579  1.00  0.00    -0.248 NA
ATOM     56  C   UNL     1      -1.963   2.723 -11.925  1.00  0.00     0.031 C 
ATOM     57  C   UNL     1      -3.660  -2.471 -14.579  1.00  0.00     0.029 A 
ATOM     58  C   UNL     1      -3.171  -1.550 -13.667  1.00  0.00     0.049 A 
ATOM     59  H   UNL     1      -2.351  -1.885 -11.752  1.00  0.00     0.167 HD
ATOM     60  C   UNL     1      -2.600   0.720 -12.844  1.00  0.00     0.074 A 
ATOM     61  C   UNL     1      -2.513   2.158 -12.992  1.00  0.00     0.031 C 
ATOM     62  C   UNL     1      -3.087  -0.116 -13.796  1.00  0.00     0.037 A 
BRANCH  49  63
ATOM     63  C   UNL     1      -2.940  -6.092 -12.206  1.00  0.00     0.058 A 
ATOM     64  C   UNL     1      -3.962  -6.830 -11.590  1.00  0.00     0.135 A 
ATOM     65  C   UNL     1      -2.185  -6.725 -13.206  1.00  0.00     0.135 A 
ATOM     66  F   UNL     1      -4.699  -6.280 -10.611  1.00  0.00    -0.206 F 
ATOM     67  C   UNL     1      -4.210  -8.155 -11.933  1.00  0.00     0.059 A 
ATOM     68  C   UNL     1      -2.432  -8.041 -13.585  1.00  0.00     0.059 A 
ATOM     69  F   UNL     1      -1.192  -6.066 -13.823  1.00  0.00    -0.206 F 
ATOM     70  C   UNL     1      -3.437  -8.753 -12.931  1.00  0.00     0.060 A 
BRANCH  70  71
ATOM     71  S   UNL     1      -3.763 -10.475 -13.361  1.00  0.00     0.124 S 
ATOM     72  O   UNL     1      -3.212 -11.173 -12.203  1.00  0.00    -0.237 OA
ATOM     73  O   UNL     1      -5.217 -10.497 -13.480  1.00  0.00    -0.237 OA
ATOM     74  O   UNL     1      -3.031 -10.659 -14.610  1.00  0.00    -0.744 OA
ENDBRANCH  70  71
ENDBRANCH  49  63
BRANCH  50  75
ATOM     75  C   UNL     1      -0.821   3.225  -9.271  1.00  0.00     0.058 A 
ATOM     76  C   UNL     1      -1.816   4.183  -9.028  1.00  0.00     0.135 A 
ATOM     77  C   UNL     1       0.518   3.623  -9.126  1.00  0.00     0.135 A 
ATOM     78  F   UNL     1      -3.110   3.857  -9.170  1.00  0.00    -0.206 F 
ATOM     79  C   UNL     1      -1.498   5.489  -8.667  1.00  0.00     0.059 A 
ATOM     80  C   UNL     1       0.860   4.915  -8.741  1.00  0.00     0.059 A 
ATOM     81  F   UNL     1       1.508   2.744  -9.344  1.00  0.00    -0.206 F 
ATOM     82  C   UNL     1      -0.155   5.845  -8.524  1.00  0.00     0.060 A 
BRANCH  82  83
ATOM     83  S   UNL     1       0.247   7.531  -8.016  1.00  0.00     0.124 S 
ATOM     84  O   UNL     1      -0.035   8.280  -9.235  1.00  0.00    -0.237 OA
ATOM     85  O   UNL     1      -0.677   7.747  -6.907  1.00  0.00    -0.237 OA
ATOM     86  O   UNL     1       1.655   7.442  -7.641  1.00  0.00    -0.744 OA
ENDBRANCH  82  83
ENDBRANCH  50  75
BRANCH  62  87
ATOM     87  C   UNL     1      -3.601   0.499 -15.069  1.00  0.00     0.058 A 
ATOM     88  C   UNL     1      -2.734   1.021 -16.041  1.00  0.00     0.135 A 
ATOM     89  C   UNL     1      -4.978   0.508 -15.346  1.00  0.00     0.135 A 
ATOM     90  F   UNL     1      -1.409   1.041 -15.825  1.00  0.00    -0.206 F 
ATOM     91  C   UNL     1      -3.215   1.549 -17.236  1.00  0.00     0.059 A 
ATOM     92  C   UNL     1      -5.479   1.006 -16.545  1.00  0.00     0.059 A 
ATOM     93  F   UNL     1      -5.850   0.010 -14.456  1.00  0.00    -0.206 F 
ATOM     94  C   UNL     1      -4.590   1.535 -17.480  1.00  0.00     0.060 A 
BRANCH  94  95
ATOM     95  S   UNL     1      -5.200   2.187 -19.049  1.00  0.00     0.124 S 
ATOM     96  O   UNL     1      -5.057   3.624 -18.847  1.00  0.00    -0.237 OA
ATOM     97  O   UNL     1      -4.283   1.588 -20.015  1.00  0.00    -0.237 OA
ATOM     98  O   UNL     1      -6.573   1.695 -19.111  1.00  0.00    -0.744 OA
ENDBRANCH  94  95
ENDBRANCH  62  87
ENDBRANCH  36  37
ENDBRANCH  29  31
ENDBRANCH  28  29
ENDBRANCH  27  28
ENDBRANCH  26  27
ENDBRANCH  25  26
ENDBRANCH   1  25
TORSDOF 23
