REMARK SMILES CC(C)[C@H](CO)Nc1ccc(C(F)(F)F)cc1C(=O)OCCOCCOCCOC(=O)c1ccc(-c2c3nc(c(-c4c(F)cc(S(=O)(=O)[O-])cc4F)c4ccc([nH]4)c(-c4c(F)cc(S(=O)(=O)[O-])cc4F)c4nc(c(-c5c(F)cc(S(=O)(=O)[O-])cc5F)c5ccc2[nH]5)C=C4)C=C3)cc1
REMARK SMILES IDX 24 1 23 2 22 3 21 4 20 5 18 6 19 7 17 8 8 9 9 10 10 11 16 12
REMARK SMILES IDX 11 13 7 14 4 16 2 17 1 18 3 19 5 20 6 21 12 23 13 24 14 25
REMARK SMILES IDX 15 26 25 27 26 28 27 29 28 30 29 31 30 32 31 33 32 34 33 35
REMARK SMILES IDX 97 36 34 37 96 38 35 39 36 40 37 41 90 42 38 43 95 44 89 45
REMARK SMILES IDX 91 46 39 47 94 48 88 49 87 50 40 52 74 53 53 54 73 55 54 56
REMARK SMILES IDX 57 57 72 58 92 59 55 60 56 61 71 63 93 64 58 65 41 66 42 67
REMARK SMILES IDX 51 68 43 69 44 70 50 71 52 72 45 73 46 74 47 75 48 76 49 77
REMARK SMILES IDX 75 78 76 79 85 80 77 81 78 82 84 83 86 84 79 85 80 86 81 87
REMARK SMILES IDX 82 88 83 89 59 90 60 91 69 92 61 93 62 94 68 95 70 96 63 97
REMARK SMILES IDX 64 98 65 99 66 100 67 101
REMARK H PARENT 7 15 6 22 91 51 57 62
REMARK Flexibility Score: inf
ROOT
ATOM      1  C   UNL     1      -5.419   0.185   0.266  1.00  0.00     0.188 C 
ENDROOT
BRANCH   1   2
ATOM      2  O   UNL     1      -5.191   0.589  -1.083  1.00  0.00    -0.376 OA
BRANCH   2   3
ATOM      3  C   UNL     1      -3.845   0.693  -1.541  1.00  0.00     0.202 C 
BRANCH   3   4
ATOM      4  C   UNL     1      -2.949   1.641  -0.746  1.00  0.00     0.261 C 
BRANCH   4   5
ATOM      5  O   UNL     1      -2.724   1.102   0.564  1.00  0.00    -0.460 OA
BRANCH   5   6
ATOM      6  C   UNL     1      -2.317   1.985   1.500  1.00  0.00     0.340 C 
ATOM      7  O   UNL     1      -1.998   3.147   1.315  1.00  0.00    -0.246 OA
BRANCH   6   8
ATOM      8  C   UNL     1      -2.532   1.390   2.833  1.00  0.00     0.083 A 
ATOM      9  C   UNL     1      -1.812   0.308   3.368  1.00  0.00     0.049 A 
ATOM     10  C   UNL     1      -2.147  -0.062   4.693  1.00  0.00     0.027 A 
ATOM     11  C   UNL     1      -3.148   0.570   5.436  1.00  0.00     0.015 A 
ATOM     12  C   UNL     1      -3.552   2.030   3.582  1.00  0.00     0.031 A 
ATOM     13  C   UNL     1      -3.880   1.616   4.880  1.00  0.00     0.057 A 
BRANCH   9  14
ATOM     14  N   UNL     1      -0.783  -0.423   2.811  1.00  0.00    -0.379 N 
ATOM     15  H   UNL     1      -0.349  -1.038   3.446  1.00  0.00     0.160 HD
BRANCH  14  16
ATOM     16  C   UNL     1      -0.207  -0.467   1.461  1.00  0.00     0.107 C 
BRANCH  16  17
ATOM     17  C   UNL     1      -0.785  -1.655   0.638  1.00  0.00     0.007 C 
ATOM     18  C   UNL     1       0.095  -2.042  -0.556  1.00  0.00     0.009 C 
ATOM     19  C   UNL     1      -1.088  -2.917   1.459  1.00  0.00     0.009 C 
ENDBRANCH  16  17
BRANCH  16  20
ATOM     20  C   UNL     1       1.329  -0.527   1.652  1.00  0.00     0.181 C 
BRANCH  20  21
ATOM     21  O   UNL     1       1.769   0.588   2.434  1.00  0.00    -0.394 OA
ATOM     22  H   UNL     1       1.539   1.413   1.978  1.00  0.00     0.210 HD
ENDBRANCH  20  21
ENDBRANCH  16  20
ENDBRANCH  14  16
ENDBRANCH   9  14
BRANCH  13  23
ATOM     23  C   UNL     1      -4.958   2.304   5.683  1.00  0.00     0.416 C 
ATOM     24  F   UNL     1      -5.603   1.447   6.524  1.00  0.00    -0.166 F 
ATOM     25  F   UNL     1      -4.461   3.297   6.467  1.00  0.00    -0.166 F 
ATOM     26  F   UNL     1      -5.922   2.864   4.907  1.00  0.00    -0.166 F 
ENDBRANCH  13  23
ENDBRANCH   6   8
ENDBRANCH   5   6
ENDBRANCH   4   5
ENDBRANCH   3   4
ENDBRANCH   2   3
ENDBRANCH   1   2
BRANCH   1  27
ATOM     27  C   UNL     1      -4.711  -1.085   0.777  1.00  0.00     0.188 C 
BRANCH  27  28
ATOM     28  O   UNL     1      -4.245  -1.940  -0.261  1.00  0.00    -0.376 OA
BRANCH  28  29
ATOM     29  C   UNL     1      -4.861  -3.220  -0.317  1.00  0.00     0.202 C 
BRANCH  29  30
ATOM     30  C   UNL     1      -6.217  -3.177  -1.028  1.00  0.00     0.261 C 
BRANCH  30  31
ATOM     31  O   UNL     1      -7.219  -2.422  -0.330  1.00  0.00    -0.460 OA
BRANCH  31  32
ATOM     32  C   UNL     1      -7.581  -2.876   0.891  1.00  0.00     0.338 C 
ATOM     33  O   UNL     1      -7.187  -3.884   1.448  1.00  0.00    -0.246 OA
BRANCH  32  34
ATOM     34  C   UNL     1      -8.399  -1.828   1.531  1.00  0.00     0.060 A 
ATOM     35  C   UNL     1      -8.055  -1.394   2.817  1.00  0.00     0.016 A 
ATOM     36  C   UNL     1      -9.484  -1.264   0.854  1.00  0.00     0.016 A 
ATOM     37  C   UNL     1      -8.819  -0.409   3.442  1.00  0.00     0.010 A 
ATOM     38  C   UNL     1     -10.254  -0.288   1.485  1.00  0.00     0.010 A 
ATOM     39  C   UNL     1      -9.941   0.122   2.792  1.00  0.00    -0.014 A 
BRANCH  39  40
ATOM     40  C   UNL     1     -10.891   0.985   3.529  1.00  0.00     0.031 A 
ATOM     41  C   UNL     1     -12.100   0.346   4.154  1.00  0.00     0.074 A 
ATOM     42  C   UNL     1     -10.695   2.312   3.621  1.00  0.00     0.049 A 
ATOM     43  N   UNL     1     -13.084   0.900   4.811  1.00  0.00    -0.248 NA
ATOM     44  C   UNL     1     -12.216  -1.115   4.009  1.00  0.00     0.031 C 
ATOM     45  C   UNL     1      -9.560   3.042   3.058  1.00  0.00     0.029 A 
ATOM     46  N   UNL     1     -11.463   3.284   4.211  1.00  0.00    -0.354 N 
ATOM     47  C   UNL     1     -13.936  -0.141   5.160  1.00  0.00     0.074 A 
ATOM     48  C   UNL     1     -13.369  -1.355   4.614  1.00  0.00     0.031 C 
ATOM     49  C   UNL     1      -9.716   4.353   3.315  1.00  0.00     0.029 A 
ATOM     50  C   UNL     1     -10.968   4.554   4.042  1.00  0.00     0.049 A 
ATOM     51  H   UNL     1     -12.290   3.089   4.708  1.00  0.00     0.167 HD
ATOM     52  C   UNL     1     -15.082  -0.090   5.878  1.00  0.00     0.037 A 
ATOM     53  C   UNL     1     -11.480   5.742   4.418  1.00  0.00     0.037 A 
ATOM     54  C   UNL     1     -15.648   1.120   6.408  1.00  0.00     0.049 A 
ATOM     55  C   UNL     1     -12.780   5.779   5.180  1.00  0.00     0.074 A 
ATOM     56  C   UNL     1     -16.789   1.274   7.176  1.00  0.00     0.029 A 
ATOM     57  N   UNL     1     -15.122   2.389   6.215  1.00  0.00    -0.354 N 
ATOM     58  N   UNL     1     -13.550   4.782   5.550  1.00  0.00    -0.248 NA
ATOM     59  C   UNL     1     -13.278   7.102   5.582  1.00  0.00     0.031 C 
ATOM     60  C   UNL     1     -16.975   2.641   7.412  1.00  0.00     0.029 A 
ATOM     61  C   UNL     1     -15.927   3.334   6.827  1.00  0.00     0.049 A 
ATOM     62  H   UNL     1     -14.297   2.588   5.715  1.00  0.00     0.167 HD
ATOM     63  C   UNL     1     -14.610   5.356   6.245  1.00  0.00     0.074 A 
ATOM     64  C   UNL     1     -14.376   6.785   6.255  1.00  0.00     0.031 C 
ATOM     65  C   UNL     1     -15.679   4.755   6.824  1.00  0.00     0.037 A 
BRANCH  52  66
ATOM     66  C   UNL     1     -15.805  -1.386   6.109  1.00  0.00     0.058 A 
ATOM     67  C   UNL     1     -15.312  -2.353   7.001  1.00  0.00     0.135 A 
ATOM     68  C   UNL     1     -17.006  -1.663   5.438  1.00  0.00     0.135 A 
ATOM     69  F   UNL     1     -14.156  -2.147   7.651  1.00  0.00    -0.206 F 
ATOM     70  C   UNL     1     -15.972  -3.561   7.199  1.00  0.00     0.059 A 
ATOM     71  C   UNL     1     -17.695  -2.855   5.638  1.00  0.00     0.059 A 
ATOM     72  F   UNL     1     -17.515  -0.775   4.570  1.00  0.00    -0.206 F 
ATOM     73  C   UNL     1     -17.161  -3.804   6.509  1.00  0.00     0.060 A 
BRANCH  73  74
ATOM     74  S   UNL     1     -18.004  -5.380   6.770  1.00  0.00     0.124 S 
ATOM     75  O   UNL     1     -17.155  -6.292   6.009  1.00  0.00    -0.237 OA
ATOM     76  O   UNL     1     -17.951  -5.528   8.220  1.00  0.00    -0.237 OA
ATOM     77  O   UNL     1     -19.334  -5.149   6.215  1.00  0.00    -0.744 OA
ENDBRANCH  73  74
ENDBRANCH  52  66
BRANCH  53  78
ATOM     78  C   UNL     1     -10.765   7.000   4.078  1.00  0.00     0.058 A 
ATOM     79  C   UNL     1     -10.118   7.756   5.066  1.00  0.00     0.135 A 
ATOM     80  C   UNL     1     -10.716   7.471   2.757  1.00  0.00     0.135 A 
ATOM     81  F   UNL     1     -10.148   7.353   6.346  1.00  0.00    -0.206 F 
ATOM     82  C   UNL     1      -9.459   8.943   4.760  1.00  0.00     0.059 A 
ATOM     83  C   UNL     1     -10.045   8.643   2.423  1.00  0.00     0.059 A 
ATOM     84  F   UNL     1     -11.313   6.779   1.774  1.00  0.00    -0.206 F 
ATOM     85  C   UNL     1      -9.427   9.378   3.434  1.00  0.00     0.060 A 
BRANCH  85  86
ATOM     86  S   UNL     1      -8.530  10.895   3.038  1.00  0.00     0.124 S 
ATOM     87  O   UNL     1      -9.449  11.915   3.527  1.00  0.00    -0.237 OA
ATOM     88  O   UNL     1      -7.295  10.730   3.799  1.00  0.00    -0.237 OA
ATOM     89  O   UNL     1      -8.377  10.824   1.588  1.00  0.00    -0.744 OA
ENDBRANCH  85  86
ENDBRANCH  53  78
BRANCH  65  90
ATOM     90  C   UNL     1     -16.666   5.638   7.536  1.00  0.00     0.058 A 
ATOM     91  C   UNL     1     -17.564   6.455   6.832  1.00  0.00     0.135 A 
ATOM     92  C   UNL     1     -16.740   5.637   8.938  1.00  0.00     0.135 A 
ATOM     93  F   UNL     1     -17.532   6.495   5.491  1.00  0.00    -0.206 F 
ATOM     94  C   UNL     1     -18.486   7.260   7.494  1.00  0.00     0.059 A 
ATOM     95  C   UNL     1     -17.670   6.416   9.620  1.00  0.00     0.059 A 
ATOM     96  F   UNL     1     -15.912   4.864   9.659  1.00  0.00    -0.206 F 
ATOM     97  C   UNL     1     -18.529   7.236   8.890  1.00  0.00     0.060 A 
BRANCH  97  98
ATOM     98  S   UNL     1     -19.741   8.269   9.741  1.00  0.00     0.124 S 
ATOM     99  O   UNL     1     -19.121   9.586   9.646  1.00  0.00    -0.237 OA
ATOM    100  O   UNL     1     -20.943   8.074   8.935  1.00  0.00    -0.237 OA
ATOM    101  O   UNL     1     -19.794   7.694  11.081  1.00  0.00    -0.744 OA
ENDBRANCH  97  98
ENDBRANCH  65  90
ENDBRANCH  39  40
ENDBRANCH  32  34
ENDBRANCH  31  32
ENDBRANCH  30  31
ENDBRANCH  29  30
ENDBRANCH  28  29
ENDBRANCH  27  28
ENDBRANCH   1  27
TORSDOF 26
