REMARK SMILES NC(=O)CC[C@H](NC(=O)CC1CC1)C(=O)OCCOCCOCCOC(=O)c1ccc(-c2c3nc(c(-c4c(F)cc(S(=O)(=O)[O-])cc4F)c4ccc([nH]4)c(-c4c(F)cc(S(=O)(=O)[O-])cc4F)c4nc(c(-c5c(F)cc(S(=O)(=O)[O-])cc5F)c5ccc2[nH]5)C=C4)C=C3)cc1
REMARK SMILES IDX 20 1 19 2 18 3 17 4 16 5 14 6 15 7 6 8 5 9 4 10 2 11 1 12
REMARK SMILES IDX 3 15 7 16 8 17 9 19 10 20 11 21 12 22 13 23 21 24 22 25
REMARK SMILES IDX 23 26 24 27 25 28 26 29 27 30 28 31 29 32 93 33 30 34 92 35
REMARK SMILES IDX 31 36 32 37 33 38 86 39 34 40 91 41 85 42 87 43 35 44 90 45
REMARK SMILES IDX 84 46 83 47 36 49 70 50 49 51 69 52 50 53 53 54 68 55 88 56
REMARK SMILES IDX 51 57 52 58 67 60 89 61 54 62 37 63 38 64 47 65 39 66 40 67
REMARK SMILES IDX 46 68 48 69 41 70 42 71 43 72 44 73 45 74 71 75 72 76 81 77
REMARK SMILES IDX 73 78 74 79 80 80 82 81 75 82 76 83 77 84 78 85 79 86 55 87
REMARK SMILES IDX 56 88 65 89 57 90 58 91 64 92 66 93 59 94 60 95 61 96 62 97
REMARK SMILES IDX 63 98
REMARK H PARENT 1 13 1 14 7 18 87 48 53 59
REMARK Flexibility Score: inf
ROOT
ATOM      1  C   UNL     1       2.655   5.082   1.143  1.00  0.00     0.188 C 
ENDROOT
BRANCH   1   2
ATOM      2  O   UNL     1       3.777   5.941   1.007  1.00  0.00    -0.376 OA
BRANCH   2   3
ATOM      3  C   UNL     1       5.024   5.284   0.856  1.00  0.00     0.202 C 
BRANCH   3   4
ATOM      4  C   UNL     1       5.238   4.534  -0.463  1.00  0.00     0.261 C 
BRANCH   4   5
ATOM      5  O   UNL     1       4.253   3.563  -0.864  1.00  0.00    -0.462 OA
BRANCH   5   6
ATOM      6  C   UNL     1       4.015   2.485  -0.073  1.00  0.00     0.328 C 
ATOM      7  O   UNL     1       4.469   2.341   1.056  1.00  0.00    -0.250 OA
BRANCH   6   8
ATOM      8  C   UNL     1       3.338   1.355  -0.854  1.00  0.00     0.192 C 
BRANCH   8   9
ATOM      9  C   UNL     1       4.432   0.411  -1.408  1.00  0.00     0.047 C 
BRANCH   9  10
ATOM     10  C   UNL     1       5.791   1.025  -1.784  1.00  0.00     0.102 C 
BRANCH  10  11
ATOM     11  C   UNL     1       6.934   0.870  -0.787  1.00  0.00     0.217 C 
ATOM     12  N   UNL     1       6.763   1.268   0.497  1.00  0.00    -0.370 N 
ATOM     13  H   UNL     1       7.498   1.170   1.145  1.00  0.00     0.159 HD
ATOM     14  H   UNL     1       5.904   1.656   0.782  1.00  0.00     0.159 HD
ATOM     15  O   UNL     1       8.041   0.466  -1.139  1.00  0.00    -0.275 OA
ENDBRANCH  10  11
ENDBRANCH   9  10
ENDBRANCH   8   9
BRANCH   8  16
ATOM     16  N   UNL     1       2.451   1.865  -1.914  1.00  0.00    -0.343 N 
ATOM     17  C   UNL     1       1.164   1.499  -2.211  1.00  0.00     0.220 C 
ATOM     18  H   UNL     1       2.836   2.566  -2.488  1.00  0.00     0.164 HD
ATOM     19  O   UNL     1       0.511   2.218  -2.970  1.00  0.00    -0.275 OA
BRANCH  17  20
ATOM     20  C   UNL     1       0.544   0.254  -1.590  1.00  0.00     0.103 C 
BRANCH  20  21
ATOM     21  C   UNL     1       1.333  -1.002  -1.835  1.00  0.00    -0.002 C 
ATOM     22  C   UNL     1       1.501  -1.986  -0.705  1.00  0.00     0.004 C 
ATOM     23  C   UNL     1       0.688  -2.363  -1.908  1.00  0.00     0.004 C 
ENDBRANCH  20  21
ENDBRANCH  17  20
ENDBRANCH   8  16
ENDBRANCH   6   8
ENDBRANCH   5   6
ENDBRANCH   4   5
ENDBRANCH   3   4
ENDBRANCH   2   3
ENDBRANCH   1   2
BRANCH   1  24
ATOM     24  C   UNL     1       1.865   4.884  -0.165  1.00  0.00     0.188 C 
BRANCH  24  25
ATOM     25  O   UNL     1       2.193   5.651  -1.310  1.00  0.00    -0.376 OA
BRANCH  25  26
ATOM     26  C   UNL     1       2.376   7.051  -1.148  1.00  0.00     0.202 C 
BRANCH  26  27
ATOM     27  C   UNL     1       1.397   7.902  -0.306  1.00  0.00     0.261 C 
BRANCH  27  28
ATOM     28  O   UNL     1       0.823   7.289   0.864  1.00  0.00    -0.460 OA
BRANCH  28  29
ATOM     29  C   UNL     1      -0.444   6.819   0.733  1.00  0.00     0.338 C 
ATOM     30  O   UNL     1      -1.165   6.938  -0.249  1.00  0.00    -0.246 OA
BRANCH  29  31
ATOM     31  C   UNL     1      -0.764   5.907   1.863  1.00  0.00     0.060 A 
ATOM     32  C   UNL     1      -1.099   4.571   1.576  1.00  0.00     0.016 A 
ATOM     33  C   UNL     1      -0.760   6.353   3.184  1.00  0.00     0.016 A 
ATOM     34  C   UNL     1      -1.467   3.693   2.594  1.00  0.00     0.010 A 
ATOM     35  C   UNL     1      -1.177   5.485   4.203  1.00  0.00     0.010 A 
ATOM     36  C   UNL     1      -1.579   4.167   3.905  1.00  0.00    -0.014 A 
BRANCH  36  37
ATOM     37  C   UNL     1      -2.399   3.396   4.875  1.00  0.00     0.031 A 
ATOM     38  C   UNL     1      -3.849   3.786   5.021  1.00  0.00     0.074 A 
ATOM     39  C   UNL     1      -1.908   2.353   5.569  1.00  0.00     0.049 A 
ATOM     40  N   UNL     1      -4.763   3.316   5.830  1.00  0.00    -0.248 NA
ATOM     41  C   UNL     1      -4.330   4.857   4.130  1.00  0.00     0.031 C 
ATOM     42  C   UNL     1      -0.546   1.832   5.471  1.00  0.00     0.029 A 
ATOM     43  N   UNL     1      -2.510   1.547   6.505  1.00  0.00    -0.354 N 
ATOM     44  C   UNL     1      -5.918   4.041   5.554  1.00  0.00     0.074 A 
ATOM     45  C   UNL     1      -5.582   5.005   4.531  1.00  0.00     0.031 C 
ATOM     46  C   UNL     1      -0.411   0.803   6.327  1.00  0.00     0.029 A 
ATOM     47  C   UNL     1      -1.665   0.612   7.056  1.00  0.00     0.049 A 
ATOM     48  H   UNL     1      -3.458   1.631   6.757  1.00  0.00     0.167 HD
ATOM     49  C   UNL     1      -7.152   3.911   6.096  1.00  0.00     0.037 A 
ATOM     50  C   UNL     1      -1.878  -0.276   8.050  1.00  0.00     0.037 A 
ATOM     51  C   UNL     1      -7.483   2.951   7.115  1.00  0.00     0.049 A 
ATOM     52  C   UNL     1      -3.240  -0.350   8.698  1.00  0.00     0.074 A 
ATOM     53  C   UNL     1      -8.702   2.740   7.734  1.00  0.00     0.029 A 
ATOM     54  N   UNL     1      -6.592   2.043   7.668  1.00  0.00    -0.354 N 
ATOM     55  N   UNL     1      -4.324   0.342   8.431  1.00  0.00    -0.248 NA
ATOM     56  C   UNL     1      -3.411  -1.333   9.778  1.00  0.00     0.031 C 
ATOM     57  C   UNL     1      -8.535   1.742   8.699  1.00  0.00     0.029 A 
ATOM     58  C   UNL     1      -7.229   1.283   8.633  1.00  0.00     0.049 A 
ATOM     59  H   UNL     1      -5.645   1.953   7.411  1.00  0.00     0.167 HD
ATOM     60  C   UNL     1      -5.312  -0.152   9.278  1.00  0.00     0.074 A 
ATOM     61  C   UNL     1      -4.700  -1.205  10.061  1.00  0.00     0.031 C 
ATOM     62  C   UNL     1      -6.611   0.225   9.394  1.00  0.00     0.037 A 
BRANCH  49  63
ATOM     63  C   UNL     1      -8.225   4.851   5.617  1.00  0.00     0.058 A 
ATOM     64  C   UNL     1      -8.764   4.766   4.323  1.00  0.00     0.135 A 
ATOM     65  C   UNL     1      -8.739   5.837   6.475  1.00  0.00     0.135 A 
ATOM     66  F   UNL     1      -8.293   3.859   3.452  1.00  0.00    -0.206 F 
ATOM     67  C   UNL     1      -9.755   5.641   3.889  1.00  0.00     0.059 A 
ATOM     68  C   UNL     1      -9.753   6.700   6.073  1.00  0.00     0.059 A 
ATOM     69  F   UNL     1      -8.257   5.968   7.721  1.00  0.00    -0.206 F 
ATOM     70  C   UNL     1     -10.245   6.603   4.773  1.00  0.00     0.060 A 
BRANCH  70  71
ATOM     71  S   UNL     1     -11.541   7.721   4.199  1.00  0.00     0.124 S 
ATOM     72  O   UNL     1     -10.806   8.563   3.260  1.00  0.00    -0.237 OA
ATOM     73  O   UNL     1     -12.504   6.799   3.603  1.00  0.00    -0.237 OA
ATOM     74  O   UNL     1     -11.986   8.384   5.420  1.00  0.00    -0.744 OA
ENDBRANCH  70  71
ENDBRANCH  49  63
BRANCH  50  75
ATOM     75  C   UNL     1      -0.776  -1.168   8.508  1.00  0.00     0.058 A 
ATOM     76  C   UNL     1      -0.836  -2.557   8.313  1.00  0.00     0.135 A 
ATOM     77  C   UNL     1       0.348  -0.653   9.173  1.00  0.00     0.135 A 
ATOM     78  F   UNL     1      -1.895  -3.102   7.697  1.00  0.00    -0.206 F 
ATOM     79  C   UNL     1       0.166  -3.404   8.777  1.00  0.00     0.059 A 
ATOM     80  C   UNL     1       1.378  -1.476   9.619  1.00  0.00     0.059 A 
ATOM     81  F   UNL     1       0.460   0.668   9.382  1.00  0.00    -0.206 F 
ATOM     82  C   UNL     1       1.272  -2.853   9.426  1.00  0.00     0.060 A 
BRANCH  82  83
ATOM     83  S   UNL     1       2.589  -3.957   9.981  1.00  0.00     0.124 S 
ATOM     84  O   UNL     1       1.949  -4.642  11.098  1.00  0.00    -0.237 OA
ATOM     85  O   UNL     1       2.830  -4.765   8.789  1.00  0.00    -0.237 OA
ATOM     86  O   UNL     1       3.668  -3.041  10.336  1.00  0.00    -0.744 OA
ENDBRANCH  82  83
ENDBRANCH  50  75
BRANCH  62  87
ATOM     87  C   UNL     1      -7.482  -0.547  10.352  1.00  0.00     0.058 A 
ATOM     88  C   UNL     1      -7.331  -0.452  11.744  1.00  0.00     0.135 A 
ATOM     89  C   UNL     1      -8.517  -1.363   9.862  1.00  0.00     0.135 A 
ATOM     90  F   UNL     1      -6.359   0.312  12.268  1.00  0.00    -0.206 F 
ATOM     91  C   UNL     1      -8.147  -1.168  12.615  1.00  0.00     0.059 A 
ATOM     92  C   UNL     1      -9.367  -2.060  10.715  1.00  0.00     0.059 A 
ATOM     93  F   UNL     1      -8.719  -1.478   8.540  1.00  0.00    -0.206 F 
ATOM     94  C   UNL     1      -9.163  -1.970  12.090  1.00  0.00     0.060 A 
BRANCH  94  95
ATOM     95  S   UNL     1     -10.222  -2.885  13.230  1.00  0.00     0.124 S 
ATOM     96  O   UNL     1      -9.316  -3.927  13.701  1.00  0.00    -0.237 OA
ATOM     97  O   UNL     1     -10.579  -1.864  14.211  1.00  0.00    -0.237 OA
ATOM     98  O   UNL     1     -11.320  -3.342  12.384  1.00  0.00    -0.744 OA
ENDBRANCH  94  95
ENDBRANCH  62  87
ENDBRANCH  36  37
ENDBRANCH  29  31
ENDBRANCH  28  29
ENDBRANCH  27  28
ENDBRANCH  26  27
ENDBRANCH  25  26
ENDBRANCH  24  25
ENDBRANCH   1  24
TORSDOF 26
