REMARK SMILES O=C(Cc1ccccc1-c1ccn(C(F)F)c(=O)c1)OCCOCCOCCOC(=O)c1ccc(-c2c3nc(c(-c4c(F)cc(S(=O)(=O)[O-])cc4F)c4ccc([nH]4)c(-c4c(F)cc(S(=O)(=O)[O-])cc4F)c4nc(c(-c5c(F)cc(S(=O)(=O)[O-])cc5F)c5ccc2[nH]5)C=C4)C=C3)cc1
REMARK SMILES IDX 24 1 23 2 22 3 21 4 20 5 2 6 1 7 3 8 4 9 5 10 9 11 6 12 8 13
REMARK SMILES IDX 7 14 10 15 11 16 19 17 12 18 17 19 13 20 18 21 14 22 15 23
REMARK SMILES IDX 16 24 25 25 26 26 27 27 28 28 29 29 30 30 31 31 32 32 33 33
REMARK SMILES IDX 97 34 34 35 96 36 35 37 36 38 37 39 90 40 38 41 95 42 89 43
REMARK SMILES IDX 91 44 39 45 94 46 88 47 87 48 40 50 74 51 53 52 73 53 54 54
REMARK SMILES IDX 57 55 72 56 92 57 55 58 56 59 71 61 93 62 58 63 41 64 42 65
REMARK SMILES IDX 51 66 43 67 44 68 50 69 52 70 45 71 46 72 47 73 48 74 49 75
REMARK SMILES IDX 75 76 76 77 85 78 77 79 78 80 84 81 86 82 79 83 80 84 81 85
REMARK SMILES IDX 82 86 83 87 59 88 60 89 69 90 61 91 62 92 68 93 70 94 63 95
REMARK SMILES IDX 64 96 65 97 66 98 67 99
REMARK H PARENT 91 49 57 60
REMARK Flexibility Score: inf
ROOT
ATOM      1  C   UNL     1       3.040  -0.349  -1.934  1.00  0.00     0.188 C 
ENDROOT
BRANCH   1   2
ATOM      2  O   UNL     1       4.412  -0.567  -1.664  1.00  0.00    -0.376 OA
BRANCH   2   3
ATOM      3  C   UNL     1       4.942  -0.052  -0.459  1.00  0.00     0.202 C 
BRANCH   3   4
ATOM      4  C   UNL     1       4.480  -0.837   0.765  1.00  0.00     0.261 C 
BRANCH   4   5
ATOM      5  O   UNL     1       3.067  -0.797   1.063  1.00  0.00    -0.463 OA
BRANCH   5   6
ATOM      6  C   UNL     1       2.377   0.245   1.576  1.00  0.00     0.310 C 
ATOM      7  O   UNL     1       1.325   0.034   2.180  1.00  0.00    -0.252 OA
BRANCH   6   8
ATOM      8  C   UNL     1       2.848   1.652   1.310  1.00  0.00     0.158 C 
BRANCH   8   9
ATOM      9  C   UNL     1       3.945   2.217   2.186  1.00  0.00    -0.029 A 
ATOM     10  C   UNL     1       4.302   1.569   3.384  1.00  0.00     0.005 A 
ATOM     11  C   UNL     1       4.560   3.457   1.879  1.00  0.00    -0.014 A 
ATOM     12  C   UNL     1       5.225   2.135   4.263  1.00  0.00     0.000 A 
ATOM     13  C   UNL     1       5.434   4.042   2.813  1.00  0.00     0.009 A 
ATOM     14  C   UNL     1       5.768   3.383   3.993  1.00  0.00     0.001 A 
BRANCH  11  15
ATOM     15  C   UNL     1       4.369   4.171   0.594  1.00  0.00    -0.011 A 
ATOM     16  C   UNL     1       3.105   4.711   0.143  1.00  0.00     0.027 A 
ATOM     17  C   UNL     1       5.451   4.338  -0.190  1.00  0.00     0.080 A 
ATOM     18  C   UNL     1       3.021   5.326  -1.041  1.00  0.00     0.095 A 
ATOM     19  C   UNL     1       5.367   5.012  -1.516  1.00  0.00     0.255 A 
ATOM     20  N   UNL     1       4.114   5.472  -1.871  1.00  0.00    -0.258 N 
ATOM     21  O   UNL     1       6.385   5.083  -2.196  1.00  0.00    -0.269 OA
BRANCH  20  22
ATOM     22  C   UNL     1       3.978   6.080  -3.175  1.00  0.00     0.451 C 
ATOM     23  F   UNL     1       4.886   7.068  -3.358  1.00  0.00    -0.185 F 
ATOM     24  F   UNL     1       4.191   5.148  -4.141  1.00  0.00    -0.185 F 
ENDBRANCH  20  22
ENDBRANCH  11  15
ENDBRANCH   8   9
ENDBRANCH   6   8
ENDBRANCH   5   6
ENDBRANCH   4   5
ENDBRANCH   3   4
ENDBRANCH   2   3
ENDBRANCH   1   2
BRANCH   1  25
ATOM     25  C   UNL     1       2.342  -1.620  -2.450  1.00  0.00     0.188 C 
BRANCH  25  26
ATOM     26  O   UNL     1       3.132  -2.765  -2.758  1.00  0.00    -0.376 OA
BRANCH  26  27
ATOM     27  C   UNL     1       4.303  -2.603  -3.553  1.00  0.00     0.202 C 
BRANCH  27  28
ATOM     28  C   UNL     1       4.141  -1.961  -4.935  1.00  0.00     0.261 C 
BRANCH  28  29
ATOM     29  O   UNL     1       3.697  -0.591  -4.897  1.00  0.00    -0.460 OA
BRANCH  29  30
ATOM     30  C   UNL     1       2.545  -0.343  -5.572  1.00  0.00     0.338 C 
ATOM     31  O   UNL     1       1.868  -1.153  -6.181  1.00  0.00    -0.246 OA
BRANCH  30  32
ATOM     32  C   UNL     1       2.100   1.055  -5.387  1.00  0.00     0.060 A 
ATOM     33  C   UNL     1       0.799   1.275  -4.912  1.00  0.00     0.016 A 
ATOM     34  C   UNL     1       2.879   2.129  -5.811  1.00  0.00     0.016 A 
ATOM     35  C   UNL     1       0.248   2.562  -4.915  1.00  0.00     0.010 A 
ATOM     36  C   UNL     1       2.322   3.416  -5.822  1.00  0.00     0.010 A 
ATOM     37  C   UNL     1       0.992   3.640  -5.410  1.00  0.00    -0.014 A 
BRANCH  37  38
ATOM     38  C   UNL     1       0.377   4.974  -5.652  1.00  0.00     0.031 A 
ATOM     39  C   UNL     1       0.076   5.398  -7.065  1.00  0.00     0.074 A 
ATOM     40  C   UNL     1       0.107   5.838  -4.656  1.00  0.00     0.049 A 
ATOM     41  N   UNL     1      -0.278   6.575  -7.511  1.00  0.00    -0.248 NA
ATOM     42  C   UNL     1       0.137   4.351  -8.097  1.00  0.00     0.031 C 
ATOM     43  C   UNL     1       0.181   5.553  -3.227  1.00  0.00     0.029 A 
ATOM     44  N   UNL     1      -0.204   7.180  -4.710  1.00  0.00    -0.354 N 
ATOM     45  C   UNL     1      -0.568   6.394  -8.856  1.00  0.00     0.074 A 
ATOM     46  C   UNL     1      -0.242   5.020  -9.178  1.00  0.00     0.031 C 
ATOM     47  C   UNL     1       0.082   6.713  -2.550  1.00  0.00     0.029 A 
ATOM     48  C   UNL     1      -0.016   7.810  -3.502  1.00  0.00     0.049 A 
ATOM     49  H   UNL     1      -0.525   7.636  -5.521  1.00  0.00     0.167 HD
ATOM     50  C   UNL     1      -1.127   7.272  -9.722  1.00  0.00     0.037 A 
ATOM     51  C   UNL     1       0.165   9.113  -3.211  1.00  0.00     0.037 A 
ATOM     52  C   UNL     1      -1.441   8.640  -9.406  1.00  0.00     0.049 A 
ATOM     53  C   UNL     1      -0.069  10.149  -4.270  1.00  0.00     0.074 A 
ATOM     54  C   UNL     1      -2.113   9.576 -10.174  1.00  0.00     0.029 A 
ATOM     55  N   UNL     1      -1.073   9.278  -8.234  1.00  0.00    -0.354 N 
ATOM     56  N   UNL     1      -0.409   9.968  -5.521  1.00  0.00    -0.248 NA
ATOM     57  C   UNL     1       0.044  11.559  -3.871  1.00  0.00     0.031 C 
ATOM     58  C   UNL     1      -2.109  10.795  -9.484  1.00  0.00     0.029 A 
ATOM     59  C   UNL     1      -1.465  10.607  -8.273  1.00  0.00     0.049 A 
ATOM     60  H   UNL     1      -0.603   8.851  -7.483  1.00  0.00     0.167 HD
ATOM     61  C   UNL     1      -0.669  11.236  -6.024  1.00  0.00     0.074 A 
ATOM     62  C   UNL     1      -0.360  12.180  -4.972  1.00  0.00     0.031 C 
ATOM     63  C   UNL     1      -1.188  11.563  -7.232  1.00  0.00     0.037 A 
BRANCH  50  64
ATOM     64  C   UNL     1      -1.501   6.756 -11.079  1.00  0.00     0.058 A 
ATOM     65  C   UNL     1      -2.621   5.925 -11.243  1.00  0.00     0.135 A 
ATOM     66  C   UNL     1      -0.787   7.138 -12.223  1.00  0.00     0.135 A 
ATOM     67  F   UNL     1      -3.330   5.525 -10.175  1.00  0.00    -0.206 F 
ATOM     68  C   UNL     1      -3.013   5.477 -12.498  1.00  0.00     0.059 A 
ATOM     69  C   UNL     1      -1.171   6.714 -13.491  1.00  0.00     0.059 A 
ATOM     70  F   UNL     1       0.292   7.929 -12.114  1.00  0.00    -0.206 F 
ATOM     71  C   UNL     1      -2.282   5.878 -13.617  1.00  0.00     0.060 A 
BRANCH  71  72
ATOM     72  S   UNL     1      -2.820   5.307 -15.242  1.00  0.00     0.124 S 
ATOM     73  O   UNL     1      -2.407   3.907 -15.210  1.00  0.00    -0.237 OA
ATOM     74  O   UNL     1      -4.260   5.543 -15.196  1.00  0.00    -0.237 OA
ATOM     75  O   UNL     1      -2.078   6.160 -16.165  1.00  0.00    -0.744 OA
ENDBRANCH  71  72
ENDBRANCH  50  64
BRANCH  51  76
ATOM     76  C   UNL     1       0.716   9.517  -1.893  1.00  0.00     0.058 A 
ATOM     77  C   UNL     1      -0.072  10.089  -0.890  1.00  0.00     0.135 A 
ATOM     78  C   UNL     1       2.097   9.399  -1.660  1.00  0.00     0.135 A 
ATOM     79  F   UNL     1      -1.392  10.231  -1.076  1.00  0.00    -0.206 F 
ATOM     80  C   UNL     1       0.493  10.554   0.294  1.00  0.00     0.059 A 
ATOM     81  C   UNL     1       2.684   9.846  -0.483  1.00  0.00     0.059 A 
ATOM     82  F   UNL     1       2.887   8.850  -2.595  1.00  0.00    -0.206 F 
ATOM     83  C   UNL     1       1.873  10.436   0.483  1.00  0.00     0.060 A 
BRANCH  83  84
ATOM     84  S   UNL     1       2.593  11.055   2.020  1.00  0.00     0.124 S 
ATOM     85  O   UNL     1       2.462  12.496   1.846  1.00  0.00    -0.237 OA
ATOM     86  O   UNL     1       1.724  10.448   3.024  1.00  0.00    -0.237 OA
ATOM     87  O   UNL     1       3.956  10.533   1.986  1.00  0.00    -0.744 OA
ENDBRANCH  83  84
ENDBRANCH  51  76
BRANCH  63  88
ATOM     88  C   UNL     1      -1.597  12.989  -7.443  1.00  0.00     0.058 A 
ATOM     89  C   UNL     1      -0.672  14.009  -7.701  1.00  0.00     0.135 A 
ATOM     90  C   UNL     1      -2.960  13.332  -7.401  1.00  0.00     0.135 A 
ATOM     91  F   UNL     1       0.642  13.737  -7.729  1.00  0.00    -0.206 F 
ATOM     92  C   UNL     1      -1.082  15.325  -7.899  1.00  0.00     0.059 A 
ATOM     93  C   UNL     1      -3.394  14.634  -7.617  1.00  0.00     0.059 A 
ATOM     94  F   UNL     1      -3.886  12.391  -7.154  1.00  0.00    -0.206 F 
ATOM     95  C   UNL     1      -2.445  15.627  -7.855  1.00  0.00     0.060 A 
BRANCH  95  96
ATOM     96  S   UNL     1      -2.975  17.328  -8.147  1.00  0.00     0.124 S 
ATOM     97  O   UNL     1      -2.694  17.949  -6.857  1.00  0.00    -0.237 OA
ATOM     98  O   UNL     1      -2.115  17.742  -9.251  1.00  0.00    -0.237 OA
ATOM     99  O   UNL     1      -4.389  17.188  -8.483  1.00  0.00    -0.744 OA
ENDBRANCH  95  96
ENDBRANCH  63  88
ENDBRANCH  37  38
ENDBRANCH  30  32
ENDBRANCH  29  30
ENDBRANCH  28  29
ENDBRANCH  27  28
ENDBRANCH  26  27
ENDBRANCH  25  26
ENDBRANCH   1  25
TORSDOF 23
