REMARK SMILES CCC1(CC)CCN(C(=O)NC(CC)(CC)C(=O)OCCOCCOCCOC(=O)c2ccc(-c3c4nc(c(-c5c(F)cc(S(=O)(=O)[O-])cc5F)c5ccc([nH]5)c(-c5c(F)cc(S(=O)(=O)[O-])cc5F)c5nc(c(-c6c(F)cc(S(=O)(=O)[O-])cc6F)c6ccc3[nH]6)C=C5)C=C4)cc2)CC1
REMARK SMILES IDX 24 1 23 2 22 3 21 4 20 5 19 6 17 7 18 8 12 9 11 10 3 11 6 12
REMARK SMILES IDX 98 13 7 14 97 15 8 16 9 17 10 18 2 20 1 21 4 22 5 23 13 24
REMARK SMILES IDX 14 25 15 26 16 27 25 28 26 29 27 30 28 31 29 32 30 33 31 34
REMARK SMILES IDX 32 35 96 36 33 37 95 38 34 39 35 40 36 41 89 42 37 43 94 44
REMARK SMILES IDX 88 45 90 46 38 47 93 48 87 49 86 50 39 52 73 53 52 54 72 55
REMARK SMILES IDX 53 56 56 57 71 58 91 59 54 60 55 61 70 63 92 64 57 65 40 66
REMARK SMILES IDX 41 67 50 68 42 69 43 70 49 71 51 72 44 73 45 74 46 75 47 76
REMARK SMILES IDX 48 77 74 78 75 79 84 80 76 81 77 82 83 83 85 84 78 85 79 86
REMARK SMILES IDX 80 87 81 88 82 89 58 90 59 91 68 92 60 93 61 94 67 95 69 96
REMARK SMILES IDX 62 97 63 98 64 99 65 100 66 101
REMARK H PARENT 11 19 90 51 56 62
REMARK Flexibility Score: inf
ROOT
ATOM      1  C   UNL     1       5.551   0.578   2.487  1.00  0.00     0.188 C 
ENDROOT
BRANCH   1   2
ATOM      2  C   UNL     1       4.157   0.676   1.875  1.00  0.00     0.188 C 
BRANCH   2   3
ATOM      3  O   UNL     1       3.275  -0.425   2.086  1.00  0.00    -0.376 OA
BRANCH   3   4
ATOM      4  C   UNL     1       3.683  -1.706   1.619  1.00  0.00     0.202 C 
BRANCH   4   5
ATOM      5  C   UNL     1       3.462  -1.897   0.118  1.00  0.00     0.261 C 
BRANCH   5   6
ATOM      6  O   UNL     1       4.313  -0.985  -0.591  1.00  0.00    -0.461 OA
BRANCH   6   7
ATOM      7  C   UNL     1       3.850  -0.508  -1.783  1.00  0.00     0.331 C 
ATOM      8  O   UNL     1       2.906  -1.014  -2.380  1.00  0.00    -0.249 OA
BRANCH   7   9
ATOM      9  C   UNL     1       4.559   0.833  -2.200  1.00  0.00     0.139 C 
BRANCH   9  10
ATOM     10  N   UNL     1       3.888   2.140  -1.796  1.00  0.00    -0.322 N 
ATOM     11  C   UNL     1      -0.275   1.899   1.116  1.00  0.00    -0.027 C 
ATOM     12  C   UNL     1      -0.285   3.160   0.198  1.00  0.00     0.028 C 
ATOM     13  C   UNL     1       1.022   1.132   0.862  1.00  0.00     0.028 C 
ATOM     14  C   UNL     1       0.290   2.983  -1.231  1.00  0.00     0.122 C 
ATOM     15  C   UNL     1       1.460   0.975  -0.577  1.00  0.00     0.122 C 
ATOM     16  N   UNL     1       1.553   2.228  -1.258  1.00  0.00    -0.325 N 
ATOM     17  C   UNL     1       2.685   2.759  -1.805  1.00  0.00     0.318 C 
ATOM     18  O   UNL     1       2.728   3.929  -2.200  1.00  0.00    -0.249 OA
ATOM     19  H   UNL     1       4.558   2.736  -1.389  1.00  0.00     0.166 HD
BRANCH  11  20
ATOM     20  C   UNL     1      -1.526   0.987   0.954  1.00  0.00     0.004 C 
ATOM     21  C   UNL     1      -1.588   0.030  -0.225  1.00  0.00     0.004 C 
ENDBRANCH  11  20
BRANCH  11  22
ATOM     22  C   UNL     1      -0.172   2.333   2.630  1.00  0.00     0.004 C 
ATOM     23  C   UNL     1      -1.452   2.765   3.324  1.00  0.00     0.004 C 
ENDBRANCH  11  22
ENDBRANCH   9  10
BRANCH   9  24
ATOM     24  C   UNL     1       4.619   0.736  -3.759  1.00  0.00     0.037 C 
ATOM     25  C   UNL     1       5.585   1.667  -4.480  1.00  0.00     0.007 C 
ENDBRANCH   9  24
BRANCH   9  26
ATOM     26  C   UNL     1       6.035   0.826  -1.602  1.00  0.00     0.037 C 
ATOM     27  C   UNL     1       6.540   2.123  -0.968  1.00  0.00     0.007 C 
ENDBRANCH   9  26
ENDBRANCH   7   9
ENDBRANCH   6   7
ENDBRANCH   5   6
ENDBRANCH   4   5
ENDBRANCH   3   4
ENDBRANCH   2   3
ENDBRANCH   1   2
BRANCH   1  28
ATOM     28  O   UNL     1       5.673   0.037   3.797  1.00  0.00    -0.376 OA
BRANCH  28  29
ATOM     29  C   UNL     1       4.599   0.206   4.718  1.00  0.00     0.202 C 
BRANCH  29  30
ATOM     30  C   UNL     1       4.413   1.601   5.323  1.00  0.00     0.261 C 
BRANCH  30  31
ATOM     31  O   UNL     1       3.835   2.569   4.423  1.00  0.00    -0.460 OA
BRANCH  31  32
ATOM     32  C   UNL     1       4.641   3.589   4.066  1.00  0.00     0.338 C 
ATOM     33  O   UNL     1       5.837   3.715   4.350  1.00  0.00    -0.246 OA
BRANCH  32  34
ATOM     34  C   UNL     1       3.942   4.568   3.220  1.00  0.00     0.060 A 
ATOM     35  C   UNL     1       4.386   4.762   1.906  1.00  0.00     0.016 A 
ATOM     36  C   UNL     1       2.988   5.428   3.771  1.00  0.00     0.016 A 
ATOM     37  C   UNL     1       3.918   5.847   1.158  1.00  0.00     0.010 A 
ATOM     38  C   UNL     1       2.525   6.517   3.019  1.00  0.00     0.010 A 
ATOM     39  C   UNL     1       3.017   6.761   1.723  1.00  0.00    -0.014 A 
BRANCH  39  40
ATOM     40  C   UNL     1       2.664   8.030   1.025  1.00  0.00     0.031 A 
ATOM     41  C   UNL     1       3.261   9.331   1.493  1.00  0.00     0.074 A 
ATOM     42  C   UNL     1       1.795   8.042  -0.002  1.00  0.00     0.049 A 
ATOM     43  N   UNL     1       2.977  10.555   1.126  1.00  0.00    -0.248 NA
ATOM     44  C   UNL     1       4.324   9.238   2.505  1.00  0.00     0.031 C 
ATOM     45  C   UNL     1       1.195   6.859  -0.608  1.00  0.00     0.029 A 
ATOM     46  N   UNL     1       1.248   9.093  -0.700  1.00  0.00    -0.354 N 
ATOM     47  C   UNL     1       3.810  11.381   1.872  1.00  0.00     0.074 A 
ATOM     48  C   UNL     1       4.601  10.517   2.724  1.00  0.00     0.031 C 
ATOM     49  C   UNL     1       0.328   7.246  -1.558  1.00  0.00     0.029 A 
ATOM     50  C   UNL     1       0.286   8.707  -1.603  1.00  0.00     0.049 A 
ATOM     51  H   UNL     1       1.519  10.030  -0.566  1.00  0.00     0.167 HD
ATOM     52  C   UNL     1       3.909  12.733   1.848  1.00  0.00     0.037 A 
ATOM     53  C   UNL     1      -0.561   9.440  -2.353  1.00  0.00     0.037 A 
ATOM     54  C   UNL     1       3.131  13.596   0.996  1.00  0.00     0.049 A 
ATOM     55  C   UNL     1      -0.504  10.943  -2.296  1.00  0.00     0.074 A 
ATOM     56  C   UNL     1       3.196  14.974   0.877  1.00  0.00     0.029 A 
ATOM     57  N   UNL     1       2.136  13.169   0.129  1.00  0.00    -0.354 N 
ATOM     58  N   UNL     1       0.295  11.712  -1.596  1.00  0.00    -0.248 NA
ATOM     59  C   UNL     1      -1.469  11.680  -3.126  1.00  0.00     0.031 C 
ATOM     60  C   UNL     1       2.205  15.385  -0.022  1.00  0.00     0.029 A 
ATOM     61  C   UNL     1       1.552  14.260  -0.498  1.00  0.00     0.049 A 
ATOM     62  H   UNL     1       1.881  12.230  -0.019  1.00  0.00     0.167 HD
ATOM     63  C   UNL     1      -0.059  13.020  -1.912  1.00  0.00     0.074 A 
ATOM     64  C   UNL     1      -1.138  12.940  -2.875  1.00  0.00     0.031 C 
ATOM     65  C   UNL     1       0.466  14.180  -1.445  1.00  0.00     0.037 A 
BRANCH  52  66
ATOM     66  C   UNL     1       4.875  13.370   2.809  1.00  0.00     0.058 A 
ATOM     67  C   UNL     1       6.264  13.308   2.617  1.00  0.00     0.135 A 
ATOM     68  C   UNL     1       4.398  14.067   3.931  1.00  0.00     0.135 A 
ATOM     69  F   UNL     1       6.772  12.644   1.567  1.00  0.00    -0.206 F 
ATOM     70  C   UNL     1       7.148  13.884   3.524  1.00  0.00     0.059 A 
ATOM     71  C   UNL     1       5.264  14.671   4.838  1.00  0.00     0.059 A 
ATOM     72  F   UNL     1       3.079  14.159   4.159  1.00  0.00    -0.206 F 
ATOM     73  C   UNL     1       6.638  14.557   4.636  1.00  0.00     0.060 A 
BRANCH  73  74
ATOM     74  S   UNL     1       7.796  15.279   5.818  1.00  0.00     0.124 S 
ATOM     75  O   UNL     1       8.276  14.091   6.517  1.00  0.00    -0.237 OA
ATOM     76  O   UNL     1       8.766  15.936   4.948  1.00  0.00    -0.237 OA
ATOM     77  O   UNL     1       6.960  16.177   6.609  1.00  0.00    -0.744 OA
ENDBRANCH  73  74
ENDBRANCH  52  66
BRANCH  53  78
ATOM     78  C   UNL     1      -1.575   8.750  -3.192  1.00  0.00     0.058 A 
ATOM     79  C   UNL     1      -1.472   8.727  -4.590  1.00  0.00     0.135 A 
ATOM     80  C   UNL     1      -2.660   8.078  -2.604  1.00  0.00     0.135 A 
ATOM     81  F   UNL     1      -0.465   9.371  -5.198  1.00  0.00    -0.206 F 
ATOM     82  C   UNL     1      -2.405   8.059  -5.377  1.00  0.00     0.059 A 
ATOM     83  C   UNL     1      -3.593   7.387  -3.369  1.00  0.00     0.059 A 
ATOM     84  F   UNL     1      -2.802   8.069  -1.270  1.00  0.00    -0.206 F 
ATOM     85  C   UNL     1      -3.459   7.386  -4.756  1.00  0.00     0.060 A 
BRANCH  85  86
ATOM     86  S   UNL     1      -4.625   6.462  -5.780  1.00  0.00     0.124 S 
ATOM     87  O   UNL     1      -5.415   7.537  -6.370  1.00  0.00    -0.237 OA
ATOM     88  O   UNL     1      -3.737   5.748  -6.692  1.00  0.00    -0.237 OA
ATOM     89  O   UNL     1      -5.326   5.620  -4.814  1.00  0.00    -0.744 OA
ENDBRANCH  85  86
ENDBRANCH  53  78
BRANCH  65  90
ATOM     90  C   UNL     1      -0.112  15.467  -1.967  1.00  0.00     0.058 A 
ATOM     91  C   UNL     1      -1.369  15.930  -1.548  1.00  0.00     0.135 A 
ATOM     92  C   UNL     1       0.618  16.273  -2.857  1.00  0.00     0.135 A 
ATOM     93  F   UNL     1      -2.113  15.196  -0.706  1.00  0.00    -0.206 F 
ATOM     94  C   UNL     1      -1.890  17.138  -2.004  1.00  0.00     0.059 A 
ATOM     95  C   UNL     1       0.127  17.496  -3.308  1.00  0.00     0.059 A 
ATOM     96  F   UNL     1       1.829  15.883  -3.284  1.00  0.00    -0.206 F 
ATOM     97  C   UNL     1      -1.133  17.916  -2.882  1.00  0.00     0.060 A 
BRANCH  97  98
ATOM     98  S   UNL     1      -1.802  19.500  -3.436  1.00  0.00     0.124 S 
ATOM     99  O   UNL     1      -2.809  19.073  -4.402  1.00  0.00    -0.237 OA
ATOM    100  O   UNL     1      -2.315  20.075  -2.197  1.00  0.00    -0.237 OA
ATOM    101  O   UNL     1      -0.640  20.180  -4.001  1.00  0.00    -0.744 OA
ENDBRANCH  97  98
ENDBRANCH  65  90
ENDBRANCH  39  40
ENDBRANCH  32  34
ENDBRANCH  31  32
ENDBRANCH  30  31
ENDBRANCH  29  30
ENDBRANCH  28  29
ENDBRANCH   1  28
TORSDOF 25
