REMARK SMILES Nc1nc2ccccc2nc1N1CCC(C(=O)OCCOCCOCCOC(=O)c2ccc(-c3c4nc(c(-c5c(F)cc(S(=O)(=O)[O-])cc5F)c5ccc([nH]5)c(-c5c(F)cc(S(=O)(=O)[O-])cc5F)c5nc(c(-c6c(F)cc(S(=O)(=O)[O-])cc6F)c6ccc3[nH]6)C=C5)C=C4)cc2)CC1
REMARK SMILES IDX 23 1 22 2 21 3 20 4 19 5 18 6 16 7 17 8 15 9 12 10 13 11
REMARK SMILES IDX 97 12 14 13 96 14 11 15 2 16 3 17 4 18 10 19 5 20 9 21 6 22
REMARK SMILES IDX 8 23 7 24 1 25 24 28 25 29 26 30 27 31 28 32 29 33 30 34
REMARK SMILES IDX 31 35 95 36 32 37 94 38 33 39 34 40 35 41 88 42 36 43 93 44
REMARK SMILES IDX 87 45 89 46 37 47 92 48 86 49 85 50 38 52 72 53 51 54 71 55
REMARK SMILES IDX 52 56 55 57 70 58 90 59 53 60 54 61 69 63 91 64 56 65 39 66
REMARK SMILES IDX 40 67 49 68 41 69 42 70 48 71 50 72 43 73 44 74 45 75 46 76
REMARK SMILES IDX 47 77 73 78 74 79 83 80 75 81 76 82 82 83 84 84 77 85 78 86
REMARK SMILES IDX 79 87 80 88 81 89 57 90 58 91 67 92 59 93 60 94 66 95 68 96
REMARK SMILES IDX 61 97 62 98 63 99 64 100 65 101
REMARK H PARENT 1 26 1 27 89 51 55 62
REMARK Flexibility Score: inf
ROOT
ATOM      1  C   UNL     1       5.252   7.164  -2.935  1.00  0.00     0.188 C 
ENDROOT
BRANCH   1   2
ATOM      2  C   UNL     1       4.945   6.404  -4.224  1.00  0.00     0.188 C 
BRANCH   2   3
ATOM      3  O   UNL     1       4.403   7.172  -5.291  1.00  0.00    -0.376 OA
BRANCH   3   4
ATOM      4  C   UNL     1       3.171   7.841  -5.038  1.00  0.00     0.202 C 
BRANCH   4   5
ATOM      5  C   UNL     1       1.945   6.953  -4.786  1.00  0.00     0.261 C 
BRANCH   5   6
ATOM      6  O   UNL     1       2.104   6.009  -3.707  1.00  0.00    -0.463 OA
BRANCH   6   7
ATOM      7  C   UNL     1       2.047   4.699  -4.069  1.00  0.00     0.309 C 
ATOM      8  O   UNL     1       1.829   4.304  -5.210  1.00  0.00    -0.252 OA
BRANCH   7   9
ATOM      9  C   UNL     1       2.348   3.728  -2.940  1.00  0.00     0.103 C 
ATOM     10  N   UNL     1       1.745   2.166  -0.596  1.00  0.00    -0.353 N 
ATOM     11  C   UNL     1       2.741   3.227  -0.491  1.00  0.00     0.119 C 
ATOM     12  C   UNL     1       1.521   1.581  -1.915  1.00  0.00     0.119 C 
ATOM     13  C   UNL     1       2.526   4.325  -1.538  1.00  0.00     0.037 C 
ATOM     14  C   UNL     1       1.230   2.681  -2.925  1.00  0.00     0.037 C 
BRANCH  10  15
ATOM     15  C   UNL     1       0.678   2.137   0.302  1.00  0.00     0.172 A 
ATOM     16  C   UNL     1       0.116   0.901   0.733  1.00  0.00     0.167 A 
ATOM     17  N   UNL     1      -0.937   0.832   1.571  1.00  0.00    -0.226 NA
ATOM     18  C   UNL     1      -1.421   2.000   2.015  1.00  0.00     0.091 A 
ATOM     19  N   UNL     1       0.198   3.305   0.787  1.00  0.00    -0.225 NA
ATOM     20  C   UNL     1      -2.508   1.988   2.880  1.00  0.00     0.031 A 
ATOM     21  C   UNL     1      -0.854   3.238   1.628  1.00  0.00     0.091 A 
ATOM     22  C   UNL     1      -3.057   3.171   3.374  1.00  0.00     0.002 A 
ATOM     23  C   UNL     1      -1.409   4.410   2.129  1.00  0.00     0.031 A 
ATOM     24  C   UNL     1      -2.505   4.388   2.996  1.00  0.00     0.002 A 
BRANCH  16  25
ATOM     25  N   UNL     1       0.614  -0.326   0.306  1.00  0.00    -0.381 N 
ATOM     26  H   UNL     1       0.202  -1.162   0.623  1.00  0.00     0.158 HD
ATOM     27  H   UNL     1       1.379  -0.358  -0.313  1.00  0.00     0.158 HD
ENDBRANCH  16  25
ENDBRANCH  10  15
ENDBRANCH   7   9
ENDBRANCH   6   7
ENDBRANCH   5   6
ENDBRANCH   4   5
ENDBRANCH   3   4
ENDBRANCH   2   3
ENDBRANCH   1   2
BRANCH   1  28
ATOM     28  O   UNL     1       4.197   7.955  -2.402  1.00  0.00    -0.376 OA
BRANCH  28  29
ATOM     29  C   UNL     1       4.490   8.613  -1.163  1.00  0.00     0.202 C 
BRANCH  29  30
ATOM     30  C   UNL     1       5.755   9.499  -1.132  1.00  0.00     0.261 C 
BRANCH  30  31
ATOM     31  O   UNL     1       7.003   8.818  -1.388  1.00  0.00    -0.460 OA
BRANCH  31  32
ATOM     32  C   UNL     1       7.293   7.715  -0.657  1.00  0.00     0.338 C 
ATOM     33  O   UNL     1       6.743   7.374   0.377  1.00  0.00    -0.246 OA
BRANCH  32  34
ATOM     34  C   UNL     1       8.180   6.833  -1.474  1.00  0.00     0.060 A 
ATOM     35  C   UNL     1       9.099   7.350  -2.393  1.00  0.00     0.016 A 
ATOM     36  C   UNL     1       7.999   5.444  -1.387  1.00  0.00     0.016 A 
ATOM     37  C   UNL     1       9.856   6.482  -3.192  1.00  0.00     0.010 A 
ATOM     38  C   UNL     1       8.751   4.578  -2.191  1.00  0.00     0.010 A 
ATOM     39  C   UNL     1       9.707   5.088  -3.081  1.00  0.00    -0.014 A 
BRANCH  39  40
ATOM     40  C   UNL     1      10.706   4.180  -3.705  1.00  0.00     0.031 A 
ATOM     41  C   UNL     1      10.449   3.412  -4.969  1.00  0.00     0.074 A 
ATOM     42  C   UNL     1      11.886   4.038  -3.069  1.00  0.00     0.049 A 
ATOM     43  N   UNL     1      11.271   2.639  -5.636  1.00  0.00    -0.248 NA
ATOM     44  C   UNL     1       9.107   3.511  -5.554  1.00  0.00     0.031 C 
ATOM     45  C   UNL     1      12.242   4.703  -1.814  1.00  0.00     0.029 A 
ATOM     46  N   UNL     1      12.998   3.299  -3.384  1.00  0.00    -0.354 N 
ATOM     47  C   UNL     1      10.560   2.177  -6.737  1.00  0.00     0.074 A 
ATOM     48  C   UNL     1       9.220   2.722  -6.619  1.00  0.00     0.031 C 
ATOM     49  C   UNL     1      13.494   4.363  -1.478  1.00  0.00     0.029 A 
ATOM     50  C   UNL     1      14.022   3.440  -2.479  1.00  0.00     0.049 A 
ATOM     51  H   UNL     1      13.056   2.724  -4.181  1.00  0.00     0.167 HD
ATOM     52  C   UNL     1      10.991   1.389  -7.755  1.00  0.00     0.037 A 
ATOM     53  C   UNL     1      15.255   2.899  -2.454  1.00  0.00     0.037 A 
ATOM     54  C   UNL     1      12.320   0.828  -7.853  1.00  0.00     0.049 A 
ATOM     55  C   UNL     1      15.695   1.999  -3.571  1.00  0.00     0.074 A 
ATOM     56  C   UNL     1      12.852   0.049  -8.870  1.00  0.00     0.029 A 
ATOM     57  N   UNL     1      13.322   0.967  -6.903  1.00  0.00    -0.354 N 
ATOM     58  N   UNL     1      15.032   1.632  -4.641  1.00  0.00    -0.248 NA
ATOM     59  C   UNL     1      17.054   1.449  -3.484  1.00  0.00     0.031 C 
ATOM     60  C   UNL     1      14.153  -0.322  -8.512  1.00  0.00     0.029 A 
ATOM     61  C   UNL     1      14.456   0.268  -7.297  1.00  0.00     0.049 A 
ATOM     62  H   UNL     1      13.241   1.486  -6.071  1.00  0.00     0.167 HD
ATOM     63  C   UNL     1      15.902   0.827  -5.367  1.00  0.00     0.074 A 
ATOM     64  C   UNL     1      17.142   0.769  -4.619  1.00  0.00     0.031 C 
ATOM     65  C   UNL     1      15.689   0.200  -6.550  1.00  0.00     0.037 A 
BRANCH  52  66
ATOM     66  C   UNL     1      10.024   1.084  -8.870  1.00  0.00     0.058 A 
ATOM     67  C   UNL     1       9.655   2.067  -9.802  1.00  0.00     0.135 A 
ATOM     68  C   UNL     1       9.534  -0.218  -9.068  1.00  0.00     0.135 A 
ATOM     69  F   UNL     1      10.093   3.328  -9.664  1.00  0.00    -0.206 F 
ATOM     70  C   UNL     1       8.818   1.776 -10.876  1.00  0.00     0.059 A 
ATOM     71  C   UNL     1       8.716  -0.537 -10.149  1.00  0.00     0.059 A 
ATOM     72  F   UNL     1       9.864  -1.200  -8.214  1.00  0.00    -0.206 F 
ATOM     73  C   UNL     1       8.354   0.470 -11.042  1.00  0.00     0.060 A 
BRANCH  73  74
ATOM     74  S   UNL     1       7.280   0.111 -12.449  1.00  0.00     0.124 S 
ATOM     75  O   UNL     1       6.054   0.803 -12.064  1.00  0.00    -0.237 OA
ATOM     76  O   UNL     1       8.017   0.700 -13.562  1.00  0.00    -0.237 OA
ATOM     77  O   UNL     1       7.200  -1.347 -12.455  1.00  0.00    -0.744 OA
ENDBRANCH  73  74
ENDBRANCH  52  66
BRANCH  53  78
ATOM     78  C   UNL     1      16.175   3.252  -1.343  1.00  0.00     0.058 A 
ATOM     79  C   UNL     1      17.257   4.115  -1.560  1.00  0.00     0.135 A 
ATOM     80  C   UNL     1      15.954   2.787  -0.038  1.00  0.00     0.135 A 
ATOM     81  F   UNL     1      17.507   4.581  -2.794  1.00  0.00    -0.206 F 
ATOM     82  C   UNL     1      18.092   4.507  -0.521  1.00  0.00     0.059 A 
ATOM     83  C   UNL     1      16.760   3.184   1.023  1.00  0.00     0.059 A 
ATOM     84  F   UNL     1      14.917   1.974   0.220  1.00  0.00    -0.206 F 
ATOM     85  C   UNL     1      17.829   4.043   0.769  1.00  0.00     0.060 A 
BRANCH  85  86
ATOM     86  S   UNL     1      18.873   4.625   2.122  1.00  0.00     0.124 S 
ATOM     87  O   UNL     1      20.128   3.936   1.842  1.00  0.00    -0.237 OA
ATOM     88  O   UNL     1      18.875   6.068   1.906  1.00  0.00    -0.237 OA
ATOM     89  O   UNL     1      18.160   4.178   3.314  1.00  0.00    -0.744 OA
ENDBRANCH  85  86
ENDBRANCH  53  78
BRANCH  65  90
ATOM     90  C   UNL     1      16.827  -0.599  -7.128  1.00  0.00     0.058 A 
ATOM     91  C   UNL     1      17.224  -1.826  -6.573  1.00  0.00     0.135 A 
ATOM     92  C   UNL     1      17.501  -0.154  -8.278  1.00  0.00     0.135 A 
ATOM     93  F   UNL     1      16.622  -2.294  -5.469  1.00  0.00    -0.206 F 
ATOM     94  C   UNL     1      18.261  -2.574  -7.125  1.00  0.00     0.059 A 
ATOM     95  C   UNL     1      18.523  -0.898  -8.862  1.00  0.00     0.059 A 
ATOM     96  F   UNL     1      17.160   1.010  -8.853  1.00  0.00    -0.206 F 
ATOM     97  C   UNL     1      18.902  -2.103  -8.273  1.00  0.00     0.060 A 
BRANCH  97  98
ATOM     98  S   UNL     1      20.222  -3.101  -8.996  1.00  0.00     0.124 S 
ATOM     99  O   UNL     1      21.292  -2.930  -8.018  1.00  0.00    -0.237 OA
ATOM    100  O   UNL     1      19.617  -4.428  -9.046  1.00  0.00    -0.237 OA
ATOM    101  O   UNL     1      20.453  -2.474 -10.294  1.00  0.00    -0.744 OA
ENDBRANCH  97  98
ENDBRANCH  65  90
ENDBRANCH  39  40
ENDBRANCH  32  34
ENDBRANCH  31  32
ENDBRANCH  30  31
ENDBRANCH  29  30
ENDBRANCH  28  29
ENDBRANCH   1  28
TORSDOF 22
