REMARK SMILES O=C(OCCOCCOCCOC(=O)c1ccc2c(=O)n(CCC[NH+]3CCOCC3)c(=O)[nH]c2c1)c1ccc(-c2c3nc(c(-c4c(F)cc(S(=O)(=O)[O-])cc4F)c4ccc([nH]4)c(-c4c(F)cc(S(=O)(=O)[O-])cc4F)c4nc(c(-c5c(F)cc(S(=O)(=O)[O-])cc5F)c5ccc2[nH]5)C=C4)C=C3)cc1
REMARK SMILES IDX 8 1 7 2 6 3 5 4 4 5 3 6 2 7 1 8 36 9 37 10 101 11 38 12
REMARK SMILES IDX 100 13 39 14 40 15 41 16 94 17 42 18 99 19 93 20 95 21 43 22
REMARK SMILES IDX 98 23 92 24 91 25 44 27 78 28 57 29 77 30 58 31 61 32 76 33
REMARK SMILES IDX 96 34 59 35 60 36 75 38 97 39 62 40 45 41 46 42 55 43 47 44
REMARK SMILES IDX 48 45 54 46 56 47 49 48 50 49 51 50 52 51 53 52 79 53 80 54
REMARK SMILES IDX 89 55 81 56 82 57 88 58 90 59 83 60 84 61 85 62 86 63 87 64
REMARK SMILES IDX 63 65 64 66 73 67 65 68 66 69 72 70 74 71 67 72 68 73 69 74
REMARK SMILES IDX 70 75 71 76 9 77 10 78 11 79 12 80 13 81 14 82 15 83 16 84
REMARK SMILES IDX 35 85 17 86 34 87 18 88 33 89 19 90 31 91 20 93 21 94 32 95
REMARK SMILES IDX 22 96 23 97 24 98 25 99 26 100 30 101 27 103 29 104 28 105
REMARK H PARENT 95 26 61 37 33 92 25 102
REMARK Flexibility Score: inf
ROOT
ATOM      1  C   UNL     1       2.294   2.409  -1.778  1.00  0.00     0.188 C 
ENDROOT
BRANCH   1   2
ATOM      2  C   UNL     1       2.652   1.232  -0.878  1.00  0.00     0.188 C 
BRANCH   2   3
ATOM      3  O   UNL     1       4.001   1.206  -0.419  1.00  0.00    -0.376 OA
BRANCH   3   4
ATOM      4  C   UNL     1       4.891   0.483  -1.260  1.00  0.00     0.202 C 
BRANCH   4   5
ATOM      5  C   UNL     1       4.743  -1.049  -1.237  1.00  0.00     0.261 C 
BRANCH   5   6
ATOM      6  O   UNL     1       3.512  -1.614  -0.735  1.00  0.00    -0.460 OA
BRANCH   6   7
ATOM      7  C   UNL     1       2.895  -1.601   0.468  1.00  0.00     0.338 C 
ATOM      8  O   UNL     1       1.770  -2.099   0.532  1.00  0.00    -0.246 OA
BRANCH   7   9
ATOM      9  C   UNL     1       3.441  -0.965   1.709  1.00  0.00     0.060 A 
ATOM     10  C   UNL     1       2.576  -0.881   2.821  1.00  0.00     0.016 A 
ATOM     11  C   UNL     1       4.731  -0.458   1.852  1.00  0.00     0.016 A 
ATOM     12  C   UNL     1       2.990  -0.290   4.021  1.00  0.00     0.010 A 
ATOM     13  C   UNL     1       5.139   0.164   3.033  1.00  0.00     0.010 A 
ATOM     14  C   UNL     1       4.284   0.236   4.133  1.00  0.00    -0.014 A 
BRANCH  14  15
ATOM     15  C   UNL     1       4.860   0.594   5.449  1.00  0.00     0.031 A 
ATOM     16  C   UNL     1       5.214   2.004   5.832  1.00  0.00     0.074 A 
ATOM     17  C   UNL     1       5.224  -0.437   6.236  1.00  0.00     0.049 A 
ATOM     18  N   UNL     1       5.591   2.471   6.995  1.00  0.00    -0.248 NA
ATOM     19  C   UNL     1       5.171   3.024   4.771  1.00  0.00     0.031 C 
ATOM     20  C   UNL     1       5.138  -1.854   5.858  1.00  0.00     0.029 A 
ATOM     21  N   UNL     1       5.792  -0.460   7.477  1.00  0.00    -0.354 N 
ATOM     22  C   UNL     1       5.676   3.855   6.842  1.00  0.00     0.074 A 
ATOM     23  C   UNL     1       5.496   4.130   5.436  1.00  0.00     0.031 C 
ATOM     24  C   UNL     1       5.676  -2.602   6.832  1.00  0.00     0.029 A 
ATOM     25  C   UNL     1       6.110  -1.724   7.910  1.00  0.00     0.049 A 
ATOM     26  H   UNL     1       5.957   0.351   8.010  1.00  0.00     0.167 HD
ATOM     27  C   UNL     1       5.793   4.792   7.819  1.00  0.00     0.037 A 
ATOM     28  C   UNL     1       6.683  -2.123   9.059  1.00  0.00     0.037 A 
ATOM     29  C   UNL     1       5.997   4.431   9.199  1.00  0.00     0.049 A 
ATOM     30  C   UNL     1       6.940  -1.082  10.107  1.00  0.00     0.074 A 
ATOM     31  C   UNL     1       5.986   5.234  10.323  1.00  0.00     0.029 A 
ATOM     32  N   UNL     1       6.287   3.141   9.627  1.00  0.00    -0.354 N 
ATOM     33  N   UNL     1       6.709   0.210  10.049  1.00  0.00    -0.248 NA
ATOM     34  C   UNL     1       7.501  -1.540  11.380  1.00  0.00     0.031 C 
ATOM     35  C   UNL     1       6.367   4.445  11.416  1.00  0.00     0.029 A 
ATOM     36  C   UNL     1       6.569   3.143  10.979  1.00  0.00     0.049 A 
ATOM     37  H   UNL     1       6.290   2.343   9.051  1.00  0.00     0.167 HD
ATOM     38  C   UNL     1       7.074   0.719  11.286  1.00  0.00     0.074 A 
ATOM     39  C   UNL     1       7.532  -0.409  12.075  1.00  0.00     0.031 C 
ATOM     40  C   UNL     1       7.030   2.000  11.731  1.00  0.00     0.037 A 
BRANCH  27  41
ATOM     41  C   UNL     1       5.593   6.255   7.488  1.00  0.00     0.058 A 
ATOM     42  C   UNL     1       4.312   6.733   7.186  1.00  0.00     0.135 A 
ATOM     43  C   UNL     1       6.601   7.221   7.615  1.00  0.00     0.135 A 
ATOM     44  F   UNL     1       3.286   5.887   7.117  1.00  0.00    -0.206 F 
ATOM     45  C   UNL     1       4.032   8.075   6.969  1.00  0.00     0.059 A 
ATOM     46  C   UNL     1       6.342   8.589   7.441  1.00  0.00     0.059 A 
ATOM     47  F   UNL     1       7.849   6.852   7.940  1.00  0.00    -0.206 F 
ATOM     48  C   UNL     1       5.052   9.003   7.112  1.00  0.00     0.060 A 
BRANCH  48  49
ATOM     49  S   UNL     1       4.622  10.740   6.881  1.00  0.00     0.124 S 
ATOM     50  O   UNL     1       4.169  10.746   5.492  1.00  0.00    -0.237 OA
ATOM     51  O   UNL     1       3.576  10.928   7.882  1.00  0.00    -0.237 OA
ATOM     52  O   UNL     1       5.875  11.440   7.135  1.00  0.00    -0.744 OA
ENDBRANCH  48  49
ENDBRANCH  27  41
BRANCH  28  53
ATOM     53  C   UNL     1       6.971  -3.565   9.262  1.00  0.00     0.058 A 
ATOM     54  C   UNL     1       6.194  -4.345  10.129  1.00  0.00     0.135 A 
ATOM     55  C   UNL     1       7.966  -4.216   8.512  1.00  0.00     0.135 A 
ATOM     56  F   UNL     1       5.226  -3.771  10.859  1.00  0.00    -0.206 F 
ATOM     57  C   UNL     1       6.391  -5.717  10.248  1.00  0.00     0.059 A 
ATOM     58  C   UNL     1       8.168  -5.590   8.598  1.00  0.00     0.059 A 
ATOM     59  F   UNL     1       8.719  -3.519   7.646  1.00  0.00    -0.206 F 
ATOM     60  C   UNL     1       7.375  -6.332   9.471  1.00  0.00     0.060 A 
BRANCH  60  61
ATOM     61  S   UNL     1       7.568  -8.125   9.584  1.00  0.00     0.124 S 
ATOM     62  O   UNL     1       8.091  -8.281  10.936  1.00  0.00    -0.237 OA
ATOM     63  O   UNL     1       6.202  -8.591   9.370  1.00  0.00    -0.237 OA
ATOM     64  O   UNL     1       8.504  -8.433   8.507  1.00  0.00    -0.744 OA
ENDBRANCH  60  61
ENDBRANCH  28  53
BRANCH  40  65
ATOM     65  C   UNL     1       7.521   2.254  13.124  1.00  0.00     0.058 A 
ATOM     66  C   UNL     1       8.892   2.229  13.418  1.00  0.00     0.135 A 
ATOM     67  C   UNL     1       6.629   2.610  14.147  1.00  0.00     0.135 A 
ATOM     68  F   UNL     1       9.780   1.881  12.473  1.00  0.00    -0.206 F 
ATOM     69  C   UNL     1       9.364   2.546  14.684  1.00  0.00     0.059 A 
ATOM     70  C   UNL     1       7.081   2.961  15.413  1.00  0.00     0.059 A 
ATOM     71  F   UNL     1       5.308   2.654  13.909  1.00  0.00    -0.206 F 
ATOM     72  C   UNL     1       8.451   2.922  15.672  1.00  0.00     0.060 A 
BRANCH  72  73
ATOM     73  S   UNL     1       9.091   3.394  17.290  1.00  0.00     0.124 S 
ATOM     74  O   UNL     1       9.554   2.112  17.809  1.00  0.00    -0.237 OA
ATOM     75  O   UNL     1      10.135   4.353  16.942  1.00  0.00    -0.237 OA
ATOM     76  O   UNL     1       7.926   3.960  17.965  1.00  0.00    -0.744 OA
ENDBRANCH  72  73
ENDBRANCH  40  65
ENDBRANCH  14  15
ENDBRANCH   7   9
ENDBRANCH   6   7
ENDBRANCH   5   6
ENDBRANCH   4   5
ENDBRANCH   3   4
ENDBRANCH   2   3
ENDBRANCH   1   2
BRANCH   1  77
ATOM     77  O   UNL     1       3.394   2.833  -2.573  1.00  0.00    -0.376 OA
BRANCH  77  78
ATOM     78  C   UNL     1       3.824   4.165  -2.275  1.00  0.00     0.202 C 
BRANCH  78  79
ATOM     79  C   UNL     1       4.527   4.332  -0.919  1.00  0.00     0.261 C 
BRANCH  79  80
ATOM     80  O   UNL     1       3.728   4.050   0.247  1.00  0.00    -0.460 OA
BRANCH  80  81
ATOM     81  C   UNL     1       2.684   4.868   0.514  1.00  0.00     0.338 C 
ATOM     82  O   UNL     1       2.244   5.761  -0.178  1.00  0.00    -0.246 OA
BRANCH  81  83
ATOM     83  C   UNL     1       2.233   4.544   1.879  1.00  0.00     0.062 A 
ATOM     84  C   UNL     1       2.743   5.349   2.896  1.00  0.00     0.016 A 
ATOM     85  C   UNL     1       1.388   3.455   2.168  1.00  0.00     0.042 A 
ATOM     86  C   UNL     1       2.502   4.994   4.215  1.00  0.00     0.017 A 
ATOM     87  C   UNL     1       1.125   3.138   3.505  1.00  0.00     0.056 A 
ATOM     88  C   UNL     1       1.749   3.857   4.508  1.00  0.00     0.064 A 
ATOM     89  N   UNL     1       0.245   2.123   3.887  1.00  0.00    -0.307 N 
ATOM     90  C   UNL     1       1.675   3.305   5.865  1.00  0.00     0.264 A 
ATOM     91  C   UNL     1      -0.122   1.881   5.196  1.00  0.00     0.328 A 
ATOM     92  H   UNL     1      -0.135   1.548   3.184  1.00  0.00     0.171 HD
ATOM     93  O   UNL     1       2.646   3.419   6.595  1.00  0.00    -0.268 OA
ATOM     94  N   UNL     1       0.542   2.598   6.184  1.00  0.00    -0.260 N 
ATOM     95  O   UNL     1      -0.989   1.038   5.423  1.00  0.00    -0.248 OA
BRANCH  94  96
ATOM     96  C   UNL     1       0.166   2.352   7.587  1.00  0.00     0.137 C 
BRANCH  96  97
ATOM     97  C   UNL     1       0.870   3.058   8.774  1.00  0.00     0.083 C 
BRANCH  97  98
ATOM     98  C   UNL     1       1.099   4.584   8.788  1.00  0.00     0.264 C 
BRANCH  98  99
ATOM     99  N   UNL     1       0.027   5.558   9.049  1.00  0.00    -0.331 N 
ATOM    100  C   UNL     1      -1.279   5.275   8.454  1.00  0.00     0.291 C 
ATOM    101  C   UNL     1       0.466   6.912   8.588  1.00  0.00     0.291 C 
ATOM    102  H   UNL     1      -0.119   5.502  10.057  1.00  0.00     0.348 HD
ATOM    103  C   UNL     1      -1.331   5.486   6.937  1.00  0.00     0.221 C 
ATOM    104  C   UNL     1       0.321   7.147   7.065  1.00  0.00     0.221 C 
ATOM    105  O   UNL     1      -1.001   6.834   6.595  1.00  0.00    -0.370 OA
ENDBRANCH  98  99
ENDBRANCH  97  98
ENDBRANCH  96  97
ENDBRANCH  94  96
ENDBRANCH  81  83
ENDBRANCH  80  81
ENDBRANCH  79  80
ENDBRANCH  78  79
ENDBRANCH  77  78
ENDBRANCH   1  77
TORSDOF 24
