REMARK SMILES CC[C@H]1CCCCN1S(=O)(=O)c1ccc2oc(C(=O)OCCOCCOCCOC(=O)c3ccc(-c4c5nc(c(-c6c(F)cc(S(=O)(=O)[O-])cc6F)c6ccc([nH]6)c(-c6c(F)cc(S(=O)(=O)[O-])cc6F)c6nc(c(-c7c(F)cc(S(=O)(=O)[O-])cc7F)c7ccc4[nH]7)C=C6)C=C5)cc3)c(C)c2c1
REMARK SMILES IDX 24 1 23 2 22 3 21 4 20 5 18 6 19 7 17 8 12 9 13 10 101 11
REMARK SMILES IDX 14 12 100 13 15 14 98 15 16 16 99 17 9 18 10 19 11 20 8 21
REMARK SMILES IDX 3 22 4 23 5 24 7 25 6 26 2 27 1 28 25 29 26 30 27 31 28 32
REMARK SMILES IDX 29 33 30 34 31 35 32 36 33 37 97 38 34 39 96 40 35 41 36 42
REMARK SMILES IDX 37 43 90 44 38 45 95 46 89 47 91 48 39 49 94 50 88 51 87 52
REMARK SMILES IDX 40 54 74 55 53 56 73 57 54 58 57 59 72 60 92 61 55 62 56 63
REMARK SMILES IDX 71 65 93 66 58 67 41 68 42 69 51 70 43 71 44 72 50 73 52 74
REMARK SMILES IDX 45 75 46 76 47 77 48 78 49 79 75 80 76 81 85 82 77 83 78 84
REMARK SMILES IDX 84 85 86 86 79 87 80 88 81 89 82 90 83 91 59 92 60 93 69 94
REMARK SMILES IDX 61 95 62 96 68 97 70 98 63 99 64 100 65 101 66 102 67 103
REMARK H PARENT 91 53 57 64
REMARK Flexibility Score: inf
ROOT
ATOM      1  C   UNL     1       7.137   9.778  -5.990  1.00  0.00     0.188 C 
ENDROOT
BRANCH   1   2
ATOM      2  O   UNL     1       8.365   9.995  -6.677  1.00  0.00    -0.376 OA
BRANCH   2   3
ATOM      3  C   UNL     1       8.848   9.013  -7.585  1.00  0.00     0.202 C 
BRANCH   3   4
ATOM      4  C   UNL     1       9.127   7.618  -7.024  1.00  0.00     0.261 C 
BRANCH   4   5
ATOM      5  O   UNL     1       7.941   6.983  -6.520  1.00  0.00    -0.457 OA
BRANCH   5   6
ATOM      6  C   UNL     1       7.997   6.577  -5.218  1.00  0.00     0.374 C 
ATOM      7  O   UNL     1       9.015   6.587  -4.535  1.00  0.00    -0.242 OA
BRANCH   6   8
ATOM      8  C   UNL     1       6.680   6.216  -4.740  1.00  0.00     0.215 A 
ATOM      9  C   UNL     1       2.769   4.778  -2.874  1.00  0.00     0.083 A 
ATOM     10  C   UNL     1       3.395   5.295  -1.736  1.00  0.00     0.025 A 
ATOM     11  C   UNL     1       3.297   4.984  -4.161  1.00  0.00     0.034 A 
ATOM     12  C   UNL     1       4.633   5.941  -1.844  1.00  0.00     0.049 A 
ATOM     13  C   UNL     1       4.588   5.524  -4.268  1.00  0.00     0.025 A 
ATOM     14  C   UNL     1       5.207   5.973  -3.114  1.00  0.00     0.135 A 
ATOM     15  C   UNL     1       5.529   5.701  -5.333  1.00  0.00     0.010 A 
ATOM     16  O   UNL     1       6.456   6.410  -3.401  1.00  0.00    -0.449 OA
ATOM     17  C   UNL     1       5.306   5.302  -6.748  1.00  0.00     0.049 C 
BRANCH   9  18
ATOM     18  S   UNL     1       1.277   3.818  -2.725  1.00  0.00     0.243 S 
ATOM     19  O   UNL     1       0.467   4.103  -3.891  1.00  0.00    -0.207 OA
ATOM     20  O   UNL     1       0.756   4.002  -1.387  1.00  0.00    -0.207 OA
BRANCH  18  21
ATOM     21  N   UNL     1       1.825   2.178  -2.852  1.00  0.00    -0.195 NA
ATOM     22  C   UNL     1       0.811   1.154  -2.388  1.00  0.00     0.073 C 
ATOM     23  C   UNL     1       1.492  -0.226  -2.336  1.00  0.00     0.020 C 
ATOM     24  C   UNL     1       2.080  -0.625  -3.682  1.00  0.00     0.003 C 
ATOM     25  C   UNL     1       2.474   1.821  -4.148  1.00  0.00     0.103 C 
ATOM     26  C   UNL     1       3.085   0.426  -4.118  1.00  0.00     0.017 C 
BRANCH  22  27
ATOM     27  C   UNL     1      -0.479   1.191  -3.236  1.00  0.00     0.017 C 
ATOM     28  C   UNL     1      -1.463   0.067  -2.944  1.00  0.00     0.005 C 
ENDBRANCH  22  27
ENDBRANCH  18  21
ENDBRANCH   9  18
ENDBRANCH   6   8
ENDBRANCH   5   6
ENDBRANCH   4   5
ENDBRANCH   3   4
ENDBRANCH   2   3
ENDBRANCH   1   2
BRANCH   1  29
ATOM     29  C   UNL     1       5.912   9.272  -6.777  1.00  0.00     0.188 C 
BRANCH  29  30
ATOM     30  O   UNL     1       6.061   9.304  -8.188  1.00  0.00    -0.376 OA
BRANCH  30  31
ATOM     31  C   UNL     1       5.235  10.237  -8.873  1.00  0.00     0.202 C 
BRANCH  31  32
ATOM     32  C   UNL     1       5.670  11.699  -8.717  1.00  0.00     0.261 C 
BRANCH  32  33
ATOM     33  O   UNL     1       5.659  12.199  -7.370  1.00  0.00    -0.460 OA
BRANCH  33  34
ATOM     34  C   UNL     1       4.457  12.292  -6.759  1.00  0.00     0.338 C 
ATOM     35  O   UNL     1       3.373  11.988  -7.223  1.00  0.00    -0.246 OA
BRANCH  34  36
ATOM     36  C   UNL     1       4.696  12.672  -5.351  1.00  0.00     0.060 A 
ATOM     37  C   UNL     1       4.189  11.859  -4.330  1.00  0.00     0.016 A 
ATOM     38  C   UNL     1       5.424  13.825  -5.043  1.00  0.00     0.016 A 
ATOM     39  C   UNL     1       4.392  12.213  -2.994  1.00  0.00     0.010 A 
ATOM     40  C   UNL     1       5.612  14.185  -3.707  1.00  0.00     0.010 A 
ATOM     41  C   UNL     1       5.076  13.395  -2.675  1.00  0.00    -0.014 A 
BRANCH  41  42
ATOM     42  C   UNL     1       5.096  13.896  -1.279  1.00  0.00     0.031 A 
ATOM     43  C   UNL     1       4.050  14.893  -0.858  1.00  0.00     0.074 A 
ATOM     44  C   UNL     1       6.028  13.484  -0.400  1.00  0.00     0.049 A 
ATOM     45  N   UNL     1       3.896  15.502   0.289  1.00  0.00    -0.248 NA
ATOM     46  C   UNL     1       3.044  15.253  -1.871  1.00  0.00     0.031 C 
ATOM     47  C   UNL     1       7.080  12.508  -0.676  1.00  0.00     0.029 A 
ATOM     48  N   UNL     1       6.242  13.849   0.907  1.00  0.00    -0.354 N 
ATOM     49  C   UNL     1       2.777  16.312   0.139  1.00  0.00     0.074 A 
ATOM     50  C   UNL     1       2.308  16.140  -1.219  1.00  0.00     0.031 C 
ATOM     51  C   UNL     1       7.838  12.361   0.426  1.00  0.00     0.029 A 
ATOM     52  C   UNL     1       7.339  13.249   1.476  1.00  0.00     0.049 A 
ATOM     53  H   UNL     1       5.663  14.482   1.390  1.00  0.00     0.167 HD
ATOM     54  C   UNL     1       2.187  17.120   1.052  1.00  0.00     0.037 A 
ATOM     55  C   UNL     1       7.887  13.412   2.698  1.00  0.00     0.037 A 
ATOM     56  C   UNL     1       2.660  17.303   2.398  1.00  0.00     0.049 A 
ATOM     57  C   UNL     1       7.250  14.365   3.677  1.00  0.00     0.074 A 
ATOM     58  C   UNL     1       2.127  18.097   3.397  1.00  0.00     0.029 A 
ATOM     59  N   UNL     1       3.783  16.688   2.931  1.00  0.00    -0.354 N 
ATOM     60  N   UNL     1       6.176  15.105   3.530  1.00  0.00    -0.248 NA
ATOM     61  C   UNL     1       7.898  14.504   4.990  1.00  0.00     0.031 C 
ATOM     62  C   UNL     1       2.949  17.991   4.525  1.00  0.00     0.029 A 
ATOM     63  C   UNL     1       3.970  17.099   4.240  1.00  0.00     0.049 A 
ATOM     64  H   UNL     1       4.362  16.054   2.450  1.00  0.00     0.167 HD
ATOM     65  C   UNL     1       6.005  15.773   4.739  1.00  0.00     0.074 A 
ATOM     66  C   UNL     1       7.082  15.348   5.609  1.00  0.00     0.031 C 
ATOM     67  C   UNL     1       5.040  16.656   5.099  1.00  0.00     0.037 A 
BRANCH  54  68
ATOM     68  C   UNL     1       0.972  17.883   0.610  1.00  0.00     0.058 A 
ATOM     69  C   UNL     1      -0.267  17.248   0.428  1.00  0.00     0.135 A 
ATOM     70  C   UNL     1       1.041  19.266   0.381  1.00  0.00     0.135 A 
ATOM     71  F   UNL     1      -0.381  15.923   0.614  1.00  0.00    -0.206 F 
ATOM     72  C   UNL     1      -1.390  17.953   0.009  1.00  0.00     0.059 A 
ATOM     73  C   UNL     1      -0.075  19.996  -0.018  1.00  0.00     0.059 A 
ATOM     74  F   UNL     1       2.203  19.920   0.536  1.00  0.00    -0.206 F 
ATOM     75  C   UNL     1      -1.282  19.327  -0.215  1.00  0.00     0.060 A 
BRANCH  75  76
ATOM     76  S   UNL     1      -2.746  20.230  -0.765  1.00  0.00     0.124 S 
ATOM     77  O   UNL     1      -2.828  19.826  -2.165  1.00  0.00    -0.237 OA
ATOM     78  O   UNL     1      -3.788  19.702   0.109  1.00  0.00    -0.237 OA
ATOM     79  O   UNL     1      -2.388  21.627  -0.535  1.00  0.00    -0.744 OA
ENDBRANCH  75  76
ENDBRANCH  54  68
BRANCH  55  80
ATOM     80  C   UNL     1       9.114  12.659   3.071  1.00  0.00     0.058 A 
ATOM     81  C   UNL     1       9.069  11.621   4.014  1.00  0.00     0.135 A 
ATOM     82  C   UNL     1      10.359  12.973   2.505  1.00  0.00     0.135 A 
ATOM     83  F   UNL     1       7.904  11.294   4.594  1.00  0.00    -0.206 F 
ATOM     84  C   UNL     1      10.215  10.931   4.394  1.00  0.00     0.059 A 
ATOM     85  C   UNL     1      11.516  12.283   2.852  1.00  0.00     0.059 A 
ATOM     86  F   UNL     1      10.455  13.955   1.594  1.00  0.00    -0.206 F 
ATOM     87  C   UNL     1      11.436  11.270   3.807  1.00  0.00     0.060 A 
BRANCH  87  88
ATOM     88  S   UNL     1      12.914  10.344   4.278  1.00  0.00     0.124 S 
ATOM     89  O   UNL     1      13.207  10.908   5.590  1.00  0.00    -0.237 OA
ATOM     90  O   UNL     1      12.432   8.966   4.269  1.00  0.00    -0.237 OA
ATOM     91  O   UNL     1      13.866  10.674   3.221  1.00  0.00    -0.744 OA
ENDBRANCH  87  88
ENDBRANCH  55  80
BRANCH  67  92
ATOM     92  C   UNL     1       5.074  17.194   6.502  1.00  0.00     0.058 A 
ATOM     93  C   UNL     1       6.003  18.169   6.896  1.00  0.00     0.135 A 
ATOM     94  C   UNL     1       4.124  16.773   7.447  1.00  0.00     0.135 A 
ATOM     95  F   UNL     1       6.935  18.602   6.033  1.00  0.00    -0.206 F 
ATOM     96  C   UNL     1       6.001  18.695   8.185  1.00  0.00     0.059 A 
ATOM     97  C   UNL     1       4.089  17.301   8.733  1.00  0.00     0.059 A 
ATOM     98  F   UNL     1       3.206  15.851   7.116  1.00  0.00    -0.206 F 
ATOM     99  C   UNL     1       5.039  18.255   9.097  1.00  0.00     0.060 A 
BRANCH  99 100
ATOM    100  S   UNL     1       5.018  18.973  10.754  1.00  0.00     0.124 S 
ATOM    101  O   UNL     1       6.135  18.282  11.388  1.00  0.00    -0.237 OA
ATOM    102  O   UNL     1       5.222  20.394  10.485  1.00  0.00    -0.237 OA
ATOM    103  O   UNL     1       3.693  18.623  11.258  1.00  0.00    -0.744 OA
ENDBRANCH  99 100
ENDBRANCH  67  92
ENDBRANCH  41  42
ENDBRANCH  34  36
ENDBRANCH  33  34
ENDBRANCH  32  33
ENDBRANCH  31  32
ENDBRANCH  30  31
ENDBRANCH  29  30
ENDBRANCH   1  29
TORSDOF 23
