REMARK SMILES [NH3+]CCOCC(=O)N[C@H](C(=O)OCCOCCOCCOC(=O)c1ccc(-c2c3nc(c(-c4c(F)cc(S(=O)(=O)[O-])cc4F)c4ccc([nH]4)c(-c4c(F)cc(S(=O)(=O)[O-])cc4F)c4nc(c(-c5c(F)cc(S(=O)(=O)[O-])cc5F)c5ccc2[nH]5)C=C4)C=C3)cc1)C1CCCCC1
REMARK SMILES IDX 15 1 14 2 13 3 12 4 10 5 11 6 9 7 8 8 6 9 7 10 5 12 4 13
REMARK SMILES IDX 3 14 2 15 1 16 90 20 91 21 95 22 92 23 94 24 93 25 16 26
REMARK SMILES IDX 17 27 18 28 19 29 20 30 21 31 22 32 23 33 24 34 25 35 89 36
REMARK SMILES IDX 26 37 88 38 27 39 28 40 29 41 82 42 30 43 87 44 81 45 83 46
REMARK SMILES IDX 31 47 86 48 80 49 79 50 32 52 66 53 45 54 65 55 46 56 49 57
REMARK SMILES IDX 64 58 84 59 47 60 48 61 63 63 85 64 50 65 33 66 34 67 43 68
REMARK SMILES IDX 35 69 36 70 42 71 44 72 37 73 38 74 39 75 40 76 41 77 67 78
REMARK SMILES IDX 68 79 77 80 69 81 70 82 76 83 78 84 71 85 72 86 73 87 74 88
REMARK SMILES IDX 75 89 51 90 52 91 61 92 53 93 54 94 60 95 62 96 55 97 56 98
REMARK SMILES IDX 57 99 58 100 59 101
REMARK H PARENT 8 11 1 17 1 18 1 19 83 51 49 62
REMARK Flexibility Score: inf
ROOT
ATOM      1  O   UNL     1       3.300   0.621   1.805  1.00  0.00    -0.376 OA
ENDROOT
BRANCH   1   2
ATOM      2  C   UNL     1       4.597   0.234   1.380  1.00  0.00     0.202 C 
BRANCH   2   3
ATOM      3  C   UNL     1       5.186  -1.175   1.541  1.00  0.00     0.261 C 
BRANCH   3   4
ATOM      4  O   UNL     1       4.241  -2.230   1.737  1.00  0.00    -0.462 OA
BRANCH   4   5
ATOM      5  C   UNL     1       4.423  -2.986   2.854  1.00  0.00     0.329 C 
ATOM      6  O   UNL     1       5.314  -2.808   3.675  1.00  0.00    -0.250 OA
BRANCH   5   7
ATOM      7  C   UNL     1       3.314  -4.051   2.997  1.00  0.00     0.195 C 
BRANCH   7   8
ATOM      8  N   UNL     1       3.222  -5.132   2.009  1.00  0.00    -0.340 N 
ATOM      9  C   UNL     1       4.108  -5.695   1.150  1.00  0.00     0.246 C 
ATOM     10  O   UNL     1       3.779  -6.753   0.602  1.00  0.00    -0.272 OA
ATOM     11  H   UNL     1       2.325  -5.535   1.960  1.00  0.00     0.164 HD
BRANCH   9  12
ATOM     12  C   UNL     1       5.422  -5.006   0.761  1.00  0.00     0.260 C 
BRANCH  12  13
ATOM     13  O   UNL     1       5.412  -3.865  -0.083  1.00  0.00    -0.366 OA
BRANCH  13  14
ATOM     14  C   UNL     1       4.371  -3.809  -1.065  1.00  0.00     0.222 C 
BRANCH  14  15
ATOM     15  C   UNL     1       4.965  -3.788  -2.478  1.00  0.00     0.287 C 
BRANCH  15  16
ATOM     16  N   UNL     1       5.856  -4.929  -2.717  1.00  0.00    -0.356 N 
ATOM     17  H   UNL     1       6.228  -4.877  -3.665  1.00  0.00     0.344 HD
ATOM     18  H   UNL     1       5.333  -5.797  -2.604  1.00  0.00     0.344 HD
ATOM     19  H   UNL     1       6.625  -4.906  -2.048  1.00  0.00     0.344 HD
ENDBRANCH  15  16
ENDBRANCH  14  15
ENDBRANCH  13  14
ENDBRANCH  12  13
ENDBRANCH   9  12
ENDBRANCH   7   8
BRANCH   7  20
ATOM     20  C   UNL     1       3.186  -4.493   4.485  1.00  0.00     0.023 C 
ATOM     21  C   UNL     1       2.359  -3.430   5.255  1.00  0.00     0.006 C 
ATOM     22  C   UNL     1       2.546  -5.869   4.716  1.00  0.00     0.006 C 
ATOM     23  C   UNL     1       2.284  -3.731   6.746  1.00  0.00     0.000 C 
ATOM     24  C   UNL     1       2.509  -6.196   6.211  1.00  0.00     0.000 C 
ATOM     25  C   UNL     1       1.759  -5.136   7.015  1.00  0.00     0.000 C 
ENDBRANCH   7  20
ENDBRANCH   5   7
ENDBRANCH   4   5
ENDBRANCH   3   4
ENDBRANCH   2   3
ENDBRANCH   1   2
BRANCH   1  26
ATOM     26  C   UNL     1       2.397  -0.334   2.315  1.00  0.00     0.188 C 
BRANCH  26  27
ATOM     27  C   UNL     1       1.583  -1.158   1.291  1.00  0.00     0.188 C 
BRANCH  27  28
ATOM     28  O   UNL     1       1.945  -1.186  -0.074  1.00  0.00    -0.376 OA
BRANCH  28  29
ATOM     29  C   UNL     1       1.983   0.023  -0.814  1.00  0.00     0.202 C 
BRANCH  29  30
ATOM     30  C   UNL     1       0.975   1.172  -0.612  1.00  0.00     0.261 C 
BRANCH  30  31
ATOM     31  O   UNL     1       0.586   1.457   0.737  1.00  0.00    -0.460 OA
BRANCH  31  32
ATOM     32  C   UNL     1      -0.683   1.103   1.065  1.00  0.00     0.338 C 
ATOM     33  O   UNL     1      -1.517   0.598   0.330  1.00  0.00    -0.246 OA
BRANCH  32  34
ATOM     34  C   UNL     1      -0.844   1.185   2.531  1.00  0.00     0.060 A 
ATOM     35  C   UNL     1      -1.203   0.020   3.227  1.00  0.00     0.016 A 
ATOM     36  C   UNL     1      -0.638   2.383   3.216  1.00  0.00     0.016 A 
ATOM     37  C   UNL     1      -1.382   0.055   4.608  1.00  0.00     0.010 A 
ATOM     38  C   UNL     1      -0.851   2.425   4.597  1.00  0.00     0.010 A 
ATOM     39  C   UNL     1      -1.256   1.269   5.292  1.00  0.00    -0.014 A 
BRANCH  39  40
ATOM     40  C   UNL     1      -1.775   1.378   6.676  1.00  0.00     0.031 A 
ATOM     41  C   UNL     1      -3.178   1.891   6.862  1.00  0.00     0.074 A 
ATOM     42  C   UNL     1      -1.039   1.008   7.739  1.00  0.00     0.049 A 
ATOM     43  N   UNL     1      -3.843   2.115   7.964  1.00  0.00    -0.248 NA
ATOM     44  C   UNL     1      -3.931   2.194   5.632  1.00  0.00     0.031 C 
ATOM     45  C   UNL     1       0.313   0.455   7.683  1.00  0.00     0.029 A 
ATOM     46  N   UNL     1      -1.330   1.053   9.080  1.00  0.00    -0.354 N 
ATOM     47  C   UNL     1      -5.087   2.591   7.563  1.00  0.00     0.074 A 
ATOM     48  C   UNL     1      -5.073   2.654   6.119  1.00  0.00     0.031 C 
ATOM     49  C   UNL     1       0.742   0.228   8.938  1.00  0.00     0.029 A 
ATOM     50  C   UNL     1      -0.291   0.647   9.884  1.00  0.00     0.049 A 
ATOM     51  H   UNL     1      -2.200   1.348   9.432  1.00  0.00     0.167 HD
ATOM     52  C   UNL     1      -6.147   2.937   8.329  1.00  0.00     0.037 A 
ATOM     53  C   UNL     1      -0.184   0.641  11.229  1.00  0.00     0.037 A 
ATOM     54  C   UNL     1      -6.151   2.880   9.767  1.00  0.00     0.049 A 
ATOM     55  C   UNL     1      -1.353   1.101  12.065  1.00  0.00     0.074 A 
ATOM     56  C   UNL     1      -7.178   3.198  10.637  1.00  0.00     0.029 A 
ATOM     57  N   UNL     1      -5.072   2.490  10.547  1.00  0.00    -0.354 N 
ATOM     58  N   UNL     1      -2.533   1.526  11.675  1.00  0.00    -0.248 NA
ATOM     59  C   UNL     1      -1.180   1.075  13.524  1.00  0.00     0.031 C 
ATOM     60  C   UNL     1      -6.702   3.054  11.945  1.00  0.00     0.029 A 
ATOM     61  C   UNL     1      -5.399   2.584  11.889  1.00  0.00     0.049 A 
ATOM     62  H   UNL     1      -4.201   2.191  10.197  1.00  0.00     0.167 HD
ATOM     63  C   UNL     1      -3.251   1.785  12.840  1.00  0.00     0.074 A 
ATOM     64  C   UNL     1      -2.376   1.459  13.947  1.00  0.00     0.031 C 
ATOM     65  C   UNL     1      -4.519   2.247  12.981  1.00  0.00     0.037 A 
BRANCH  52  66
ATOM     66  C   UNL     1      -7.379   3.438   7.626  1.00  0.00     0.058 A 
ATOM     67  C   UNL     1      -8.194   2.588   6.861  1.00  0.00     0.135 A 
ATOM     68  C   UNL     1      -7.762   4.784   7.739  1.00  0.00     0.135 A 
ATOM     69  F   UNL     1      -7.862   1.297   6.700  1.00  0.00    -0.206 F 
ATOM     70  C   UNL     1      -9.330   3.060   6.212  1.00  0.00     0.059 A 
ATOM     71  C   UNL     1      -8.911   5.271   7.124  1.00  0.00     0.059 A 
ATOM     72  F   UNL     1      -7.016   5.642   8.452  1.00  0.00    -0.206 F 
ATOM     73  C   UNL     1      -9.681   4.404   6.351  1.00  0.00     0.060 A 
BRANCH  73  74
ATOM     74  S   UNL     1     -11.164   4.998   5.510  1.00  0.00     0.124 S 
ATOM     75  O   UNL     1     -10.734   4.979   4.115  1.00  0.00    -0.237 OA
ATOM     76  O   UNL     1     -12.155   3.994   5.881  1.00  0.00    -0.237 OA
ATOM     77  O   UNL     1     -11.373   6.324   6.083  1.00  0.00    -0.744 OA
ENDBRANCH  73  74
ENDBRANCH  52  66
BRANCH  53  78
ATOM     78  C   UNL     1       1.081   0.194  11.875  1.00  0.00     0.058 A 
ATOM     79  C   UNL     1       1.134  -0.988  12.629  1.00  0.00     0.135 A 
ATOM     80  C   UNL     1       2.260   0.947  11.761  1.00  0.00     0.135 A 
ATOM     81  F   UNL     1       0.031  -1.736  12.781  1.00  0.00    -0.206 F 
ATOM     82  C   UNL     1       2.305  -1.400  13.259  1.00  0.00     0.059 A 
ATOM     83  C   UNL     1       3.450   0.541  12.357  1.00  0.00     0.059 A 
ATOM     84  F   UNL     1       2.267   2.083  11.045  1.00  0.00    -0.206 F 
ATOM     85  C   UNL     1       3.460  -0.630  13.113  1.00  0.00     0.060 A 
BRANCH  85  86
ATOM     86  S   UNL     1       4.986  -1.203  13.892  1.00  0.00     0.124 S 
ATOM     87  O   UNL     1       4.702  -0.967  15.303  1.00  0.00    -0.237 OA
ATOM     88  O   UNL     1       5.034  -2.600  13.474  1.00  0.00    -0.237 OA
ATOM     89  O   UNL     1       6.007  -0.343  13.301  1.00  0.00    -0.744 OA
ENDBRANCH  85  86
ENDBRANCH  53  78
BRANCH  65  90
ATOM     90  C   UNL     1      -5.061   2.386  14.380  1.00  0.00     0.058 A 
ATOM     91  C   UNL     1      -4.610   3.385  15.257  1.00  0.00     0.135 A 
ATOM     92  C   UNL     1      -6.087   1.536  14.829  1.00  0.00     0.135 A 
ATOM     93  F   UNL     1      -3.630   4.222  14.881  1.00  0.00    -0.206 F 
ATOM     94  C   UNL     1      -5.135   3.517  16.539  1.00  0.00     0.059 A 
ATOM     95  C   UNL     1      -6.648   1.672  16.094  1.00  0.00     0.059 A 
ATOM     96  F   UNL     1      -6.566   0.573  14.027  1.00  0.00    -0.206 F 
ATOM     97  C   UNL     1      -6.155   2.656  16.948  1.00  0.00     0.060 A 
BRANCH  97  98
ATOM     98  S   UNL     1      -6.843   2.854  18.606  1.00  0.00     0.124 S 
ATOM     99  O   UNL     1      -5.760   2.341  19.437  1.00  0.00    -0.237 OA
ATOM    100  O   UNL     1      -7.071   4.294  18.679  1.00  0.00    -0.237 OA
ATOM    101  O   UNL     1      -8.051   2.036  18.573  1.00  0.00    -0.744 OA
ENDBRANCH  97  98
ENDBRANCH  65  90
ENDBRANCH  39  40
ENDBRANCH  32  34
ENDBRANCH  31  32
ENDBRANCH  30  31
ENDBRANCH  29  30
ENDBRANCH  28  29
ENDBRANCH  27  28
ENDBRANCH  26  27
ENDBRANCH   1  26
TORSDOF 27
