REMARK SMILES Cc1ccc(C[C@@H](Cc2cc(F)cc(Br)c2)C(=O)OCCOCCOCCOC(=O)c2ccc(-c3c4nc(c(-c5c(F)cc(S(=O)(=O)[O-])cc5F)c5ccc([nH]5)c(-c5c(F)cc(S(=O)(=O)[O-])cc5F)c5nc(c(-c6c(F)cc(S(=O)(=O)[O-])cc6F)c6ccc3[nH]6)C=C5)C=C4)cc2)cc1
REMARK SMILES IDX 24 1 23 2 22 3 21 4 20 5 19 6 17 7 18 8 7 9 6 10 5 11 1 12
REMARK SMILES IDX 2 13 3 14 98 15 4 16 97 17 8 18 9 19 10 20 16 21 11 22 14 23
REMARK SMILES IDX 12 24 13 25 15 26 25 27 26 28 27 29 28 30 29 31 30 32 31 33
REMARK SMILES IDX 32 34 96 35 33 36 95 37 34 38 35 39 36 40 89 41 37 42 94 43
REMARK SMILES IDX 88 44 90 45 38 46 93 47 87 48 86 49 39 51 73 52 52 53 72 54
REMARK SMILES IDX 53 55 56 56 71 57 91 58 54 59 55 60 70 62 92 63 57 64 40 65
REMARK SMILES IDX 41 66 50 67 42 68 43 69 49 70 51 71 44 72 45 73 46 74 47 75
REMARK SMILES IDX 48 76 74 77 75 78 84 79 76 80 77 81 83 82 85 83 78 84 79 85
REMARK SMILES IDX 80 86 81 87 82 88 58 89 59 90 68 91 60 92 61 93 67 94 69 95
REMARK SMILES IDX 62 96 63 97 64 98 65 99 66 100
REMARK H PARENT 90 50 56 61
REMARK Flexibility Score: inf
ROOT
ATOM      1  C   UNL     1      -8.882   2.432   0.535  1.00  0.00     0.188 C 
ENDROOT
BRANCH   1   2
ATOM      2  C   UNL     1      -8.966   1.120  -0.260  1.00  0.00     0.188 C 
BRANCH   2   3
ATOM      3  O   UNL     1      -8.792  -0.209   0.302  1.00  0.00    -0.376 OA
BRANCH   3   4
ATOM      4  C   UNL     1      -7.990  -0.633   1.432  1.00  0.00     0.202 C 
BRANCH   4   5
ATOM      5  C   UNL     1      -6.467  -1.549   1.578  1.00  0.00     0.261 C 
BRANCH   5   6
ATOM      6  O   UNL     1      -4.856  -1.307   1.063  1.00  0.00    -0.463 OA
BRANCH   6   7
ATOM      7  C   UNL     1      -4.103  -1.200  -0.131  1.00  0.00     0.309 C 
ATOM      8  O   UNL     1      -4.522  -1.275  -1.287  1.00  0.00    -0.252 OA
BRANCH   7   9
ATOM      9  C   UNL     1      -2.616  -1.003  -0.149  1.00  0.00     0.108 C 
BRANCH   9  10
ATOM     10  C   UNL     1      -2.066  -0.669   1.221  1.00  0.00     0.051 C 
BRANCH  10  11
ATOM     11  C   UNL     1      -0.605  -0.327   1.076  1.00  0.00    -0.047 A 
ATOM     12  C   UNL     1       3.464   0.283  -0.152  1.00  0.00     0.044 C 
ATOM     13  C   UNL     1       2.047   0.091   0.289  1.00  0.00    -0.051 A 
ATOM     14  C   UNL     1       1.649  -1.154   0.779  1.00  0.00     0.004 A 
ATOM     15  C   UNL     1       1.107   1.124   0.179  1.00  0.00     0.004 A 
ATOM     16  C   UNL     1       0.346  -1.345   1.218  1.00  0.00     0.004 A 
ATOM     17  C   UNL     1      -0.217   0.913   0.555  1.00  0.00     0.004 A 
ENDBRANCH  10  11
ENDBRANCH   9  10
BRANCH   9  18
ATOM     18  C   UNL     1      -1.723  -2.039  -0.991  1.00  0.00     0.051 C 
BRANCH  18  19
ATOM     19  C   UNL     1      -2.235  -3.204  -1.797  1.00  0.00    -0.043 A 
ATOM     20  C   UNL     1      -1.905  -4.527  -1.451  1.00  0.00     0.043 A 
ATOM     21  C   UNL     1      -3.112  -3.005  -2.844  1.00  0.00     0.019 A 
ATOM     22  C   UNL     1      -2.635  -5.596  -1.962  1.00  0.00     0.124 A 
ATOM     23  C   UNL     1      -3.903  -4.069  -3.248  1.00  0.00     0.021 A 
ATOM     24  F   UNL     1      -2.389  -6.836  -1.522  1.00  0.00    -0.207 F 
ATOM     25  C   UNL     1      -3.694  -5.370  -2.815  1.00  0.00     0.055 A 
ATOM     26  Br  UNL     1      -5.459  -3.578  -4.112  1.00  0.00    -0.051 Br
ENDBRANCH  18  19
ENDBRANCH   9  18
ENDBRANCH   7   9
ENDBRANCH   6   7
ENDBRANCH   5   6
ENDBRANCH   4   5
ENDBRANCH   3   4
ENDBRANCH   2   3
ENDBRANCH   1   2
BRANCH   1  27
ATOM     27  O   UNL     1      -8.044   2.289   1.661  1.00  0.00    -0.376 OA
BRANCH  27  28
ATOM     28  C   UNL     1      -8.036   3.366   2.576  1.00  0.00     0.202 C 
BRANCH  28  29
ATOM     29  C   UNL     1      -7.295   4.624   2.092  1.00  0.00     0.261 C 
BRANCH  29  30
ATOM     30  O   UNL     1      -5.887   4.376   1.871  1.00  0.00    -0.460 OA
BRANCH  30  31
ATOM     31  C   UNL     1      -5.449   4.470   0.569  1.00  0.00     0.338 C 
ATOM     32  O   UNL     1      -5.176   5.537   0.041  1.00  0.00    -0.246 OA
BRANCH  31  33
ATOM     33  C   UNL     1      -5.351   3.106  -0.045  1.00  0.00     0.060 A 
ATOM     34  C   UNL     1      -5.516   2.757  -1.388  1.00  0.00     0.016 A 
ATOM     35  C   UNL     1      -5.324   2.068   0.818  1.00  0.00     0.016 A 
ATOM     36  C   UNL     1      -5.889   1.405  -1.824  1.00  0.00     0.010 A 
ATOM     37  C   UNL     1      -5.865   0.856   0.376  1.00  0.00     0.010 A 
ATOM     38  C   UNL     1      -6.192   0.364  -0.929  1.00  0.00    -0.014 A 
BRANCH  38  39
ATOM     39  C   UNL     1      -6.936  -1.163  -1.315  1.00  0.00     0.031 A 
ATOM     40  C   UNL     1      -6.718  -2.804  -0.781  1.00  0.00     0.074 A 
ATOM     41  C   UNL     1      -7.906  -1.183  -2.258  1.00  0.00     0.049 A 
ATOM     42  N   UNL     1      -7.650  -3.747  -0.632  1.00  0.00    -0.248 NA
ATOM     43  C   UNL     1      -5.442  -3.473  -0.404  1.00  0.00     0.031 C 
ATOM     44  C   UNL     1      -8.964  -2.180  -2.397  1.00  0.00     0.029 A 
ATOM     45  N   UNL     1      -8.011  -0.429  -3.414  1.00  0.00    -0.354 N 
ATOM     46  C   UNL     1      -7.094  -4.930  -0.107  1.00  0.00     0.074 A 
ATOM     47  C   UNL     1      -5.720  -4.654   0.119  1.00  0.00     0.031 C 
ATOM     48  C   UNL     1      -9.396  -2.198  -3.657  1.00  0.00     0.029 A 
ATOM     49  C   UNL     1      -8.605  -1.247  -4.391  1.00  0.00     0.049 A 
ATOM     50  H   UNL     1      -7.724   0.506  -3.531  1.00  0.00     0.167 HD
ATOM     51  C   UNL     1      -7.457  -6.238  -0.270  1.00  0.00     0.037 A 
ATOM     52  C   UNL     1      -8.098  -1.419  -5.637  1.00  0.00     0.037 A 
ATOM     53  C   UNL     1      -8.073  -6.448  -1.570  1.00  0.00     0.049 A 
ATOM     54  C   UNL     1      -7.973  -2.872  -6.084  1.00  0.00     0.074 A 
ATOM     55  C   UNL     1      -9.352  -6.293  -2.059  1.00  0.00     0.029 A 
ATOM     56  N   UNL     1      -7.257  -6.609  -2.693  1.00  0.00    -0.354 N 
ATOM     57  N   UNL     1      -8.340  -3.944  -5.409  1.00  0.00    -0.248 NA
ATOM     58  C   UNL     1      -7.321  -3.223  -7.344  1.00  0.00     0.031 C 
ATOM     59  C   UNL     1      -9.261  -6.185  -3.480  1.00  0.00     0.029 A 
ATOM     60  C   UNL     1      -7.932  -6.305  -3.876  1.00  0.00     0.049 A 
ATOM     61  H   UNL     1      -6.317  -6.902  -2.655  1.00  0.00     0.167 HD
ATOM     62  C   UNL     1      -7.659  -5.038  -5.937  1.00  0.00     0.074 A 
ATOM     63  C   UNL     1      -7.265  -4.561  -7.252  1.00  0.00     0.031 C 
ATOM     64  C   UNL     1      -7.244  -6.133  -5.188  1.00  0.00     0.037 A 
BRANCH  51  65
ATOM     65  C   UNL     1      -7.023  -7.332   0.755  1.00  0.00     0.058 A 
ATOM     66  C   UNL     1      -7.413  -8.682   0.617  1.00  0.00     0.135 A 
ATOM     67  C   UNL     1      -6.346  -7.068   1.985  1.00  0.00     0.135 A 
ATOM     68  F   UNL     1      -8.103  -9.080  -0.462  1.00  0.00    -0.206 F 
ATOM     69  C   UNL     1      -7.173  -9.667   1.606  1.00  0.00     0.059 A 
ATOM     70  C   UNL     1      -6.042  -8.041   2.951  1.00  0.00     0.059 A 
ATOM     71  F   UNL     1      -5.995  -5.824   2.347  1.00  0.00    -0.206 F 
ATOM     72  C   UNL     1      -6.499  -9.334   2.779  1.00  0.00     0.060 A 
BRANCH  72  73
ATOM     73  S   UNL     1      -6.314 -10.543   4.120  1.00  0.00     0.124 S 
ATOM     74  O   UNL     1      -7.662 -10.575   4.679  1.00  0.00    -0.237 OA
ATOM     75  O   UNL     1      -5.890 -11.749   3.418  1.00  0.00    -0.237 OA
ATOM     76  O   UNL     1      -5.301  -9.943   4.986  1.00  0.00    -0.744 OA
ENDBRANCH  72  73
ENDBRANCH  51  65
BRANCH  52  77
ATOM     77  C   UNL     1      -7.337  -0.198  -6.075  1.00  0.00     0.058 A 
ATOM     78  C   UNL     1      -8.129   0.953  -6.282  1.00  0.00     0.135 A 
ATOM     79  C   UNL     1      -5.982   0.025  -5.761  1.00  0.00     0.135 A 
ATOM     80  F   UNL     1      -9.435   0.819  -6.568  1.00  0.00    -0.206 F 
ATOM     81  C   UNL     1      -7.661   2.237  -6.016  1.00  0.00     0.059 A 
ATOM     82  C   UNL     1      -5.483   1.314  -5.506  1.00  0.00     0.059 A 
ATOM     83  F   UNL     1      -5.147  -1.004  -5.574  1.00  0.00    -0.206 F 
ATOM     84  C   UNL     1      -6.352   2.404  -5.576  1.00  0.00     0.060 A 
BRANCH  84  85
ATOM     85  S   UNL     1      -5.916   4.028  -4.905  1.00  0.00     0.124 S 
ATOM     86  O   UNL     1      -6.086   4.901  -6.059  1.00  0.00    -0.237 OA
ATOM     87  O   UNL     1      -6.919   4.181  -3.853  1.00  0.00    -0.237 OA
ATOM     88  O   UNL     1      -4.544   3.849  -4.442  1.00  0.00    -0.744 OA
ENDBRANCH  84  85
ENDBRANCH  52  77
BRANCH  64  89
ATOM     89  C   UNL     1      -6.098  -7.076  -5.668  1.00  0.00     0.058 A 
ATOM     90  C   UNL     1      -5.169  -6.763  -6.690  1.00  0.00     0.135 A 
ATOM     91  C   UNL     1      -5.855  -8.340  -5.080  1.00  0.00     0.135 A 
ATOM     92  F   UNL     1      -4.993  -5.511  -7.129  1.00  0.00    -0.206 F 
ATOM     93  C   UNL     1      -4.307  -7.698  -7.275  1.00  0.00     0.059 A 
ATOM     94  C   UNL     1      -4.924  -9.267  -5.584  1.00  0.00     0.059 A 
ATOM     95  F   UNL     1      -6.492  -8.720  -3.964  1.00  0.00    -0.206 F 
ATOM     96  C   UNL     1      -4.226  -8.973  -6.745  1.00  0.00     0.060 A 
BRANCH  96  97
ATOM     97  S   UNL     1      -3.199 -10.209  -7.566  1.00  0.00     0.124 S 
ATOM     98  O   UNL     1      -4.112 -10.711  -8.588  1.00  0.00    -0.237 OA
ATOM     99  O   UNL     1      -2.073  -9.423  -8.064  1.00  0.00    -0.237 OA
ATOM    100  O   UNL     1      -2.875 -11.146  -6.495  1.00  0.00    -0.744 OA
ENDBRANCH  96  97
ENDBRANCH  64  89
ENDBRANCH  38  39
ENDBRANCH  31  33
ENDBRANCH  30  31
ENDBRANCH  29  30
ENDBRANCH  28  29
ENDBRANCH  27  28
ENDBRANCH   1  27
TORSDOF 24
