REMARK SMILES CN(CC(N)=O)S(=O)(=O)c1ccc(C(=O)OCCOCCOCCOC(=O)c2ccc(-c3c4nc(c(-c5c(F)cc(S(=O)(=O)[O-])cc5F)c5ccc([nH]5)c(-c5c(F)cc(S(=O)(=O)[O-])cc5F)c5nc(c(-c6c(F)cc(S(=O)(=O)[O-])cc6F)c6ccc3[nH]6)C=C5)C=C4)cc2)cc1Br
REMARK SMILES IDX 20 1 19 2 18 3 17 4 16 5 14 6 15 7 13 8 10 9 11 10 95 11
REMARK SMILES IDX 12 12 94 13 96 14 7 15 8 16 9 17 2 18 1 19 3 20 4 21 5 22
REMARK SMILES IDX 6 23 21 26 22 27 23 28 24 29 25 30 26 31 27 32 28 33 29 34
REMARK SMILES IDX 93 35 30 36 92 37 31 38 32 39 33 40 86 41 34 42 91 43 85 44
REMARK SMILES IDX 87 45 35 46 90 47 84 48 83 49 36 51 70 52 49 53 69 54 50 55
REMARK SMILES IDX 53 56 68 57 88 58 51 59 52 60 67 62 89 63 54 64 37 65 38 66
REMARK SMILES IDX 47 67 39 68 40 69 46 70 48 71 41 72 42 73 43 74 44 75 45 76
REMARK SMILES IDX 71 77 72 78 81 79 73 80 74 81 80 82 82 83 75 84 76 85 77 86
REMARK SMILES IDX 78 87 79 88 55 89 56 90 65 91 57 92 58 93 64 94 66 95 59 96
REMARK SMILES IDX 60 97 61 98 62 99 63 100
REMARK H PARENT 5 24 5 25 87 50 53 61
REMARK Flexibility Score: inf
ROOT
ATOM      1  C   UNL     1      -2.228   7.049   5.489  1.00  0.00     0.188 C 
ENDROOT
BRANCH   1   2
ATOM      2  O   UNL     1      -2.038   8.249   6.235  1.00  0.00    -0.376 OA
BRANCH   2   3
ATOM      3  C   UNL     1      -0.891   9.055   5.981  1.00  0.00     0.202 C 
BRANCH   3   4
ATOM      4  C   UNL     1       0.485   8.400   6.115  1.00  0.00     0.261 C 
BRANCH   4   5
ATOM      5  O   UNL     1       0.679   7.295   5.212  1.00  0.00    -0.460 OA
BRANCH   5   6
ATOM      6  C   UNL     1       1.050   6.135   5.806  1.00  0.00     0.338 C 
ATOM      7  O   UNL     1       1.318   5.970   6.984  1.00  0.00    -0.246 OA
BRANCH   6   8
ATOM      8  C   UNL     1       0.961   5.000   4.860  1.00  0.00     0.061 A 
ATOM      9  C   UNL     1       1.007   2.693   3.270  1.00  0.00     0.096 A 
ATOM     10  C   UNL     1       0.427   2.661   4.548  1.00  0.00     0.024 A 
ATOM     11  C   UNL     1       1.499   3.903   2.759  1.00  0.00     0.038 A 
ATOM     12  C   UNL     1       0.412   3.808   5.341  1.00  0.00     0.017 A 
ATOM     13  C   UNL     1       1.464   5.063   3.556  1.00  0.00     0.032 A 
ATOM     14  Br  UNL     1       2.249   4.100   1.026  1.00  0.00    -0.049 Br
BRANCH   9  15
ATOM     15  S   UNL     1       1.311   1.123   2.484  1.00  0.00     0.244 S 
ATOM     16  O   UNL     1       0.651   0.107   3.280  1.00  0.00    -0.207 OA
ATOM     17  O   UNL     1       2.736   1.051   2.246  1.00  0.00    -0.207 OA
BRANCH  15  18
ATOM     18  N   UNL     1       0.507   1.187   0.987  1.00  0.00    -0.192 NA
ATOM     19  C   UNL     1       1.001   0.149   0.042  1.00  0.00     0.125 C 
BRANCH  18  20
ATOM     20  C   UNL     1      -0.978   1.245   1.029  1.00  0.00     0.201 C 
BRANCH  20  21
ATOM     21  C   UNL     1      -1.685  -0.033   1.460  1.00  0.00     0.232 C 
ATOM     22  N   UNL     1      -2.438   0.048   2.595  1.00  0.00    -0.369 N 
ATOM     23  O   UNL     1      -1.617  -1.082   0.826  1.00  0.00    -0.274 OA
ATOM     24  H   UNL     1      -2.486   0.894   3.096  1.00  0.00     0.159 HD
ATOM     25  H   UNL     1      -2.935  -0.741   2.913  1.00  0.00     0.159 HD
ENDBRANCH  20  21
ENDBRANCH  18  20
ENDBRANCH  15  18
ENDBRANCH   9  15
ENDBRANCH   6   8
ENDBRANCH   5   6
ENDBRANCH   4   5
ENDBRANCH   3   4
ENDBRANCH   2   3
ENDBRANCH   1   2
BRANCH   1  26
ATOM     26  C   UNL     1      -2.067   7.096   3.956  1.00  0.00     0.188 C 
BRANCH  26  27
ATOM     27  O   UNL     1      -1.880   8.403   3.452  1.00  0.00    -0.376 OA
BRANCH  27  28
ATOM     28  C   UNL     1      -2.954   9.024   2.768  1.00  0.00     0.202 C 
BRANCH  28  29
ATOM     29  C   UNL     1      -4.327   9.159   3.447  1.00  0.00     0.261 C 
BRANCH  29  30
ATOM     30  O   UNL     1      -4.821   8.019   4.160  1.00  0.00    -0.460 OA
BRANCH  30  31
ATOM     31  C   UNL     1      -5.308   6.998   3.422  1.00  0.00     0.338 C 
ATOM     32  O   UNL     1      -5.306   6.911   2.208  1.00  0.00    -0.246 OA
BRANCH  31  33
ATOM     33  C   UNL     1      -5.690   5.906   4.344  1.00  0.00     0.060 A 
ATOM     34  C   UNL     1      -5.160   4.629   4.125  1.00  0.00     0.016 A 
ATOM     35  C   UNL     1      -6.586   6.130   5.395  1.00  0.00     0.016 A 
ATOM     36  C   UNL     1      -5.572   3.559   4.921  1.00  0.00     0.010 A 
ATOM     37  C   UNL     1      -7.009   5.054   6.182  1.00  0.00     0.010 A 
ATOM     38  C   UNL     1      -6.537   3.757   5.919  1.00  0.00    -0.014 A 
BRANCH  38  39
ATOM     39  C   UNL     1      -7.214   2.580   6.517  1.00  0.00     0.031 A 
ATOM     40  C   UNL     1      -8.493   2.102   5.881  1.00  0.00     0.074 A 
ATOM     41  C   UNL     1      -6.696   1.927   7.572  1.00  0.00     0.049 A 
ATOM     42  N   UNL     1      -9.258   1.094   6.210  1.00  0.00    -0.248 NA
ATOM     43  C   UNL     1      -8.969   2.863   4.713  1.00  0.00     0.031 C 
ATOM     44  C   UNL     1      -5.455   2.278   8.260  1.00  0.00     0.029 A 
ATOM     45  N   UNL     1      -7.159   0.828   8.251  1.00  0.00    -0.354 N 
ATOM     46  C   UNL     1     -10.302   1.099   5.291  1.00  0.00     0.074 A 
ATOM     47  C   UNL     1     -10.088   2.224   4.409  1.00  0.00     0.031 C 
ATOM     48  C   UNL     1      -5.260   1.413   9.273  1.00  0.00     0.029 A 
ATOM     49  C   UNL     1      -6.370   0.462   9.315  1.00  0.00     0.049 A 
ATOM     50  H   UNL     1      -7.980   0.346   7.998  1.00  0.00     0.167 HD
ATOM     51  C   UNL     1     -11.341   0.238   5.184  1.00  0.00     0.037 A 
ATOM     52  C   UNL     1      -6.536  -0.521  10.223  1.00  0.00     0.037 A 
ATOM     53  C   UNL     1     -11.563  -0.873   6.068  1.00  0.00     0.049 A 
ATOM     54  C   UNL     1      -7.727  -1.439  10.114  1.00  0.00     0.074 A 
ATOM     55  C   UNL     1     -12.590  -1.800   6.046  1.00  0.00     0.029 A 
ATOM     56  N   UNL     1     -10.747  -1.204   7.138  1.00  0.00    -0.354 N 
ATOM     57  N   UNL     1      -8.692  -1.437   9.225  1.00  0.00    -0.248 NA
ATOM     58  C   UNL     1      -7.848  -2.497  11.128  1.00  0.00     0.031 C 
ATOM     59  C   UNL     1     -12.411  -2.674   7.124  1.00  0.00     0.029 A 
ATOM     60  C   UNL     1     -11.251  -2.315   7.791  1.00  0.00     0.049 A 
ATOM     61  H   UNL     1      -9.929  -0.720   7.396  1.00  0.00     0.167 HD
ATOM     62  C   UNL     1      -9.515  -2.511   9.552  1.00  0.00     0.074 A 
ATOM     63  C   UNL     1      -8.933  -3.141  10.719  1.00  0.00     0.031 C 
ATOM     64  C   UNL     1     -10.646  -2.940   8.940  1.00  0.00     0.037 A 
BRANCH  51  65
ATOM     65  C   UNL     1     -12.327   0.487   4.079  1.00  0.00     0.058 A 
ATOM     66  C   UNL     1     -12.010   0.215   2.738  1.00  0.00     0.135 A 
ATOM     67  C   UNL     1     -13.602   0.999   4.362  1.00  0.00     0.135 A 
ATOM     68  F   UNL     1     -10.794  -0.252   2.413  1.00  0.00    -0.206 F 
ATOM     69  C   UNL     1     -12.915   0.466   1.713  1.00  0.00     0.059 A 
ATOM     70  C   UNL     1     -14.532   1.238   3.355  1.00  0.00     0.059 A 
ATOM     71  F   UNL     1     -13.951   1.284   5.627  1.00  0.00    -0.206 F 
ATOM     72  C   UNL     1     -14.173   0.982   2.031  1.00  0.00     0.060 A 
BRANCH  72  73
ATOM     73  S   UNL     1     -15.335   1.315   0.691  1.00  0.00     0.124 S 
ATOM     74  O   UNL     1     -14.780   2.541   0.125  1.00  0.00    -0.237 OA
ATOM     75  O   UNL     1     -15.209   0.121  -0.138  1.00  0.00    -0.237 OA
ATOM     76  O   UNL     1     -16.613   1.464   1.381  1.00  0.00    -0.744 OA
ENDBRANCH  72  73
ENDBRANCH  51  65
BRANCH  52  77
ATOM     77  C   UNL     1      -5.548  -0.694  11.321  1.00  0.00     0.058 A 
ATOM     78  C   UNL     1      -4.674  -1.790  11.345  1.00  0.00     0.135 A 
ATOM     79  C   UNL     1      -5.471   0.227  12.377  1.00  0.00     0.135 A 
ATOM     80  F   UNL     1      -4.719  -2.704  10.363  1.00  0.00    -0.206 F 
ATOM     81  C   UNL     1      -3.767  -1.977  12.383  1.00  0.00     0.059 A 
ATOM     82  C   UNL     1      -4.558   0.074  13.415  1.00  0.00     0.059 A 
ATOM     83  F   UNL     1      -6.280   1.298  12.395  1.00  0.00    -0.206 F 
ATOM     84  C   UNL     1      -3.717  -1.038  13.415  1.00  0.00     0.060 A 
BRANCH  84  85
ATOM     85  S   UNL     1      -2.509  -1.264  14.739  1.00  0.00     0.124 S 
ATOM     86  O   UNL     1      -3.131  -2.322  15.526  1.00  0.00    -0.237 OA
ATOM     87  O   UNL     1      -1.308  -1.639  13.999  1.00  0.00    -0.237 OA
ATOM     88  O   UNL     1      -2.460   0.050  15.373  1.00  0.00    -0.744 OA
ENDBRANCH  84  85
ENDBRANCH  52  77
BRANCH  64  89
ATOM     89  C   UNL     1     -11.306  -4.176   9.484  1.00  0.00     0.058 A 
ATOM     90  C   UNL     1     -12.050  -4.154  10.673  1.00  0.00     0.135 A 
ATOM     91  C   UNL     1     -11.240  -5.384   8.771  1.00  0.00     0.135 A 
ATOM     92  F   UNL     1     -12.142  -3.025  11.393  1.00  0.00    -0.206 F 
ATOM     93  C   UNL     1     -12.690  -5.295  11.149  1.00  0.00     0.059 A 
ATOM     94  C   UNL     1     -11.890  -6.530   9.216  1.00  0.00     0.059 A 
ATOM     95  F   UNL     1     -10.551  -5.453   7.621  1.00  0.00    -0.206 F 
ATOM     96  C   UNL     1     -12.604  -6.479  10.413  1.00  0.00     0.060 A 
BRANCH  96  97
ATOM     97  S   UNL     1     -13.466  -7.945  11.018  1.00  0.00     0.124 S 
ATOM     98  O   UNL     1     -12.571  -8.393  12.080  1.00  0.00    -0.237 OA
ATOM     99  O   UNL     1     -14.747  -7.399  11.457  1.00  0.00    -0.237 OA
ATOM    100  O   UNL     1     -13.530  -8.809   9.843  1.00  0.00    -0.744 OA
ENDBRANCH  96  97
ENDBRANCH  64  89
ENDBRANCH  38  39
ENDBRANCH  31  33
ENDBRANCH  30  31
ENDBRANCH  29  30
ENDBRANCH  28  29
ENDBRANCH  27  28
ENDBRANCH  26  27
ENDBRANCH   1  26
TORSDOF 24
