REMARK SMILES O=C(Cc1cccc(-c2ccn(C(F)F)c(=O)c2)c1)OCCOCCOCCOC(=O)c1ccc(-c2c3nc(c(-c4c(F)cc(S(=O)(=O)[O-])cc4F)c4ccc([nH]4)c(-c4c(F)cc(S(=O)(=O)[O-])cc4F)c4nc(c(-c5c(F)cc(S(=O)(=O)[O-])cc5F)c5ccc2[nH]5)C=C4)C=C3)cc1
REMARK SMILES IDX 24 1 23 2 22 3 21 4 20 5 2 6 1 7 3 8 4 9 5 10 19 11 6 12
REMARK SMILES IDX 8 13 7 14 9 15 10 16 18 17 11 18 16 19 12 20 17 21 13 22
REMARK SMILES IDX 14 23 15 24 25 25 26 26 27 27 28 28 29 29 30 30 31 31 32 32
REMARK SMILES IDX 33 33 97 34 34 35 96 36 35 37 36 38 37 39 90 40 38 41 95 42
REMARK SMILES IDX 89 43 91 44 39 45 94 46 88 47 87 48 40 50 74 51 53 52 73 53
REMARK SMILES IDX 54 54 57 55 72 56 92 57 55 58 56 59 71 61 93 62 58 63 41 64
REMARK SMILES IDX 42 65 51 66 43 67 44 68 50 69 52 70 45 71 46 72 47 73 48 74
REMARK SMILES IDX 49 75 75 76 76 77 85 78 77 79 78 80 84 81 86 82 79 83 80 84
REMARK SMILES IDX 81 85 82 86 83 87 59 88 60 89 69 90 61 91 62 92 68 93 70 94
REMARK SMILES IDX 63 95 64 96 65 97 66 98 67 99
REMARK H PARENT 91 49 57 60
REMARK Flexibility Score: inf
ROOT
ATOM      1  C   UNL     1       2.747   1.576   0.980  1.00  0.00     0.188 C 
ENDROOT
BRANCH   1   2
ATOM      2  O   UNL     1       4.087   1.105   0.912  1.00  0.00    -0.376 OA
BRANCH   2   3
ATOM      3  C   UNL     1       4.671   0.952  -0.372  1.00  0.00     0.202 C 
BRANCH   3   4
ATOM      4  C   UNL     1       4.119  -0.110  -1.328  1.00  0.00     0.261 C 
BRANCH   4   5
ATOM      5  O   UNL     1       2.742  -0.464  -1.180  1.00  0.00    -0.463 OA
BRANCH   5   6
ATOM      6  C   UNL     1       2.311  -1.555  -0.495  1.00  0.00     0.310 C 
ATOM      7  O   UNL     1       1.265  -2.105  -0.838  1.00  0.00    -0.252 OA
BRANCH   6   8
ATOM      8  C   UNL     1       3.067  -2.004   0.741  1.00  0.00     0.158 C 
BRANCH   8   9
ATOM      9  C   UNL     1       4.100  -3.062   0.472  1.00  0.00    -0.036 A 
ATOM     10  C   UNL     1       3.732  -4.396   0.273  1.00  0.00     0.004 A 
ATOM     11  C   UNL     1       5.443  -2.700   0.324  1.00  0.00     0.013 A 
ATOM     12  C   UNL     1       4.689  -5.335  -0.114  1.00  0.00     0.001 A 
ATOM     13  C   UNL     1       6.384  -3.605  -0.174  1.00  0.00    -0.018 A 
ATOM     14  C   UNL     1       6.004  -4.937  -0.364  1.00  0.00     0.009 A 
BRANCH  13  15
ATOM     15  C   UNL     1       7.683  -3.070  -0.628  1.00  0.00    -0.011 A 
ATOM     16  C   UNL     1       8.581  -2.315   0.224  1.00  0.00     0.027 A 
ATOM     17  C   UNL     1       7.948  -3.151  -1.944  1.00  0.00     0.080 A 
ATOM     18  C   UNL     1       9.652  -1.702  -0.293  1.00  0.00     0.095 A 
ATOM     19  C   UNL     1       9.146  -2.493  -2.531  1.00  0.00     0.255 A 
ATOM     20  N   UNL     1       9.940  -1.785  -1.643  1.00  0.00    -0.258 N 
ATOM     21  O   UNL     1       9.339  -2.594  -3.738  1.00  0.00    -0.269 OA
BRANCH  20  22
ATOM     22  C   UNL     1      11.091  -1.118  -2.191  1.00  0.00     0.451 C 
ATOM     23  F   UNL     1      11.924  -1.997  -2.800  1.00  0.00    -0.185 F 
ATOM     24  F   UNL     1      10.725  -0.186  -3.106  1.00  0.00    -0.185 F 
ENDBRANCH  20  22
ENDBRANCH  13  15
ENDBRANCH   8   9
ENDBRANCH   6   8
ENDBRANCH   5   6
ENDBRANCH   4   5
ENDBRANCH   3   4
ENDBRANCH   2   3
ENDBRANCH   1   2
BRANCH   1  25
ATOM     25  C   UNL     1       2.404   3.012   0.555  1.00  0.00     0.188 C 
BRANCH  25  26
ATOM     26  O   UNL     1       3.372   3.789  -0.126  1.00  0.00    -0.376 OA
BRANCH  26  27
ATOM     27  C   UNL     1       4.550   4.179   0.578  1.00  0.00     0.202 C 
BRANCH  27  28
ATOM     28  C   UNL     1       4.408   4.748   1.989  1.00  0.00     0.261 C 
BRANCH  28  29
ATOM     29  O   UNL     1       4.056   3.731   2.948  1.00  0.00    -0.460 OA
BRANCH  29  30
ATOM     30  C   UNL     1       3.008   4.042   3.739  1.00  0.00     0.338 C 
ATOM     31  O   UNL     1       2.348   5.081   3.709  1.00  0.00    -0.246 OA
BRANCH  30  32
ATOM     32  C   UNL     1       2.628   2.918   4.603  1.00  0.00     0.060 A 
ATOM     33  C   UNL     1       1.327   2.413   4.483  1.00  0.00     0.016 A 
ATOM     34  C   UNL     1       3.460   2.503   5.646  1.00  0.00     0.016 A 
ATOM     35  C   UNL     1       0.824   1.550   5.452  1.00  0.00     0.010 A 
ATOM     36  C   UNL     1       2.948   1.645   6.626  1.00  0.00     0.010 A 
ATOM     37  C   UNL     1       1.610   1.214   6.563  1.00  0.00    -0.014 A 
BRANCH  37  38
ATOM     38  C   UNL     1       0.950   0.618   7.752  1.00  0.00     0.031 A 
ATOM     39  C   UNL     1       0.497   1.536   8.859  1.00  0.00     0.074 A 
ATOM     40  C   UNL     1       0.704  -0.701   7.829  1.00  0.00     0.049 A 
ATOM     41  N   UNL     1      -0.126   1.250   9.973  1.00  0.00    -0.248 NA
ATOM     42  C   UNL     1       0.786   2.970   8.684  1.00  0.00     0.031 C 
ATOM     43  C   UNL     1       1.055  -1.688   6.810  1.00  0.00     0.029 A 
ATOM     44  N   UNL     1       0.092  -1.434   8.814  1.00  0.00    -0.354 N 
ATOM     45  C   UNL     1      -0.299   2.462  10.633  1.00  0.00     0.074 A 
ATOM     46  C   UNL     1       0.310   3.483   9.808  1.00  0.00     0.031 C 
ATOM     47  C   UNL     1       0.653  -2.902   7.225  1.00  0.00     0.029 A 
ATOM     48  C   UNL     1       0.034  -2.780   8.545  1.00  0.00     0.049 A 
ATOM     49  H   UNL     1      -0.271  -1.034   9.637  1.00  0.00     0.167 HD
ATOM     50  C   UNL     1      -0.918   2.707  11.812  1.00  0.00     0.037 A 
ATOM     51  C   UNL     1      -0.458  -3.795   9.283  1.00  0.00     0.037 A 
ATOM     52  C   UNL     1      -1.531   1.695  12.631  1.00  0.00     0.049 A 
ATOM     53  C   UNL     1      -1.095  -3.505  10.617  1.00  0.00     0.074 A 
ATOM     54  C   UNL     1      -2.205   1.849  13.831  1.00  0.00     0.029 A 
ATOM     55  N   UNL     1      -1.539   0.340  12.339  1.00  0.00    -0.354 N 
ATOM     56  N   UNL     1      -1.280  -2.351  11.213  1.00  0.00    -0.248 NA
ATOM     57  C   UNL     1      -1.599  -4.659  11.377  1.00  0.00     0.031 C 
ATOM     58  C   UNL     1      -2.584   0.581  14.285  1.00  0.00     0.029 A 
ATOM     59  C   UNL     1      -2.185  -0.357  13.346  1.00  0.00     0.049 A 
ATOM     60  H   UNL     1      -1.143  -0.067  11.535  1.00  0.00     0.167 HD
ATOM     61  C   UNL     1      -1.951  -2.636  12.398  1.00  0.00     0.074 A 
ATOM     62  C   UNL     1      -2.142  -4.071  12.435  1.00  0.00     0.031 C 
ATOM     63  C   UNL     1      -2.377  -1.786  13.366  1.00  0.00     0.037 A 
BRANCH  50  64
ATOM     64  C   UNL     1      -0.934   4.129  12.300  1.00  0.00     0.058 A 
ATOM     65  C   UNL     1      -1.748   5.106  11.707  1.00  0.00     0.135 A 
ATOM     66  C   UNL     1      -0.131   4.515  13.385  1.00  0.00     0.135 A 
ATOM     67  F   UNL     1      -2.521   4.793  10.654  1.00  0.00    -0.206 F 
ATOM     68  C   UNL     1      -1.743   6.424  12.151  1.00  0.00     0.059 A 
ATOM     69  C   UNL     1      -0.127   5.822  13.862  1.00  0.00     0.059 A 
ATOM     70  F   UNL     1       0.668   3.620  13.987  1.00  0.00    -0.206 F 
ATOM     71  C   UNL     1      -0.924   6.774  13.227  1.00  0.00     0.060 A 
BRANCH  71  72
ATOM     72  S   UNL     1      -0.914   8.490  13.787  1.00  0.00     0.124 S 
ATOM     73  O   UNL     1      -0.119   9.130  12.744  1.00  0.00    -0.237 OA
ATOM     74  O   UNL     1      -2.334   8.826  13.797  1.00  0.00    -0.237 OA
ATOM     75  O   UNL     1      -0.282   8.414  15.101  1.00  0.00    -0.744 OA
ENDBRANCH  71  72
ENDBRANCH  50  64
BRANCH  51  76
ATOM     76  C   UNL     1      -0.378  -5.189   8.774  1.00  0.00     0.058 A 
ATOM     77  C   UNL     1      -1.529  -5.875   8.358  1.00  0.00     0.135 A 
ATOM     78  C   UNL     1       0.850  -5.866   8.701  1.00  0.00     0.135 A 
ATOM     79  F   UNL     1      -2.726  -5.273   8.421  1.00  0.00    -0.206 F 
ATOM     80  C   UNL     1      -1.470  -7.187   7.902  1.00  0.00     0.059 A 
ATOM     81  C   UNL     1       0.937  -7.170   8.227  1.00  0.00     0.059 A 
ATOM     82  F   UNL     1       1.981  -5.250   9.079  1.00  0.00    -0.206 F 
ATOM     83  C   UNL     1      -0.230  -7.827   7.839  1.00  0.00     0.060 A 
BRANCH  83  84
ATOM     84  S   UNL     1      -0.155  -9.514   7.199  1.00  0.00     0.124 S 
ATOM     85  O   UNL     1      -0.687 -10.277   8.322  1.00  0.00    -0.237 OA
ATOM     86  O   UNL     1      -1.009  -9.434   6.018  1.00  0.00    -0.237 OA
ATOM     87  O   UNL     1       1.266  -9.702   6.923  1.00  0.00    -0.744 OA
ENDBRANCH  83  84
ENDBRANCH  51  76
BRANCH  63  88
ATOM     88  C   UNL     1      -3.132  -2.377  14.525  1.00  0.00     0.058 A 
ATOM     89  C   UNL     1      -2.488  -3.119  15.527  1.00  0.00     0.135 A 
ATOM     90  C   UNL     1      -4.514  -2.161  14.656  1.00  0.00     0.135 A 
ATOM     91  F   UNL     1      -1.169  -3.357  15.449  1.00  0.00    -0.206 F 
ATOM     92  C   UNL     1      -3.192  -3.653  16.602  1.00  0.00     0.059 A 
ATOM     93  C   UNL     1      -5.233  -2.664  15.735  1.00  0.00     0.059 A 
ATOM     94  F   UNL     1      -5.176  -1.446  13.733  1.00  0.00    -0.206 F 
ATOM     95  C   UNL     1      -4.566  -3.423  16.696  1.00  0.00     0.060 A 
BRANCH  95  96
ATOM     96  S   UNL     1      -5.469  -4.104  18.104  1.00  0.00     0.124 S 
ATOM     97  O   UNL     1      -5.591  -5.506  17.723  1.00  0.00    -0.237 OA
ATOM     98  O   UNL     1      -4.569  -3.826  19.220  1.00  0.00    -0.237 OA
ATOM     99  O   UNL     1      -6.714  -3.341  18.108  1.00  0.00    -0.744 OA
ENDBRANCH  95  96
ENDBRANCH  63  88
ENDBRANCH  37  38
ENDBRANCH  30  32
ENDBRANCH  29  30
ENDBRANCH  28  29
ENDBRANCH  27  28
ENDBRANCH  26  27
ENDBRANCH  25  26
ENDBRANCH   1  25
TORSDOF 23
