REMARK SMILES O=C(OCCOCCOCCOC(=O)c1ccc(-n2cc(CSc3nc4ccccc4c(=O)n3-c3ccc(Br)cc3)nn2)cc1)c1ccc(-c2c3nc(c(-c4c(F)cc(S(=O)(=O)[O-])cc4F)c4ccc([nH]4)c(-c4c(F)cc(S(=O)(=O)[O-])cc4F)c4nc(c(-c5c(F)cc(S(=O)(=O)[O-])cc5F)c5ccc2[nH]5)C=C4)C=C3)cc1
REMARK SMILES IDX 8 1 7 2 6 3 5 4 4 5 3 6 2 7 1 8 46 9 47 10 111 11 48 12
REMARK SMILES IDX 110 13 49 14 50 15 51 16 104 17 52 18 109 19 103 20 105 21
REMARK SMILES IDX 53 22 108 23 102 24 101 25 54 27 88 28 67 29 87 30 68 31
REMARK SMILES IDX 71 32 86 33 106 34 69 35 70 36 85 38 107 39 72 40 55 41
REMARK SMILES IDX 56 42 65 43 57 44 58 45 64 46 66 47 59 48 60 49 61 50 62 51
REMARK SMILES IDX 63 52 89 53 90 54 99 55 91 56 92 57 98 58 100 59 93 60 94 61
REMARK SMILES IDX 95 62 96 63 97 64 73 65 74 66 83 67 75 68 76 69 82 70 84 71
REMARK SMILES IDX 77 72 78 73 79 74 80 75 81 76 9 77 10 78 11 79 12 80 13 81
REMARK SMILES IDX 14 82 15 83 16 84 45 85 17 86 44 87 18 88 19 89 20 90 43 91
REMARK SMILES IDX 21 92 42 93 22 94 23 95 24 96 25 97 34 98 26 99 32 100
REMARK SMILES IDX 27 101 31 102 33 103 28 104 30 105 29 106 35 107 36 108
REMARK SMILES IDX 41 109 37 110 40 111 38 112 39 113
REMARK H PARENT 105 26 71 37
REMARK Flexibility Score: inf
ROOT
ATOM      1  C   UNL     1       2.506  -1.130  -2.023  1.00  0.00     0.188 C 
ENDROOT
BRANCH   1   2
ATOM      2  C   UNL     1       3.463   0.040  -1.672  1.00  0.00     0.188 C 
BRANCH   2   3
ATOM      3  O   UNL     1       4.816  -0.324  -1.524  1.00  0.00    -0.376 OA
BRANCH   3   4
ATOM      4  C   UNL     1       5.426  -0.411  -0.251  1.00  0.00     0.202 C 
BRANCH   4   5
ATOM      5  C   UNL     1       4.695  -0.898   1.009  1.00  0.00     0.261 C 
BRANCH   5   6
ATOM      6  O   UNL     1       3.293  -1.129   0.883  1.00  0.00    -0.460 OA
BRANCH   6   7
ATOM      7  C   UNL     1       2.233  -0.365   1.206  1.00  0.00     0.338 C 
ATOM      8  O   UNL     1       1.118  -0.885   1.163  1.00  0.00    -0.246 OA
BRANCH   7   9
ATOM      9  C   UNL     1       2.294   1.092   1.518  1.00  0.00     0.060 A 
ATOM     10  C   UNL     1       3.436   1.844   1.798  1.00  0.00     0.016 A 
ATOM     11  C   UNL     1       1.038   1.730   1.565  1.00  0.00     0.016 A 
ATOM     12  C   UNL     1       3.308   3.100   2.370  1.00  0.00     0.010 A 
ATOM     13  C   UNL     1       0.905   2.995   2.099  1.00  0.00     0.010 A 
ATOM     14  C   UNL     1       2.036   3.622   2.597  1.00  0.00    -0.014 A 
BRANCH  14  15
ATOM     15  C   UNL     1       1.921   4.900   3.274  1.00  0.00     0.031 A 
ATOM     16  C   UNL     1       2.463   6.021   2.470  1.00  0.00     0.074 A 
ATOM     17  C   UNL     1       1.293   5.014   4.463  1.00  0.00     0.049 A 
ATOM     18  N   UNL     1       3.531   6.709   2.701  1.00  0.00    -0.248 NA
ATOM     19  C   UNL     1       1.879   6.261   1.138  1.00  0.00     0.031 C 
ATOM     20  C   UNL     1       0.547   3.975   5.181  1.00  0.00     0.029 A 
ATOM     21  N   UNL     1       1.098   6.110   5.247  1.00  0.00    -0.354 N 
ATOM     22  C   UNL     1       3.565   7.673   1.697  1.00  0.00     0.074 A 
ATOM     23  C   UNL     1       2.701   7.194   0.654  1.00  0.00     0.031 C 
ATOM     24  C   UNL     1      -0.207   4.546   6.147  1.00  0.00     0.029 A 
ATOM     25  C   UNL     1       0.095   5.964   6.207  1.00  0.00     0.049 A 
ATOM     26  H   UNL     1       1.622   6.937   5.146  1.00  0.00     0.167 HD
ATOM     27  C   UNL     1       4.016   8.928   1.974  1.00  0.00     0.037 A 
ATOM     28  C   UNL     1      -0.481   6.958   6.938  1.00  0.00     0.037 A 
ATOM     29  C   UNL     1       4.856   8.920   3.150  1.00  0.00     0.049 A 
ATOM     30  C   UNL     1       0.459   8.112   6.909  1.00  0.00     0.074 A 
ATOM     31  C   UNL     1       5.995   8.232   3.525  1.00  0.00     0.029 A 
ATOM     32  N   UNL     1       4.326   9.425   4.312  1.00  0.00    -0.354 N 
ATOM     33  N   UNL     1       1.634   8.097   7.478  1.00  0.00    -0.248 NA
ATOM     34  C   UNL     1       0.301   9.077   5.831  1.00  0.00     0.031 C 
ATOM     35  C   UNL     1       5.818   7.952   4.912  1.00  0.00     0.029 A 
ATOM     36  C   UNL     1       4.635   8.562   5.329  1.00  0.00     0.049 A 
ATOM     37  H   UNL     1       3.813  10.261   4.398  1.00  0.00     0.167 HD
ATOM     38  C   UNL     1       2.478   8.703   6.558  1.00  0.00     0.074 A 
ATOM     39  C   UNL     1       1.587   9.348   5.593  1.00  0.00     0.031 C 
ATOM     40  C   UNL     1       3.803   8.374   6.496  1.00  0.00     0.037 A 
BRANCH  27  41
ATOM     41  C   UNL     1       3.327  10.186   1.478  1.00  0.00     0.058 A 
ATOM     42  C   UNL     1       3.895  11.438   1.793  1.00  0.00     0.135 A 
ATOM     43  C   UNL     1       2.001  10.235   0.985  1.00  0.00     0.135 A 
ATOM     44  F   UNL     1       5.147  11.520   2.271  1.00  0.00    -0.206 F 
ATOM     45  C   UNL     1       3.172  12.629   1.718  1.00  0.00     0.059 A 
ATOM     46  C   UNL     1       1.282  11.416   0.852  1.00  0.00     0.059 A 
ATOM     47  F   UNL     1       1.291   9.141   0.694  1.00  0.00    -0.206 F 
ATOM     48  C   UNL     1       1.860  12.604   1.260  1.00  0.00     0.060 A 
BRANCH  48  49
ATOM     49  S   UNL     1       0.897  14.122   1.236  1.00  0.00     0.124 S 
ATOM     50  O   UNL     1       0.735  14.385   2.660  1.00  0.00    -0.237 OA
ATOM     51  O   UNL     1       1.785  15.027   0.513  1.00  0.00    -0.237 OA
ATOM     52  O   UNL     1      -0.316  13.740   0.519  1.00  0.00    -0.744 OA
ENDBRANCH  48  49
ENDBRANCH  27  41
BRANCH  28  53
ATOM     53  C   UNL     1      -1.916   7.111   7.322  1.00  0.00     0.058 A 
ATOM     54  C   UNL     1      -2.336   8.124   8.208  1.00  0.00     0.135 A 
ATOM     55  C   UNL     1      -2.943   6.460   6.609  1.00  0.00     0.135 A 
ATOM     56  F   UNL     1      -1.432   8.814   8.920  1.00  0.00    -0.206 F 
ATOM     57  C   UNL     1      -3.680   8.503   8.335  1.00  0.00     0.059 A 
ATOM     58  C   UNL     1      -4.288   6.813   6.726  1.00  0.00     0.059 A 
ATOM     59  F   UNL     1      -2.665   5.516   5.699  1.00  0.00    -0.206 F 
ATOM     60  C   UNL     1      -4.649   7.855   7.571  1.00  0.00     0.060 A 
BRANCH  60  61
ATOM     61  S   UNL     1      -6.358   8.452   7.588  1.00  0.00     0.124 S 
ATOM     62  O   UNL     1      -6.797   8.078   8.928  1.00  0.00    -0.237 OA
ATOM     63  O   UNL     1      -6.191   9.882   7.348  1.00  0.00    -0.237 OA
ATOM     64  O   UNL     1      -6.987   7.711   6.497  1.00  0.00    -0.744 OA
ENDBRANCH  60  61
ENDBRANCH  28  53
BRANCH  40  65
ATOM     65  C   UNL     1       4.405   7.600   7.640  1.00  0.00     0.058 A 
ATOM     66  C   UNL     1       4.032   6.299   8.024  1.00  0.00     0.135 A 
ATOM     67  C   UNL     1       5.514   8.164   8.288  1.00  0.00     0.135 A 
ATOM     68  F   UNL     1       3.053   5.643   7.383  1.00  0.00    -0.206 F 
ATOM     69  C   UNL     1       4.702   5.614   9.042  1.00  0.00     0.059 A 
ATOM     70  C   UNL     1       6.217   7.488   9.279  1.00  0.00     0.059 A 
ATOM     71  F   UNL     1       5.960   9.377   7.923  1.00  0.00    -0.206 F 
ATOM     72  C   UNL     1       5.794   6.219   9.665  1.00  0.00     0.060 A 
BRANCH  72  73
ATOM     73  S   UNL     1       6.694   5.322  10.948  1.00  0.00     0.124 S 
ATOM     74  O   UNL     1       5.729   5.300  12.042  1.00  0.00    -0.237 OA
ATOM     75  O   UNL     1       6.960   4.036  10.309  1.00  0.00    -0.237 OA
ATOM     76  O   UNL     1       7.877   6.149  11.178  1.00  0.00    -0.744 OA
ENDBRANCH  72  73
ENDBRANCH  40  65
ENDBRANCH  14  15
ENDBRANCH   7   9
ENDBRANCH   6   7
ENDBRANCH   5   6
ENDBRANCH   4   5
ENDBRANCH   3   4
ENDBRANCH   2   3
ENDBRANCH   1   2
BRANCH   1  77
ATOM     77  O   UNL     1       3.004  -2.441  -2.259  1.00  0.00    -0.376 OA
BRANCH  77  78
ATOM     78  C   UNL     1       4.242  -2.602  -2.927  1.00  0.00     0.202 C 
BRANCH  78  79
ATOM     79  C   UNL     1       4.449  -1.951  -4.307  1.00  0.00     0.261 C 
BRANCH  79  80
ATOM     80  O   UNL     1       4.047  -0.573  -4.432  1.00  0.00    -0.460 OA
BRANCH  80  81
ATOM     81  C   UNL     1       2.974  -0.310  -5.215  1.00  0.00     0.338 C 
ATOM     82  O   UNL     1       2.319  -1.113  -5.872  1.00  0.00    -0.246 OA
BRANCH  81  83
ATOM     83  C   UNL     1       2.601   1.115  -5.083  1.00  0.00     0.060 A 
ATOM     84  C   UNL     1       1.469   1.457  -4.327  1.00  0.00     0.018 A 
ATOM     85  C   UNL     1       3.347   2.112  -5.721  1.00  0.00     0.018 A 
ATOM     86  C   UNL     1       1.099   2.792  -4.172  1.00  0.00     0.029 A 
ATOM     87  C   UNL     1       2.973   3.457  -5.580  1.00  0.00     0.029 A 
ATOM     88  C   UNL     1       1.856   3.784  -4.795  1.00  0.00     0.066 A 
BRANCH  88  89
ATOM     89  N   UNL     1       1.361   5.099  -4.777  1.00  0.00    -0.220 N 
ATOM     90  C   UNL     1       0.287   5.534  -5.518  1.00  0.00     0.141 A 
ATOM     91  N   UNL     1       2.034   6.148  -4.282  1.00  0.00    -0.062 NA
ATOM     92  C   UNL     1       0.335   6.907  -5.475  1.00  0.00     0.093 A 
ATOM     93  N   UNL     1       1.376   7.248  -4.631  1.00  0.00    -0.134 NA
BRANCH  92  94
ATOM     94  C   UNL     1      -0.219   7.977  -6.349  1.00  0.00     0.138 C 
BRANCH  94  95
ATOM     95  S   UNL     1      -1.912   8.238  -6.846  1.00  0.00    -0.081 SA
BRANCH  95  96
ATOM     96  C   UNL     1      -2.946   6.845  -6.791  1.00  0.00     0.176 A 
ATOM     97  N   UNL     1      -4.158   7.162  -6.440  1.00  0.00    -0.223 NA
ATOM     98  N   UNL     1      -2.603   5.536  -7.084  1.00  0.00    -0.255 N 
ATOM     99  C   UNL     1      -5.073   6.139  -6.177  1.00  0.00     0.079 A 
ATOM    100  C   UNL     1      -3.216   4.592  -6.243  1.00  0.00     0.266 A 
ATOM    101  C   UNL     1      -6.439   6.399  -6.074  1.00  0.00     0.029 A 
ATOM    102  C   UNL     1      -4.610   4.870  -5.870  1.00  0.00     0.066 A 
ATOM    103  O   UNL     1      -2.684   3.579  -5.791  1.00  0.00    -0.268 OA
ATOM    104  C   UNL     1      -7.306   5.415  -5.586  1.00  0.00     0.002 A 
ATOM    105  C   UNL     1      -5.447   3.898  -5.317  1.00  0.00     0.016 A 
ATOM    106  C   UNL     1      -6.803   4.182  -5.165  1.00  0.00     0.001 A 
BRANCH  98 107
ATOM    107  C   UNL     1      -1.652   5.064  -8.075  1.00  0.00     0.051 A 
ATOM    108  C   UNL     1      -1.548   3.682  -8.345  1.00  0.00     0.028 A 
ATOM    109  C   UNL     1      -0.769   5.886  -8.781  1.00  0.00     0.028 A 
ATOM    110  C   UNL     1      -0.468   3.140  -9.048  1.00  0.00     0.018 A 
ATOM    111  C   UNL     1       0.360   5.355  -9.423  1.00  0.00     0.018 A 
ATOM    112  C   UNL     1       0.527   3.981  -9.514  1.00  0.00     0.018 A 
ATOM    113  Br  UNL     1       2.104   3.261 -10.258  1.00  0.00    -0.051 Br
ENDBRANCH  98 107
ENDBRANCH  95  96
ENDBRANCH  94  95
ENDBRANCH  92  94
ENDBRANCH  88  89
ENDBRANCH  81  83
ENDBRANCH  80  81
ENDBRANCH  79  80
ENDBRANCH  78  79
ENDBRANCH  77  78
ENDBRANCH   1  77
TORSDOF 25
