REMARK SMILES NS(=O)(=O)c1ccc(-c2coc(=O)n2-c2ccc(C(=O)OCCOCCOCCOC(=O)c3ccc(-c4c5nc(c(-c6c(F)cc(S(=O)(=O)[O-])cc6F)c6ccc([nH]6)c(-c6c(F)cc(S(=O)(=O)[O-])cc6F)c6nc(c(-c7c(F)cc(S(=O)(=O)[O-])cc7F)c7ccc4[nH]7)C=C6)C=C5)cc3)cc2)cc1
REMARK SMILES IDX 25 1 24 2 23 3 22 4 21 5 19 6 20 7 18 8 15 9 16 10 100 11
REMARK SMILES IDX 17 12 99 13 14 14 9 15 10 16 11 17 12 18 13 19 8 20 5 21
REMARK SMILES IDX 6 22 102 23 7 24 101 25 2 26 3 27 4 28 1 29 26 32 27 33
REMARK SMILES IDX 28 34 29 35 30 36 31 37 32 38 33 39 34 40 98 41 35 42 97 43
REMARK SMILES IDX 36 44 37 45 38 46 91 47 39 48 96 49 90 50 92 51 40 52 95 53
REMARK SMILES IDX 89 54 88 55 41 57 75 58 54 59 74 60 55 61 58 62 73 63 93 64
REMARK SMILES IDX 56 65 57 66 72 68 94 69 59 70 42 71 43 72 52 73 44 74 45 75
REMARK SMILES IDX 51 76 53 77 46 78 47 79 48 80 49 81 50 82 76 83 77 84 86 85
REMARK SMILES IDX 78 86 79 87 85 88 87 89 80 90 81 91 82 92 83 93 84 94 60 95
REMARK SMILES IDX 61 96 70 97 62 98 63 99 69 100 71 101 64 102 65 103 66 104
REMARK SMILES IDX 67 105 68 106
REMARK H PARENT 1 30 1 31 92 56 58 67
REMARK Flexibility Score: inf
ROOT
ATOM      1  C   UNL     1       6.906  -7.259   1.328  1.00  0.00     0.188 C 
ENDROOT
BRANCH   1   2
ATOM      2  O   UNL     1       7.554  -7.275   0.074  1.00  0.00    -0.376 OA
BRANCH   2   3
ATOM      3  C   UNL     1       7.750  -6.089  -0.674  1.00  0.00     0.202 C 
BRANCH   3   4
ATOM      4  C   UNL     1       6.851  -4.837  -0.600  1.00  0.00     0.261 C 
BRANCH   4   5
ATOM      5  O   UNL     1       6.208  -4.565   0.647  1.00  0.00    -0.460 OA
BRANCH   5   6
ATOM      6  C   UNL     1       4.881  -4.819   0.698  1.00  0.00     0.338 C 
ATOM      7  O   UNL     1       4.161  -5.169  -0.222  1.00  0.00    -0.246 OA
BRANCH   6   8
ATOM      8  C   UNL     1       4.424  -4.778   2.103  1.00  0.00     0.060 A 
ATOM      9  C   UNL     1       3.342  -4.699   4.670  1.00  0.00     0.053 A 
ATOM     10  C   UNL     1       3.150  -5.835   3.881  1.00  0.00     0.028 A 
ATOM     11  C   UNL     1       4.179  -3.664   4.218  1.00  0.00     0.028 A 
ATOM     12  C   UNL     1       3.657  -5.853   2.581  1.00  0.00     0.018 A 
ATOM     13  C   UNL     1       4.744  -3.712   2.944  1.00  0.00     0.018 A 
BRANCH   9  14
ATOM     14  N   UNL     1       2.522  -4.487   5.795  1.00  0.00    -0.242 N 
ATOM     15  C   UNL     1       1.670  -3.433   5.989  1.00  0.00     0.095 A 
ATOM     16  C   UNL     1       1.083  -3.647   7.159  1.00  0.00     0.228 A 
ATOM     17  O   UNL     1       1.478  -4.828   7.789  1.00  0.00    -0.415 OA
ATOM     18  C   UNL     1       2.366  -5.366   6.856  1.00  0.00     0.424 A 
ATOM     19  O   UNL     1       2.907  -6.459   7.014  1.00  0.00    -0.223 OA
BRANCH  15  20
ATOM     20  C   UNL     1       1.333  -2.425   4.983  1.00  0.00     0.002 A 
ATOM     21  C   UNL     1       0.764  -0.546   2.985  1.00  0.00     0.082 A 
ATOM     22  C   UNL     1       0.615  -1.903   2.708  1.00  0.00     0.022 A 
ATOM     23  C   UNL     1       1.185  -0.118   4.249  1.00  0.00     0.022 A 
ATOM     24  C   UNL     1       0.890  -2.835   3.710  1.00  0.00     0.012 A 
ATOM     25  C   UNL     1       1.464  -1.058   5.247  1.00  0.00     0.012 A 
BRANCH  21  26
ATOM     26  S   UNL     1       0.440   0.646   1.720  1.00  0.00     0.238 S 
ATOM     27  O   UNL     1       1.176   1.854   2.011  1.00  0.00    -0.207 OA
ATOM     28  O   UNL     1      -0.977   0.644   1.444  1.00  0.00    -0.207 OA
BRANCH  26  29
ATOM     29  N   UNL     1       1.187  -0.008   0.366  1.00  0.00    -0.225 NA
ATOM     30  H   UNL     1       1.055   0.615  -0.430  1.00  0.00     0.137 HD
ATOM     31  H   UNL     1       0.777  -0.918   0.157  1.00  0.00     0.137 HD
ENDBRANCH  26  29
ENDBRANCH  21  26
ENDBRANCH  15  20
ENDBRANCH   9  14
ENDBRANCH   6   8
ENDBRANCH   5   6
ENDBRANCH   4   5
ENDBRANCH   3   4
ENDBRANCH   2   3
ENDBRANCH   1   2
BRANCH   1  32
ATOM     32  C   UNL     1       7.461  -6.416   2.496  1.00  0.00     0.188 C 
BRANCH  32  33
ATOM     33  O   UNL     1       8.305  -5.324   2.203  1.00  0.00    -0.376 OA
BRANCH  33  34
ATOM     34  C   UNL     1       9.695  -5.452   1.958  1.00  0.00     0.202 C 
BRANCH  34  35
ATOM     35  C   UNL     1      10.490  -6.755   1.903  1.00  0.00     0.261 C 
BRANCH  35  36
ATOM     36  O   UNL     1       9.739  -7.944   1.954  1.00  0.00    -0.460 OA
BRANCH  36  37
ATOM     37  C   UNL     1       9.590  -8.423   3.205  1.00  0.00     0.338 C 
ATOM     38  O   UNL     1       9.813  -7.833   4.250  1.00  0.00    -0.246 OA
BRANCH  37  39
ATOM     39  C   UNL     1       9.202  -9.829   3.120  1.00  0.00     0.060 A 
ATOM     40  C   UNL     1       8.839 -10.431   4.324  1.00  0.00     0.016 A 
ATOM     41  C   UNL     1       9.659 -10.553   2.011  1.00  0.00     0.016 A 
ATOM     42  C   UNL     1       9.248 -11.725   4.526  1.00  0.00     0.010 A 
ATOM     43  C   UNL     1      10.094 -11.831   2.227  1.00  0.00     0.010 A 
ATOM     44  C   UNL     1       9.983 -12.351   3.513  1.00  0.00    -0.014 A 
BRANCH  44  45
ATOM     45  C   UNL     1      10.550 -13.649   3.783  1.00  0.00     0.031 A 
ATOM     46  C   UNL     1       9.512 -14.694   3.716  1.00  0.00     0.074 A 
ATOM     47  C   UNL     1      11.872 -13.841   3.957  1.00  0.00     0.049 A 
ATOM     48  N   UNL     1       8.940 -15.281   4.713  1.00  0.00    -0.248 NA
ATOM     49  C   UNL     1       8.831 -14.903   2.426  1.00  0.00     0.031 C 
ATOM     50  C   UNL     1      12.967 -12.883   3.787  1.00  0.00     0.029 A 
ATOM     51  N   UNL     1      12.527 -14.999   4.236  1.00  0.00    -0.354 N 
ATOM     52  C   UNL     1       8.031 -16.154   4.132  1.00  0.00     0.074 A 
ATOM     53  C   UNL     1       7.806 -15.669   2.799  1.00  0.00     0.031 C 
ATOM     54  C   UNL     1      14.143 -13.553   3.732  1.00  0.00     0.029 A 
ATOM     55  C   UNL     1      13.900 -14.962   3.987  1.00  0.00     0.049 A 
ATOM     56  H   UNL     1      12.071 -15.798   4.585  1.00  0.00     0.167 HD
ATOM     57  C   UNL     1       7.822 -17.385   4.671  1.00  0.00     0.037 A 
ATOM     58  C   UNL     1      14.713 -16.052   3.916  1.00  0.00     0.037 A 
ATOM     59  C   UNL     1       8.302 -17.436   6.032  1.00  0.00     0.049 A 
ATOM     60  C   UNL     1      14.004 -17.158   4.626  1.00  0.00     0.074 A 
ATOM     61  C   UNL     1       8.030 -16.718   7.182  1.00  0.00     0.029 A 
ATOM     62  N   UNL     1       9.508 -18.059   6.252  1.00  0.00    -0.354 N 
ATOM     63  N   UNL     1      13.776 -17.155   5.913  1.00  0.00    -0.248 NA
ATOM     64  C   UNL     1      13.107 -17.991   3.837  1.00  0.00     0.031 C 
ATOM     65  C   UNL     1       9.290 -16.567   7.832  1.00  0.00     0.029 A 
ATOM     66  C   UNL     1      10.245 -17.269   7.097  1.00  0.00     0.049 A 
ATOM     67  H   UNL     1       9.793 -18.920   5.869  1.00  0.00     0.167 HD
ATOM     68  C   UNL     1      12.472 -17.612   6.043  1.00  0.00     0.074 A 
ATOM     69  C   UNL     1      12.129 -18.164   4.732  1.00  0.00     0.031 C 
ATOM     70  C   UNL     1      11.690 -17.230   7.097  1.00  0.00     0.037 A 
BRANCH  57  71
ATOM     71  C   UNL     1       7.599 -18.631   3.844  1.00  0.00     0.058 A 
ATOM     72  C   UNL     1       7.285 -19.831   4.511  1.00  0.00     0.135 A 
ATOM     73  C   UNL     1       7.947 -18.769   2.480  1.00  0.00     0.135 A 
ATOM     74  F   UNL     1       6.944 -19.823   5.810  1.00  0.00    -0.206 F 
ATOM     75  C   UNL     1       7.389 -21.076   3.894  1.00  0.00     0.059 A 
ATOM     76  C   UNL     1       8.000 -19.994   1.831  1.00  0.00     0.059 A 
ATOM     77  F   UNL     1       8.346 -17.744   1.719  1.00  0.00    -0.206 F 
ATOM     78  C   UNL     1       7.759 -21.146   2.555  1.00  0.00     0.060 A 
BRANCH  78  79
ATOM     79  S   UNL     1       7.968 -22.752   1.774  1.00  0.00     0.124 S 
ATOM     80  O   UNL     1       9.145 -23.261   2.468  1.00  0.00    -0.237 OA
ATOM     81  O   UNL     1       6.702 -23.404   2.092  1.00  0.00    -0.237 OA
ATOM     82  O   UNL     1       8.159 -22.418   0.366  1.00  0.00    -0.744 OA
ENDBRANCH  78  79
ENDBRANCH  57  71
BRANCH  58  83
ATOM     83  C   UNL     1      15.825 -16.318   2.957  1.00  0.00     0.058 A 
ATOM     84  C   UNL     1      16.656 -17.448   3.100  1.00  0.00     0.135 A 
ATOM     85  C   UNL     1      15.907 -15.652   1.718  1.00  0.00     0.135 A 
ATOM     86  F   UNL     1      16.641 -18.155   4.240  1.00  0.00    -0.206 F 
ATOM     87  C   UNL     1      17.462 -17.927   2.058  1.00  0.00     0.059 A 
ATOM     88  C   UNL     1      16.708 -16.105   0.669  1.00  0.00     0.059 A 
ATOM     89  F   UNL     1      15.134 -14.590   1.449  1.00  0.00    -0.206 F 
ATOM     90  C   UNL     1      17.460 -17.261   0.833  1.00  0.00     0.060 A 
BRANCH  90  91
ATOM     91  S   UNL     1      18.332 -17.980  -0.582  1.00  0.00     0.124 S 
ATOM     92  O   UNL     1      19.729 -17.791  -0.205  1.00  0.00    -0.237 OA
ATOM     93  O   UNL     1      17.851 -19.357  -0.576  1.00  0.00    -0.237 OA
ATOM     94  O   UNL     1      17.875 -17.169  -1.708  1.00  0.00    -0.744 OA
ENDBRANCH  90  91
ENDBRANCH  58  83
BRANCH  70  95
ATOM     95  C   UNL     1      12.350 -16.554   8.271  1.00  0.00     0.058 A 
ATOM     96  C   UNL     1      13.020 -15.317   8.223  1.00  0.00     0.135 A 
ATOM     97  C   UNL     1      12.166 -17.132   9.536  1.00  0.00     0.135 A 
ATOM     98  F   UNL     1      13.142 -14.643   7.070  1.00  0.00    -0.206 F 
ATOM     99  C   UNL     1      13.531 -14.714   9.377  1.00  0.00     0.059 A 
ATOM    100  C   UNL     1      12.634 -16.534  10.700  1.00  0.00     0.059 A 
ATOM    101  F   UNL     1      11.478 -18.280   9.657  1.00  0.00    -0.206 F 
ATOM    102  C   UNL     1      13.335 -15.334  10.612  1.00  0.00     0.060 A 
BRANCH 102 103
ATOM    103  S   UNL     1      13.965 -14.549  12.111  1.00  0.00     0.124 S 
ATOM    104  O   UNL     1      15.408 -14.693  11.949  1.00  0.00    -0.237 OA
ATOM    105  O   UNL     1      13.447 -13.189  11.999  1.00  0.00    -0.237 OA
ATOM    106  O   UNL     1      13.377 -15.344  13.187  1.00  0.00    -0.744 OA
ENDBRANCH 102 103
ENDBRANCH  70  95
ENDBRANCH  44  45
ENDBRANCH  37  39
ENDBRANCH  36  37
ENDBRANCH  35  36
ENDBRANCH  34  35
ENDBRANCH  33  34
ENDBRANCH  32  33
ENDBRANCH   1  32
TORSDOF 24
