REMARK SMILES Cc1cc2c(c(C)c1Br)C=C(C(=O)OCCOCCOCCOC(=O)c1ccc(-c3c4nc(c(-c5c(F)cc(S(=O)(=O)[O-])cc5F)c5ccc([nH]5)c(-c5c(F)cc(S(=O)(=O)[O-])cc5F)c5nc(c(-c6c(F)cc(S(=O)(=O)[O-])cc6F)c6ccc3[nH]6)C=C5)C=C4)cc1)[C@@H](C(F)(F)F)O2
REMARK SMILES IDX 19 1 18 2 17 3 16 4 15 5 14 6 12 7 13 8 11 9 1 10 2 11 3 12
REMARK SMILES IDX 8 13 4 14 6 15 9 16 5 17 97 18 7 19 10 20 92 21 93 22 94 23
REMARK SMILES IDX 95 24 96 25 20 26 21 27 22 28 23 29 24 30 25 31 26 32 27 33
REMARK SMILES IDX 91 34 28 35 90 36 29 37 30 38 31 39 84 40 32 41 89 42 83 43
REMARK SMILES IDX 85 44 33 45 88 46 82 47 81 48 34 50 68 51 47 52 67 53 48 54
REMARK SMILES IDX 51 55 66 56 86 57 49 58 50 59 65 61 87 62 52 63 35 64 36 65
REMARK SMILES IDX 45 66 37 67 38 68 44 69 46 70 39 71 40 72 41 73 42 74 43 75
REMARK SMILES IDX 69 76 70 77 79 78 71 79 72 80 78 81 80 82 73 83 74 84 75 85
REMARK SMILES IDX 76 86 77 87 53 88 54 89 63 90 55 91 56 92 62 93 64 94 57 95
REMARK SMILES IDX 58 96 59 97 60 98 61 99
REMARK H PARENT 85 49 51 60
REMARK Flexibility Score: inf
ROOT
ATOM      1  C   UNL     1       0.253   5.955   6.209  1.00  0.00     0.188 C 
ENDROOT
BRANCH   1   2
ATOM      2  C   UNL     1       0.036   7.304   5.490  1.00  0.00     0.188 C 
BRANCH   2   3
ATOM      3  O   UNL     1      -0.684   8.349   6.111  1.00  0.00    -0.376 OA
BRANCH   3   4
ATOM      4  C   UNL     1      -2.033   8.183   6.513  1.00  0.00     0.202 C 
BRANCH   4   5
ATOM      5  C   UNL     1      -3.046   7.368   5.705  1.00  0.00     0.261 C 
BRANCH   5   6
ATOM      6  O   UNL     1      -2.549   6.127   5.196  1.00  0.00    -0.460 OA
BRANCH   6   7
ATOM      7  C   UNL     1      -2.591   6.009   3.847  1.00  0.00     0.338 C 
ATOM      8  O   UNL     1      -3.045   6.819   3.055  1.00  0.00    -0.246 OA
BRANCH   7   9
ATOM      9  C   UNL     1      -1.894   4.778   3.438  1.00  0.00     0.087 C 
ATOM     10  C   UNL     1       1.069  -0.036   0.293  1.00  0.00     0.046 C 
ATOM     11  C   UNL     1       0.656   1.289   0.879  1.00  0.00    -0.033 A 
ATOM     12  C   UNL     1      -0.203   1.285   1.984  1.00  0.00     0.051 A 
ATOM     13  C   UNL     1       1.077   2.525   0.345  1.00  0.00     0.024 A 
ATOM     14  C   UNL     1      -0.695   2.476   2.512  1.00  0.00     0.128 A 
ATOM     15  C   UNL     1       0.616   3.748   0.892  1.00  0.00    -0.026 A 
ATOM     16  Br  UNL     1       2.256   2.507  -1.162  1.00  0.00    -0.050 Br
ATOM     17  C   UNL     1      -0.326   3.705   1.954  1.00  0.00     0.021 A 
ATOM     18  O   UNL     1      -1.544   2.324   3.572  1.00  0.00    -0.475 OA
ATOM     19  C   UNL     1       1.079   5.091   0.368  1.00  0.00     0.046 C 
ATOM     20  C   UNL     1      -0.991   4.904   2.458  1.00  0.00     0.027 C 
ATOM     21  C   UNL     1      -2.229   3.482   4.111  1.00  0.00     0.316 C 
BRANCH  21  22
ATOM     22  C   UNL     1      -3.736   3.188   4.115  1.00  0.00     0.430 C 
ATOM     23  F   UNL     1      -4.001   1.996   4.706  1.00  0.00    -0.167 F 
ATOM     24  F   UNL     1      -4.431   4.120   4.811  1.00  0.00    -0.167 F 
ATOM     25  F   UNL     1      -4.254   3.144   2.868  1.00  0.00    -0.167 F 
ENDBRANCH  21  22
ENDBRANCH   7   9
ENDBRANCH   6   7
ENDBRANCH   5   6
ENDBRANCH   4   5
ENDBRANCH   3   4
ENDBRANCH   2   3
ENDBRANCH   1   2
BRANCH   1  26
ATOM     26  O   UNL     1      -0.182   5.755   7.540  1.00  0.00    -0.376 OA
BRANCH  26  27
ATOM     27  C   UNL     1       0.246   6.645   8.559  1.00  0.00     0.202 C 
BRANCH  27  28
ATOM     28  C   UNL     1       1.717   7.048   8.710  1.00  0.00     0.261 C 
BRANCH  28  29
ATOM     29  O   UNL     1       2.349   7.481   7.499  1.00  0.00    -0.460 OA
BRANCH  29  30
ATOM     30  C   UNL     1       3.372   6.696   7.079  1.00  0.00     0.338 C 
ATOM     31  O   UNL     1       3.809   5.698   7.625  1.00  0.00    -0.246 OA
BRANCH  30  32
ATOM     32  C   UNL     1       3.781   7.113   5.726  1.00  0.00     0.060 A 
ATOM     33  C   UNL     1       3.649   6.187   4.682  1.00  0.00     0.016 A 
ATOM     34  C   UNL     1       4.330   8.375   5.495  1.00  0.00     0.016 A 
ATOM     35  C   UNL     1       4.089   6.514   3.402  1.00  0.00     0.010 A 
ATOM     36  C   UNL     1       4.799   8.690   4.217  1.00  0.00     0.010 A 
ATOM     37  C   UNL     1       4.706   7.751   3.174  1.00  0.00    -0.014 A 
BRANCH  37  38
ATOM     38  C   UNL     1       5.425   7.978   1.899  1.00  0.00     0.031 A 
ATOM     39  C   UNL     1       6.886   7.625   1.833  1.00  0.00     0.074 A 
ATOM     40  C   UNL     1       4.790   8.456   0.815  1.00  0.00     0.049 A 
ATOM     41  N   UNL     1       7.727   7.762   0.843  1.00  0.00    -0.248 NA
ATOM     42  C   UNL     1       7.473   7.030   3.046  1.00  0.00     0.031 C 
ATOM     43  C   UNL     1       3.367   8.784   0.743  1.00  0.00     0.029 A 
ATOM     44  N   UNL     1       5.269   8.752  -0.437  1.00  0.00    -0.354 N 
ATOM     45  C   UNL     1       8.938   7.264   1.306  1.00  0.00     0.074 A 
ATOM     46  C   UNL     1       8.732   6.848   2.676  1.00  0.00     0.031 C 
ATOM     47  C   UNL     1       3.090   9.248  -0.489  1.00  0.00     0.029 A 
ATOM     48  C   UNL     1       4.320   9.277  -1.281  1.00  0.00     0.049 A 
ATOM     49  H   UNL     1       6.204   8.601  -0.705  1.00  0.00     0.167 HD
ATOM     50  C   UNL     1      10.114   7.154   0.647  1.00  0.00     0.037 A 
ATOM     51  C   UNL     1       4.440   9.747  -2.539  1.00  0.00     0.037 A 
ATOM     52  C   UNL     1      10.322   7.586  -0.709  1.00  0.00     0.049 A 
ATOM     53  C   UNL     1       5.787   9.710  -3.218  1.00  0.00     0.074 A 
ATOM     54  C   UNL     1      11.482   7.526  -1.462  1.00  0.00     0.029 A 
ATOM     55  N   UNL     1       9.352   8.164  -1.513  1.00  0.00    -0.354 N 
ATOM     56  N   UNL     1       6.925   9.233  -2.771  1.00  0.00    -0.248 NA
ATOM     57  C   UNL     1       5.867  10.279  -4.572  1.00  0.00     0.031 C 
ATOM     58  C   UNL     1      11.224   8.111  -2.706  1.00  0.00     0.029 A 
ATOM     59  C   UNL     1       9.892   8.490  -2.745  1.00  0.00     0.049 A 
ATOM     60  H   UNL     1       8.417   8.321  -1.246  1.00  0.00     0.167 HD
ATOM     61  C   UNL     1       7.848   9.425  -3.794  1.00  0.00     0.074 A 
ATOM     62  C   UNL     1       7.135  10.050  -4.888  1.00  0.00     0.031 C 
ATOM     63  C   UNL     1       9.167   9.110  -3.826  1.00  0.00     0.037 A 
BRANCH  50  64
ATOM     64  C   UNL     1      11.275   6.560   1.391  1.00  0.00     0.058 A 
ATOM     65  C   UNL     1      11.350   5.184   1.653  1.00  0.00     0.135 A 
ATOM     66  C   UNL     1      12.346   7.368   1.805  1.00  0.00     0.135 A 
ATOM     67  F   UNL     1      10.341   4.372   1.299  1.00  0.00    -0.206 F 
ATOM     68  C   UNL     1      12.442   4.629   2.312  1.00  0.00     0.059 A 
ATOM     69  C   UNL     1      13.459   6.832   2.445  1.00  0.00     0.059 A 
ATOM     70  F   UNL     1      12.317   8.692   1.586  1.00  0.00    -0.206 F 
ATOM     71  C   UNL     1      13.494   5.461   2.700  1.00  0.00     0.060 A 
BRANCH  71  72
ATOM     72  S   UNL     1      14.914   4.720   3.532  1.00  0.00     0.124 S 
ATOM     73  O   UNL     1      14.341   4.366   4.827  1.00  0.00    -0.237 OA
ATOM     74  O   UNL     1      15.238   3.600   2.655  1.00  0.00    -0.237 OA
ATOM     75  O   UNL     1      15.896   5.799   3.557  1.00  0.00    -0.744 OA
ENDBRANCH  71  72
ENDBRANCH  50  64
BRANCH  51  76
ATOM     76  C   UNL     1       3.256  10.311  -3.240  1.00  0.00     0.058 A 
ATOM     77  C   UNL     1       2.678   9.648  -4.333  1.00  0.00     0.135 A 
ATOM     78  C   UNL     1       2.684  11.528  -2.838  1.00  0.00     0.135 A 
ATOM     79  F   UNL     1       3.199   8.489  -4.765  1.00  0.00    -0.206 F 
ATOM     80  C   UNL     1       1.582  10.174  -5.008  1.00  0.00     0.059 A 
ATOM     81  C   UNL     1       1.573  12.063  -3.482  1.00  0.00     0.059 A 
ATOM     82  F   UNL     1       3.196  12.200  -1.795  1.00  0.00    -0.206 F 
ATOM     83  C   UNL     1       1.034  11.382  -4.573  1.00  0.00     0.060 A 
BRANCH  83  84
ATOM     84  S   UNL     1      -0.418  12.031  -5.428  1.00  0.00     0.124 S 
ATOM     85  O   UNL     1       0.154  12.452  -6.702  1.00  0.00    -0.237 OA
ATOM     86  O   UNL     1      -1.292  10.863  -5.475  1.00  0.00    -0.237 OA
ATOM     87  O   UNL     1      -0.871  13.108  -4.553  1.00  0.00    -0.744 OA
ENDBRANCH  83  84
ENDBRANCH  51  76
BRANCH  63  88
ATOM     88  C   UNL     1       9.931   9.415  -5.086  1.00  0.00     0.058 A 
ATOM     89  C   UNL     1      10.295  10.727  -5.425  1.00  0.00     0.135 A 
ATOM     90  C   UNL     1      10.374   8.375  -5.920  1.00  0.00     0.135 A 
ATOM     91  F   UNL     1       9.894  11.758  -4.664  1.00  0.00    -0.206 F 
ATOM     92  C   UNL     1      11.060  10.999  -6.555  1.00  0.00     0.059 A 
ATOM     93  C   UNL     1      11.161   8.622  -7.040  1.00  0.00     0.059 A 
ATOM     94  F   UNL     1      10.064   7.101  -5.633  1.00  0.00    -0.206 F 
ATOM     95  C   UNL     1      11.493   9.939  -7.354  1.00  0.00     0.060 A 
BRANCH  95  96
ATOM     96  S   UNL     1      12.524  10.305  -8.790  1.00  0.00     0.124 S 
ATOM     97  O   UNL     1      11.558  10.910  -9.700  1.00  0.00    -0.237 OA
ATOM     98  O   UNL     1      13.524  11.211  -8.233  1.00  0.00    -0.237 OA
ATOM     99  O   UNL     1      13.028   8.995  -9.191  1.00  0.00    -0.744 OA
ENDBRANCH  95  96
ENDBRANCH  63  88
ENDBRANCH  37  38
ENDBRANCH  30  32
ENDBRANCH  29  30
ENDBRANCH  28  29
ENDBRANCH  27  28
ENDBRANCH  26  27
ENDBRANCH   1  26
TORSDOF 21
