REMARK SMILES O=C(OCCOCCOCCOC(=O)[C@@H](Cc1c[nH]c2ccccc12)NC(=O)c1ccc(F)cc1F)c1ccc(-c2c3nc(c(-c4c(F)cc(S(=O)(=O)[O-])cc4F)c4ccc([nH]4)c(-c4c(F)cc(S(=O)(=O)[O-])cc4F)c4nc(c(-c5c(F)cc(S(=O)(=O)[O-])cc5F)c5ccc2[nH]5)C=C4)C=C3)cc1
REMARK SMILES IDX 7 1 6 2 5 3 4 4 3 5 2 6 1 7 37 8 38 9 102 10 39 11 101 12
REMARK SMILES IDX 40 13 41 14 42 15 95 16 43 17 100 18 94 19 96 20 44 21 99 22
REMARK SMILES IDX 93 23 92 24 45 26 79 27 58 28 78 29 59 30 62 31 77 32 97 33
REMARK SMILES IDX 60 34 61 35 76 37 98 38 63 39 46 40 47 41 56 42 48 43 49 44
REMARK SMILES IDX 55 45 57 46 50 47 51 48 52 49 53 50 54 51 80 52 81 53 90 54
REMARK SMILES IDX 82 55 83 56 89 57 91 58 84 59 85 60 86 61 87 62 88 63 64 64
REMARK SMILES IDX 65 65 74 66 66 67 67 68 73 69 75 70 68 71 69 72 70 73 71 74
REMARK SMILES IDX 72 75 8 76 9 77 10 78 11 79 12 80 13 81 14 82 15 83 16 84
REMARK SMILES IDX 17 85 18 86 25 87 19 88 20 89 24 90 21 92 23 93 22 94 26 95
REMARK SMILES IDX 27 96 28 98 29 99 30 100 35 101 31 102 34 103 36 104 32 105
REMARK SMILES IDX 33 106
REMARK H PARENT 96 25 62 36 19 91 26 97
REMARK Flexibility Score: inf
ROOT
ATOM      1  C   UNL     1       1.935   0.246  -2.047  1.00  0.00     0.188 C 
ENDROOT
BRANCH   1   2
ATOM      2  O   UNL     1       3.260   0.210  -1.510  1.00  0.00    -0.376 OA
BRANCH   2   3
ATOM      3  C   UNL     1       3.685  -1.107  -1.139  1.00  0.00     0.202 C 
BRANCH   3   4
ATOM      4  C   UNL     1       3.389  -1.434   0.329  1.00  0.00     0.261 C 
BRANCH   4   5
ATOM      5  O   UNL     1       1.999  -1.178   0.626  1.00  0.00    -0.460 OA
BRANCH   5   6
ATOM      6  C   UNL     1       1.466  -0.236   1.444  1.00  0.00     0.338 C 
ATOM      7  O   UNL     1       0.253  -0.227   1.639  1.00  0.00    -0.246 OA
BRANCH   6   8
ATOM      8  C   UNL     1       2.294   0.784   2.148  1.00  0.00     0.060 A 
ATOM      9  C   UNL     1       3.410   1.390   1.578  1.00  0.00     0.016 A 
ATOM     10  C   UNL     1       1.883   1.216   3.419  1.00  0.00     0.016 A 
ATOM     11  C   UNL     1       4.188   2.289   2.307  1.00  0.00     0.010 A 
ATOM     12  C   UNL     1       2.623   2.175   4.129  1.00  0.00     0.010 A 
ATOM     13  C   UNL     1       3.811   2.684   3.592  1.00  0.00    -0.014 A 
BRANCH  13  14
ATOM     14  C   UNL     1       4.759   3.509   4.385  1.00  0.00     0.031 A 
ATOM     15  C   UNL     1       5.521   2.859   5.504  1.00  0.00     0.074 A 
ATOM     16  C   UNL     1       5.052   4.771   4.016  1.00  0.00     0.049 A 
ATOM     17  N   UNL     1       6.390   3.384   6.327  1.00  0.00    -0.248 NA
ATOM     18  C   UNL     1       5.269   1.426   5.728  1.00  0.00     0.031 C 
ATOM     19  C   UNL     1       4.437   5.481   2.896  1.00  0.00     0.029 A 
ATOM     20  N   UNL     1       5.983   5.658   4.497  1.00  0.00    -0.354 N 
ATOM     21  C   UNL     1       6.736   2.366   7.206  1.00  0.00     0.074 A 
ATOM     22  C   UNL     1       6.008   1.185   6.800  1.00  0.00     0.031 C 
ATOM     23  C   UNL     1       5.082   6.644   2.705  1.00  0.00     0.029 A 
ATOM     24  C   UNL     1       6.107   6.795   3.732  1.00  0.00     0.049 A 
ATOM     25  H   UNL     1       6.512   5.495   5.311  1.00  0.00     0.167 HD
ATOM     26  C   UNL     1       7.567   2.424   8.273  1.00  0.00     0.037 A 
ATOM     27  C   UNL     1       6.958   7.834   3.849  1.00  0.00     0.037 A 
ATOM     28  C   UNL     1       8.303   3.598   8.651  1.00  0.00     0.049 A 
ATOM     29  C   UNL     1       7.901   7.867   5.024  1.00  0.00     0.074 A 
ATOM     30  C   UNL     1       9.072   3.815   9.780  1.00  0.00     0.029 A 
ATOM     31  N   UNL     1       8.382   4.751   7.884  1.00  0.00    -0.354 N 
ATOM     32  N   UNL     1       8.111   6.949   5.937  1.00  0.00    -0.248 NA
ATOM     33  C   UNL     1       8.690   9.094   5.210  1.00  0.00     0.031 C 
ATOM     34  C   UNL     1       9.605   5.107   9.701  1.00  0.00     0.029 A 
ATOM     35  C   UNL     1       9.195   5.680   8.507  1.00  0.00     0.049 A 
ATOM     36  H   UNL     1       7.926   4.887   7.022  1.00  0.00     0.167 HD
ATOM     37  C   UNL     1       9.036   7.495   6.819  1.00  0.00     0.074 A 
ATOM     38  C   UNL     1       9.384   8.804   6.303  1.00  0.00     0.031 C 
ATOM     39  C   UNL     1       9.530   6.974   7.969  1.00  0.00     0.037 A 
BRANCH  26  40
ATOM     40  C   UNL     1       7.627   1.204   9.143  1.00  0.00     0.058 A 
ATOM     41  C   UNL     1       6.905   1.171  10.348  1.00  0.00     0.135 A 
ATOM     42  C   UNL     1       8.331   0.051   8.766  1.00  0.00     0.135 A 
ATOM     43  F   UNL     1       6.206   2.245  10.746  1.00  0.00    -0.206 F 
ATOM     44  C   UNL     1       6.861   0.030  11.141  1.00  0.00     0.059 A 
ATOM     45  C   UNL     1       8.284  -1.109   9.534  1.00  0.00     0.059 A 
ATOM     46  F   UNL     1       9.008   0.021   7.607  1.00  0.00    -0.206 F 
ATOM     47  C   UNL     1       7.535  -1.113  10.713  1.00  0.00     0.060 A 
BRANCH  47  48
ATOM     48  S   UNL     1       7.425  -2.642  11.666  1.00  0.00     0.124 S 
ATOM     49  O   UNL     1       6.515  -3.431  10.840  1.00  0.00    -0.237 OA
ATOM     50  O   UNL     1       8.811  -3.095  11.693  1.00  0.00    -0.237 OA
ATOM     51  O   UNL     1       6.886  -2.204  12.950  1.00  0.00    -0.744 OA
ENDBRANCH  47  48
ENDBRANCH  26  40
BRANCH  27  52
ATOM     52  C   UNL     1       6.969   8.930   2.841  1.00  0.00     0.058 A 
ATOM     53  C   UNL     1       5.893   9.820   2.700  1.00  0.00     0.135 A 
ATOM     54  C   UNL     1       8.078   9.112   2.000  1.00  0.00     0.135 A 
ATOM     55  F   UNL     1       4.803   9.684   3.470  1.00  0.00    -0.206 F 
ATOM     56  C   UNL     1       5.910  10.846   1.759  1.00  0.00     0.059 A 
ATOM     57  C   UNL     1       8.132  10.149   1.074  1.00  0.00     0.059 A 
ATOM     58  F   UNL     1       9.131   8.285   2.089  1.00  0.00    -0.206 F 
ATOM     59  C   UNL     1       7.042  11.012   0.962  1.00  0.00     0.060 A 
BRANCH  59  60
ATOM     60  S   UNL     1       7.111  12.334  -0.267  1.00  0.00     0.124 S 
ATOM     61  O   UNL     1       8.011  13.283   0.378  1.00  0.00    -0.237 OA
ATOM     62  O   UNL     1       7.648  11.637  -1.432  1.00  0.00    -0.237 OA
ATOM     63  O   UNL     1       5.719  12.759  -0.380  1.00  0.00    -0.744 OA
ENDBRANCH  59  60
ENDBRANCH  27  52
BRANCH  39  64
ATOM     64  C   UNL     1      10.490   7.819   8.753  1.00  0.00     0.058 A 
ATOM     65  C   UNL     1      11.858   7.508   8.782  1.00  0.00     0.135 A 
ATOM     66  C   UNL     1      10.039   8.890   9.539  1.00  0.00     0.135 A 
ATOM     67  F   UNL     1      12.335   6.487   8.053  1.00  0.00    -0.206 F 
ATOM     68  C   UNL     1      12.749   8.228   9.571  1.00  0.00     0.059 A 
ATOM     69  C   UNL     1      10.914   9.633  10.322  1.00  0.00     0.059 A 
ATOM     70  F   UNL     1       8.739   9.226   9.541  1.00  0.00    -0.206 F 
ATOM     71  C   UNL     1      12.268   9.292  10.333  1.00  0.00     0.060 A 
BRANCH  71  72
ATOM     72  S   UNL     1      13.387  10.232  11.394  1.00  0.00     0.124 S 
ATOM     73  O   UNL     1      13.528  11.475  10.644  1.00  0.00    -0.237 OA
ATOM     74  O   UNL     1      12.632  10.325  12.640  1.00  0.00    -0.237 OA
ATOM     75  O   UNL     1      14.581   9.394  11.454  1.00  0.00    -0.744 OA
ENDBRANCH  71  72
ENDBRANCH  39  64
ENDBRANCH  13  14
ENDBRANCH   6   8
ENDBRANCH   5   6
ENDBRANCH   4   5
ENDBRANCH   3   4
ENDBRANCH   2   3
ENDBRANCH   1   2
BRANCH   1  76
ATOM     76  C   UNL     1       1.881   0.977  -3.393  1.00  0.00     0.188 C 
BRANCH  76  77
ATOM     77  O   UNL     1       2.757   0.457  -4.394  1.00  0.00    -0.376 OA
BRANCH  77  78
ATOM     78  C   UNL     1       4.131   0.869  -4.328  1.00  0.00     0.202 C 
BRANCH  78  79
ATOM     79  C   UNL     1       4.360   2.371  -4.519  1.00  0.00     0.261 C 
BRANCH  79  80
ATOM     80  O   UNL     1       4.097   3.047  -3.278  1.00  0.00    -0.462 OA
BRANCH  80  81
ATOM     81  C   UNL     1       3.593   4.307  -3.367  1.00  0.00     0.329 C 
ATOM     82  O   UNL     1       3.394   4.897  -4.425  1.00  0.00    -0.250 OA
BRANCH  81  83
ATOM     83  C   UNL     1       3.107   4.803  -1.997  1.00  0.00     0.197 C 
BRANCH  83  84
ATOM     84  C   UNL     1       3.878   4.213  -0.812  1.00  0.00     0.074 C 
BRANCH  84  85
ATOM     85  C   UNL     1       5.363   4.439  -0.743  1.00  0.00    -0.020 A 
ATOM     86  C   UNL     1       6.018   5.649  -0.618  1.00  0.00     0.087 A 
ATOM     87  C   UNL     1       6.376   3.420  -0.638  1.00  0.00     0.003 A 
ATOM     88  N   UNL     1       7.349   5.408  -0.393  1.00  0.00    -0.361 N 
ATOM     89  C   UNL     1       7.585   4.054  -0.356  1.00  0.00     0.046 A 
ATOM     90  C   UNL     1       6.367   2.008  -0.683  1.00  0.00     0.010 A 
ATOM     91  H   UNL     1       8.036   6.103  -0.275  1.00  0.00     0.166 HD
ATOM     92  C   UNL     1       8.764   3.353  -0.070  1.00  0.00     0.026 A 
ATOM     93  C   UNL     1       7.529   1.289  -0.382  1.00  0.00     0.001 A 
ATOM     94  C   UNL     1       8.709   1.956  -0.070  1.00  0.00     0.002 A 
ENDBRANCH  84  85
ENDBRANCH  83  84
BRANCH  83  95
ATOM     95  N   UNL     1       3.052   6.269  -1.954  1.00  0.00    -0.338 N 
ATOM     96  C   UNL     1       1.981   7.105  -2.110  1.00  0.00     0.254 C 
ATOM     97  H   UNL     1       3.913   6.716  -1.788  1.00  0.00     0.164 HD
ATOM     98  O   UNL     1       2.152   8.311  -2.280  1.00  0.00    -0.269 OA
BRANCH  96  99
ATOM     99  C   UNL     1       0.603   6.602  -2.019  1.00  0.00     0.075 A 
ATOM    100  C   UNL     1       0.129   6.033  -0.829  1.00  0.00     0.020 A 
ATOM    101  C   UNL     1      -0.277   6.835  -3.079  1.00  0.00     0.138 A 
ATOM    102  C   UNL     1      -1.221   5.684  -0.724  1.00  0.00     0.040 A 
ATOM    103  C   UNL     1      -1.620   6.490  -2.975  1.00  0.00     0.079 A 
ATOM    104  F   UNL     1       0.151   7.385  -4.224  1.00  0.00    -0.206 F 
ATOM    105  C   UNL     1      -2.081   5.919  -1.796  1.00  0.00     0.126 A 
ATOM    106  F   UNL     1      -3.377   5.600  -1.683  1.00  0.00    -0.207 F 
ENDBRANCH  96  99
ENDBRANCH  83  95
ENDBRANCH  81  83
ENDBRANCH  80  81
ENDBRANCH  79  80
ENDBRANCH  78  79
ENDBRANCH  77  78
ENDBRANCH  76  77
ENDBRANCH   1  76
TORSDOF 24
