REMARK SMILES CCC[C@H]1CC[C@H](C(=O)OCCOCCOCCOC(=O)c2ccc(-c3c4nc(c(-c5c(F)cc(S(=O)(=O)[O-])cc5F)c5ccc([nH]5)c(-c5c(F)cc(S(=O)(=O)[O-])cc5F)c5nc(c(-c6c(F)cc(S(=O)(=O)[O-])cc6F)c6ccc3[nH]6)C=C5)C=C4)cc2)[C@H](Sc2ccncc2)C1
REMARK SMILES IDX 15 1 14 2 13 3 12 4 11 5 10 6 8 7 9 8 7 9 4 10 5 11 96 12
REMARK SMILES IDX 6 13 88 14 3 15 2 16 1 17 89 18 90 19 91 20 95 21 92 22
REMARK SMILES IDX 94 23 93 24 16 25 17 26 18 27 19 28 20 29 21 30 22 31 23 32
REMARK SMILES IDX 87 33 24 34 86 35 25 36 26 37 27 38 80 39 28 40 85 41 79 42
REMARK SMILES IDX 81 43 29 44 84 45 78 46 77 47 30 49 64 50 43 51 63 52 44 53
REMARK SMILES IDX 47 54 62 55 82 56 45 57 46 58 61 60 83 61 48 62 31 63 32 64
REMARK SMILES IDX 41 65 33 66 34 67 40 68 42 69 35 70 36 71 37 72 38 73 39 74
REMARK SMILES IDX 65 75 66 76 75 77 67 78 68 79 74 80 76 81 69 82 70 83 71 84
REMARK SMILES IDX 72 85 73 86 49 87 50 88 59 89 51 90 52 91 58 92 60 93 53 94
REMARK SMILES IDX 54 95 55 96 56 97 57 98
REMARK H PARENT 81 48 47 59
REMARK Flexibility Score: inf
ROOT
ATOM      1  C   UNL     1      -3.431   5.732  -1.796  1.00  0.00     0.188 C 
ENDROOT
BRANCH   1   2
ATOM      2  C   UNL     1      -4.916   5.378  -1.664  1.00  0.00     0.188 C 
BRANCH   2   3
ATOM      3  O   UNL     1      -5.266   4.949  -0.361  1.00  0.00    -0.376 OA
BRANCH   3   4
ATOM      4  C   UNL     1      -5.185   3.546  -0.161  1.00  0.00     0.202 C 
BRANCH   4   5
ATOM      5  C   UNL     1      -3.777   2.986   0.019  1.00  0.00     0.261 C 
BRANCH   5   6
ATOM      6  O   UNL     1      -2.848   2.808  -1.075  1.00  0.00    -0.463 OA
BRANCH   6   7
ATOM      7  C   UNL     1      -3.077   2.676  -2.395  1.00  0.00     0.310 C 
ATOM      8  O   UNL     1      -4.152   2.817  -2.959  1.00  0.00    -0.252 OA
BRANCH   7   9
ATOM      9  C   UNL     1      -1.788   2.369  -3.138  1.00  0.00     0.112 C 
ATOM     10  C   UNL     1       0.590   2.162  -1.282  1.00  0.00    -0.010 C 
ATOM     11  C   UNL     1      -0.032   3.528  -1.640  1.00  0.00     0.004 C 
ATOM     12  C   UNL     1      -0.496   1.058  -1.354  1.00  0.00     0.019 C 
ATOM     13  C   UNL     1      -0.740   3.500  -3.001  1.00  0.00     0.017 C 
ATOM     14  C   UNL     1      -1.202   1.012  -2.720  1.00  0.00     0.066 C 
BRANCH  10  15
ATOM     15  C   UNL     1       1.835   1.953  -2.177  1.00  0.00     0.003 C 
BRANCH  15  16
ATOM     16  C   UNL     1       2.744   0.767  -1.858  1.00  0.00    -0.003 C 
ATOM     17  C   UNL     1       2.206  -0.583  -2.297  1.00  0.00     0.004 C 
ENDBRANCH  15  16
ENDBRANCH  10  15
BRANCH  14  18
ATOM     18  S   UNL     1      -2.289  -0.482  -3.002  1.00  0.00    -0.122 SA
BRANCH  18  19
ATOM     19  C   UNL     1      -3.675  -0.325  -1.888  1.00  0.00     0.011 A 
ATOM     20  C   UNL     1      -4.895   0.192  -2.327  1.00  0.00     0.035 A 
ATOM     21  C   UNL     1      -3.603  -0.834  -0.596  1.00  0.00     0.035 A 
ATOM     22  C   UNL     1      -5.939   0.309  -1.422  1.00  0.00     0.112 A 
ATOM     23  C   UNL     1      -4.718  -0.719   0.224  1.00  0.00     0.112 A 
ATOM     24  N   UNL     1      -5.869  -0.118  -0.144  1.00  0.00    -0.265 NA
ENDBRANCH  18  19
ENDBRANCH  14  18
ENDBRANCH   7   9
ENDBRANCH   6   7
ENDBRANCH   5   6
ENDBRANCH   4   5
ENDBRANCH   3   4
ENDBRANCH   2   3
ENDBRANCH   1   2
BRANCH   1  25
ATOM     25  O   UNL     1      -2.678   6.149  -0.671  1.00  0.00    -0.376 OA
BRANCH  25  26
ATOM     26  C   UNL     1      -3.312   7.006   0.258  1.00  0.00     0.202 C 
BRANCH  26  27
ATOM     27  C   UNL     1      -3.989   8.303  -0.233  1.00  0.00     0.261 C 
BRANCH  27  28
ATOM     28  O   UNL     1      -4.590   8.288  -1.542  1.00  0.00    -0.460 OA
BRANCH  28  29
ATOM     29  C   UNL     1      -3.817   8.728  -2.575  1.00  0.00     0.338 C 
ATOM     30  O   UNL     1      -2.705   9.204  -2.488  1.00  0.00    -0.246 OA
BRANCH  29  31
ATOM     31  C   UNL     1      -4.438   8.310  -3.870  1.00  0.00     0.060 A 
ATOM     32  C   UNL     1      -3.674   7.540  -4.767  1.00  0.00     0.016 A 
ATOM     33  C   UNL     1      -5.744   8.661  -4.205  1.00  0.00     0.016 A 
ATOM     34  C   UNL     1      -4.200   7.139  -5.999  1.00  0.00     0.010 A 
ATOM     35  C   UNL     1      -6.255   8.300  -5.461  1.00  0.00     0.010 A 
ATOM     36  C   UNL     1      -5.475   7.568  -6.379  1.00  0.00    -0.014 A 
BRANCH  36  37
ATOM     37  C   UNL     1      -5.897   7.473  -7.803  1.00  0.00     0.031 A 
ATOM     38  C   UNL     1      -5.735   8.700  -8.665  1.00  0.00     0.074 A 
ATOM     39  C   UNL     1      -6.403   6.345  -8.335  1.00  0.00     0.049 A 
ATOM     40  N   UNL     1      -6.130   8.916  -9.892  1.00  0.00    -0.248 NA
ATOM     41  C   UNL     1      -5.034   9.839  -8.049  1.00  0.00     0.031 C 
ATOM     42  C   UNL     1      -6.553   5.070  -7.638  1.00  0.00     0.029 A 
ATOM     43  N   UNL     1      -6.903   6.101  -9.592  1.00  0.00    -0.354 N 
ATOM     44  C   UNL     1      -5.746  10.220 -10.188  1.00  0.00     0.074 A 
ATOM     45  C   UNL     1      -5.109  10.753  -9.004  1.00  0.00     0.031 C 
ATOM     46  C   UNL     1      -7.132   4.185  -8.469  1.00  0.00     0.029 A 
ATOM     47  C   UNL     1      -7.431   4.840  -9.743  1.00  0.00     0.049 A 
ATOM     48  H   UNL     1      -6.886   6.767 -10.317  1.00  0.00     0.167 HD
ATOM     49  C   UNL     1      -5.904  10.911 -11.342  1.00  0.00     0.037 A 
ATOM     50  C   UNL     1      -8.104   4.290 -10.776  1.00  0.00     0.037 A 
ATOM     51  C   UNL     1      -6.537  10.377 -12.519  1.00  0.00     0.049 A 
ATOM     52  C   UNL     1      -8.347   5.106 -12.025  1.00  0.00     0.074 A 
ATOM     53  C   UNL     1      -6.736  10.995 -13.742  1.00  0.00     0.029 A 
ATOM     54  N   UNL     1      -7.082   9.106 -12.621  1.00  0.00    -0.354 N 
ATOM     55  N   UNL     1      -7.975   6.335 -12.296  1.00  0.00    -0.248 NA
ATOM     56  C   UNL     1      -9.101   4.458 -13.109  1.00  0.00     0.031 C 
ATOM     57  C   UNL     1      -7.453  10.118 -14.563  1.00  0.00     0.029 A 
ATOM     58  C   UNL     1      -7.641   8.929 -13.876  1.00  0.00     0.049 A 
ATOM     59  H   UNL     1      -7.072   8.428 -11.907  1.00  0.00     0.167 HD
ATOM     60  C   UNL     1      -8.418   6.593 -13.591  1.00  0.00     0.074 A 
ATOM     61  C   UNL     1      -9.079   5.391 -14.052  1.00  0.00     0.031 C 
ATOM     62  C   UNL     1      -8.286   7.722 -14.332  1.00  0.00     0.037 A 
BRANCH  49  63
ATOM     63  C   UNL     1      -5.416  12.334 -11.375  1.00  0.00     0.058 A 
ATOM     64  C   UNL     1      -4.048  12.652 -11.359  1.00  0.00     0.135 A 
ATOM     65  C   UNL     1      -6.332  13.396 -11.456  1.00  0.00     0.135 A 
ATOM     66  F   UNL     1      -3.129  11.678 -11.262  1.00  0.00    -0.206 F 
ATOM     67  C   UNL     1      -3.608  13.971 -11.394  1.00  0.00     0.059 A 
ATOM     68  C   UNL     1      -5.913  14.721 -11.525  1.00  0.00     0.059 A 
ATOM     69  F   UNL     1      -7.652  13.151 -11.471  1.00  0.00    -0.206 F 
ATOM     70  C   UNL     1      -4.548  14.999 -11.479  1.00  0.00     0.060 A 
BRANCH  70  71
ATOM     71  S   UNL     1      -3.958  16.704 -11.533  1.00  0.00     0.124 S 
ATOM     72  O   UNL     1      -3.472  16.887 -10.169  1.00  0.00    -0.237 OA
ATOM     73  O   UNL     1      -2.932  16.645 -12.569  1.00  0.00    -0.237 OA
ATOM     74  O   UNL     1      -5.153  17.468 -11.880  1.00  0.00    -0.744 OA
ENDBRANCH  70  71
ENDBRANCH  49  63
BRANCH  50  75
ATOM     75  C   UNL     1      -8.622   2.896 -10.675  1.00  0.00     0.058 A 
ATOM     76  C   UNL     1      -8.102   1.868 -11.477  1.00  0.00     0.135 A 
ATOM     77  C   UNL     1      -9.659   2.566  -9.787  1.00  0.00     0.135 A 
ATOM     78  F   UNL     1      -7.124   2.134 -12.357  1.00  0.00    -0.206 F 
ATOM     79  C   UNL     1      -8.596   0.569 -11.411  1.00  0.00     0.059 A 
ATOM     80  C   UNL     1     -10.150   1.268  -9.682  1.00  0.00     0.059 A 
ATOM     81  F   UNL     1     -10.193   3.510  -8.997  1.00  0.00    -0.206 F 
ATOM     82  C   UNL     1      -9.618   0.277 -10.505  1.00  0.00     0.060 A 
BRANCH  82  83
ATOM     83  S   UNL     1     -10.214  -1.424 -10.392  1.00  0.00     0.124 S 
ATOM     84  O   UNL     1     -10.932  -1.570 -11.653  1.00  0.00    -0.237 OA
ATOM     85  O   UNL     1      -8.969  -2.176 -10.276  1.00  0.00    -0.237 OA
ATOM     86  O   UNL     1     -11.044  -1.410  -9.192  1.00  0.00    -0.744 OA
ENDBRANCH  82  83
ENDBRANCH  50  75
BRANCH  62  87
ATOM     87  C   UNL     1      -8.820   7.707 -15.742  1.00  0.00     0.058 A 
ATOM     88  C   UNL     1     -10.196   7.707 -16.018  1.00  0.00     0.135 A 
ATOM     89  C   UNL     1      -7.936   7.759 -16.833  1.00  0.00     0.135 A 
ATOM     90  F   UNL     1     -11.087   7.655 -15.015  1.00  0.00    -0.206 F 
ATOM     91  C   UNL     1     -10.676   7.734 -17.325  1.00  0.00     0.059 A 
ATOM     92  C   UNL     1      -8.394   7.819 -18.146  1.00  0.00     0.059 A 
ATOM     93  F   UNL     1      -6.609   7.774 -16.629  1.00  0.00    -0.206 F 
ATOM     94  C   UNL     1      -9.767   7.794 -18.383  1.00  0.00     0.060 A 
BRANCH  94  95
ATOM     95  S   UNL     1     -10.405   7.865 -20.070  1.00  0.00     0.124 S 
ATOM     96  O   UNL     1     -10.910   6.508 -20.252  1.00  0.00    -0.237 OA
ATOM     97  O   UNL     1     -11.418   8.912 -19.977  1.00  0.00    -0.237 OA
ATOM     98  O   UNL     1      -9.229   8.208 -20.865  1.00  0.00    -0.744 OA
ENDBRANCH  94  95
ENDBRANCH  62  87
ENDBRANCH  36  37
ENDBRANCH  29  31
ENDBRANCH  28  29
ENDBRANCH  27  28
ENDBRANCH  26  27
ENDBRANCH  25  26
ENDBRANCH   1  25
TORSDOF 24
