REMARK SMILES CS(=O)(=O)c1ccc(NS(=O)(=O)c2ccc(F)c(C(=O)OCCOCCOCCOC(=O)c3ccc(-c4c5nc(c(-c6c(F)cc(S(=O)(=O)[O-])cc6F)c6ccc([nH]6)c(-c6c(F)cc(S(=O)(=O)[O-])cc6F)c6nc(c(-c7c(F)cc(S(=O)(=O)[O-])cc7F)c7ccc4[nH]7)C=C6)C=C5)cc3)c2)cc1
REMARK SMILES IDX 25 1 24 2 23 3 22 4 21 5 19 6 20 7 18 8 13 9 14 10 99 11
REMARK SMILES IDX 15 12 16 13 17 14 10 15 11 16 12 17 9 18 8 20 5 21 6 22
REMARK SMILES IDX 101 23 7 24 100 25 2 26 1 27 3 28 4 29 26 30 27 31 28 32
REMARK SMILES IDX 29 33 30 34 31 35 32 36 33 37 34 38 98 39 35 40 97 41 36 42
REMARK SMILES IDX 37 43 38 44 91 45 39 46 96 47 90 48 92 49 40 50 95 51 89 52
REMARK SMILES IDX 88 53 41 55 75 56 54 57 74 58 55 59 58 60 73 61 93 62 56 63
REMARK SMILES IDX 57 64 72 66 94 67 59 68 42 69 43 70 52 71 44 72 45 73 51 74
REMARK SMILES IDX 53 75 46 76 47 77 48 78 49 79 50 80 76 81 77 82 86 83 78 84
REMARK SMILES IDX 79 85 85 86 87 87 80 88 81 89 82 90 83 91 84 92 60 93 61 94
REMARK SMILES IDX 70 95 62 96 63 97 69 98 71 99 64 100 65 101 66 102 67 103
REMARK SMILES IDX 68 104
REMARK H PARENT 9 19 92 54 58 65
REMARK Flexibility Score: inf
ROOT
ATOM      1  C   UNL     1       8.143   0.988  -3.739  1.00  0.00     0.188 C 
ENDROOT
BRANCH   1   2
ATOM      2  O   UNL     1       9.505   1.258  -3.509  1.00  0.00    -0.376 OA
BRANCH   2   3
ATOM      3  C   UNL     1      10.248   2.018  -4.446  1.00  0.00     0.202 C 
BRANCH   3   4
ATOM      4  C   UNL     1       9.655   2.863  -5.594  1.00  0.00     0.261 C 
BRANCH   4   5
ATOM      5  O   UNL     1       8.230   2.977  -5.679  1.00  0.00    -0.460 OA
BRANCH   5   6
ATOM      6  C   UNL     1       7.655   2.365  -6.746  1.00  0.00     0.341 C 
ATOM      7  O   UNL     1       8.233   1.777  -7.641  1.00  0.00    -0.246 OA
BRANCH   6   8
ATOM      8  C   UNL     1       6.183   2.409  -6.618  1.00  0.00     0.097 A 
ATOM      9  C   UNL     1       4.081   3.545  -6.242  1.00  0.00     0.088 A 
ATOM     10  C   UNL     1       3.387   2.364  -6.547  1.00  0.00     0.025 A 
ATOM     11  C   UNL     1       5.484   3.586  -6.305  1.00  0.00     0.041 A 
ATOM     12  C   UNL     1       4.094   1.188  -6.787  1.00  0.00     0.041 A 
ATOM     13  C   UNL     1       5.485   1.214  -6.813  1.00  0.00     0.137 A 
ATOM     14  F   UNL     1       6.138   0.056  -6.973  1.00  0.00    -0.206 F 
BRANCH   9  15
ATOM     15  S   UNL     1       3.134   5.002  -5.858  1.00  0.00     0.261 S 
ATOM     16  O   UNL     1       1.912   4.954  -6.632  1.00  0.00    -0.201 OA
ATOM     17  O   UNL     1       4.022   6.141  -5.977  1.00  0.00    -0.201 OA
BRANCH  15  18
ATOM     18  N   UNL     1       2.701   4.922  -4.212  1.00  0.00    -0.280 N 
ATOM     19  H   UNL     1       2.886   5.691  -3.626  1.00  0.00     0.180 HD
BRANCH  18  20
ATOM     20  C   UNL     1       2.073   3.754  -3.666  1.00  0.00     0.049 A 
ATOM     21  C   UNL     1       0.915   1.504  -2.475  1.00  0.00     0.067 A 
ATOM     22  C   UNL     1       2.234   1.451  -2.922  1.00  0.00     0.022 A 
ATOM     23  C   UNL     1       0.164   2.673  -2.618  1.00  0.00     0.022 A 
ATOM     24  C   UNL     1       2.819   2.591  -3.471  1.00  0.00     0.028 A 
ATOM     25  C   UNL     1       0.745   3.797  -3.225  1.00  0.00     0.028 A 
BRANCH  21  26
ATOM     26  S   UNL     1       0.197   0.037  -1.763  1.00  0.00     0.175 S 
ATOM     27  C   UNL     1       0.874  -0.003  -0.122  1.00  0.00     0.163 C 
ATOM     28  O   UNL     1       0.739  -1.081  -2.513  1.00  0.00    -0.224 OA
ATOM     29  O   UNL     1      -1.230   0.262  -1.668  1.00  0.00    -0.224 OA
ENDBRANCH  21  26
ENDBRANCH  18  20
ENDBRANCH  15  18
ENDBRANCH   9  15
ENDBRANCH   6   8
ENDBRANCH   5   6
ENDBRANCH   4   5
ENDBRANCH   3   4
ENDBRANCH   2   3
ENDBRANCH   1   2
BRANCH   1  30
ATOM     30  C   UNL     1       7.174   2.038  -3.158  1.00  0.00     0.188 C 
BRANCH  30  31
ATOM     31  O   UNL     1       7.662   3.265  -2.646  1.00  0.00    -0.376 OA
BRANCH  31  32
ATOM     32  C   UNL     1       8.667   3.260  -1.642  1.00  0.00     0.202 C 
BRANCH  32  33
ATOM     33  C   UNL     1       8.693   2.253  -0.473  1.00  0.00     0.261 C 
BRANCH  33  34
ATOM     34  O   UNL     1       8.257   0.916  -0.747  1.00  0.00    -0.460 OA
BRANCH  34  35
ATOM     35  C   UNL     1       7.034   0.593  -0.258  1.00  0.00     0.338 C 
ATOM     36  O   UNL     1       6.268   1.315   0.357  1.00  0.00    -0.246 OA
BRANCH  35  37
ATOM     37  C   UNL     1       6.651  -0.741  -0.760  1.00  0.00     0.060 A 
ATOM     38  C   UNL     1       5.561  -0.835  -1.637  1.00  0.00     0.016 A 
ATOM     39  C   UNL     1       7.320  -1.887  -0.335  1.00  0.00     0.016 A 
ATOM     40  C   UNL     1       5.123  -2.080  -2.082  1.00  0.00     0.010 A 
ATOM     41  C   UNL     1       6.865  -3.137  -0.762  1.00  0.00     0.010 A 
ATOM     42  C   UNL     1       5.749  -3.240  -1.615  1.00  0.00    -0.014 A 
BRANCH  42  43
ATOM     43  C   UNL     1       5.135  -4.564  -1.878  1.00  0.00     0.031 A 
ATOM     44  C   UNL     1       4.300  -5.194  -0.797  1.00  0.00     0.074 A 
ATOM     45  C   UNL     1       5.305  -5.188  -3.057  1.00  0.00     0.049 A 
ATOM     46  N   UNL     1       3.727  -6.368  -0.768  1.00  0.00    -0.248 NA
ATOM     47  C   UNL     1       4.090  -4.391   0.419  1.00  0.00     0.031 C 
ATOM     48  C   UNL     1       6.053  -4.657  -4.195  1.00  0.00     0.029 A 
ATOM     49  N   UNL     1       4.868  -6.416  -3.484  1.00  0.00    -0.354 N 
ATOM     50  C   UNL     1       3.096  -6.450   0.467  1.00  0.00     0.074 A 
ATOM     51  C   UNL     1       3.384  -5.220   1.173  1.00  0.00     0.031 C 
ATOM     52  C   UNL     1       6.037  -5.564  -5.187  1.00  0.00     0.029 A 
ATOM     53  C   UNL     1       5.310  -6.752  -4.741  1.00  0.00     0.049 A 
ATOM     54  H   UNL     1       4.291  -7.002  -2.942  1.00  0.00     0.167 HD
ATOM     55  C   UNL     1       2.341  -7.457   0.965  1.00  0.00     0.037 A 
ATOM     56  C   UNL     1       5.168  -7.898  -5.438  1.00  0.00     0.037 A 
ATOM     57  C   UNL     1       2.064  -8.680   0.257  1.00  0.00     0.049 A 
ATOM     58  C   UNL     1       4.387  -9.037  -4.832  1.00  0.00     0.074 A 
ATOM     59  C   UNL     1       1.298  -9.757   0.668  1.00  0.00     0.029 A 
ATOM     60  N   UNL     1       2.550  -8.994  -1.004  1.00  0.00    -0.354 N 
ATOM     61  N   UNL     1       3.779  -9.098  -3.670  1.00  0.00    -0.248 NA
ATOM     62  C   UNL     1       4.271 -10.265  -5.632  1.00  0.00     0.031 C 
ATOM     63  C   UNL     1       1.370 -10.746  -0.317  1.00  0.00     0.029 A 
ATOM     64  C   UNL     1       2.126 -10.261  -1.373  1.00  0.00     0.049 A 
ATOM     65  H   UNL     1       3.113  -8.404  -1.555  1.00  0.00     0.167 HD
ATOM     66  C   UNL     1       3.181 -10.354  -3.616  1.00  0.00     0.074 A 
ATOM     67  C   UNL     1       3.494 -11.017  -4.865  1.00  0.00     0.031 C 
ATOM     68  C   UNL     1       2.438 -10.907  -2.624  1.00  0.00     0.037 A 
BRANCH  55  69
ATOM     69  C   UNL     1       1.788  -7.293   2.355  1.00  0.00     0.058 A 
ATOM     70  C   UNL     1       0.773  -6.368   2.647  1.00  0.00     0.135 A 
ATOM     71  C   UNL     1       2.264  -8.094   3.406  1.00  0.00     0.135 A 
ATOM     72  F   UNL     1       0.297  -5.559   1.686  1.00  0.00    -0.206 F 
ATOM     73  C   UNL     1       0.268  -6.224   3.935  1.00  0.00     0.059 A 
ATOM     74  C   UNL     1       1.752  -7.989   4.696  1.00  0.00     0.059 A 
ATOM     75  F   UNL     1       3.238  -8.991   3.186  1.00  0.00    -0.206 F 
ATOM     76  C   UNL     1       0.764  -7.040   4.954  1.00  0.00     0.060 A 
BRANCH  76  77
ATOM     77  S   UNL     1       0.099  -6.837   6.619  1.00  0.00     0.124 S 
ATOM     78  O   UNL     1       0.658  -5.543   6.999  1.00  0.00    -0.237 OA
ATOM     79  O   UNL     1      -1.341  -6.860   6.384  1.00  0.00    -0.237 OA
ATOM     80  O   UNL     1       0.633  -7.987   7.342  1.00  0.00    -0.744 OA
ENDBRANCH  76  77
ENDBRANCH  55  69
BRANCH  56  81
ATOM     81  C   UNL     1       5.791  -8.034  -6.783  1.00  0.00     0.058 A 
ATOM     82  C   UNL     1       5.006  -8.130  -7.941  1.00  0.00     0.135 A 
ATOM     83  C   UNL     1       7.186  -8.080  -6.937  1.00  0.00     0.135 A 
ATOM     84  F   UNL     1       3.667  -8.107  -7.848  1.00  0.00    -0.206 F 
ATOM     85  C   UNL     1       5.578  -8.281  -9.201  1.00  0.00     0.059 A 
ATOM     86  C   UNL     1       7.782  -8.201  -8.188  1.00  0.00     0.059 A 
ATOM     87  F   UNL     1       7.985  -7.986  -5.862  1.00  0.00    -0.206 F 
ATOM     88  C   UNL     1       6.969  -8.311  -9.314  1.00  0.00     0.060 A 
BRANCH  88  89
ATOM     89  S   UNL     1       7.700  -8.463 -10.959  1.00  0.00     0.124 S 
ATOM     90  O   UNL     1       7.382  -9.846 -11.296  1.00  0.00    -0.237 OA
ATOM     91  O   UNL     1       6.977  -7.441 -11.709  1.00  0.00    -0.237 OA
ATOM     92  O   UNL     1       9.113  -8.180 -10.726  1.00  0.00    -0.744 OA
ENDBRANCH  88  89
ENDBRANCH  56  81
BRANCH  68  93
ATOM     93  C   UNL     1       1.871 -12.283  -2.859  1.00  0.00     0.058 A 
ATOM     94  C   UNL     1       2.681 -13.429  -2.873  1.00  0.00     0.135 A 
ATOM     95  C   UNL     1       0.485 -12.462  -3.011  1.00  0.00     0.135 A 
ATOM     96  F   UNL     1       4.012 -13.318  -2.736  1.00  0.00    -0.206 F 
ATOM     97  C   UNL     1       2.142 -14.699  -3.055  1.00  0.00     0.059 A 
ATOM     98  C   UNL     1      -0.079 -13.725  -3.162  1.00  0.00     0.059 A 
ATOM     99  F   UNL     1      -0.340 -11.402  -2.993  1.00  0.00    -0.206 F 
ATOM    100  C   UNL     1       0.759 -14.837  -3.195  1.00  0.00     0.060 A 
BRANCH 100 101
ATOM    101  S   UNL     1       0.070 -16.494  -3.394  1.00  0.00     0.124 S 
ATOM    102  O   UNL     1       0.486 -16.826  -4.753  1.00  0.00    -0.237 OA
ATOM    103  O   UNL     1       0.736 -17.238  -2.329  1.00  0.00    -0.237 OA
ATOM    104  O   UNL     1      -1.363 -16.293  -3.208  1.00  0.00    -0.744 OA
ENDBRANCH 100 101
ENDBRANCH  68  93
ENDBRANCH  42  43
ENDBRANCH  35  37
ENDBRANCH  34  35
ENDBRANCH  33  34
ENDBRANCH  32  33
ENDBRANCH  31  32
ENDBRANCH  30  31
ENDBRANCH   1  30
TORSDOF 24
