REMARK SMILES CCc1ccc(CNC(=O)CCC(=O)OCCOCCOCCOC(=O)c2ccc(-c3c4nc(c(-c5c(F)cc(S(=O)(=O)[O-])cc5F)c5ccc([nH]5)c(-c5c(F)cc(S(=O)(=O)[O-])cc5F)c5nc(c(-c6c(F)cc(S(=O)(=O)[O-])cc6F)c6ccc3[nH]6)C=C5)C=C4)cc2)cc1
REMARK SMILES IDX 19 1 18 2 17 3 16 4 15 5 13 6 14 7 12 8 11 9 9 10 8 11 10 13
REMARK SMILES IDX 7 14 6 15 3 16 4 17 94 18 5 19 93 20 2 21 1 22 20 23 21 24
REMARK SMILES IDX 22 25 23 26 24 27 25 28 26 29 27 30 28 31 92 32 29 33 91 34
REMARK SMILES IDX 30 35 31 36 32 37 85 38 33 39 90 40 84 41 86 42 34 43 89 44
REMARK SMILES IDX 83 45 82 46 35 48 69 49 48 50 68 51 49 52 52 53 67 54 87 55
REMARK SMILES IDX 50 56 51 57 66 59 88 60 53 61 36 62 37 63 46 64 38 65 39 66
REMARK SMILES IDX 45 67 47 68 40 69 41 70 42 71 43 72 44 73 70 74 71 75 80 76
REMARK SMILES IDX 72 77 73 78 79 79 81 80 74 81 75 82 76 83 77 84 78 85 54 86
REMARK SMILES IDX 55 87 64 88 56 89 57 90 63 91 65 92 58 93 59 94 60 95 61 96
REMARK SMILES IDX 62 97
REMARK H PARENT 8 12 86 47 52 58
REMARK Flexibility Score: inf
ROOT
ATOM      1  C   UNL     1      -0.444  -2.241  -7.257  1.00  0.00     0.188 C 
ENDROOT
BRANCH   1   2
ATOM      2  O   UNL     1      -0.622  -0.923  -6.754  1.00  0.00    -0.376 OA
BRANCH   2   3
ATOM      3  C   UNL     1       0.022  -0.681  -5.504  1.00  0.00     0.202 C 
BRANCH   3   4
ATOM      4  C   UNL     1      -0.668  -1.434  -4.364  1.00  0.00     0.261 C 
BRANCH   4   5
ATOM      5  O   UNL     1      -0.104  -2.762  -4.266  1.00  0.00    -0.463 OA
BRANCH   5   6
ATOM      6  C   UNL     1      -0.960  -3.809  -4.213  1.00  0.00     0.306 C 
ATOM      7  O   UNL     1      -2.177  -3.714  -4.133  1.00  0.00    -0.252 OA
BRANCH   6   8
ATOM      8  C   UNL     1      -0.233  -5.135  -4.222  1.00  0.00     0.132 C 
BRANCH   8   9
ATOM      9  C   UNL     1       0.941  -5.247  -5.195  1.00  0.00     0.111 C 
BRANCH   9  10
ATOM     10  C   UNL     1       2.225  -5.574  -4.461  1.00  0.00     0.220 C 
ATOM     11  N   UNL     1       3.143  -4.613  -4.175  1.00  0.00    -0.352 N 
ATOM     12  H   UNL     1       3.918  -4.920  -3.652  1.00  0.00     0.163 HD
ATOM     13  O   UNL     1       2.448  -6.723  -4.073  1.00  0.00    -0.275 OA
BRANCH  11  14
ATOM     14  C   UNL     1       3.156  -3.208  -4.521  1.00  0.00     0.151 C 
BRANCH  14  15
ATOM     15  C   UNL     1       2.822  -2.274  -3.381  1.00  0.00    -0.029 A 
ATOM     16  C   UNL     1       1.691  -0.371  -1.620  1.00  0.00    -0.048 A 
ATOM     17  C   UNL     1       1.509  -1.743  -1.404  1.00  0.00     0.004 A 
ATOM     18  C   UNL     1       2.520   0.037  -2.672  1.00  0.00     0.004 A 
ATOM     19  C   UNL     1       2.081  -2.684  -2.265  1.00  0.00     0.006 A 
ATOM     20  C   UNL     1       3.081  -0.904  -3.540  1.00  0.00     0.006 A 
BRANCH  16  21
ATOM     21  C   UNL     1       0.891   0.653  -0.851  1.00  0.00     0.032 C 
ATOM     22  C   UNL     1       0.936   0.486   0.659  1.00  0.00     0.009 C 
ENDBRANCH  16  21
ENDBRANCH  14  15
ENDBRANCH  11  14
ENDBRANCH   9  10
ENDBRANCH   8   9
ENDBRANCH   6   8
ENDBRANCH   5   6
ENDBRANCH   4   5
ENDBRANCH   3   4
ENDBRANCH   2   3
ENDBRANCH   1   2
BRANCH   1  23
ATOM     23  C   UNL     1       0.773  -2.333  -8.151  1.00  0.00     0.188 C 
BRANCH  23  24
ATOM     24  O   UNL     1       2.064  -2.186  -7.573  1.00  0.00    -0.376 OA
BRANCH  24  25
ATOM     25  C   UNL     1       2.860  -1.177  -8.212  1.00  0.00     0.202 C 
BRANCH  25  26
ATOM     26  C   UNL     1       3.154  -1.307  -9.733  1.00  0.00     0.261 C 
BRANCH  26  27
ATOM     27  O   UNL     1       1.967  -1.377 -10.554  1.00  0.00    -0.460 OA
BRANCH  27  28
ATOM     28  C   UNL     1       1.639  -2.624 -11.014  1.00  0.00     0.338 C 
ATOM     29  O   UNL     1       2.365  -3.588 -11.029  1.00  0.00    -0.246 OA
BRANCH  28  30
ATOM     30  C   UNL     1       0.152  -2.713 -11.196  1.00  0.00     0.060 A 
ATOM     31  C   UNL     1      -0.475  -3.905 -10.790  1.00  0.00     0.016 A 
ATOM     32  C   UNL     1      -0.631  -1.638 -11.623  1.00  0.00     0.016 A 
ATOM     33  C   UNL     1      -1.867  -4.034 -10.827  1.00  0.00     0.010 A 
ATOM     34  C   UNL     1      -2.025  -1.781 -11.702  1.00  0.00     0.010 A 
ATOM     35  C   UNL     1      -2.647  -2.990 -11.336  1.00  0.00    -0.014 A 
BRANCH  35  36
ATOM     36  C   UNL     1      -4.037  -3.272 -11.783  1.00  0.00     0.031 A 
ATOM     37  C   UNL     1      -4.207  -3.742 -13.207  1.00  0.00     0.074 A 
ATOM     38  C   UNL     1      -5.112  -3.144 -10.983  1.00  0.00     0.049 A 
ATOM     39  N   UNL     1      -5.298  -3.980 -13.884  1.00  0.00    -0.248 NA
ATOM     40  C   UNL     1      -2.965  -3.970 -13.968  1.00  0.00     0.031 C 
ATOM     41  C   UNL     1      -5.088  -2.763  -9.573  1.00  0.00     0.029 A 
ATOM     42  N   UNL     1      -6.449  -3.317 -11.259  1.00  0.00    -0.354 N 
ATOM     43  C   UNL     1      -4.875  -4.379 -15.147  1.00  0.00     0.074 A 
ATOM     44  C   UNL     1      -3.432  -4.328 -15.153  1.00  0.00     0.031 C 
ATOM     45  C   UNL     1      -6.353  -2.708  -9.114  1.00  0.00     0.029 A 
ATOM     46  C   UNL     1      -7.279  -3.019 -10.203  1.00  0.00     0.049 A 
ATOM     47  H   UNL     1      -6.782  -3.627 -12.133  1.00  0.00     0.167 HD
ATOM     48  C   UNL     1      -5.620  -4.760 -16.209  1.00  0.00     0.037 A 
ATOM     49  C   UNL     1      -8.628  -2.976 -10.137  1.00  0.00     0.037 A 
ATOM     50  C   UNL     1      -7.056  -4.799 -16.212  1.00  0.00     0.049 A 
ATOM     51  C   UNL     1      -9.442  -3.317 -11.366  1.00  0.00     0.074 A 
ATOM     52  C   UNL     1      -7.903  -5.159 -17.244  1.00  0.00     0.029 A 
ATOM     53  N   UNL     1      -7.856  -4.460 -15.132  1.00  0.00    -0.354 N 
ATOM     54  N   UNL     1      -9.030  -3.697 -12.554  1.00  0.00    -0.248 NA
ATOM     55  C   UNL     1     -10.906  -3.223 -11.247  1.00  0.00     0.031 C 
ATOM     56  C   UNL     1      -9.219  -4.993 -16.803  1.00  0.00     0.029 A 
ATOM     57  C   UNL     1      -9.190  -4.584 -15.479  1.00  0.00     0.049 A 
ATOM     58  H   UNL     1      -7.526  -4.174 -14.250  1.00  0.00     0.167 HD
ATOM     59  C   UNL     1     -10.182  -3.919 -13.306  1.00  0.00     0.074 A 
ATOM     60  C   UNL     1     -11.307  -3.639 -12.440  1.00  0.00     0.031 C 
ATOM     61  C   UNL     1     -10.299  -4.321 -14.597  1.00  0.00     0.037 A 
BRANCH  48  62
ATOM     62  C   UNL     1      -4.889  -5.135 -17.467  1.00  0.00     0.058 A 
ATOM     63  C   UNL     1      -4.162  -6.332 -17.568  1.00  0.00     0.135 A 
ATOM     64  C   UNL     1      -4.937  -4.298 -18.592  1.00  0.00     0.135 A 
ATOM     65  F   UNL     1      -4.059  -7.152 -16.510  1.00  0.00    -0.206 F 
ATOM     66  C   UNL     1      -3.496  -6.679 -18.738  1.00  0.00     0.059 A 
ATOM     67  C   UNL     1      -4.301  -4.638 -19.782  1.00  0.00     0.059 A 
ATOM     68  F   UNL     1      -5.607  -3.136 -18.543  1.00  0.00    -0.206 F 
ATOM     69  C   UNL     1      -3.575  -5.827 -19.841  1.00  0.00     0.060 A 
BRANCH  69  70
ATOM     70  S   UNL     1      -2.723  -6.303 -21.359  1.00  0.00     0.124 S 
ATOM     71  O   UNL     1      -1.327  -6.103 -20.984  1.00  0.00    -0.237 OA
ATOM     72  O   UNL     1      -3.142  -7.691 -21.527  1.00  0.00    -0.237 OA
ATOM     73  O   UNL     1      -3.246  -5.369 -22.350  1.00  0.00    -0.744 OA
ENDBRANCH  69  70
ENDBRANCH  48  62
BRANCH  49  74
ATOM     74  C   UNL     1      -9.315  -2.565  -8.879  1.00  0.00     0.058 A 
ATOM     75  C   UNL     1     -10.108  -3.467  -8.152  1.00  0.00     0.135 A 
ATOM     76  C   UNL     1      -9.236  -1.246  -8.404  1.00  0.00     0.135 A 
ATOM     77  F   UNL     1     -10.236  -4.735  -8.572  1.00  0.00    -0.206 F 
ATOM     78  C   UNL     1     -10.814  -3.074  -7.017  1.00  0.00     0.059 A 
ATOM     79  C   UNL     1      -9.910  -0.835  -7.257  1.00  0.00     0.059 A 
ATOM     80  F   UNL     1      -8.495  -0.339  -9.059  1.00  0.00    -0.206 F 
ATOM     81  C   UNL     1     -10.709  -1.753  -6.578  1.00  0.00     0.060 A 
BRANCH  81  82
ATOM     82  S   UNL     1     -11.612  -1.256  -5.093  1.00  0.00     0.124 S 
ATOM     83  O   UNL     1     -12.985  -1.218  -5.582  1.00  0.00    -0.237 OA
ATOM     84  O   UNL     1     -11.295  -2.337  -4.165  1.00  0.00    -0.237 OA
ATOM     85  O   UNL     1     -11.024   0.038  -4.761  1.00  0.00    -0.744 OA
ENDBRANCH  81  82
ENDBRANCH  49  74
BRANCH  61  86
ATOM     86  C   UNL     1     -11.684  -4.537 -15.146  1.00  0.00     0.058 A 
ATOM     87  C   UNL     1     -12.537  -3.466 -15.450  1.00  0.00     0.135 A 
ATOM     88  C   UNL     1     -12.132  -5.835 -15.443  1.00  0.00     0.135 A 
ATOM     89  F   UNL     1     -12.159  -2.205 -15.186  1.00  0.00    -0.206 F 
ATOM     90  C   UNL     1     -13.795  -3.674 -16.009  1.00  0.00     0.059 A 
ATOM     91  C   UNL     1     -13.373  -6.066 -16.029  1.00  0.00     0.059 A 
ATOM     92  F   UNL     1     -11.350  -6.896 -15.187  1.00  0.00    -0.206 F 
ATOM     93  C   UNL     1     -14.203  -4.978 -16.298  1.00  0.00     0.060 A 
BRANCH  93  94
ATOM     94  S   UNL     1     -15.820  -5.232 -17.060  1.00  0.00     0.124 S 
ATOM     95  O   UNL     1     -16.718  -4.972 -15.940  1.00  0.00    -0.237 OA
ATOM     96  O   UNL     1     -15.826  -4.231 -18.122  1.00  0.00    -0.237 OA
ATOM     97  O   UNL     1     -15.768  -6.619 -17.515  1.00  0.00    -0.744 OA
ENDBRANCH  93  94
ENDBRANCH  61  86
ENDBRANCH  35  36
ENDBRANCH  28  30
ENDBRANCH  27  28
ENDBRANCH  26  27
ENDBRANCH  25  26
ENDBRANCH  24  25
ENDBRANCH  23  24
ENDBRANCH   1  23
TORSDOF 25
