REMARK SMILES CN(C)S(=O)(=O)c1cccc(-c2cc(Cl)cc(C(=O)OCCOCCOCCOC(=O)c3ccc(-c4c5nc(c(-c6c(F)cc(S(=O)(=O)[O-])cc6F)c6ccc([nH]6)c(-c6c(F)cc(S(=O)(=O)[O-])cc6F)c6nc(c(-c7c(F)cc(S(=O)(=O)[O-])cc7F)c7ccc4[nH]7)C=C6)C=C5)cc3)c2)c1
REMARK SMILES IDX 24 1 23 2 22 3 21 4 20 5 18 6 19 7 17 8 12 9 13 10 98 11
REMARK SMILES IDX 14 12 15 13 16 14 11 15 7 16 8 17 99 18 9 19 10 20 4 21 5 22
REMARK SMILES IDX 6 23 2 24 1 25 3 26 25 27 26 28 27 29 28 30 29 31 30 32
REMARK SMILES IDX 31 33 32 34 33 35 97 36 34 37 96 38 35 39 36 40 37 41 90 42
REMARK SMILES IDX 38 43 95 44 89 45 91 46 39 47 94 48 88 49 87 50 40 52 74 53
REMARK SMILES IDX 53 54 73 55 54 56 57 57 72 58 92 59 55 60 56 61 71 63 93 64
REMARK SMILES IDX 58 65 41 66 42 67 51 68 43 69 44 70 50 71 52 72 45 73 46 74
REMARK SMILES IDX 47 75 48 76 49 77 75 78 76 79 85 80 77 81 78 82 84 83 86 84
REMARK SMILES IDX 79 85 80 86 81 87 82 88 83 89 59 90 60 91 69 92 61 93 62 94
REMARK SMILES IDX 68 95 70 96 63 97 64 98 65 99 66 100 67 101
REMARK H PARENT 91 51 57 62
REMARK Flexibility Score: inf
ROOT
ATOM      1  C   UNL     1       0.484   4.746  10.841  1.00  0.00     0.188 C 
ENDROOT
BRANCH   1   2
ATOM      2  O   UNL     1       1.070   3.801  11.725  1.00  0.00    -0.376 OA
BRANCH   2   3
ATOM      3  C   UNL     1       1.654   2.615  11.203  1.00  0.00     0.202 C 
BRANCH   3   4
ATOM      4  C   UNL     1       0.819   1.705  10.296  1.00  0.00     0.261 C 
BRANCH   4   5
ATOM      5  O   UNL     1       0.313   2.377   9.133  1.00  0.00    -0.460 OA
BRANCH   5   6
ATOM      6  C   UNL     1      -1.034   2.353   8.980  1.00  0.00     0.338 C 
ATOM      7  O   UNL     1      -1.845   1.750   9.661  1.00  0.00    -0.246 OA
BRANCH   6   8
ATOM      8  C   UNL     1      -1.420   3.325   7.937  1.00  0.00     0.062 A 
ATOM      9  C   UNL     1      -1.101   4.321   5.725  1.00  0.00    -0.016 A 
ATOM     10  C   UNL     1      -2.136   5.221   6.028  1.00  0.00     0.029 A 
ATOM     11  C   UNL     1      -0.737   3.389   6.718  1.00  0.00     0.024 A 
ATOM     12  C   UNL     1      -2.798   5.169   7.259  1.00  0.00     0.042 A 
ATOM     13  Cl  UNL     1      -4.035   6.312   7.608  1.00  0.00    -0.084 Cl
ATOM     14  C   UNL     1      -2.462   4.211   8.209  1.00  0.00     0.036 A 
BRANCH   9  15
ATOM     15  C   UNL     1      -0.421   4.318   4.412  1.00  0.00    -0.017 A 
ATOM     16  C   UNL     1       0.651   3.071   2.607  1.00  0.00     0.083 A 
ATOM     17  C   UNL     1       0.977   4.252   1.943  1.00  0.00     0.022 A 
ATOM     18  C   UNL     1      -0.054   3.101   3.813  1.00  0.00     0.030 A 
ATOM     19  C   UNL     1       0.590   5.469   2.502  1.00  0.00     0.002 A 
ATOM     20  C   UNL     1      -0.094   5.501   3.726  1.00  0.00     0.009 A 
BRANCH  16  21
ATOM     21  S   UNL     1       1.214   1.512   1.981  1.00  0.00     0.242 S 
ATOM     22  O   UNL     1       0.709   0.462   2.837  1.00  0.00    -0.207 OA
ATOM     23  O   UNL     1       2.637   1.641   1.725  1.00  0.00    -0.207 OA
BRANCH  21  24
ATOM     24  N   UNL     1       0.421   1.349   0.470  1.00  0.00    -0.204 NA
ATOM     25  C   UNL     1       0.908   0.161  -0.274  1.00  0.00     0.124 C 
ATOM     26  C   UNL     1      -1.059   1.364   0.535  1.00  0.00     0.124 C 
ENDBRANCH  21  24
ENDBRANCH  16  21
ENDBRANCH   9  15
ENDBRANCH   6   8
ENDBRANCH   5   6
ENDBRANCH   4   5
ENDBRANCH   3   4
ENDBRANCH   2   3
ENDBRANCH   1   2
BRANCH   1  27
ATOM     27  C   UNL     1       1.269   5.237   9.607  1.00  0.00     0.188 C 
BRANCH  27  28
ATOM     28  O   UNL     1       2.575   4.747   9.436  1.00  0.00    -0.376 OA
BRANCH  28  29
ATOM     29  C   UNL     1       3.680   5.317  10.111  1.00  0.00     0.202 C 
BRANCH  29  30
ATOM     30  C   UNL     1       3.641   6.441  11.164  1.00  0.00     0.261 C 
BRANCH  30  31
ATOM     31  O   UNL     1       2.375   6.959  11.563  1.00  0.00    -0.460 OA
BRANCH  31  32
ATOM     32  C   UNL     1       2.011   8.130  10.988  1.00  0.00     0.338 C 
ATOM     33  O   UNL     1       2.608   8.743  10.120  1.00  0.00    -0.246 OA
BRANCH  32  34
ATOM     34  C   UNL     1       0.660   8.478  11.467  1.00  0.00     0.060 A 
ATOM     35  C   UNL     1      -0.382   8.547  10.536  1.00  0.00     0.016 A 
ATOM     36  C   UNL     1       0.431   8.749  12.818  1.00  0.00     0.016 A 
ATOM     37  C   UNL     1      -1.661   8.916  10.953  1.00  0.00     0.010 A 
ATOM     38  C   UNL     1      -0.847   9.135  13.230  1.00  0.00     0.010 A 
ATOM     39  C   UNL     1      -1.892   9.246  12.296  1.00  0.00    -0.014 A 
BRANCH  39  40
ATOM     40  C   UNL     1      -3.186   9.850  12.695  1.00  0.00     0.031 A 
ATOM     41  C   UNL     1      -3.284  11.348  12.797  1.00  0.00     0.074 A 
ATOM     42  C   UNL     1      -4.258   9.082  12.954  1.00  0.00     0.049 A 
ATOM     43  N   UNL     1      -4.298  12.091  13.154  1.00  0.00    -0.248 NA
ATOM     44  C   UNL     1      -2.072  12.109  12.449  1.00  0.00     0.031 C 
ATOM     45  C   UNL     1      -4.296   7.623  12.865  1.00  0.00     0.029 A 
ATOM     46  N   UNL     1      -5.525   9.428  13.356  1.00  0.00    -0.354 N 
ATOM     47  C   UNL     1      -3.852  13.404  13.075  1.00  0.00     0.074 A 
ATOM     48  C   UNL     1      -2.465  13.356  12.664  1.00  0.00     0.031 C 
ATOM     49  C   UNL     1      -5.522   7.197  13.216  1.00  0.00     0.029 A 
ATOM     50  C   UNL     1      -6.346   8.349  13.579  1.00  0.00     0.049 A 
ATOM     51  H   UNL     1      -5.816  10.360  13.474  1.00  0.00     0.167 HD
ATOM     52  C   UNL     1      -4.537  14.547  13.313  1.00  0.00     0.037 A 
ATOM     53  C   UNL     1      -7.612   8.298  14.040  1.00  0.00     0.037 A 
ATOM     54  C   UNL     1      -5.915  14.592  13.729  1.00  0.00     0.049 A 
ATOM     55  C   UNL     1      -8.335   9.582  14.363  1.00  0.00     0.074 A 
ATOM     56  C   UNL     1      -6.702  15.702  13.979  1.00  0.00     0.029 A 
ATOM     57  N   UNL     1      -6.706  13.478  13.968  1.00  0.00    -0.354 N 
ATOM     58  N   UNL     1      -7.911  10.819  14.253  1.00  0.00    -0.248 NA
ATOM     59  C   UNL     1      -9.709   9.462  14.871  1.00  0.00     0.031 C 
ATOM     60  C   UNL     1      -7.957  15.259  14.413  1.00  0.00     0.029 A 
ATOM     61  C   UNL     1      -7.966  13.874  14.386  1.00  0.00     0.049 A 
ATOM     62  H   UNL     1      -6.415  12.544  13.857  1.00  0.00     0.167 HD
ATOM     63  C   UNL     1      -8.974  11.623  14.652  1.00  0.00     0.074 A 
ATOM     64  C   UNL     1     -10.064  10.734  14.996  1.00  0.00     0.031 C 
ATOM     65  C   UNL     1      -9.044  12.976  14.723  1.00  0.00     0.037 A 
BRANCH  52  66
ATOM     66  C   UNL     1      -3.797  15.845  13.150  1.00  0.00     0.058 A 
ATOM     67  C   UNL     1      -3.452  16.342  11.884  1.00  0.00     0.135 A 
ATOM     68  C   UNL     1      -3.450  16.613  14.273  1.00  0.00     0.135 A 
ATOM     69  F   UNL     1      -3.743  15.638  10.778  1.00  0.00    -0.206 F 
ATOM     70  C   UNL     1      -2.767  17.544  11.737  1.00  0.00     0.059 A 
ATOM     71  C   UNL     1      -2.787  17.829  14.149  1.00  0.00     0.059 A 
ATOM     72  F   UNL     1      -3.753  16.181  15.507  1.00  0.00    -0.206 F 
ATOM     73  C   UNL     1      -2.437  18.280  12.877  1.00  0.00     0.060 A 
BRANCH  73  74
ATOM     74  S   UNL     1      -1.549  19.838  12.671  1.00  0.00     0.124 S 
ATOM     75  O   UNL     1      -0.211  19.366  12.325  1.00  0.00    -0.237 OA
ATOM     76  O   UNL     1      -2.292  20.482  11.592  1.00  0.00    -0.237 OA
ATOM     77  O   UNL     1      -1.670  20.474  13.979  1.00  0.00    -0.744 OA
ENDBRANCH  73  74
ENDBRANCH  52  66
BRANCH  53  78
ATOM     78  C   UNL     1      -8.280   6.984  14.237  1.00  0.00     0.058 A 
ATOM     79  C   UNL     1      -9.338   6.577  13.412  1.00  0.00     0.135 A 
ATOM     80  C   UNL     1      -7.877   6.112  15.261  1.00  0.00     0.135 A 
ATOM     81  F   UNL     1      -9.768   7.382  12.428  1.00  0.00    -0.206 F 
ATOM     82  C   UNL     1      -9.983   5.359  13.601  1.00  0.00     0.059 A 
ATOM     83  C   UNL     1      -8.490   4.879  15.456  1.00  0.00     0.059 A 
ATOM     84  F   UNL     1      -6.864   6.452  16.075  1.00  0.00    -0.206 F 
ATOM     85  C   UNL     1      -9.550   4.515  14.626  1.00  0.00     0.060 A 
BRANCH  85  86
ATOM     86  S   UNL     1     -10.367   2.918  14.837  1.00  0.00     0.124 S 
ATOM     87  O   UNL     1     -11.637   3.314  15.433  1.00  0.00    -0.237 OA
ATOM     88  O   UNL     1     -10.432   2.422  13.466  1.00  0.00    -0.237 OA
ATOM     89  O   UNL     1      -9.456   2.190  15.716  1.00  0.00    -0.744 OA
ENDBRANCH  85  86
ENDBRANCH  53  78
BRANCH  65  90
ATOM     90  C   UNL     1     -10.349  13.584  15.160  1.00  0.00     0.058 A 
ATOM     91  C   UNL     1     -10.775  13.534  16.496  1.00  0.00     0.135 A 
ATOM     92  C   UNL     1     -11.158  14.270  14.239  1.00  0.00     0.135 A 
ATOM     93  F   UNL     1     -10.042  12.888  17.416  1.00  0.00    -0.206 F 
ATOM     94  C   UNL     1     -11.970  14.123  16.900  1.00  0.00     0.059 A 
ATOM     95  C   UNL     1     -12.343  14.888  14.626  1.00  0.00     0.059 A 
ATOM     96  F   UNL     1     -10.790  14.358  12.951  1.00  0.00    -0.206 F 
ATOM     97  C   UNL     1     -12.748  14.798  15.957  1.00  0.00     0.060 A 
BRANCH  97  98
ATOM     98  S   UNL     1     -14.281  15.585  16.498  1.00  0.00     0.124 S 
ATOM     99  O   UNL     1     -15.162  14.432  16.657  1.00  0.00    -0.237 OA
ATOM    100  O   UNL     1     -13.875  16.248  17.733  1.00  0.00    -0.237 OA
ATOM    101  O   UNL     1     -14.611  16.480  15.393  1.00  0.00    -0.744 OA
ENDBRANCH  97  98
ENDBRANCH  65  90
ENDBRANCH  39  40
ENDBRANCH  32  34
ENDBRANCH  31  32
ENDBRANCH  30  31
ENDBRANCH  29  30
ENDBRANCH  28  29
ENDBRANCH  27  28
ENDBRANCH   1  27
TORSDOF 23
