REMARK SMILES CC1(C)CCC[C@@H]1Nc1nc2c(cc1C(=O)OCCOCCOCCOC(=O)c1ccc(-c3c4nc(c(-c5c(F)cc(S(=O)(=O)[O-])cc5F)c5ccc([nH]5)c(-c5c(F)cc(S(=O)(=O)[O-])cc5F)c5nc(c(-c6c(F)cc(S(=O)(=O)[O-])cc6F)c6ccc3[nH]6)C=C5)C=C4)cc1)CCC2
REMARK SMILES IDX 22 1 21 2 20 3 19 4 18 5 17 6 15 7 16 8 14 9 9 10 10 11
REMARK SMILES IDX 11 12 13 13 12 14 97 15 95 16 96 17 8 18 7 20 1 21 2 22 3 23
REMARK SMILES IDX 4 24 5 25 6 26 23 27 24 28 25 29 26 30 27 31 28 32 29 33
REMARK SMILES IDX 30 34 94 35 31 36 93 37 32 38 33 39 34 40 87 41 35 42 92 43
REMARK SMILES IDX 86 44 88 45 36 46 91 47 85 48 84 49 37 51 71 52 50 53 70 54
REMARK SMILES IDX 51 55 54 56 69 57 89 58 52 59 53 60 68 62 90 63 55 64 38 65
REMARK SMILES IDX 39 66 48 67 40 68 41 69 47 70 49 71 42 72 43 73 44 74 45 75
REMARK SMILES IDX 46 76 72 77 73 78 82 79 74 80 75 81 81 82 83 83 76 84 77 85
REMARK SMILES IDX 78 86 79 87 80 88 56 89 57 90 66 91 58 92 59 93 65 94 67 95
REMARK SMILES IDX 60 96 61 97 62 98 63 99 64 100
REMARK H PARENT 8 19 88 50 54 61
REMARK Flexibility Score: inf
ROOT
ATOM      1  C   UNL     1       1.631   4.787   2.126  1.00  0.00     0.188 C 
ENDROOT
BRANCH   1   2
ATOM      2  C   UNL     1       0.808   5.042   3.412  1.00  0.00     0.188 C 
BRANCH   2   3
ATOM      3  O   UNL     1       1.073   4.280   4.579  1.00  0.00    -0.376 OA
BRANCH   3   4
ATOM      4  C   UNL     1       0.892   2.872   4.540  1.00  0.00     0.202 C 
BRANCH   4   5
ATOM      5  C   UNL     1      -0.274   2.267   3.753  1.00  0.00     0.261 C 
BRANCH   5   6
ATOM      6  O   UNL     1      -0.369   2.793   2.423  1.00  0.00    -0.460 OA
BRANCH   6   7
ATOM      7  C   UNL     1      -1.607   3.103   1.975  1.00  0.00     0.341 C 
ATOM      8  O   UNL     1      -2.654   2.945   2.582  1.00  0.00    -0.246 OA
BRANCH   7   9
ATOM      9  C   UNL     1      -1.535   3.813   0.684  1.00  0.00     0.102 A 
ATOM     10  C   UNL     1      -0.883   3.335  -0.468  1.00  0.00     0.141 A 
ATOM     11  N   UNL     1      -0.928   4.027  -1.638  1.00  0.00    -0.235 NA
ATOM     12  C   UNL     1      -1.590   5.196  -1.642  1.00  0.00     0.046 A 
ATOM     13  C   UNL     1      -2.174   5.068   0.652  1.00  0.00     0.025 A 
ATOM     14  C   UNL     1      -2.181   5.770  -0.534  1.00  0.00    -0.025 A 
ATOM     15  C   UNL     1      -1.913   5.978  -2.884  1.00  0.00     0.057 C 
ATOM     16  C   UNL     1      -2.826   7.075  -0.863  1.00  0.00     0.038 C 
ATOM     17  C   UNL     1      -2.314   7.334  -2.291  1.00  0.00     0.011 C 
BRANCH  10  18
ATOM     18  N   UNL     1      -0.154   2.182  -0.611  1.00  0.00    -0.366 N 
ATOM     19  H   UNL     1       0.625   2.216  -1.212  1.00  0.00     0.162 HD
BRANCH  18  20
ATOM     20  C   UNL     1      -0.427   0.926   0.041  1.00  0.00     0.086 C 
ATOM     21  C   UNL     1       1.892  -0.007   0.550  1.00  0.00     0.013 C 
ATOM     22  C   UNL     1       0.604  -0.182  -0.267  1.00  0.00    -0.015 C 
ATOM     23  C   UNL     1       0.969  -0.315  -1.755  1.00  0.00     0.013 C 
ATOM     24  C   UNL     1      -0.189  -1.415   0.208  1.00  0.00     0.008 C 
ATOM     25  C   UNL     1      -1.629  -1.164  -0.240  1.00  0.00     0.003 C 
ATOM     26  C   UNL     1      -1.775   0.348  -0.384  1.00  0.00     0.025 C 
ENDBRANCH  18  20
ENDBRANCH  10  18
ENDBRANCH   7   9
ENDBRANCH   6   7
ENDBRANCH   5   6
ENDBRANCH   4   5
ENDBRANCH   3   4
ENDBRANCH   2   3
ENDBRANCH   1   2
BRANCH   1  27
ATOM     27  O   UNL     1       2.530   3.703   2.092  1.00  0.00    -0.376 OA
BRANCH  27  28
ATOM     28  C   UNL     1       3.745   3.763   2.816  1.00  0.00     0.202 C 
BRANCH  28  29
ATOM     29  C   UNL     1       4.396   5.048   3.363  1.00  0.00     0.261 C 
BRANCH  29  30
ATOM     30  O   UNL     1       3.540   6.151   3.672  1.00  0.00    -0.460 OA
BRANCH  30  31
ATOM     31  C   UNL     1       3.633   7.220   2.840  1.00  0.00     0.338 C 
ATOM     32  O   UNL     1       4.359   7.338   1.865  1.00  0.00    -0.246 OA
BRANCH  31  33
ATOM     33  C   UNL     1       2.566   8.177   3.185  1.00  0.00     0.060 A 
ATOM     34  C   UNL     1       1.477   8.330   2.314  1.00  0.00     0.016 A 
ATOM     35  C   UNL     1       2.646   8.920   4.362  1.00  0.00     0.016 A 
ATOM     36  C   UNL     1       0.455   9.226   2.625  1.00  0.00     0.010 A 
ATOM     37  C   UNL     1       1.647   9.853   4.648  1.00  0.00     0.010 A 
ATOM     38  C   UNL     1       0.562  10.026   3.770  1.00  0.00    -0.014 A 
BRANCH  38  39
ATOM     39  C   UNL     1      -0.313  11.213   3.910  1.00  0.00     0.031 A 
ATOM     40  C   UNL     1       0.159  12.500   3.290  1.00  0.00     0.074 A 
ATOM     41  C   UNL     1      -1.492  11.157   4.556  1.00  0.00     0.049 A 
ATOM     42  N   UNL     1      -0.394  13.683   3.312  1.00  0.00    -0.248 NA
ATOM     43  C   UNL     1       1.426  12.440   2.540  1.00  0.00     0.031 C 
ATOM     44  C   UNL     1      -2.078   9.958   5.151  1.00  0.00     0.029 A 
ATOM     45  N   UNL     1      -2.406  12.146   4.822  1.00  0.00    -0.354 N 
ATOM     46  C   UNL     1       0.449  14.504   2.574  1.00  0.00     0.074 A 
ATOM     47  C   UNL     1       1.568  13.696   2.145  1.00  0.00     0.031 C 
ATOM     48  C   UNL     1      -3.249  10.286   5.727  1.00  0.00     0.029 A 
ATOM     49  C   UNL     1      -3.480  11.722   5.567  1.00  0.00     0.049 A 
ATOM     50  H   UNL     1      -2.301  13.074   4.508  1.00  0.00     0.167 HD
ATOM     51  C   UNL     1       0.299  15.813   2.270  1.00  0.00     0.037 A 
ATOM     52  C   UNL     1      -4.516  12.421   6.077  1.00  0.00     0.037 A 
ATOM     53  C   UNL     1      -0.803  16.619   2.718  1.00  0.00     0.049 A 
ATOM     54  C   UNL     1      -4.602  13.907   5.820  1.00  0.00     0.074 A 
ATOM     55  C   UNL     1      -1.044  17.958   2.467  1.00  0.00     0.029 A 
ATOM     56  N   UNL     1      -1.841  16.167   3.519  1.00  0.00    -0.354 N 
ATOM     57  N   UNL     1      -3.812  14.668   5.100  1.00  0.00    -0.248 NA
ATOM     58  C   UNL     1      -5.718  14.630   6.449  1.00  0.00     0.031 C 
ATOM     59  C   UNL     1      -2.198  18.329   3.161  1.00  0.00     0.029 A 
ATOM     60  C   UNL     1      -2.709  17.209   3.797  1.00  0.00     0.049 A 
ATOM     61  H   UNL     1      -1.945  15.243   3.841  1.00  0.00     0.167 HD
ATOM     62  C   UNL     1      -4.348  15.952   5.170  1.00  0.00     0.074 A 
ATOM     63  C   UNL     1      -5.538  15.862   5.989  1.00  0.00     0.031 C 
ATOM     64  C   UNL     1      -3.895  17.102   4.610  1.00  0.00     0.037 A 
BRANCH  51  65
ATOM     65  C   UNL     1       1.356  16.458   1.422  1.00  0.00     0.058 A 
ATOM     66  C   UNL     1       1.472  16.171   0.053  1.00  0.00     0.135 A 
ATOM     67  C   UNL     1       2.225  17.416   1.969  1.00  0.00     0.135 A 
ATOM     68  F   UNL     1       0.683  15.244  -0.513  1.00  0.00    -0.206 F 
ATOM     69  C   UNL     1       2.417  16.807  -0.744  1.00  0.00     0.059 A 
ATOM     70  C   UNL     1       3.160  18.084   1.185  1.00  0.00     0.059 A 
ATOM     71  F   UNL     1       2.163  17.717   3.276  1.00  0.00    -0.206 F 
ATOM     72  C   UNL     1       3.250  17.770  -0.170  1.00  0.00     0.060 A 
BRANCH  72  73
ATOM     73  S   UNL     1       4.442  18.612  -1.232  1.00  0.00     0.124 S 
ATOM     74  O   UNL     1       5.362  17.527  -1.557  1.00  0.00    -0.237 OA
ATOM     75  O   UNL     1       3.600  19.079  -2.328  1.00  0.00    -0.237 OA
ATOM     76  O   UNL     1       4.986  19.658  -0.372  1.00  0.00    -0.744 OA
ENDBRANCH  72  73
ENDBRANCH  51  65
BRANCH  52  77
ATOM     77  C   UNL     1      -5.559  11.735   6.890  1.00  0.00     0.058 A 
ATOM     78  C   UNL     1      -6.875  11.613   6.421  1.00  0.00     0.135 A 
ATOM     79  C   UNL     1      -5.268  11.204   8.157  1.00  0.00     0.135 A 
ATOM     80  F   UNL     1      -7.210  12.119   5.224  1.00  0.00    -0.206 F 
ATOM     81  C   UNL     1      -7.869  11.003   7.181  1.00  0.00     0.059 A 
ATOM     82  C   UNL     1      -6.238  10.565   8.925  1.00  0.00     0.059 A 
ATOM     83  F   UNL     1      -4.025  11.292   8.655  1.00  0.00    -0.206 F 
ATOM     84  C   UNL     1      -7.539  10.477   8.431  1.00  0.00     0.060 A 
BRANCH  84  85
ATOM     85  S   UNL     1      -8.829   9.652   9.388  1.00  0.00     0.124 S 
ATOM     86  O   UNL     1      -9.698  10.769   9.738  1.00  0.00    -0.237 OA
ATOM     87  O   UNL     1      -9.367   8.705   8.416  1.00  0.00    -0.237 OA
ATOM     88  O   UNL     1      -8.095   9.052  10.498  1.00  0.00    -0.744 OA
ENDBRANCH  84  85
ENDBRANCH  52  77
BRANCH  64  89
ATOM     89  C   UNL     1      -4.687  18.361   4.841  1.00  0.00     0.058 A 
ATOM     90  C   UNL     1      -4.689  19.009   6.085  1.00  0.00     0.135 A 
ATOM     91  C   UNL     1      -5.371  18.979   3.780  1.00  0.00     0.135 A 
ATOM     92  F   UNL     1      -4.054  18.460   7.133  1.00  0.00    -0.206 F 
ATOM     93  C   UNL     1      -5.350  20.218   6.274  1.00  0.00     0.059 A 
ATOM     94  C   UNL     1      -6.013  20.204   3.938  1.00  0.00     0.059 A 
ATOM     95  F   UNL     1      -5.389  18.410   2.564  1.00  0.00    -0.206 F 
ATOM     96  C   UNL     1      -6.001  20.813   5.191  1.00  0.00     0.060 A 
BRANCH  96  97
ATOM     97  S   UNL     1      -6.807  22.409   5.443  1.00  0.00     0.124 S 
ATOM     98  O   UNL     1      -7.926  22.042   6.305  1.00  0.00    -0.237 OA
ATOM     99  O   UNL     1      -5.751  23.193   6.074  1.00  0.00    -0.237 OA
ATOM    100  O   UNL     1      -7.169  22.826   4.091  1.00  0.00    -0.744 OA
ENDBRANCH  96  97
ENDBRANCH  64  89
ENDBRANCH  38  39
ENDBRANCH  31  33
ENDBRANCH  30  31
ENDBRANCH  29  30
ENDBRANCH  28  29
ENDBRANCH  27  28
ENDBRANCH   1  27
TORSDOF 22
