REMARK SMILES CC1(C)[C@H](O)CC[C@@]2(C)[C@H]3Cc4c(oc(C(=O)OCCOCCOCCOC(=O)c5ccc(-c6c7nc(c(-c8c(F)cc(S(=O)(=O)[O-])cc8F)c8ccc([nH]8)c(-c8c(F)cc(S(=O)(=O)[O-])cc8F)c8nc(c(-c9c(F)cc(S(=O)(=O)[O-])cc9F)c9ccc6[nH]9)C=C8)C=C7)cc5)cc4=O)O[C@@]3(C)CC[C@@H]12
REMARK SMILES IDX 23 1 22 2 21 3 20 4 19 5 18 6 16 7 17 8 15 9 1 10 2 11 3 12
REMARK SMILES IDX 4 13 104 14 6 15 8 16 103 17 7 18 9 19 10 20 102 21 100 22
REMARK SMILES IDX 11 23 101 24 99 25 12 26 13 27 97 28 14 29 96 30 98 31 5 32
REMARK SMILES IDX 24 34 25 35 26 36 27 37 28 38 29 39 30 40 31 41 95 42 32 43
REMARK SMILES IDX 94 44 33 45 34 46 35 47 88 48 36 49 93 50 87 51 89 52 37 53
REMARK SMILES IDX 92 54 86 55 85 56 38 58 72 59 51 60 71 61 52 62 55 63 70 64
REMARK SMILES IDX 90 65 53 66 54 67 69 69 91 70 56 71 39 72 40 73 49 74 41 75
REMARK SMILES IDX 42 76 48 77 50 78 43 79 44 80 45 81 46 82 47 83 73 84 74 85
REMARK SMILES IDX 83 86 75 87 76 88 82 89 84 90 77 91 78 92 79 93 80 94 81 95
REMARK SMILES IDX 57 96 58 97 67 98 59 99 60 100 66 101 68 102 61 103 62 104
REMARK SMILES IDX 63 105 64 106 65 107
REMARK H PARENT 5 33 89 57 55 68
REMARK Flexibility Score: inf
ROOT
ATOM      1  C   UNL     1      -5.424   0.862   2.869  1.00  0.00     0.188 C 
ENDROOT
BRANCH   1   2
ATOM      2  C   UNL     1      -6.180   0.681   4.203  1.00  0.00     0.188 C 
BRANCH   2   3
ATOM      3  O   UNL     1      -7.301   1.508   4.396  1.00  0.00    -0.376 OA
BRANCH   3   4
ATOM      4  C   UNL     1      -7.166   2.817   4.916  1.00  0.00     0.202 C 
BRANCH   4   5
ATOM      5  C   UNL     1      -5.844   3.534   5.246  1.00  0.00     0.261 C 
BRANCH   5   6
ATOM      6  O   UNL     1      -4.626   2.953   4.781  1.00  0.00    -0.457 OA
BRANCH   6   7
ATOM      7  C   UNL     1      -3.866   2.326   5.721  1.00  0.00     0.374 C 
ATOM      8  O   UNL     1      -4.152   2.192   6.899  1.00  0.00    -0.242 OA
BRANCH   7   9
ATOM      9  C   UNL     1      -2.661   1.726   5.090  1.00  0.00     0.219 A 
ATOM     10  C   UNL     1       0.681  -0.478   0.752  1.00  0.00     0.014 C 
ATOM     11  C   UNL     1       0.692  -2.030   0.988  1.00  0.00    -0.006 C 
ATOM     12  C   UNL     1      -0.777  -2.374   0.651  1.00  0.00     0.014 C 
ATOM     13  C   UNL     1       1.788  -2.439  -0.029  1.00  0.00     0.120 C 
ATOM     14  C   UNL     1       1.243  -2.828   2.295  1.00  0.00     0.004 C 
ATOM     15  C   UNL     1       3.199  -2.091   0.599  1.00  0.00     0.033 C 
ATOM     16  C   UNL     1       2.292  -2.062   3.122  1.00  0.00    -0.022 C 
ATOM     17  C   UNL     1       0.311  -3.706   3.121  1.00  0.00     0.009 C 
ATOM     18  C   UNL     1       3.225  -1.380   2.037  1.00  0.00     0.010 C 
ATOM     19  C   UNL     1       3.309  -2.985   3.868  1.00  0.00     0.012 C 
ATOM     20  C   UNL     1       1.524  -1.246   4.286  1.00  0.00     0.044 C 
ATOM     21  C   UNL     1      -0.532  -2.910   4.074  1.00  0.00     0.049 C 
ATOM     22  C   UNL     1       0.321  -2.030   5.011  1.00  0.00     0.113 C 
ATOM     23  C   UNL     1       1.129   0.188   3.900  1.00  0.00     0.055 C 
ATOM     24  C   UNL     1       0.827  -2.932   6.164  1.00  0.00     0.057 C 
ATOM     25  O   UNL     1      -0.599  -1.169   5.726  1.00  0.00    -0.458 OA
ATOM     26  C   UNL     1      -0.262   0.609   4.219  1.00  0.00     0.081 A 
ATOM     27  C   UNL     1      -1.023  -0.018   5.121  1.00  0.00     0.292 A 
ATOM     28  C   UNL     1      -0.786   1.838   3.586  1.00  0.00     0.192 A 
ATOM     29  O   UNL     1      -2.235   0.497   5.563  1.00  0.00    -0.418 OA
ATOM     30  C   UNL     1      -2.031   2.397   4.120  1.00  0.00     0.107 A 
ATOM     31  O   UNL     1      -0.201   2.409   2.673  1.00  0.00    -0.289 OA
BRANCH  13  32
ATOM     32  O   UNL     1       1.726  -3.834  -0.340  1.00  0.00    -0.393 OA
ATOM     33  H   UNL     1       1.862  -4.351   0.469  1.00  0.00     0.210 HD
ENDBRANCH  13  32
ENDBRANCH   7   9
ENDBRANCH   6   7
ENDBRANCH   5   6
ENDBRANCH   4   5
ENDBRANCH   3   4
ENDBRANCH   2   3
ENDBRANCH   1   2
BRANCH   1  34
ATOM     34  O   UNL     1      -5.782   1.915   1.993  1.00  0.00    -0.376 OA
BRANCH  34  35
ATOM     35  C   UNL     1      -7.123   2.003   1.532  1.00  0.00     0.202 C 
BRANCH  35  36
ATOM     36  C   UNL     1      -7.969   0.767   1.161  1.00  0.00     0.261 C 
BRANCH  36  37
ATOM     37  O   UNL     1      -7.852  -0.378   2.016  1.00  0.00    -0.460 OA
BRANCH  37  38
ATOM     38  C   UNL     1      -7.265  -1.471   1.470  1.00  0.00     0.338 C 
ATOM     39  O   UNL     1      -6.828  -1.589   0.333  1.00  0.00    -0.246 OA
BRANCH  38  40
ATOM     40  C   UNL     1      -7.066  -2.481   2.524  1.00  0.00     0.060 A 
ATOM     41  C   UNL     1      -5.780  -2.681   3.046  1.00  0.00     0.016 A 
ATOM     42  C   UNL     1      -8.143  -3.239   2.985  1.00  0.00     0.016 A 
ATOM     43  C   UNL     1      -5.571  -3.620   4.053  1.00  0.00     0.010 A 
ATOM     44  C   UNL     1      -7.924  -4.213   3.964  1.00  0.00     0.010 A 
ATOM     45  C   UNL     1      -6.636  -4.416   4.491  1.00  0.00    -0.014 A 
BRANCH  45  46
ATOM     46  C   UNL     1      -6.352  -5.588   5.350  1.00  0.00     0.031 A 
ATOM     47  C   UNL     1      -6.072  -6.904   4.683  1.00  0.00     0.074 A 
ATOM     48  C   UNL     1      -6.309  -5.481   6.690  1.00  0.00     0.049 A 
ATOM     49  N   UNL     1      -5.770  -8.057   5.218  1.00  0.00    -0.248 NA
ATOM     50  C   UNL     1      -6.138  -6.918   3.212  1.00  0.00     0.031 C 
ATOM     51  C   UNL     1      -6.519  -4.249   7.445  1.00  0.00     0.029 A 
ATOM     52  N   UNL     1      -6.071  -6.432   7.651  1.00  0.00    -0.354 N 
ATOM     53  C   UNL     1      -5.598  -8.930   4.152  1.00  0.00     0.074 A 
ATOM     54  C   UNL     1      -5.871  -8.186   2.942  1.00  0.00     0.031 C 
ATOM     55  C   UNL     1      -6.406  -4.520   8.758  1.00  0.00     0.029 A 
ATOM     56  C   UNL     1      -6.138  -5.948   8.935  1.00  0.00     0.049 A 
ATOM     57  H   UNL     1      -5.870  -7.373   7.440  1.00  0.00     0.167 HD
ATOM     58  C   UNL     1      -5.231 -10.232   4.179  1.00  0.00     0.037 A 
ATOM     59  C   UNL     1      -6.007  -6.587  10.117  1.00  0.00     0.037 A 
ATOM     60  C   UNL     1      -4.990 -10.973   5.388  1.00  0.00     0.049 A 
ATOM     61  C   UNL     1      -5.700  -8.063  10.130  1.00  0.00     0.074 A 
ATOM     62  C   UNL     1      -4.610 -12.295   5.522  1.00  0.00     0.029 A 
ATOM     63  N   UNL     1      -5.129 -10.462   6.671  1.00  0.00    -0.354 N 
ATOM     64  N   UNL     1      -5.497  -8.871   9.116  1.00  0.00    -0.248 NA
ATOM     65  C   UNL     1      -5.601  -8.717  11.444  1.00  0.00     0.031 C 
ATOM     66  C   UNL     1      -4.581 -12.603   6.884  1.00  0.00     0.029 A 
ATOM     67  C   UNL     1      -4.877 -11.454   7.603  1.00  0.00     0.049 A 
ATOM     68  H   UNL     1      -5.371  -9.533   6.887  1.00  0.00     0.167 HD
ATOM     69  C   UNL     1      -5.219 -10.119   9.667  1.00  0.00     0.074 A 
ATOM     70  C   UNL     1      -5.280  -9.961  11.106  1.00  0.00     0.031 C 
ATOM     71  C   UNL     1      -4.933 -11.285   9.036  1.00  0.00     0.037 A 
BRANCH  58  72
ATOM     72  C   UNL     1      -5.098 -10.941   2.860  1.00  0.00     0.058 A 
ATOM     73  C   UNL     1      -4.063 -10.636   1.961  1.00  0.00     0.135 A 
ATOM     74  C   UNL     1      -6.007 -11.948   2.496  1.00  0.00     0.135 A 
ATOM     75  F   UNL     1      -3.177  -9.669   2.251  1.00  0.00    -0.206 F 
ATOM     76  C   UNL     1      -3.955 -11.280   0.733  1.00  0.00     0.059 A 
ATOM     77  C   UNL     1      -5.899 -12.626   1.287  1.00  0.00     0.059 A 
ATOM     78  F   UNL     1      -7.016 -12.277   3.317  1.00  0.00    -0.206 F 
ATOM     79  C   UNL     1      -4.879 -12.273   0.405  1.00  0.00     0.060 A 
BRANCH  79  80
ATOM     80  S   UNL     1      -4.733 -13.082  -1.202  1.00  0.00     0.124 S 
ATOM     81  O   UNL     1      -5.094 -11.996  -2.108  1.00  0.00    -0.237 OA
ATOM     82  O   UNL     1      -3.330 -13.482  -1.220  1.00  0.00    -0.237 OA
ATOM     83  O   UNL     1      -5.696 -14.176  -1.122  1.00  0.00    -0.744 OA
ENDBRANCH  79  80
ENDBRANCH  58  72
BRANCH  59  84
ATOM     84  C   UNL     1      -6.147  -5.817  11.383  1.00  0.00     0.058 A 
ATOM     85  C   UNL     1      -5.033  -5.549  12.191  1.00  0.00     0.135 A 
ATOM     86  C   UNL     1      -7.385  -5.287  11.781  1.00  0.00     0.135 A 
ATOM     87  F   UNL     1      -3.832  -6.048  11.864  1.00  0.00    -0.206 F 
ATOM     88  C   UNL     1      -5.137  -4.773  13.342  1.00  0.00     0.059 A 
ATOM     89  C   UNL     1      -7.511  -4.489  12.914  1.00  0.00     0.059 A 
ATOM     90  F   UNL     1      -8.482  -5.513  11.041  1.00  0.00    -0.206 F 
ATOM     91  C   UNL     1      -6.378  -4.234  13.687  1.00  0.00     0.060 A 
BRANCH  91  92
ATOM     92  S   UNL     1      -6.478  -3.154  15.131  1.00  0.00     0.124 S 
ATOM     93  O   UNL     1      -6.207  -4.087  16.219  1.00  0.00    -0.237 OA
ATOM     94  O   UNL     1      -5.430  -2.178  14.851  1.00  0.00    -0.237 OA
ATOM     95  O   UNL     1      -7.841  -2.635  15.072  1.00  0.00    -0.744 OA
ENDBRANCH  91  92
ENDBRANCH  59  84
BRANCH  71  96
ATOM     96  C   UNL     1      -4.638 -12.502   9.872  1.00  0.00     0.058 A 
ATOM     97  C   UNL     1      -5.658 -13.208  10.527  1.00  0.00     0.135 A 
ATOM     98  C   UNL     1      -3.345 -13.052   9.890  1.00  0.00     0.135 A 
ATOM     99  F   UNL     1      -6.910 -12.724  10.547  1.00  0.00    -0.206 F 
ATOM    100  C   UNL     1      -5.409 -14.424  11.157  1.00  0.00     0.059 A 
ATOM    101  C   UNL     1      -3.079 -14.279  10.490  1.00  0.00     0.059 A 
ATOM    102  F   UNL     1      -2.334 -12.421   9.270  1.00  0.00    -0.206 F 
ATOM    103  C   UNL     1      -4.120 -14.960  11.118  1.00  0.00     0.060 A 
BRANCH 103 104
ATOM    104  S   UNL     1      -3.840 -16.586  11.852  1.00  0.00     0.124 S 
ATOM    105  O   UNL     1      -4.020 -16.305  13.273  1.00  0.00    -0.237 OA
ATOM    106  O   UNL     1      -4.885 -17.391  11.227  1.00  0.00    -0.237 OA
ATOM    107  O   UNL     1      -2.476 -16.914  11.447  1.00  0.00    -0.744 OA
ENDBRANCH 103 104
ENDBRANCH  71  96
ENDBRANCH  45  46
ENDBRANCH  38  40
ENDBRANCH  37  38
ENDBRANCH  36  37
ENDBRANCH  35  36
ENDBRANCH  34  35
ENDBRANCH   1  34
TORSDOF 21
