REMARK SMILES CCc1c(C(=O)OCCOCCOCCOC(=O)c2ccc(-c3c4nc(c(-c5c(F)cc(S(=O)(=O)[O-])cc5F)c5ccc([nH]5)c(-c5c(F)cc(S(=O)(=O)[O-])cc5F)c5nc(c(-c6c(F)cc(S(=O)(=O)[O-])cc6F)c6ccc3[nH]6)C=C5)C=C4)cc2)nnn1-c1ccc(OC)cc1
REMARK SMILES IDX 12 1 11 2 10 3 9 4 8 5 7 6 5 7 6 8 4 9 3 10 87 11 85 12
REMARK SMILES IDX 86 13 2 14 1 15 88 16 89 17 95 18 90 19 94 20 91 21 92 22
REMARK SMILES IDX 93 23 13 24 14 25 15 26 16 27 17 28 18 29 19 30 20 31 84 32
REMARK SMILES IDX 21 33 83 34 22 35 23 36 24 37 77 38 25 39 82 40 76 41 78 42
REMARK SMILES IDX 26 43 81 44 75 45 74 46 27 48 61 49 40 50 60 51 41 52 44 53
REMARK SMILES IDX 59 54 79 55 42 56 43 57 58 59 80 60 45 61 28 62 29 63 38 64
REMARK SMILES IDX 30 65 31 66 37 67 39 68 32 69 33 70 34 71 35 72 36 73 62 74
REMARK SMILES IDX 63 75 72 76 64 77 65 78 71 79 73 80 66 81 67 82 68 83 69 84
REMARK SMILES IDX 70 85 46 86 47 87 56 88 48 89 49 90 55 91 57 92 50 93 51 94
REMARK SMILES IDX 52 95 53 96 54 97
REMARK H PARENT 78 47 44 58
REMARK Flexibility Score: inf
ROOT
ATOM      1  C   UNL     1       4.104  -1.833   0.809  1.00  0.00     0.188 C 
ENDROOT
BRANCH   1   2
ATOM      2  C   UNL     1       5.279  -2.515   0.078  1.00  0.00     0.188 C 
BRANCH   2   3
ATOM      3  O   UNL     1       6.423  -1.755  -0.289  1.00  0.00    -0.376 OA
BRANCH   3   4
ATOM      4  C   UNL     1       6.272  -0.511  -0.964  1.00  0.00     0.202 C 
BRANCH   4   5
ATOM      5  C   UNL     1       5.312  -0.361  -2.163  1.00  0.00     0.261 C 
BRANCH   5   6
ATOM      6  O   UNL     1       3.959  -0.795  -1.943  1.00  0.00    -0.458 OA
BRANCH   6   7
ATOM      7  C   UNL     1       3.548  -1.881  -2.661  1.00  0.00     0.360 C 
ATOM      8  O   UNL     1       4.170  -2.366  -3.592  1.00  0.00    -0.244 OA
BRANCH   7   9
ATOM      9  C   UNL     1       2.334  -2.488  -2.125  1.00  0.00     0.194 A 
ATOM     10  C   UNL     1       1.123  -1.923  -1.748  1.00  0.00     0.079 A 
ATOM     11  N   UNL     1       0.349  -3.029  -1.413  1.00  0.00    -0.217 N 
ATOM     12  N   UNL     1       2.307  -3.832  -1.828  1.00  0.00    -0.122 NA
ATOM     13  N   UNL     1       1.139  -4.115  -1.273  1.00  0.00    -0.061 NA
BRANCH  10  14
ATOM     14  C   UNL     1       0.650  -0.510  -1.654  1.00  0.00     0.055 C 
ATOM     15  C   UNL     1       0.967   0.125  -0.308  1.00  0.00     0.011 C 
ENDBRANCH  10  14
BRANCH  11  16
ATOM     16  C   UNL     1      -1.056  -3.172  -1.405  1.00  0.00     0.067 A 
ATOM     17  C   UNL     1      -1.679  -4.023  -0.489  1.00  0.00     0.032 A 
ATOM     18  C   UNL     1      -1.813  -2.526  -2.389  1.00  0.00     0.032 A 
ATOM     19  C   UNL     1      -3.072  -4.154  -0.516  1.00  0.00     0.048 A 
ATOM     20  C   UNL     1      -3.198  -2.689  -2.428  1.00  0.00     0.048 A 
ATOM     21  C   UNL     1      -3.837  -3.485  -1.478  1.00  0.00     0.119 A 
BRANCH  21  22
ATOM     22  O   UNL     1      -5.187  -3.693  -1.400  1.00  0.00    -0.497 OA
ATOM     23  C   UNL     1      -5.993  -2.965  -2.320  1.00  0.00     0.278 C 
ENDBRANCH  21  22
ENDBRANCH  11  16
ENDBRANCH   7   9
ENDBRANCH   6   7
ENDBRANCH   5   6
ENDBRANCH   4   5
ENDBRANCH   3   4
ENDBRANCH   2   3
ENDBRANCH   1   2
BRANCH   1  24
ATOM     24  O   UNL     1       4.087  -0.427   0.673  1.00  0.00    -0.376 OA
BRANCH  24  25
ATOM     25  C   UNL     1       4.382   0.446   1.750  1.00  0.00     0.202 C 
BRANCH  25  26
ATOM     26  C   UNL     1       5.526   0.188   2.725  1.00  0.00     0.261 C 
BRANCH  26  27
ATOM     27  O   UNL     1       5.926  -1.158   2.838  1.00  0.00    -0.460 OA
BRANCH  27  28
ATOM     28  C   UNL     1       5.160  -1.881   3.681  1.00  0.00     0.338 C 
ATOM     29  O   UNL     1       4.061  -1.591   4.107  1.00  0.00    -0.246 OA
BRANCH  28  30
ATOM     30  C   UNL     1       5.934  -3.054   4.081  1.00  0.00     0.060 A 
ATOM     31  C   UNL     1       5.243  -4.049   4.772  1.00  0.00     0.016 A 
ATOM     32  C   UNL     1       7.331  -2.933   4.106  1.00  0.00     0.016 A 
ATOM     33  C   UNL     1       5.940  -4.767   5.710  1.00  0.00     0.010 A 
ATOM     34  C   UNL     1       8.014  -3.620   5.069  1.00  0.00     0.010 A 
ATOM     35  C   UNL     1       7.287  -4.453   5.914  1.00  0.00    -0.014 A 
BRANCH  35  36
ATOM     36  C   UNL     1       7.960  -5.068   7.028  1.00  0.00     0.031 A 
ATOM     37  C   UNL     1       8.380  -6.449   6.730  1.00  0.00     0.074 A 
ATOM     38  C   UNL     1       8.258  -4.372   8.139  1.00  0.00     0.049 A 
ATOM     39  N   UNL     1       7.902  -7.543   7.216  1.00  0.00    -0.248 NA
ATOM     40  C   UNL     1       9.295  -6.642   5.591  1.00  0.00     0.031 C 
ATOM     41  C   UNL     1       8.139  -2.926   8.354  1.00  0.00     0.029 A 
ATOM     42  N   UNL     1       8.852  -4.801   9.280  1.00  0.00    -0.354 N 
ATOM     43  C   UNL     1       8.659  -8.549   6.631  1.00  0.00     0.074 A 
ATOM     44  C   UNL     1       9.290  -7.968   5.478  1.00  0.00     0.031 C 
ATOM     45  C   UNL     1       8.858  -2.582   9.446  1.00  0.00     0.029 A 
ATOM     46  C   UNL     1       9.388  -3.788  10.062  1.00  0.00     0.049 A 
ATOM     47  H   UNL     1       8.898  -5.752   9.533  1.00  0.00     0.167 HD
ATOM     48  C   UNL     1       8.979  -9.670   7.330  1.00  0.00     0.037 A 
ATOM     49  C   UNL     1      10.284  -3.950  11.070  1.00  0.00     0.037 A 
ATOM     50  C   UNL     1       8.091  -9.855   8.452  1.00  0.00     0.049 A 
ATOM     51  C   UNL     1      10.227  -5.382  11.478  1.00  0.00     0.074 A 
ATOM     52  C   UNL     1       6.719  -9.956   8.593  1.00  0.00     0.029 A 
ATOM     53  N   UNL     1       8.579  -9.572   9.706  1.00  0.00    -0.354 N 
ATOM     54  N   UNL     1       9.196  -5.940  12.054  1.00  0.00    -0.248 NA
ATOM     55  C   UNL     1      11.149  -6.309  10.835  1.00  0.00     0.031 C 
ATOM     56  C   UNL     1       6.418  -9.286   9.814  1.00  0.00     0.029 A 
ATOM     57  C   UNL     1       7.620  -8.862  10.381  1.00  0.00     0.049 A 
ATOM     58  H   UNL     1       9.461  -9.834  10.056  1.00  0.00     0.167 HD
ATOM     59  C   UNL     1       9.112  -7.207  11.493  1.00  0.00     0.074 A 
ATOM     60  C   UNL     1      10.396  -7.412  10.827  1.00  0.00     0.031 C 
ATOM     61  C   UNL     1       7.912  -7.849  11.374  1.00  0.00     0.037 A 
BRANCH  48  62
ATOM     62  C   UNL     1      10.334 -10.333   7.241  1.00  0.00     0.058 A 
ATOM     63  C   UNL     1      10.527 -11.570   7.884  1.00  0.00     0.135 A 
ATOM     64  C   UNL     1      11.515  -9.685   6.803  1.00  0.00     0.135 A 
ATOM     65  F   UNL     1       9.478 -12.267   8.350  1.00  0.00    -0.206 F 
ATOM     66  C   UNL     1      11.797 -12.082   8.147  1.00  0.00     0.059 A 
ATOM     67  C   UNL     1      12.784 -10.208   6.997  1.00  0.00     0.059 A 
ATOM     68  F   UNL     1      11.516  -8.464   6.256  1.00  0.00    -0.206 F 
ATOM     69  C   UNL     1      12.919 -11.382   7.713  1.00  0.00     0.060 A 
BRANCH  69  70
ATOM     70  S   UNL     1      14.561 -11.972   8.149  1.00  0.00     0.124 S 
ATOM     71  O   UNL     1      14.588 -11.706   9.583  1.00  0.00    -0.237 OA
ATOM     72  O   UNL     1      14.490 -13.375   7.757  1.00  0.00    -0.237 OA
ATOM     73  O   UNL     1      15.442 -11.142   7.334  1.00  0.00    -0.744 OA
ENDBRANCH  69  70
ENDBRANCH  48  62
BRANCH  49  74
ATOM     74  C   UNL     1      11.416  -3.056  11.443  1.00  0.00     0.058 A 
ATOM     75  C   UNL     1      12.139  -3.263  12.632  1.00  0.00     0.135 A 
ATOM     76  C   UNL     1      11.990  -2.156  10.521  1.00  0.00     0.135 A 
ATOM     77  F   UNL     1      11.681  -4.117  13.559  1.00  0.00    -0.206 F 
ATOM     78  C   UNL     1      13.378  -2.656  12.870  1.00  0.00     0.059 A 
ATOM     79  C   UNL     1      13.214  -1.527  10.743  1.00  0.00     0.059 A 
ATOM     80  F   UNL     1      11.426  -1.925   9.327  1.00  0.00    -0.206 F 
ATOM     81  C   UNL     1      13.918  -1.803  11.908  1.00  0.00     0.060 A 
BRANCH  81  82
ATOM     82  S   UNL     1      15.592  -1.157  12.125  1.00  0.00     0.124 S 
ATOM     83  O   UNL     1      15.412  -0.215  13.224  1.00  0.00    -0.237 OA
ATOM     84  O   UNL     1      16.351  -2.363  12.436  1.00  0.00    -0.237 OA
ATOM     85  O   UNL     1      15.893  -0.552  10.829  1.00  0.00    -0.744 OA
ENDBRANCH  81  82
ENDBRANCH  49  74
BRANCH  61  86
ATOM     86  C   UNL     1       6.742  -7.325  12.166  1.00  0.00     0.058 A 
ATOM     87  C   UNL     1       6.154  -6.061  11.984  1.00  0.00     0.135 A 
ATOM     88  C   UNL     1       6.100  -8.210  13.046  1.00  0.00     0.135 A 
ATOM     89  F   UNL     1       6.642  -5.195  11.085  1.00  0.00    -0.206 F 
ATOM     90  C   UNL     1       5.003  -5.680  12.678  1.00  0.00     0.059 A 
ATOM     91  C   UNL     1       4.934  -7.864  13.723  1.00  0.00     0.059 A 
ATOM     92  F   UNL     1       6.577  -9.454  13.217  1.00  0.00    -0.206 F 
ATOM     93  C   UNL     1       4.398  -6.591  13.545  1.00  0.00     0.060 A 
BRANCH  93  94
ATOM     94  S   UNL     1       2.866  -6.129  14.382  1.00  0.00     0.124 S 
ATOM     95  O   UNL     1       3.334  -5.159  15.366  1.00  0.00    -0.237 OA
ATOM     96  O   UNL     1       2.058  -5.588  13.292  1.00  0.00    -0.237 OA
ATOM     97  O   UNL     1       2.383  -7.393  14.933  1.00  0.00    -0.744 OA
ENDBRANCH  93  94
ENDBRANCH  61  86
ENDBRANCH  35  36
ENDBRANCH  28  30
ENDBRANCH  27  28
ENDBRANCH  26  27
ENDBRANCH  25  26
ENDBRANCH  24  25
ENDBRANCH   1  24
TORSDOF 23
