REMARK SMILES O=C(OCCOCCOCCOC(=O)c1nc(/N=C/c2cccc([N+](=O)[O-])c2)n[nH]1)c1ccc(-c2c3nc(c(-c4c(F)cc(S(=O)(=O)[O-])cc4F)c4ccc([nH]4)c(-c4c(F)cc(S(=O)(=O)[O-])cc4F)c4nc(c(-c5c(F)cc(S(=O)(=O)[O-])cc5F)c5ccc2[nH]5)C=C4)C=C3)cc1
REMARK SMILES IDX 7 1 6 2 5 3 4 4 3 5 2 6 1 7 31 8 32 9 96 10 33 11 95 12
REMARK SMILES IDX 34 13 35 14 36 15 89 16 37 17 94 18 88 19 90 20 38 21 93 22
REMARK SMILES IDX 87 23 86 24 39 26 73 27 52 28 72 29 53 30 56 31 71 32 91 33
REMARK SMILES IDX 54 34 55 35 70 37 92 38 57 39 40 40 41 41 50 42 42 43 43 44
REMARK SMILES IDX 49 45 51 46 44 47 45 48 46 49 47 50 48 51 74 52 75 53 84 54
REMARK SMILES IDX 76 55 77 56 83 57 85 58 78 59 79 60 80 61 81 62 82 63 58 64
REMARK SMILES IDX 59 65 68 66 60 67 61 68 67 69 69 70 62 71 63 72 64 73 65 74
REMARK SMILES IDX 66 75 8 76 9 77 10 78 11 79 12 80 13 81 14 82 15 83 16 84
REMARK SMILES IDX 30 85 17 86 29 87 18 89 19 90 20 91 21 92 28 93 22 94 24 95
REMARK SMILES IDX 23 96 25 97 26 98 27 99
REMARK H PARENT 90 25 56 36 30 88
REMARK Flexibility Score: inf
ROOT
ATOM      1  C   UNL     1       2.504   1.887   1.054  1.00  0.00     0.188 C 
ENDROOT
BRANCH   1   2
ATOM      2  O   UNL     1       3.788   1.245   1.035  1.00  0.00    -0.376 OA
BRANCH   2   3
ATOM      3  C   UNL     1       4.617   1.668  -0.056  1.00  0.00     0.202 C 
BRANCH   3   4
ATOM      4  C   UNL     1       4.449   0.839  -1.337  1.00  0.00     0.261 C 
BRANCH   4   5
ATOM      5  O   UNL     1       3.098   0.383  -1.510  1.00  0.00    -0.460 OA
BRANCH   5   6
ATOM      6  C   UNL     1       2.548  -0.790  -1.106  1.00  0.00     0.338 C 
ATOM      7  O   UNL     1       1.353  -0.975  -1.336  1.00  0.00    -0.246 OA
BRANCH   6   8
ATOM      8  C   UNL     1       3.307  -1.887  -0.422  1.00  0.00     0.060 A 
ATOM      9  C   UNL     1       4.487  -1.722   0.301  1.00  0.00     0.016 A 
ATOM     10  C   UNL     1       2.754  -3.181  -0.475  1.00  0.00     0.016 A 
ATOM     11  C   UNL     1       5.166  -2.811   0.838  1.00  0.00     0.010 A 
ATOM     12  C   UNL     1       3.394  -4.274   0.128  1.00  0.00     0.010 A 
ATOM     13  C   UNL     1       4.630  -4.097   0.757  1.00  0.00    -0.014 A 
BRANCH  13  14
ATOM     14  C   UNL     1       5.448  -5.225   1.260  1.00  0.00     0.031 A 
ATOM     15  C   UNL     1       6.126  -6.128   0.270  1.00  0.00     0.074 A 
ATOM     16  C   UNL     1       5.748  -5.299   2.571  1.00  0.00     0.049 A 
ATOM     17  N   UNL     1       6.925  -7.137   0.488  1.00  0.00    -0.248 NA
ATOM     18  C   UNL     1       5.912  -5.828  -1.156  1.00  0.00     0.031 C 
ATOM     19  C   UNL     1       5.265  -4.367   3.590  1.00  0.00     0.029 A 
ATOM     20  N   UNL     1       6.571  -6.147   3.267  1.00  0.00    -0.354 N 
ATOM     21  C   UNL     1       7.327  -7.578  -0.766  1.00  0.00     0.074 A 
ATOM     22  C   UNL     1       6.657  -6.752  -1.745  1.00  0.00     0.031 C 
ATOM     23  C   UNL     1       5.854  -4.646   4.762  1.00  0.00     0.029 A 
ATOM     24  C   UNL     1       6.668  -5.847   4.609  1.00  0.00     0.049 A 
ATOM     25  H   UNL     1       7.047  -6.900   2.848  1.00  0.00     0.167 HD
ATOM     26  C   UNL     1       8.195  -8.570  -1.069  1.00  0.00     0.037 A 
ATOM     27  C   UNL     1       7.296  -6.509   5.603  1.00  0.00     0.037 A 
ATOM     28  C   UNL     1       8.839  -9.394  -0.082  1.00  0.00     0.049 A 
ATOM     29  C   UNL     1       7.976  -7.804   5.248  1.00  0.00     0.074 A 
ATOM     30  C   UNL     1       9.687 -10.470  -0.270  1.00  0.00     0.029 A 
ATOM     31  N   UNL     1       8.695  -9.229   1.288  1.00  0.00    -0.354 N 
ATOM     32  N   UNL     1       8.278  -8.276   4.062  1.00  0.00    -0.248 NA
ATOM     33  C   UNL     1       8.344  -8.686   6.362  1.00  0.00     0.031 C 
ATOM     34  C   UNL     1      10.029 -10.978   0.990  1.00  0.00     0.029 A 
ATOM     35  C   UNL     1       9.419 -10.197   1.960  1.00  0.00     0.049 A 
ATOM     36  H   UNL     1       8.157  -8.526   1.718  1.00  0.00     0.167 HD
ATOM     37  C   UNL     1       8.923  -9.484   4.289  1.00  0.00     0.074 A 
ATOM     38  C   UNL     1       8.946  -9.681   5.725  1.00  0.00     0.031 C 
ATOM     39  C   UNL     1       9.463 -10.345   3.392  1.00  0.00     0.037 A 
BRANCH  26  40
ATOM     40  C   UNL     1       8.466  -8.823  -2.522  1.00  0.00     0.058 A 
ATOM     41  C   UNL     1       9.303  -7.977  -3.267  1.00  0.00     0.135 A 
ATOM     42  C   UNL     1       7.877  -9.912  -3.180  1.00  0.00     0.135 A 
ATOM     43  F   UNL     1       9.868  -6.904  -2.690  1.00  0.00    -0.206 F 
ATOM     44  C   UNL     1       9.531  -8.193  -4.622  1.00  0.00     0.059 A 
ATOM     45  C   UNL     1       8.103 -10.156  -4.531  1.00  0.00     0.059 A 
ATOM     46  F   UNL     1       7.058 -10.741  -2.514  1.00  0.00    -0.206 F 
ATOM     47  C   UNL     1       8.922  -9.283  -5.247  1.00  0.00     0.060 A 
BRANCH  47  48
ATOM     48  S   UNL     1       9.215  -9.542  -7.010  1.00  0.00     0.124 S 
ATOM     49  O   UNL     1       8.405  -8.479  -7.598  1.00  0.00    -0.237 OA
ATOM     50  O   UNL     1      10.660  -9.369  -7.116  1.00  0.00    -0.237 OA
ATOM     51  O   UNL     1       8.730 -10.899  -7.239  1.00  0.00    -0.744 OA
ENDBRANCH  47  48
ENDBRANCH  26  40
BRANCH  27  52
ATOM     52  C   UNL     1       7.194  -6.069   7.026  1.00  0.00     0.058 A 
ATOM     53  C   UNL     1       8.313  -5.826   7.837  1.00  0.00     0.135 A 
ATOM     54  C   UNL     1       5.939  -5.961   7.633  1.00  0.00     0.135 A 
ATOM     55  F   UNL     1       9.547  -5.930   7.321  1.00  0.00    -0.206 F 
ATOM     56  C   UNL     1       8.187  -5.519   9.196  1.00  0.00     0.059 A 
ATOM     57  C   UNL     1       5.784  -5.613   8.966  1.00  0.00     0.059 A 
ATOM     58  F   UNL     1       4.836  -6.203   6.916  1.00  0.00    -0.206 F 
ATOM     59  C   UNL     1       6.912  -5.426   9.752  1.00  0.00     0.060 A 
BRANCH  59  60
ATOM     60  S   UNL     1       6.684  -5.057  11.505  1.00  0.00     0.124 S 
ATOM     61  O   UNL     1       6.706  -6.394  12.087  1.00  0.00    -0.237 OA
ATOM     62  O   UNL     1       7.829  -4.206  11.807  1.00  0.00    -0.237 OA
ATOM     63  O   UNL     1       5.386  -4.386  11.531  1.00  0.00    -0.744 OA
ENDBRANCH  59  60
ENDBRANCH  27  52
BRANCH  39  64
ATOM     64  C   UNL     1      10.229 -11.505   3.952  1.00  0.00     0.058 A 
ATOM     65  C   UNL     1       9.589 -12.641   4.467  1.00  0.00     0.135 A 
ATOM     66  C   UNL     1      11.632 -11.475   3.954  1.00  0.00     0.135 A 
ATOM     67  F   UNL     1       8.249 -12.706   4.499  1.00  0.00    -0.206 F 
ATOM     68  C   UNL     1      10.318 -13.704   4.989  1.00  0.00     0.059 A 
ATOM     69  C   UNL     1      12.380 -12.535   4.450  1.00  0.00     0.059 A 
ATOM     70  F   UNL     1      12.287 -10.410   3.464  1.00  0.00    -0.206 F 
ATOM     71  C   UNL     1      11.714 -13.640   4.979  1.00  0.00     0.060 A 
BRANCH  71  72
ATOM     72  S   UNL     1      12.659 -15.030   5.635  1.00  0.00     0.124 S 
ATOM     73  O   UNL     1      12.575 -14.789   7.071  1.00  0.00    -0.237 OA
ATOM     74  O   UNL     1      11.912 -16.183   5.140  1.00  0.00    -0.237 OA
ATOM     75  O   UNL     1      13.980 -14.848   5.042  1.00  0.00    -0.744 OA
ENDBRANCH  71  72
ENDBRANCH  39  64
ENDBRANCH  13  14
ENDBRANCH   6   8
ENDBRANCH   5   6
ENDBRANCH   4   5
ENDBRANCH   3   4
ENDBRANCH   2   3
ENDBRANCH   1   2
BRANCH   1  76
ATOM     76  C   UNL     1       2.010   2.079   2.491  1.00  0.00     0.188 C 
BRANCH  76  77
ATOM     77  O   UNL     1       2.671   3.118   3.221  1.00  0.00    -0.376 OA
BRANCH  77  78
ATOM     78  C   UNL     1       4.071   2.957   3.447  1.00  0.00     0.202 C 
BRANCH  78  79
ATOM     79  C   UNL     1       4.446   1.982   4.566  1.00  0.00     0.261 C 
BRANCH  79  80
ATOM     80  O   UNL     1       3.836   0.689   4.410  1.00  0.00    -0.457 OA
BRANCH  80  81
ATOM     81  C   UNL     1       3.313   0.160   5.559  1.00  0.00     0.376 C 
ATOM     82  O   UNL     1       3.332   0.725   6.649  1.00  0.00    -0.242 OA
BRANCH  81  83
ATOM     83  C   UNL     1       2.761  -1.144   5.307  1.00  0.00     0.237 A 
ATOM     84  N   UNL     1       2.535  -2.049   6.239  1.00  0.00    -0.184 NA
ATOM     85  N   UNL     1       2.395  -1.672   4.104  1.00  0.00    -0.251 N 
ATOM     86  C   UNL     1       2.076  -3.132   5.545  1.00  0.00     0.268 A 
ATOM     87  N   UNL     1       1.930  -2.924   4.234  1.00  0.00    -0.132 NA
ATOM     88  H   UNL     1       2.463  -1.193   3.247  1.00  0.00     0.192 HD
BRANCH  86  89
ATOM     89  N   UNL     1       1.909  -4.420   6.056  1.00  0.00    -0.218 NA
ATOM     90  C   UNL     1       1.966  -4.440   7.349  1.00  0.00     0.123 C 
BRANCH  90  91
ATOM     91  C   UNL     1       2.044  -5.700   8.123  1.00  0.00    -0.000 A 
ATOM     92  C   UNL     1       2.056  -5.612   9.521  1.00  0.00     0.010 A 
ATOM     93  C   UNL     1       2.300  -6.919   7.488  1.00  0.00     0.095 A 
ATOM     94  C   UNL     1       2.374  -6.732  10.292  1.00  0.00     0.008 A 
ATOM     95  C   UNL     1       2.656  -8.028   8.270  1.00  0.00     0.270 A 
ATOM     96  C   UNL     1       2.693  -7.939   9.670  1.00  0.00     0.085 A 
BRANCH  95  97
ATOM     97  N   UNL     1       3.071  -9.276   7.617  1.00  0.00     0.062 N 
ATOM     98  O   UNL     1       3.502 -10.188   8.337  1.00  0.00    -0.258 OA
ATOM     99  O   UNL     1       2.934  -9.359   6.388  1.00  0.00    -0.258 OA
ENDBRANCH  95  97
ENDBRANCH  90  91
ENDBRANCH  86  89
ENDBRANCH  81  83
ENDBRANCH  80  81
ENDBRANCH  79  80
ENDBRANCH  78  79
ENDBRANCH  77  78
ENDBRANCH  76  77
ENDBRANCH   1  76
TORSDOF 23
