REMARK SMILES Cc1ccc(-c2c(C(=O)OCCOCCOCCOC(=O)c3ccc(-c4c5nc(c(-c6c(F)cc(S(=O)(=O)[O-])cc6F)c6ccc([nH]6)c(-c6c(F)cc(S(=O)(=O)[O-])cc6F)c6nc(c(-c7c(F)cc(S(=O)(=O)[O-])cc7F)c7ccc4[nH]7)C=C6)C=C5)cc3)nnn2Cc2ccccc2F)cc1
REMARK SMILES IDX 15 1 14 2 13 3 12 4 11 5 10 6 8 7 9 8 7 9 6 10 90 11 88 12
REMARK SMILES IDX 89 13 5 14 1 15 2 16 3 17 100 18 4 19 99 20 91 21 92 22
REMARK SMILES IDX 93 23 97 24 94 25 96 26 98 27 95 28 16 29 17 30 18 31 19 32
REMARK SMILES IDX 20 33 21 34 22 35 23 36 87 37 24 38 86 39 25 40 26 41 27 42
REMARK SMILES IDX 80 43 28 44 85 45 79 46 81 47 29 48 84 49 78 50 77 51 30 53
REMARK SMILES IDX 64 54 43 55 63 56 44 57 47 58 62 59 82 60 45 61 46 62 61 64
REMARK SMILES IDX 83 65 48 66 31 67 32 68 41 69 33 70 34 71 40 72 42 73 35 74
REMARK SMILES IDX 36 75 37 76 38 77 39 78 65 79 66 80 75 81 67 82 68 83 74 84
REMARK SMILES IDX 76 85 69 86 70 87 71 88 72 89 73 90 49 91 50 92 59 93 51 94
REMARK SMILES IDX 52 95 58 96 60 97 53 98 54 99 55 100 56 101 57 102
REMARK H PARENT 81 52 47 63
REMARK Flexibility Score: inf
ROOT
ATOM      1  C   UNL     1      -3.181   0.291   6.957  1.00  0.00     0.188 C 
ENDROOT
BRANCH   1   2
ATOM      2  C   UNL     1      -3.239  -1.148   6.438  1.00  0.00     0.188 C 
BRANCH   2   3
ATOM      3  O   UNL     1      -2.209  -1.874   5.717  1.00  0.00    -0.376 OA
BRANCH   3   4
ATOM      4  C   UNL     1      -1.011  -1.380   5.056  1.00  0.00     0.202 C 
BRANCH   4   5
ATOM      5  C   UNL     1      -0.681  -1.090   3.364  1.00  0.00     0.261 C 
BRANCH   5   6
ATOM      6  O   UNL     1      -1.350  -0.085   2.379  1.00  0.00    -0.458 OA
BRANCH   6   7
ATOM      7  C   UNL     1      -2.297  -0.294   1.375  1.00  0.00     0.361 C 
ATOM      8  O   UNL     1      -2.728  -1.391   1.008  1.00  0.00    -0.244 OA
BRANCH   7   9
ATOM      9  C   UNL     1      -2.843   0.792   0.568  1.00  0.00     0.198 A 
ATOM     10  C   UNL     1      -2.170   1.243  -0.552  1.00  0.00     0.104 A 
ATOM     11  N   UNL     1      -3.165   1.525  -1.450  1.00  0.00    -0.239 N 
ATOM     12  N   UNL     1      -4.199   1.000   0.358  1.00  0.00    -0.122 NA
ATOM     13  N   UNL     1      -4.367   1.549  -0.840  1.00  0.00    -0.066 NA
BRANCH  10  14
ATOM     14  C   UNL     1      -0.749   1.158  -0.755  1.00  0.00     0.002 A 
ATOM     15  C   UNL     1       3.425   1.076   0.130  1.00  0.00     0.044 C 
ATOM     16  C   UNL     1       1.972   1.123  -0.214  1.00  0.00    -0.051 A 
ATOM     17  C   UNL     1       1.258  -0.074  -0.261  1.00  0.00     0.004 A 
ATOM     18  C   UNL     1       1.325   2.333  -0.491  1.00  0.00     0.004 A 
ATOM     19  C   UNL     1      -0.091  -0.066  -0.572  1.00  0.00     0.011 A 
ATOM     20  C   UNL     1      -0.038   2.353  -0.748  1.00  0.00     0.011 A 
ENDBRANCH  10  14
BRANCH  11  21
ATOM     21  C   UNL     1      -3.089   1.741  -2.887  1.00  0.00     0.185 C 
BRANCH  21  22
ATOM     22  C   UNL     1      -2.410   0.639  -3.667  1.00  0.00     0.009 A 
ATOM     23  C   UNL     1      -1.634   0.974  -4.789  1.00  0.00     0.008 A 
ATOM     24  C   UNL     1      -2.558  -0.718  -3.357  1.00  0.00     0.128 A 
ATOM     25  C   UNL     1      -0.978  -0.015  -5.527  1.00  0.00     0.001 A 
ATOM     26  C   UNL     1      -1.892  -1.708  -4.078  1.00  0.00     0.039 A 
ATOM     27  F   UNL     1      -3.349  -1.101  -2.348  1.00  0.00    -0.207 F 
ATOM     28  C   UNL     1      -1.093  -1.355  -5.161  1.00  0.00     0.003 A 
ENDBRANCH  21  22
ENDBRANCH  11  21
ENDBRANCH   7   9
ENDBRANCH   6   7
ENDBRANCH   5   6
ENDBRANCH   4   5
ENDBRANCH   3   4
ENDBRANCH   2   3
ENDBRANCH   1   2
BRANCH   1  29
ATOM     29  O   UNL     1      -2.174   1.057   6.333  1.00  0.00    -0.376 OA
BRANCH  29  30
ATOM     30  C   UNL     1      -2.123   2.415   6.750  1.00  0.00     0.202 C 
BRANCH  30  31
ATOM     31  C   UNL     1      -3.358   3.293   6.420  1.00  0.00     0.261 C 
BRANCH  31  32
ATOM     32  O   UNL     1      -3.550   3.516   4.997  1.00  0.00    -0.460 OA
BRANCH  32  33
ATOM     33  C   UNL     1      -4.770   3.168   4.434  1.00  0.00     0.338 C 
ATOM     34  O   UNL     1      -5.665   3.984   4.293  1.00  0.00    -0.246 OA
BRANCH  33  35
ATOM     35  C   UNL     1      -4.747   1.768   3.870  1.00  0.00     0.060 A 
ATOM     36  C   UNL     1      -5.773   0.915   3.430  1.00  0.00     0.016 A 
ATOM     37  C   UNL     1      -3.531   1.194   3.844  1.00  0.00     0.016 A 
ATOM     38  C   UNL     1      -5.553  -0.526   3.110  1.00  0.00     0.010 A 
ATOM     39  C   UNL     1      -3.462  -0.198   3.743  1.00  0.00     0.010 A 
ATOM     40  C   UNL     1      -4.345  -1.177   3.321  1.00  0.00    -0.014 A 
BRANCH  40  41
ATOM     41  C   UNL     1      -3.820  -2.683   3.295  1.00  0.00     0.031 A 
ATOM     42  C   UNL     1      -2.805  -3.368   2.312  1.00  0.00     0.074 A 
ATOM     43  C   UNL     1      -4.022  -3.506   4.348  1.00  0.00     0.049 A 
ATOM     44  N   UNL     1      -1.551  -3.709   2.539  1.00  0.00    -0.248 NA
ATOM     45  C   UNL     1      -3.216  -3.724   0.938  1.00  0.00     0.031 C 
ATOM     46  C   UNL     1      -3.398  -4.809   4.630  1.00  0.00     0.029 A 
ATOM     47  N   UNL     1      -5.048  -3.443   5.286  1.00  0.00    -0.354 N 
ATOM     48  C   UNL     1      -0.942  -4.117   1.329  1.00  0.00     0.074 A 
ATOM     49  C   UNL     1      -2.036  -3.985   0.355  1.00  0.00     0.031 C 
ATOM     50  C   UNL     1      -4.284  -5.557   5.312  1.00  0.00     0.029 A 
ATOM     51  C   UNL     1      -5.505  -4.771   5.370  1.00  0.00     0.049 A 
ATOM     52  H   UNL     1      -5.377  -2.655   5.775  1.00  0.00     0.167 HD
ATOM     53  C   UNL     1      -0.202  -5.275   1.239  1.00  0.00     0.037 A 
ATOM     54  C   UNL     1      -6.675  -5.057   4.730  1.00  0.00     0.037 A 
ATOM     55  C   UNL     1      -0.939  -6.400   1.751  1.00  0.00     0.049 A 
ATOM     56  C   UNL     1      -6.421  -6.035   3.600  1.00  0.00     0.074 A 
ATOM     57  C   UNL     1      -0.923  -7.126   2.922  1.00  0.00     0.029 A 
ATOM     58  N   UNL     1      -2.093  -6.759   1.080  1.00  0.00    -0.354 N 
ATOM     59  N   UNL     1      -5.304  -6.140   2.917  1.00  0.00    -0.248 NA
ATOM     60  C   UNL     1      -7.362  -7.106   3.299  1.00  0.00     0.031 C 
ATOM     61  C   UNL     1      -2.210  -7.735   3.042  1.00  0.00     0.029 A 
ATOM     62  C   UNL     1      -2.957  -7.427   1.912  1.00  0.00     0.049 A 
ATOM     63  H   UNL     1      -2.271  -6.562   0.132  1.00  0.00     0.167 HD
ATOM     64  C   UNL     1      -5.338  -7.292   2.167  1.00  0.00     0.074 A 
ATOM     65  C   UNL     1      -6.652  -7.848   2.435  1.00  0.00     0.031 C 
ATOM     66  C   UNL     1      -4.288  -7.782   1.437  1.00  0.00     0.037 A 
BRANCH  53  67
ATOM     67  C   UNL     1       1.238  -5.276   0.732  1.00  0.00     0.058 A 
ATOM     68  C   UNL     1       2.121  -6.366   0.903  1.00  0.00     0.135 A 
ATOM     69  C   UNL     1       1.804  -4.175   0.054  1.00  0.00     0.135 A 
ATOM     70  F   UNL     1       1.703  -7.503   1.480  1.00  0.00    -0.206 F 
ATOM     71  C   UNL     1       3.473  -6.335   0.503  1.00  0.00     0.059 A 
ATOM     72  C   UNL     1       3.155  -4.109  -0.340  1.00  0.00     0.059 A 
ATOM     73  F   UNL     1       1.037  -3.126  -0.271  1.00  0.00    -0.206 F 
ATOM     74  C   UNL     1       3.992  -5.191  -0.096  1.00  0.00     0.060 A 
BRANCH  74  75
ATOM     75  S   UNL     1       5.758  -5.122  -0.512  1.00  0.00     0.124 S 
ATOM     76  O   UNL     1       6.392  -5.428   0.767  1.00  0.00    -0.237 OA
ATOM     77  O   UNL     1       5.879  -6.150  -1.540  1.00  0.00    -0.237 OA
ATOM     78  O   UNL     1       5.947  -3.750  -0.979  1.00  0.00    -0.744 OA
ENDBRANCH  74  75
ENDBRANCH  53  67
BRANCH  54  79
ATOM     79  C   UNL     1      -7.652  -3.912   4.849  1.00  0.00     0.058 A 
ATOM     80  C   UNL     1      -7.904  -3.434   6.164  1.00  0.00     0.135 A 
ATOM     81  C   UNL     1      -7.997  -3.041   3.808  1.00  0.00     0.135 A 
ATOM     82  F   UNL     1      -7.612  -4.211   7.223  1.00  0.00    -0.206 F 
ATOM     83  C   UNL     1      -8.287  -2.122   6.435  1.00  0.00     0.059 A 
ATOM     84  C   UNL     1      -8.455  -1.729   4.062  1.00  0.00     0.059 A 
ATOM     85  F   UNL     1      -7.777  -3.394   2.533  1.00  0.00    -0.206 F 
ATOM     86  C   UNL     1      -8.514  -1.256   5.375  1.00  0.00     0.060 A 
BRANCH  86  87
ATOM     87  S   UNL     1      -8.737   0.501   5.770  1.00  0.00     0.124 S 
ATOM     88  O   UNL     1      -9.936   0.474   6.603  1.00  0.00    -0.237 OA
ATOM     89  O   UNL     1      -7.493   0.816   6.472  1.00  0.00    -0.237 OA
ATOM     90  O   UNL     1      -8.903   1.127   4.464  1.00  0.00    -0.744 OA
ENDBRANCH  86  87
ENDBRANCH  54  79
BRANCH  66  91
ATOM     91  C   UNL     1      -4.431  -8.718   0.242  1.00  0.00     0.058 A 
ATOM     92  C   UNL     1      -5.648  -8.946  -0.426  1.00  0.00     0.135 A 
ATOM     93  C   UNL     1      -3.298  -9.308  -0.379  1.00  0.00     0.135 A 
ATOM     94  F   UNL     1      -6.777  -8.319  -0.073  1.00  0.00    -0.206 F 
ATOM     95  C   UNL     1      -5.759  -9.793  -1.527  1.00  0.00     0.059 A 
ATOM     96  C   UNL     1      -3.376 -10.092  -1.529  1.00  0.00     0.059 A 
ATOM     97  F   UNL     1      -2.054  -9.126   0.087  1.00  0.00    -0.206 F 
ATOM     98  C   UNL     1      -4.619 -10.371  -2.067  1.00  0.00     0.060 A 
BRANCH  98  99
ATOM     99  S   UNL     1      -4.767 -11.456  -3.493  1.00  0.00     0.124 S 
ATOM    100  O   UNL     1      -5.047 -12.736  -2.849  1.00  0.00    -0.237 OA
ATOM    101  O   UNL     1      -5.878 -10.865  -4.232  1.00  0.00    -0.237 OA
ATOM    102  O   UNL     1      -3.463 -11.342  -4.137  1.00  0.00    -0.744 OA
ENDBRANCH  98  99
ENDBRANCH  66  91
ENDBRANCH  40  41
ENDBRANCH  33  35
ENDBRANCH  32  33
ENDBRANCH  31  32
ENDBRANCH  30  31
ENDBRANCH  29  30
ENDBRANCH   1  29
TORSDOF 23
