REMARK SMILES NS(=O)(=O)c1ccc(-n2nc(C(=O)OCCOCCOCCOC(=O)c3ccc(-c4c5nc(c(-c6c(F)cc(S(=O)(=O)[O-])cc6F)c6ccc([nH]6)c(-c6c(F)cc(S(=O)(=O)[O-])cc6F)c6nc(c(-c7c(F)cc(S(=O)(=O)[O-])cc7F)c7ccc4[nH]7)C=C6)C=C5)cc3)cc2-c2ccc(Cl)s2)cc1
REMARK SMILES IDX 18 1 17 2 16 3 15 4 14 5 12 6 13 7 11 8 9 9 10 10 93 11
REMARK SMILES IDX 92 12 8 13 5 14 6 15 101 16 7 17 100 18 2 19 3 20 4 21 1 22
REMARK SMILES IDX 94 25 95 26 99 27 96 28 97 29 98 30 19 31 20 32 21 33 22 34
REMARK SMILES IDX 23 35 24 36 25 37 26 38 27 39 91 40 28 41 90 42 29 43 30 44
REMARK SMILES IDX 31 45 84 46 32 47 89 48 83 49 85 50 33 51 88 52 82 53 81 54
REMARK SMILES IDX 34 56 68 57 47 58 67 59 48 60 51 61 66 62 86 63 49 64 50 65
REMARK SMILES IDX 65 67 87 68 52 69 35 70 36 71 45 72 37 73 38 74 44 75 46 76
REMARK SMILES IDX 39 77 40 78 41 79 42 80 43 81 69 82 70 83 79 84 71 85 72 86
REMARK SMILES IDX 78 87 80 88 73 89 74 90 75 91 76 92 77 93 53 94 54 95 63 96
REMARK SMILES IDX 55 97 56 98 62 99 64 100 57 101 58 102 59 103 60 104 61 105
REMARK H PARENT 1 23 1 24 85 55 51 66
REMARK Flexibility Score: inf
ROOT
ATOM      1  C   UNL     1       0.052  10.874   0.763  1.00  0.00     0.188 C 
ENDROOT
BRANCH   1   2
ATOM      2  O   UNL     1      -0.627  11.809   1.592  1.00  0.00    -0.376 OA
BRANCH   2   3
ATOM      3  C   UNL     1       0.049  12.453   2.659  1.00  0.00     0.202 C 
BRANCH   3   4
ATOM      4  C   UNL     1       0.656  11.593   3.780  1.00  0.00     0.261 C 
BRANCH   4   5
ATOM      5  O   UNL     1       1.490  10.512   3.333  1.00  0.00    -0.458 OA
BRANCH   5   6
ATOM      6  C   UNL     1       0.939   9.264   3.413  1.00  0.00     0.358 C 
ATOM      7  O   UNL     1      -0.106   9.006   4.000  1.00  0.00    -0.244 OA
BRANCH   6   8
ATOM      8  C   UNL     1       1.703   8.264   2.650  1.00  0.00     0.171 A 
ATOM      9  N   UNL     1       2.049   6.542   1.421  1.00  0.00    -0.231 N 
ATOM     10  N   UNL     1       1.076   7.362   1.872  1.00  0.00    -0.160 NA
ATOM     11  C   UNL     1       3.315   6.994   1.766  1.00  0.00     0.085 A 
ATOM     12  C   UNL     1       3.111   8.120   2.539  1.00  0.00     0.068 A 
BRANCH   9  13
ATOM     13  C   UNL     1       1.686   5.309   0.830  1.00  0.00     0.065 A 
ATOM     14  C   UNL     1       1.010   2.883  -0.341  1.00  0.00     0.082 A 
ATOM     15  C   UNL     1       1.896   2.904   0.739  1.00  0.00     0.024 A 
ATOM     16  C   UNL     1       0.439   4.068  -0.824  1.00  0.00     0.024 A 
ATOM     17  C   UNL     1       2.247   4.122   1.317  1.00  0.00     0.030 A 
ATOM     18  C   UNL     1       0.758   5.287  -0.219  1.00  0.00     0.030 A 
BRANCH  14  19
ATOM     19  S   UNL     1       0.571   1.359  -1.121  1.00  0.00     0.238 S 
ATOM     20  O   UNL     1       1.310   1.242  -2.353  1.00  0.00    -0.207 OA
ATOM     21  O   UNL     1      -0.862   1.189  -1.036  1.00  0.00    -0.207 OA
BRANCH  19  22
ATOM     22  N   UNL     1       1.205   0.168  -0.110  1.00  0.00    -0.225 NA
ATOM     23  H   UNL     1       0.993  -0.753  -0.494  1.00  0.00     0.137 HD
ATOM     24  H   UNL     1       0.791   0.253   0.818  1.00  0.00     0.137 HD
ENDBRANCH  19  22
ENDBRANCH  14  19
ENDBRANCH   9  13
BRANCH  11  25
ATOM     25  C   UNL     1       4.553   6.381   1.370  1.00  0.00     0.054 A 
ATOM     26  C   UNL     1       5.606   6.042   2.200  1.00  0.00     0.024 A 
ATOM     27  S   UNL     1       4.896   5.969  -0.265  1.00  0.00    -0.122 S 
ATOM     28  C   UNL     1       6.648   5.356   1.505  1.00  0.00     0.033 A 
ATOM     29  C   UNL     1       6.361   5.246   0.169  1.00  0.00     0.094 A 
ATOM     30  Cl  UNL     1       7.323   4.471  -1.022  1.00  0.00    -0.072 Cl
ENDBRANCH  11  25
ENDBRANCH   6   8
ENDBRANCH   5   6
ENDBRANCH   4   5
ENDBRANCH   3   4
ENDBRANCH   2   3
ENDBRANCH   1   2
BRANCH   1  31
ATOM     31  C   UNL     1       1.557  11.009   0.432  1.00  0.00     0.188 C 
BRANCH  31  32
ATOM     32  O   UNL     1       2.235  12.092   1.056  1.00  0.00    -0.376 OA
BRANCH  32  33
ATOM     33  C   UNL     1       2.817  13.047   0.174  1.00  0.00     0.202 C 
BRANCH  33  34
ATOM     34  C   UNL     1       1.818  14.005  -0.472  1.00  0.00     0.261 C 
BRANCH  34  35
ATOM     35  O   UNL     1       0.703  13.362  -1.077  1.00  0.00    -0.460 OA
BRANCH  35  36
ATOM     36  C   UNL     1       0.971  12.650  -2.190  1.00  0.00     0.338 C 
ATOM     37  O   UNL     1       2.072  12.350  -2.618  1.00  0.00    -0.246 OA
BRANCH  36  38
ATOM     38  C   UNL     1      -0.298  12.344  -2.862  1.00  0.00     0.060 A 
ATOM     39  C   UNL     1      -0.244  11.486  -3.963  1.00  0.00     0.016 A 
ATOM     40  C   UNL     1      -1.438  13.110  -2.570  1.00  0.00     0.016 A 
ATOM     41  C   UNL     1      -1.245  11.577  -4.905  1.00  0.00     0.010 A 
ATOM     42  C   UNL     1      -2.427  13.212  -3.519  1.00  0.00     0.010 A 
ATOM     43  C   UNL     1      -2.259  12.521  -4.716  1.00  0.00    -0.014 A 
BRANCH  43  44
ATOM     44  C   UNL     1      -3.061  12.865  -5.870  1.00  0.00     0.031 A 
ATOM     45  C   UNL     1      -4.183  11.959  -6.170  1.00  0.00     0.074 A 
ATOM     46  C   UNL     1      -2.825  13.992  -6.567  1.00  0.00     0.049 A 
ATOM     47  N   UNL     1      -4.348  11.210  -7.209  1.00  0.00    -0.248 NA
ATOM     48  C   UNL     1      -5.211  11.802  -5.133  1.00  0.00     0.031 C 
ATOM     49  C   UNL     1      -1.970  15.123  -6.186  1.00  0.00     0.029 A 
ATOM     50  N   UNL     1      -3.397  14.409  -7.727  1.00  0.00    -0.354 N 
ATOM     51  C   UNL     1      -5.604  10.638  -7.054  1.00  0.00     0.074 A 
ATOM     52  C   UNL     1      -6.019  10.908  -5.701  1.00  0.00     0.031 C 
ATOM     53  C   UNL     1      -2.250  16.174  -6.988  1.00  0.00     0.029 A 
ATOM     54  C   UNL     1      -3.203  15.753  -8.002  1.00  0.00     0.049 A 
ATOM     55  H   UNL     1      -3.906  13.809  -8.319  1.00  0.00     0.167 HD
ATOM     56  C   UNL     1      -6.322  10.180  -8.114  1.00  0.00     0.037 A 
ATOM     57  C   UNL     1      -3.861  16.480  -8.936  1.00  0.00     0.037 A 
ATOM     58  C   UNL     1      -5.502   9.963  -9.276  1.00  0.00     0.049 A 
ATOM     59  C   UNL     1      -4.446  15.530  -9.919  1.00  0.00     0.074 A 
ATOM     60  C   UNL     1      -4.399   9.177  -9.549  1.00  0.00     0.029 A 
ATOM     61  N   UNL     1      -5.575  10.873 -10.303  1.00  0.00    -0.354 N 
ATOM     62  N   UNL     1      -3.750  14.801 -10.750  1.00  0.00    -0.248 NA
ATOM     63  C   UNL     1      -5.817  15.089  -9.710  1.00  0.00     0.031 C 
ATOM     64  C   UNL     1      -3.612   9.935 -10.463  1.00  0.00     0.029 A 
ATOM     65  C   UNL     1      -4.289  11.131 -10.710  1.00  0.00     0.049 A 
ATOM     66  H   UNL     1      -6.396  11.267 -10.677  1.00  0.00     0.167 HD
ATOM     67  C   UNL     1      -4.448  13.606 -10.852  1.00  0.00     0.074 A 
ATOM     68  C   UNL     1      -5.761  13.885 -10.283  1.00  0.00     0.031 C 
ATOM     69  C   UNL     1      -3.813  12.430 -11.136  1.00  0.00     0.037 A 
BRANCH  56  70
ATOM     70  C   UNL     1      -7.823  10.247  -8.169  1.00  0.00     0.058 A 
ATOM     71  C   UNL     1      -8.527   9.487  -9.120  1.00  0.00     0.135 A 
ATOM     72  C   UNL     1      -8.574  11.231  -7.486  1.00  0.00     0.135 A 
ATOM     73  F   UNL     1      -7.897   8.548  -9.844  1.00  0.00    -0.206 F 
ATOM     74  C   UNL     1      -9.873   9.719  -9.405  1.00  0.00     0.059 A 
ATOM     75  C   UNL     1      -9.928  11.438  -7.709  1.00  0.00     0.059 A 
ATOM     76  F   UNL     1      -8.003  12.104  -6.644  1.00  0.00    -0.206 F 
ATOM     77  C   UNL     1     -10.559  10.708  -8.703  1.00  0.00     0.060 A 
BRANCH  77  78
ATOM     78  S   UNL     1     -12.258  11.101  -9.149  1.00  0.00     0.124 S 
ATOM     79  O   UNL     1     -12.063  11.843 -10.389  1.00  0.00    -0.237 OA
ATOM     80  O   UNL     1     -12.857   9.777  -9.282  1.00  0.00    -0.237 OA
ATOM     81  O   UNL     1     -12.729  11.883  -8.009  1.00  0.00    -0.744 OA
ENDBRANCH  77  78
ENDBRANCH  56  70
BRANCH  57  82
ATOM     82  C   UNL     1      -4.288  17.898  -8.828  1.00  0.00     0.058 A 
ATOM     83  C   UNL     1      -4.711  18.619  -9.956  1.00  0.00     0.135 A 
ATOM     84  C   UNL     1      -4.537  18.499  -7.575  1.00  0.00     0.135 A 
ATOM     85  F   UNL     1      -4.545  18.107 -11.185  1.00  0.00    -0.206 F 
ATOM     86  C   UNL     1      -5.371  19.848  -9.849  1.00  0.00     0.059 A 
ATOM     87  C   UNL     1      -5.175  19.729  -7.444  1.00  0.00     0.059 A 
ATOM     88  F   UNL     1      -4.249  17.865  -6.429  1.00  0.00    -0.206 F 
ATOM     89  C   UNL     1      -5.612  20.388  -8.586  1.00  0.00     0.060 A 
BRANCH  89  90
ATOM     90  S   UNL     1      -6.600  21.893  -8.434  1.00  0.00     0.124 S 
ATOM     91  O   UNL     1      -5.704  22.899  -8.993  1.00  0.00    -0.237 OA
ATOM     92  O   UNL     1      -7.777  21.570  -9.233  1.00  0.00    -0.237 OA
ATOM     93  O   UNL     1      -6.837  22.000  -6.996  1.00  0.00    -0.744 OA
ENDBRANCH  89  90
ENDBRANCH  57  82
BRANCH  69  94
ATOM     94  C   UNL     1      -2.406  12.493 -11.673  1.00  0.00     0.058 A 
ATOM     95  C   UNL     1      -1.309  12.985 -10.944  1.00  0.00     0.135 A 
ATOM     96  C   UNL     1      -2.132  11.887 -12.910  1.00  0.00     0.135 A 
ATOM     97  F   UNL     1      -1.471  13.480  -9.708  1.00  0.00    -0.206 F 
ATOM     98  C   UNL     1      -0.006  12.915 -11.440  1.00  0.00     0.059 A 
ATOM     99  C   UNL     1      -0.837  11.779 -13.410  1.00  0.00     0.059 A 
ATOM    100  F   UNL     1      -3.129  11.340 -13.626  1.00  0.00    -0.206 F 
ATOM    101  C   UNL     1       0.222  12.307 -12.674  1.00  0.00     0.060 A 
BRANCH 101 102
ATOM    102  S   UNL     1       1.920  12.129 -13.265  1.00  0.00     0.124 S 
ATOM    103  O   UNL     1       2.238  13.486 -13.698  1.00  0.00    -0.237 OA
ATOM    104  O   UNL     1       2.626  11.662 -12.076  1.00  0.00    -0.237 OA
ATOM    105  O   UNL     1       1.806  11.142 -14.337  1.00  0.00    -0.744 OA
ENDBRANCH 101 102
ENDBRANCH  69  94
ENDBRANCH  43  44
ENDBRANCH  36  38
ENDBRANCH  35  36
ENDBRANCH  34  35
ENDBRANCH  33  34
ENDBRANCH  32  33
ENDBRANCH  31  32
ENDBRANCH   1  31
TORSDOF 24
