REMARK SMILES Cc1ccc(C)c(-n2nc(C)c(/C=C(/C#N)C(=O)OCCOCCOCCOC(=O)c3ccc(-c4c5nc(c(-c6c(F)cc(S(=O)(=O)[O-])cc6F)c6ccc([nH]6)c(-c6c(F)cc(S(=O)(=O)[O-])cc6F)c6nc(c(-c7c(F)cc(S(=O)(=O)[O-])cc7F)c7ccc4[nH]7)C=C6)C=C5)cc3)c2Cl)c1
REMARK SMILES IDX 24 1 23 2 22 3 21 4 20 5 19 6 17 7 18 8 14 9 13 10 12 11
REMARK SMILES IDX 8 12 9 13 97 14 10 15 98 16 11 17 7 18 1 19 2 20 3 21 99 22
REMARK SMILES IDX 4 23 5 24 6 25 15 26 16 27 25 28 26 29 27 30 28 31 29 32
REMARK SMILES IDX 30 33 31 34 32 35 96 36 33 37 95 38 34 39 35 40 36 41 89 42
REMARK SMILES IDX 37 43 94 44 88 45 90 46 38 47 93 48 87 49 86 50 39 52 73 53
REMARK SMILES IDX 52 54 72 55 53 56 56 57 71 58 91 59 54 60 55 61 70 63 92 64
REMARK SMILES IDX 57 65 40 66 41 67 50 68 42 69 43 70 49 71 51 72 44 73 45 74
REMARK SMILES IDX 46 75 47 76 48 77 74 78 75 79 84 80 76 81 77 82 83 83 85 84
REMARK SMILES IDX 78 85 79 86 80 87 81 88 82 89 58 90 59 91 68 92 60 93 61 94
REMARK SMILES IDX 67 95 69 96 62 97 63 98 64 99 65 100 66 101
REMARK H PARENT 90 51 56 62
REMARK Flexibility Score: inf
ROOT
ATOM      1  C   UNL     1      -7.038   4.224   0.369  1.00  0.00     0.188 C 
ENDROOT
BRANCH   1   2
ATOM      2  C   UNL     1      -5.705   4.088   1.110  1.00  0.00     0.188 C 
BRANCH   2   3
ATOM      3  O   UNL     1      -5.648   4.649   2.421  1.00  0.00    -0.376 OA
BRANCH   3   4
ATOM      4  C   UNL     1      -5.695   6.075   2.550  1.00  0.00     0.202 C 
BRANCH   4   5
ATOM      5  C   UNL     1      -4.540   6.902   1.952  1.00  0.00     0.261 C 
BRANCH   5   6
ATOM      6  O   UNL     1      -4.239   6.557   0.577  1.00  0.00    -0.459 OA
BRANCH   6   7
ATOM      7  C   UNL     1      -3.165   7.175   0.013  1.00  0.00     0.348 C 
ATOM      8  O   UNL     1      -2.396   7.938   0.572  1.00  0.00    -0.245 OA
BRANCH   7   9
ATOM      9  C   UNL     1      -3.024   6.816  -1.421  1.00  0.00     0.138 C 
ATOM     10  C   UNL     1      -2.398   5.639  -1.679  1.00  0.00     0.040 C 
BRANCH  10  11
ATOM     11  C   UNL     1      -2.021   4.477  -0.860  1.00  0.00     0.037 A 
ATOM     12  N   UNL     1      -1.312   2.374  -0.463  1.00  0.00    -0.221 N 
ATOM     13  N   UNL     1      -1.868   2.776   0.682  1.00  0.00    -0.171 NA
ATOM     14  C   UNL     1      -1.375   3.371  -1.409  1.00  0.00     0.140 A 
ATOM     15  C   UNL     1      -2.047   4.094   0.533  1.00  0.00     0.069 A 
ATOM     16  Cl  UNL     1      -0.757   3.079  -2.978  1.00  0.00    -0.061 Cl
ATOM     17  C   UNL     1      -2.181   4.776   1.842  1.00  0.00     0.069 C 
BRANCH  12  18
ATOM     18  C   UNL     1      -0.648   1.127  -0.448  1.00  0.00     0.069 A 
ATOM     19  C   UNL     1       2.960  -0.053  -0.093  1.00  0.00     0.044 C 
ATOM     20  C   UNL     1       1.464  -0.051  -0.203  1.00  0.00    -0.049 A 
ATOM     21  C   UNL     1       0.755  -1.244  -0.027  1.00  0.00     0.004 A 
ATOM     22  C   UNL     1       0.757   1.135  -0.443  1.00  0.00     0.032 A 
ATOM     23  C   UNL     1      -0.642  -1.247  -0.024  1.00  0.00     0.006 A 
ATOM     24  C   UNL     1      -1.366  -0.059  -0.197  1.00  0.00    -0.025 A 
ATOM     25  C   UNL     1      -2.867  -0.135  -0.113  1.00  0.00     0.047 C 
ENDBRANCH  12  18
ENDBRANCH  10  11
BRANCH   9  26
ATOM     26  C   UNL     1      -3.058   7.979  -2.401  1.00  0.00     0.107 C 
ATOM     27  N   UNL     1      -3.086   8.943  -3.213  1.00  0.00    -0.192 NA
ENDBRANCH   9  26
ENDBRANCH   7   9
ENDBRANCH   6   7
ENDBRANCH   5   6
ENDBRANCH   4   5
ENDBRANCH   3   4
ENDBRANCH   2   3
ENDBRANCH   1   2
BRANCH   1  28
ATOM     28  O   UNL     1      -7.450   5.577   0.276  1.00  0.00    -0.376 OA
BRANCH  28  29
ATOM     29  C   UNL     1      -8.844   5.788   0.444  1.00  0.00     0.202 C 
BRANCH  29  30
ATOM     30  C   UNL     1      -9.698   5.322  -0.741  1.00  0.00     0.261 C 
BRANCH  30  31
ATOM     31  O   UNL     1      -9.432   5.734  -2.110  1.00  0.00    -0.460 OA
BRANCH  31  32
ATOM     32  C   UNL     1      -8.266   6.257  -2.565  1.00  0.00     0.338 C 
ATOM     33  O   UNL     1      -7.638   5.785  -3.480  1.00  0.00    -0.246 OA
BRANCH  32  34
ATOM     34  C   UNL     1      -7.841   7.485  -1.862  1.00  0.00     0.060 A 
ATOM     35  C   UNL     1      -6.492   7.559  -1.596  1.00  0.00     0.016 A 
ATOM     36  C   UNL     1      -8.727   8.433  -1.324  1.00  0.00     0.016 A 
ATOM     37  C   UNL     1      -6.083   8.454  -0.633  1.00  0.00     0.010 A 
ATOM     38  C   UNL     1      -8.287   9.322  -0.325  1.00  0.00     0.010 A 
ATOM     39  C   UNL     1      -6.963   9.269   0.091  1.00  0.00    -0.014 A 
BRANCH  39  40
ATOM     40  C   UNL     1      -6.287  10.140   1.082  1.00  0.00     0.031 A 
ATOM     41  C   UNL     1      -5.129  10.861   0.475  1.00  0.00     0.074 A 
ATOM     42  C   UNL     1      -6.509  10.196   2.419  1.00  0.00     0.049 A 
ATOM     43  N   UNL     1      -3.913  10.882   0.921  1.00  0.00    -0.248 NA
ATOM     44  C   UNL     1      -5.287  11.410  -0.890  1.00  0.00     0.031 C 
ATOM     45  C   UNL     1      -7.535   9.457   3.151  1.00  0.00     0.029 A 
ATOM     46  N   UNL     1      -5.898  10.940   3.419  1.00  0.00    -0.354 N 
ATOM     47  C   UNL     1      -3.213  11.662   0.008  1.00  0.00     0.074 A 
ATOM     48  C   UNL     1      -4.047  11.814  -1.159  1.00  0.00     0.031 C 
ATOM     49  C   UNL     1      -7.621   9.945   4.405  1.00  0.00     0.029 A 
ATOM     50  C   UNL     1      -6.665  11.026   4.585  1.00  0.00     0.049 A 
ATOM     51  H   UNL     1      -5.015  11.362   3.317  1.00  0.00     0.167 HD
ATOM     52  C   UNL     1      -2.293  12.543   0.470  1.00  0.00     0.037 A 
ATOM     53  C   UNL     1      -6.623  11.958   5.581  1.00  0.00     0.037 A 
ATOM     54  C   UNL     1      -1.558  12.054   1.597  1.00  0.00     0.049 A 
ATOM     55  C   UNL     1      -5.266  12.553   5.638  1.00  0.00     0.074 A 
ATOM     56  C   UNL     1      -0.525  11.174   1.825  1.00  0.00     0.029 A 
ATOM     57  N   UNL     1      -2.136  12.315   2.802  1.00  0.00    -0.354 N 
ATOM     58  N   UNL     1      -4.232  11.961   6.167  1.00  0.00    -0.248 NA
ATOM     59  C   UNL     1      -4.971  13.759   4.866  1.00  0.00     0.031 C 
ATOM     60  C   UNL     1      -0.499  10.924   3.228  1.00  0.00     0.029 A 
ATOM     61  C   UNL     1      -1.514  11.662   3.828  1.00  0.00     0.049 A 
ATOM     62  H   UNL     1      -2.913  12.908   2.921  1.00  0.00     0.167 HD
ATOM     63  C   UNL     1      -3.156  12.466   5.465  1.00  0.00     0.074 A 
ATOM     64  C   UNL     1      -3.643  13.665   4.800  1.00  0.00     0.031 C 
ATOM     65  C   UNL     1      -2.103  11.664   5.147  1.00  0.00     0.037 A 
BRANCH  52  66
ATOM     66  C   UNL     1      -2.601  14.015   0.303  1.00  0.00     0.058 A 
ATOM     67  C   UNL     1      -1.594  14.981   0.415  1.00  0.00     0.135 A 
ATOM     68  C   UNL     1      -3.929  14.511   0.266  1.00  0.00     0.135 A 
ATOM     69  F   UNL     1      -0.314  14.609   0.571  1.00  0.00    -0.206 F 
ATOM     70  C   UNL     1      -1.886  16.348   0.426  1.00  0.00     0.059 A 
ATOM     71  C   UNL     1      -4.239  15.856   0.193  1.00  0.00     0.059 A 
ATOM     72  F   UNL     1      -4.992  13.709   0.404  1.00  0.00    -0.206 F 
ATOM     73  C   UNL     1      -3.210  16.772   0.290  1.00  0.00     0.060 A 
BRANCH  73  74
ATOM     74  S   UNL     1      -3.606  18.527   0.273  1.00  0.00     0.124 S 
ATOM     75  O   UNL     1      -3.455  18.871   1.681  1.00  0.00    -0.237 OA
ATOM     76  O   UNL     1      -2.594  19.058  -0.633  1.00  0.00    -0.237 OA
ATOM     77  O   UNL     1      -4.972  18.554  -0.243  1.00  0.00    -0.744 OA
ENDBRANCH  73  74
ENDBRANCH  52  66
BRANCH  53  78
ATOM     78  C   UNL     1      -7.756  12.530   6.391  1.00  0.00     0.058 A 
ATOM     79  C   UNL     1      -7.533  13.530   7.367  1.00  0.00     0.135 A 
ATOM     80  C   UNL     1      -9.109  12.327   6.051  1.00  0.00     0.135 A 
ATOM     81  F   UNL     1      -6.289  13.809   7.786  1.00  0.00    -0.206 F 
ATOM     82  C   UNL     1      -8.564  14.332   7.882  1.00  0.00     0.059 A 
ATOM     83  C   UNL     1     -10.151  13.093   6.569  1.00  0.00     0.059 A 
ATOM     84  F   UNL     1      -9.484  11.438   5.125  1.00  0.00    -0.206 F 
ATOM     85  C   UNL     1      -9.870  14.126   7.447  1.00  0.00     0.060 A 
BRANCH  85  86
ATOM     86  S   UNL     1     -11.176  15.297   7.882  1.00  0.00     0.124 S 
ATOM     87  O   UNL     1     -11.423  14.974   9.282  1.00  0.00    -0.237 OA
ATOM     88  O   UNL     1     -10.539  16.584   7.624  1.00  0.00    -0.237 OA
ATOM     89  O   UNL     1     -12.258  14.950   6.962  1.00  0.00    -0.744 OA
ENDBRANCH  85  86
ENDBRANCH  53  78
BRANCH  65  90
ATOM     90  C   UNL     1      -1.608  10.705   6.177  1.00  0.00     0.058 A 
ATOM     91  C   UNL     1      -2.321   9.616   6.697  1.00  0.00     0.135 A 
ATOM     92  C   UNL     1      -0.292  10.900   6.637  1.00  0.00     0.135 A 
ATOM     93  F   UNL     1      -3.552   9.316   6.253  1.00  0.00    -0.206 F 
ATOM     94  C   UNL     1      -1.758   8.780   7.663  1.00  0.00     0.059 A 
ATOM     95  C   UNL     1       0.299  10.060   7.570  1.00  0.00     0.059 A 
ATOM     96  F   UNL     1       0.449  11.912   6.154  1.00  0.00    -0.206 F 
ATOM     97  C   UNL     1      -0.448   9.009   8.092  1.00  0.00     0.060 A 
BRANCH  97  98
ATOM     98  S   UNL     1       0.296   7.896   9.301  1.00  0.00     0.124 S 
ATOM     99  O   UNL     1      -0.441   8.226  10.516  1.00  0.00    -0.237 OA
ATOM    100  O   UNL     1       0.023   6.582   8.728  1.00  0.00    -0.237 OA
ATOM    101  O   UNL     1       1.705   8.284   9.303  1.00  0.00    -0.744 OA
ENDBRANCH  97  98
ENDBRANCH  65  90
ENDBRANCH  39  40
ENDBRANCH  32  34
ENDBRANCH  31  32
ENDBRANCH  30  31
ENDBRANCH  29  30
ENDBRANCH  28  29
ENDBRANCH   1  28
TORSDOF 23
