REMARK SMILES Cc1cc(Br)cc([N+](=O)[O-])c1OCCC(=O)OCCOCCOCCOC(=O)c1ccc(-c2c3nc(c(-c4c(F)cc(S(=O)(=O)[O-])cc4F)c4ccc([nH]4)c(-c4c(F)cc(S(=O)(=O)[O-])cc4F)c4nc(c(-c5c(F)cc(S(=O)(=O)[O-])cc5F)c5ccc2[nH]5)C=C4)C=C3)cc1
REMARK SMILES IDX 21 1 20 2 19 3 18 4 17 5 15 6 16 7 14 8 13 9 12 10 11 11
REMARK SMILES IDX 1 12 2 13 3 14 4 15 7 16 5 17 6 18 8 19 9 20 10 21 22 22
REMARK SMILES IDX 23 23 24 24 25 25 26 26 27 27 28 28 29 29 30 30 94 31 31 32
REMARK SMILES IDX 93 33 32 34 33 35 34 36 87 37 35 38 92 39 86 40 88 41 36 42
REMARK SMILES IDX 91 43 85 44 84 45 37 47 71 48 50 49 70 50 51 51 54 52 69 53
REMARK SMILES IDX 89 54 52 55 53 56 68 58 90 59 55 60 38 61 39 62 48 63 40 64
REMARK SMILES IDX 41 65 47 66 49 67 42 68 43 69 44 70 45 71 46 72 72 73 73 74
REMARK SMILES IDX 82 75 74 76 75 77 81 78 83 79 76 80 77 81 78 82 79 83 80 84
REMARK SMILES IDX 56 85 57 86 66 87 58 88 59 89 65 90 67 91 60 92 61 93 62 94
REMARK SMILES IDX 63 95 64 96
REMARK H PARENT 88 46 54 57
REMARK Flexibility Score: inf
ROOT
ATOM      1  C   UNL     1      -1.877  -3.355   0.672  1.00  0.00     0.188 C 
ENDROOT
BRANCH   1   2
ATOM      2  O   UNL     1      -0.844  -3.457  -0.294  1.00  0.00    -0.376 OA
BRANCH   2   3
ATOM      3  C   UNL     1      -0.670  -2.536  -1.370  1.00  0.00     0.202 C 
BRANCH   3   4
ATOM      4  C   UNL     1      -1.783  -2.344  -2.441  1.00  0.00     0.261 C 
BRANCH   4   5
ATOM      5  O   UNL     1      -2.645  -1.166  -2.306  1.00  0.00    -0.463 OA
BRANCH   5   6
ATOM      6  C   UNL     1      -3.830  -1.220  -2.986  1.00  0.00     0.309 C 
ATOM      7  O   UNL     1      -4.170  -2.226  -3.609  1.00  0.00    -0.252 OA
BRANCH   6   8
ATOM      8  C   UNL     1      -4.651   0.085  -3.137  1.00  0.00     0.164 C 
BRANCH   8   9
ATOM      9  C   UNL     1      -5.331   0.992  -2.084  1.00  0.00     0.241 C 
BRANCH   9  10
ATOM     10  O   UNL     1      -4.630   2.071  -1.448  1.00  0.00    -0.486 OA
BRANCH  10  11
ATOM     11  C   UNL     1      -3.527   1.861  -0.684  1.00  0.00     0.200 A 
ATOM     12  C   UNL     1      -4.047  -0.501   0.146  1.00  0.00     0.049 C 
ATOM     13  C   UNL     1      -3.115   0.624  -0.239  1.00  0.00    -0.001 A 
ATOM     14  C   UNL     1      -1.726   0.477  -0.038  1.00  0.00     0.023 A 
ATOM     15  C   UNL     1      -0.816   1.521  -0.038  1.00  0.00     0.025 A 
ATOM     16  C   UNL     1      -2.658   2.956  -0.459  1.00  0.00     0.312 A 
ATOM     17  Br  UNL     1       1.025   1.177   0.192  1.00  0.00    -0.051 Br
ATOM     18  C   UNL     1      -1.298   2.797  -0.145  1.00  0.00     0.105 A 
BRANCH  16  19
ATOM     19  N   UNL     1      -3.178   4.316  -0.427  1.00  0.00     0.066 N 
ATOM     20  O   UNL     1      -2.400   5.228  -0.750  1.00  0.00    -0.258 OA
ATOM     21  O   UNL     1      -4.322   4.491   0.013  1.00  0.00    -0.258 OA
ENDBRANCH  16  19
ENDBRANCH  10  11
ENDBRANCH   9  10
ENDBRANCH   8   9
ENDBRANCH   6   8
ENDBRANCH   5   6
ENDBRANCH   4   5
ENDBRANCH   3   4
ENDBRANCH   2   3
ENDBRANCH   1   2
BRANCH   1  22
ATOM     22  C   UNL     1      -1.819  -2.243   1.729  1.00  0.00     0.188 C 
BRANCH  22  23
ATOM     23  O   UNL     1      -0.568  -1.763   2.173  1.00  0.00    -0.376 OA
BRANCH  23  24
ATOM     24  C   UNL     1       0.139  -2.605   3.072  1.00  0.00     0.202 C 
BRANCH  24  25
ATOM     25  C   UNL     1      -0.606  -2.964   4.369  1.00  0.00     0.261 C 
BRANCH  25  26
ATOM     26  O   UNL     1      -1.634  -3.951   4.125  1.00  0.00    -0.460 OA
BRANCH  26  27
ATOM     27  C   UNL     1      -2.906  -3.588   4.460  1.00  0.00     0.338 C 
ATOM     28  O   UNL     1      -3.253  -2.568   5.015  1.00  0.00    -0.246 OA
BRANCH  27  29
ATOM     29  C   UNL     1      -3.859  -4.522   3.812  1.00  0.00     0.060 A 
ATOM     30  C   UNL     1      -4.950  -4.002   3.095  1.00  0.00     0.016 A 
ATOM     31  C   UNL     1      -3.709  -5.898   3.966  1.00  0.00     0.016 A 
ATOM     32  C   UNL     1      -5.939  -4.859   2.598  1.00  0.00     0.010 A 
ATOM     33  C   UNL     1      -4.699  -6.750   3.480  1.00  0.00     0.010 A 
ATOM     34  C   UNL     1      -5.843  -6.234   2.841  1.00  0.00    -0.014 A 
BRANCH  34  35
ATOM     35  C   UNL     1      -7.002  -7.144   2.654  1.00  0.00     0.031 A 
ATOM     36  C   UNL     1      -7.794  -7.534   3.875  1.00  0.00     0.074 A 
ATOM     37  C   UNL     1      -7.288  -7.688   1.459  1.00  0.00     0.049 A 
ATOM     38  N   UNL     1      -8.689  -8.474   4.024  1.00  0.00    -0.248 NA
ATOM     39  C   UNL     1      -7.515  -6.767   5.101  1.00  0.00     0.031 C 
ATOM     40  C   UNL     1      -6.624  -7.364   0.199  1.00  0.00     0.029 A 
ATOM     41  N   UNL     1      -8.194  -8.665   1.124  1.00  0.00    -0.354 N 
ATOM     42  C   UNL     1      -9.059  -8.434   5.364  1.00  0.00     0.074 A 
ATOM     43  C   UNL     1      -8.274  -7.391   5.988  1.00  0.00     0.031 C 
ATOM     44  C   UNL     1      -7.121  -8.155  -0.769  1.00  0.00     0.029 A 
ATOM     45  C   UNL     1      -8.103  -9.070  -0.187  1.00  0.00     0.049 A 
ATOM     46  H   UNL     1      -8.845  -9.039   1.760  1.00  0.00     0.167 HD
ATOM     47  C   UNL     1      -9.969  -9.198   6.014  1.00  0.00     0.037 A 
ATOM     48  C   UNL     1      -8.712 -10.088  -0.830  1.00  0.00     0.037 A 
ATOM     49  C   UNL     1     -10.740 -10.237   5.383  1.00  0.00     0.049 A 
ATOM     50  C   UNL     1      -9.674 -10.971  -0.074  1.00  0.00     0.074 A 
ATOM     51  C   UNL     1     -11.707 -11.053   5.943  1.00  0.00     0.029 A 
ATOM     52  N   UNL     1     -10.625 -10.611   4.051  1.00  0.00    -0.354 N 
ATOM     53  N   UNL     1     -10.032 -10.915   1.188  1.00  0.00    -0.248 NA
ATOM     54  C   UNL     1     -10.315 -12.057  -0.830  1.00  0.00     0.031 C 
ATOM     55  C   UNL     1     -12.134 -11.958   4.966  1.00  0.00     0.029 A 
ATOM     56  C   UNL     1     -11.483 -11.663   3.778  1.00  0.00     0.049 A 
ATOM     57  H   UNL     1     -10.023 -10.189   3.397  1.00  0.00     0.167 HD
ATOM     58  C   UNL     1     -10.963 -11.936   1.367  1.00  0.00     0.074 A 
ATOM     59  C   UNL     1     -11.118 -12.587   0.083  1.00  0.00     0.031 C 
ATOM     60  C   UNL     1     -11.633 -12.298   2.491  1.00  0.00     0.037 A 
BRANCH  47  61
ATOM     61  C   UNL     1     -10.152  -8.961   7.490  1.00  0.00     0.058 A 
ATOM     62  C   UNL     1     -10.735  -7.785   7.988  1.00  0.00     0.135 A 
ATOM     63  C   UNL     1      -9.753  -9.935   8.421  1.00  0.00     0.135 A 
ATOM     64  F   UNL     1     -11.118  -6.811   7.147  1.00  0.00    -0.206 F 
ATOM     65  C   UNL     1     -10.884  -7.567   9.354  1.00  0.00     0.059 A 
ATOM     66  C   UNL     1      -9.923  -9.753   9.791  1.00  0.00     0.059 A 
ATOM     67  F   UNL     1      -9.188 -11.079   8.004  1.00  0.00    -0.206 F 
ATOM     68  C   UNL     1     -10.473  -8.557  10.248  1.00  0.00     0.060 A 
BRANCH  68  69
ATOM     69  S   UNL     1     -10.667  -8.255  12.017  1.00  0.00     0.124 S 
ATOM     70  O   UNL     1      -9.644  -7.241  12.253  1.00  0.00    -0.237 OA
ATOM     71  O   UNL     1     -12.049  -7.792  12.104  1.00  0.00    -0.237 OA
ATOM     72  O   UNL     1     -10.407  -9.560  12.617  1.00  0.00    -0.744 OA
ENDBRANCH  68  69
ENDBRANCH  47  61
BRANCH  48  73
ATOM     73  C   UNL     1      -8.425 -10.334  -2.269  1.00  0.00     0.058 A 
ATOM     74  C   UNL     1      -9.402 -10.101  -3.248  1.00  0.00     0.135 A 
ATOM     75  C   UNL     1      -7.170 -10.796  -2.699  1.00  0.00     0.135 A 
ATOM     76  F   UNL     1     -10.622  -9.676  -2.888  1.00  0.00    -0.206 F 
ATOM     77  C   UNL     1      -9.150 -10.321  -4.599  1.00  0.00     0.059 A 
ATOM     78  C   UNL     1      -6.885 -10.997  -4.046  1.00  0.00     0.059 A 
ATOM     79  F   UNL     1      -6.197 -11.030  -1.804  1.00  0.00    -0.206 F 
ATOM     80  C   UNL     1      -7.884 -10.761  -4.989  1.00  0.00     0.060 A 
BRANCH  80  81
ATOM     81  S   UNL     1      -7.551 -10.977  -6.751  1.00  0.00     0.124 S 
ATOM     82  O   UNL     1      -8.348 -12.158  -7.060  1.00  0.00    -0.237 OA
ATOM     83  O   UNL     1      -8.034  -9.717  -7.308  1.00  0.00    -0.237 OA
ATOM     84  O   UNL     1      -6.104 -11.161  -6.799  1.00  0.00    -0.744 OA
ENDBRANCH  80  81
ENDBRANCH  48  73
BRANCH  60  85
ATOM     85  C   UNL     1     -12.632 -13.420   2.380  1.00  0.00     0.058 A 
ATOM     86  C   UNL     1     -12.235 -14.756   2.207  1.00  0.00     0.135 A 
ATOM     87  C   UNL     1     -14.007 -13.159   2.508  1.00  0.00     0.135 A 
ATOM     88  F   UNL     1     -10.935 -15.063   2.075  1.00  0.00    -0.206 F 
ATOM     89  C   UNL     1     -13.166 -15.788   2.140  1.00  0.00     0.059 A 
ATOM     90  C   UNL     1     -14.953 -14.179   2.476  1.00  0.00     0.059 A 
ATOM     91  F   UNL     1     -14.442 -11.902   2.688  1.00  0.00    -0.206 F 
ATOM     92  C   UNL     1     -14.524 -15.490   2.279  1.00  0.00     0.060 A 
BRANCH  92  93
ATOM     93  S   UNL     1     -15.718 -16.843   2.222  1.00  0.00     0.124 S 
ATOM     94  O   UNL     1     -15.691 -17.201   0.808  1.00  0.00    -0.237 OA
ATOM     95  O   UNL     1     -15.128 -17.817   3.135  1.00  0.00    -0.237 OA
ATOM     96  O   UNL     1     -16.955 -16.225   2.690  1.00  0.00    -0.744 OA
ENDBRANCH  92  93
ENDBRANCH  60  85
ENDBRANCH  34  35
ENDBRANCH  27  29
ENDBRANCH  26  27
ENDBRANCH  25  26
ENDBRANCH  24  25
ENDBRANCH  23  24
ENDBRANCH  22  23
ENDBRANCH   1  22
TORSDOF 24
