REMARK SMILES O=C(OCCOCCOCCOC(=O)c1cc(NC(=O)c2ccc(Br)o2)ccc1O)c1ccc(-c2c3nc(c(-c4c(F)cc(S(=O)(=O)[O-])cc4F)c4ccc([nH]4)c(-c4c(F)cc(S(=O)(=O)[O-])cc4F)c4nc(c(-c5c(F)cc(S(=O)(=O)[O-])cc5F)c5ccc2[nH]5)C=C4)C=C3)cc1
REMARK SMILES IDX 7 1 6 2 5 3 4 4 3 5 2 6 1 7 31 8 32 9 96 10 33 11 95 12
REMARK SMILES IDX 34 13 35 14 36 15 89 16 37 17 94 18 88 19 90 20 38 21 93 22
REMARK SMILES IDX 87 23 86 24 39 26 73 27 52 28 72 29 53 30 56 31 71 32 91 33
REMARK SMILES IDX 54 34 55 35 70 37 92 38 57 39 40 40 41 41 50 42 42 43 43 44
REMARK SMILES IDX 49 45 51 46 44 47 45 48 46 49 47 50 48 51 74 52 75 53 84 54
REMARK SMILES IDX 76 55 77 56 83 57 85 58 78 59 79 60 80 61 81 62 82 63 58 64
REMARK SMILES IDX 59 65 68 66 60 67 61 68 67 69 69 70 62 71 63 72 64 73 65 74
REMARK SMILES IDX 66 75 8 76 9 77 10 78 11 79 12 80 13 81 14 82 15 83 16 84
REMARK SMILES IDX 29 85 17 86 28 87 27 88 30 89 18 91 19 92 20 94 21 95 22 96
REMARK SMILES IDX 26 97 23 98 24 99 25 100
REMARK H PARENT 90 25 56 36 30 90 18 93
REMARK Flexibility Score: inf
ROOT
ATOM      1  C   UNL     1       3.039   1.470  -1.114  1.00  0.00     0.188 C 
ENDROOT
BRANCH   1   2
ATOM      2  O   UNL     1       4.445   1.289  -0.985  1.00  0.00    -0.376 OA
BRANCH   2   3
ATOM      3  C   UNL     1       4.981   0.296  -1.860  1.00  0.00     0.202 C 
BRANCH   3   4
ATOM      4  C   UNL     1       4.924  -1.132  -1.291  1.00  0.00     0.261 C 
BRANCH   4   5
ATOM      5  O   UNL     1       3.601  -1.504  -0.864  1.00  0.00    -0.460 OA
BRANCH   5   6
ATOM      6  C   UNL     1       3.087  -1.579   0.387  1.00  0.00     0.338 C 
ATOM      7  O   UNL     1       2.033  -2.200   0.528  1.00  0.00    -0.246 OA
BRANCH   6   8
ATOM      8  C   UNL     1       3.650  -0.888   1.596  1.00  0.00     0.060 A 
ATOM      9  C   UNL     1       4.806  -0.110   1.635  1.00  0.00     0.016 A 
ATOM     10  C   UNL     1       2.918  -1.014   2.797  1.00  0.00     0.016 A 
ATOM     11  C   UNL     1       5.266   0.456   2.820  1.00  0.00     0.010 A 
ATOM     12  C   UNL     1       3.350  -0.415   3.988  1.00  0.00     0.010 A 
ATOM     13  C   UNL     1       4.561   0.280   4.009  1.00  0.00    -0.014 A 
BRANCH  13  14
ATOM     14  C   UNL     1       5.247   0.639   5.267  1.00  0.00     0.031 A 
ATOM     15  C   UNL     1       5.910  -0.465   6.040  1.00  0.00     0.074 A 
ATOM     16  C   UNL     1       5.440   1.928   5.598  1.00  0.00     0.049 A 
ATOM     17  N   UNL     1       6.665  -0.391   7.102  1.00  0.00    -0.248 NA
ATOM     18  C   UNL     1       5.727  -1.833   5.524  1.00  0.00     0.031 C 
ATOM     19  C   UNL     1       4.955   3.074   4.830  1.00  0.00     0.029 A 
ATOM     20  N   UNL     1       6.135   2.490   6.637  1.00  0.00    -0.354 N 
ATOM     21  C   UNL     1       7.055  -1.696   7.373  1.00  0.00     0.074 A 
ATOM     22  C   UNL     1       6.427  -2.547   6.389  1.00  0.00     0.031 C 
ATOM     23  C   UNL     1       5.386   4.202   5.418  1.00  0.00     0.029 A 
ATOM     24  C   UNL     1       6.125   3.864   6.626  1.00  0.00     0.049 A 
ATOM     25  H   UNL     1       6.598   1.960   7.326  1.00  0.00     0.167 HD
ATOM     26  C   UNL     1       7.878  -2.143   8.348  1.00  0.00     0.037 A 
ATOM     27  C   UNL     1       6.643   4.749   7.499  1.00  0.00     0.037 A 
ATOM     28  C   UNL     1       8.485  -1.288   9.328  1.00  0.00     0.049 A 
ATOM     29  C   UNL     1       7.446   4.221   8.655  1.00  0.00     0.074 A 
ATOM     30  C   UNL     1       9.278  -1.634  10.405  1.00  0.00     0.029 A 
ATOM     31  N   UNL     1       8.357   0.095   9.348  1.00  0.00    -0.354 N 
ATOM     32  N   UNL     1       7.770   2.978   8.925  1.00  0.00    -0.248 NA
ATOM     33  C   UNL     1       7.960   5.204   9.616  1.00  0.00     0.031 C 
ATOM     34  C   UNL     1       9.598  -0.463  11.100  1.00  0.00     0.029 A 
ATOM     35  C   UNL     1       9.040   0.616  10.431  1.00  0.00     0.049 A 
ATOM     36  H   UNL     1       7.854   0.625   8.688  1.00  0.00     0.167 HD
ATOM     37  C   UNL     1       8.549   3.031  10.074  1.00  0.00     0.074 A 
ATOM     38  C   UNL     1       8.653   4.430  10.441  1.00  0.00     0.031 C 
ATOM     39  C   UNL     1       9.127   2.017  10.762  1.00  0.00     0.037 A 
BRANCH  26  40
ATOM     40  C   UNL     1       8.105  -3.625   8.414  1.00  0.00     0.058 A 
ATOM     41  C   UNL     1       8.914  -4.292   7.480  1.00  0.00     0.135 A 
ATOM     42  C   UNL     1       7.463  -4.394   9.396  1.00  0.00     0.135 A 
ATOM     43  F   UNL     1       9.522  -3.605   6.499  1.00  0.00    -0.206 F 
ATOM     44  C   UNL     1       9.053  -5.676   7.498  1.00  0.00     0.059 A 
ATOM     45  C   UNL     1       7.605  -5.777   9.447  1.00  0.00     0.059 A 
ATOM     46  F   UNL     1       6.667  -3.805  10.302  1.00  0.00    -0.206 F 
ATOM     47  C   UNL     1       8.387  -6.410   8.482  1.00  0.00     0.060 A 
BRANCH  47  48
ATOM     48  S   UNL     1       8.546  -8.208   8.475  1.00  0.00     0.124 S 
ATOM     49  O   UNL     1       7.702  -8.569   7.340  1.00  0.00    -0.237 OA
ATOM     50  O   UNL     1       9.981  -8.395   8.282  1.00  0.00    -0.237 OA
ATOM     51  O   UNL     1       8.037  -8.598   9.786  1.00  0.00    -0.744 OA
ENDBRANCH  47  48
ENDBRANCH  26  40
BRANCH  27  52
ATOM     52  C   UNL     1       6.387   6.206   7.332  1.00  0.00     0.058 A 
ATOM     53  C   UNL     1       7.416   7.106   7.018  1.00  0.00     0.135 A 
ATOM     54  C   UNL     1       5.091   6.726   7.486  1.00  0.00     0.135 A 
ATOM     55  F   UNL     1       8.672   6.661   6.862  1.00  0.00    -0.206 F 
ATOM     56  C   UNL     1       7.173   8.470   6.875  1.00  0.00     0.059 A 
ATOM     57  C   UNL     1       4.820   8.081   7.329  1.00  0.00     0.059 A 
ATOM     58  F   UNL     1       4.064   5.908   7.763  1.00  0.00    -0.206 F 
ATOM     59  C   UNL     1       5.870   8.947   7.032  1.00  0.00     0.060 A 
BRANCH  59  60
ATOM     60  S   UNL     1       5.548  10.706   6.782  1.00  0.00     0.124 S 
ATOM     61  O   UNL     1       6.114  11.284   7.995  1.00  0.00    -0.237 OA
ATOM     62  O   UNL     1       6.273  10.970   5.543  1.00  0.00    -0.237 OA
ATOM     63  O   UNL     1       4.094  10.761   6.669  1.00  0.00    -0.744 OA
ENDBRANCH  59  60
ENDBRANCH  27  52
BRANCH  39  64
ATOM     64  C   UNL     1       9.943   2.388  11.964  1.00  0.00     0.058 A 
ATOM     65  C   UNL     1       9.338   2.773  13.168  1.00  0.00     0.135 A 
ATOM     66  C   UNL     1      11.343   2.296  11.924  1.00  0.00     0.135 A 
ATOM     67  F   UNL     1       8.002   2.882  13.250  1.00  0.00    -0.206 F 
ATOM     68  C   UNL     1      10.097   3.073  14.293  1.00  0.00     0.059 A 
ATOM     69  C   UNL     1      12.120   2.568  13.043  1.00  0.00     0.059 A 
ATOM     70  F   UNL     1      11.965   1.922  10.794  1.00  0.00    -0.206 F 
ATOM     71  C   UNL     1      11.487   2.965  14.221  1.00  0.00     0.060 A 
BRANCH  71  72
ATOM     72  S   UNL     1      12.461   3.315  15.699  1.00  0.00     0.124 S 
ATOM     73  O   UNL     1      12.436   4.773  15.727  1.00  0.00    -0.237 OA
ATOM     74  O   UNL     1      11.693   2.647  16.746  1.00  0.00    -0.237 OA
ATOM     75  O   UNL     1      13.756   2.712  15.400  1.00  0.00    -0.744 OA
ENDBRANCH  71  72
ENDBRANCH  39  64
ENDBRANCH  13  14
ENDBRANCH   6   8
ENDBRANCH   5   6
ENDBRANCH   4   5
ENDBRANCH   3   4
ENDBRANCH   2   3
ENDBRANCH   1   2
BRANCH   1  76
ATOM     76  C   UNL     1       2.562   2.640  -1.984  1.00  0.00     0.188 C 
BRANCH  76  77
ATOM     77  O   UNL     1       3.441   3.129  -2.982  1.00  0.00    -0.376 OA
BRANCH  77  78
ATOM     78  C   UNL     1       4.637   3.771  -2.538  1.00  0.00     0.202 C 
BRANCH  78  79
ATOM     79  C   UNL     1       4.513   4.987  -1.611  1.00  0.00     0.261 C 
BRANCH  79  80
ATOM     80  O   UNL     1       4.009   4.685  -0.296  1.00  0.00    -0.460 OA
BRANCH  80  81
ATOM     81  C   UNL     1       2.879   5.356   0.050  1.00  0.00     0.342 C 
ATOM     82  O   UNL     1       2.149   5.999  -0.685  1.00  0.00    -0.246 OA
BRANCH  81  83
ATOM     83  C   UNL     1       2.557   5.131   1.467  1.00  0.00     0.103 A 
ATOM     84  C   UNL     1       1.460   4.309   1.798  1.00  0.00     0.045 A 
ATOM     85  C   UNL     1       3.211   5.884   2.443  1.00  0.00     0.130 A 
ATOM     86  C   UNL     1       1.043   4.210   3.126  1.00  0.00     0.042 A 
ATOM     87  C   UNL     1       2.778   5.817   3.759  1.00  0.00     0.049 A 
ATOM     88  C   UNL     1       1.716   4.972   4.096  1.00  0.00     0.030 A 
BRANCH  85  89
ATOM     89  O   UNL     1       4.243   6.708   2.102  1.00  0.00    -0.507 OA
ATOM     90  H   UNL     1       4.534   6.752   1.212  1.00  0.00     0.293 HD
ENDBRANCH  85  89
BRANCH  86  91
ATOM     91  N   UNL     1      -0.078   3.499   3.590  1.00  0.00    -0.319 N 
ATOM     92  C   UNL     1      -1.008   2.663   3.015  1.00  0.00     0.291 C 
ATOM     93  H   UNL     1      -0.235   3.632   4.553  1.00  0.00     0.170 HD
ATOM     94  O   UNL     1      -2.054   2.494   3.648  1.00  0.00    -0.265 OA
BRANCH  92  95
ATOM     95  C   UNL     1      -0.742   1.950   1.792  1.00  0.00     0.193 A 
ATOM     96  C   UNL     1       0.316   1.159   1.389  1.00  0.00     0.057 A 
ATOM     97  O   UNL     1      -1.737   1.885   0.852  1.00  0.00    -0.444 OA
ATOM     98  C   UNL     1      -0.063   0.562   0.161  1.00  0.00     0.059 A 
ATOM     99  C   UNL     1      -1.310   1.056  -0.135  1.00  0.00     0.170 A 
ATOM    100  Br  UNL     1      -2.295   0.633  -1.661  1.00  0.00    -0.008 Br
ENDBRANCH  92  95
ENDBRANCH  86  91
ENDBRANCH  81  83
ENDBRANCH  80  81
ENDBRANCH  79  80
ENDBRANCH  78  79
ENDBRANCH  77  78
ENDBRANCH  76  77
ENDBRANCH   1  76
TORSDOF 23
