REMARK SMILES Cc1ccc([N+](=O)[O-])c(N[C@H]2[C@@H]3CC[C@@H](C3)[C@@H]2C(=O)OCCOCCOCCOC(=O)c2ccc(-c3c4nc(c(-c5c(F)cc(S(=O)(=O)[O-])cc5F)c5ccc([nH]5)c(-c5c(F)cc(S(=O)(=O)[O-])cc5F)c5nc(c(-c6c(F)cc(S(=O)(=O)[O-])cc6F)c6ccc3[nH]6)C=C5)C=C4)cc2)c1
REMARK SMILES IDX 24 1 23 2 22 3 21 4 20 5 18 6 19 7 17 8 11 9 12 10 13 11
REMARK SMILES IDX 16 12 15 13 14 14 10 15 9 17 1 18 2 19 3 20 98 21 4 22 5 23
REMARK SMILES IDX 6 24 7 25 8 26 25 27 26 28 27 29 28 30 29 31 30 32 31 33
REMARK SMILES IDX 32 34 33 35 97 36 34 37 96 38 35 39 36 40 37 41 90 42 38 43
REMARK SMILES IDX 95 44 89 45 91 46 39 47 94 48 88 49 87 50 40 52 74 53 53 54
REMARK SMILES IDX 73 55 54 56 57 57 72 58 92 59 55 60 56 61 71 63 93 64 58 65
REMARK SMILES IDX 41 66 42 67 51 68 43 69 44 70 50 71 52 72 45 73 46 74 47 75
REMARK SMILES IDX 48 76 49 77 75 78 76 79 85 80 77 81 78 82 84 83 86 84 79 85
REMARK SMILES IDX 80 86 81 87 82 88 83 89 59 90 60 91 69 92 61 93 62 94 68 95
REMARK SMILES IDX 70 96 63 97 64 98 65 99 66 100 67 101
REMARK H PARENT 10 16 91 51 57 62
REMARK Flexibility Score: inf
ROOT
ATOM      1  C   UNL     1      -8.481   4.025   1.428  1.00  0.00     0.188 C 
ENDROOT
BRANCH   1   2
ATOM      2  O   UNL     1      -8.353   5.413   1.613  1.00  0.00    -0.376 OA
BRANCH   2   3
ATOM      3  C   UNL     1      -6.970   5.632   1.830  1.00  0.00     0.202 C 
BRANCH   3   4
ATOM      4  C   UNL     1      -6.114   5.548   0.520  1.00  0.00     0.261 C 
BRANCH   4   5
ATOM      5  O   UNL     1      -5.489   4.239  -0.287  1.00  0.00    -0.463 OA
BRANCH   5   6
ATOM      6  C   UNL     1      -4.304   3.487  -0.417  1.00  0.00     0.311 C 
ATOM      7  O   UNL     1      -3.184   3.830  -0.070  1.00  0.00    -0.252 OA
BRANCH   6   8
ATOM      8  C   UNL     1      -4.123   2.030  -0.836  1.00  0.00     0.125 C 
ATOM      9  C   UNL     1      -2.866   2.098  -1.773  1.00  0.00     0.097 C 
ATOM     10  C   UNL     1      -3.429   1.564  -3.083  1.00  0.00     0.012 C 
ATOM     11  C   UNL     1      -4.597   2.524  -3.528  1.00  0.00     0.006 C 
ATOM     12  C   UNL     1      -4.218   0.376  -2.591  1.00  0.00     0.010 C 
ATOM     13  C   UNL     1      -5.112   1.203  -1.645  1.00  0.00     0.006 C 
ATOM     14  C   UNL     1      -5.790   2.123  -2.633  1.00  0.00     0.005 C 
BRANCH   9  15
ATOM     15  N   UNL     1      -1.562   1.636  -1.220  1.00  0.00    -0.376 N 
ATOM     16  H   UNL     1      -0.965   2.418  -1.242  1.00  0.00     0.161 HD
BRANCH  15  17
ATOM     17  C   UNL     1      -0.820   0.605  -0.692  1.00  0.00     0.114 A 
ATOM     18  C   UNL     1       3.027   0.269  -0.139  1.00  0.00     0.044 C 
ATOM     19  C   UNL     1       1.564  -0.077  -0.189  1.00  0.00    -0.049 A 
ATOM     20  C   UNL     1       1.153  -1.350   0.181  1.00  0.00     0.010 A 
ATOM     21  C   UNL     1       0.592   0.852  -0.638  1.00  0.00     0.036 A 
ATOM     22  C   UNL     1      -0.204  -1.641   0.175  1.00  0.00     0.088 A 
ATOM     23  C   UNL     1      -1.162  -0.672  -0.233  1.00  0.00     0.292 A 
BRANCH  23  24
ATOM     24  N   UNL     1      -2.513  -1.079   0.063  1.00  0.00     0.064 N 
ATOM     25  O   UNL     1      -3.052  -0.588   1.062  1.00  0.00    -0.258 OA
ATOM     26  O   UNL     1      -2.972  -2.019  -0.607  1.00  0.00    -0.258 OA
ENDBRANCH  23  24
ENDBRANCH  15  17
ENDBRANCH   9  15
ENDBRANCH   6   8
ENDBRANCH   5   6
ENDBRANCH   4   5
ENDBRANCH   3   4
ENDBRANCH   2   3
ENDBRANCH   1   2
BRANCH   1  27
ATOM     27  C   UNL     1      -9.813   3.584   0.904  1.00  0.00     0.188 C 
BRANCH  27  28
ATOM     28  O   UNL     1     -10.884   3.584   1.829  1.00  0.00    -0.376 OA
BRANCH  28  29
ATOM     29  C   UNL     1     -10.540   3.353   3.194  1.00  0.00     0.202 C 
BRANCH  29  30
ATOM     30  C   UNL     1      -9.908   1.979   3.611  1.00  0.00     0.261 C 
BRANCH  30  31
ATOM     31  O   UNL     1      -9.359   1.173   2.533  1.00  0.00    -0.460 OA
BRANCH  31  32
ATOM     32  C   UNL     1      -8.430   0.159   2.789  1.00  0.00     0.338 C 
ATOM     33  O   UNL     1      -8.630  -1.014   2.509  1.00  0.00    -0.246 OA
BRANCH  32  34
ATOM     34  C   UNL     1      -7.048   0.723   2.691  1.00  0.00     0.060 A 
ATOM     35  C   UNL     1      -5.863   0.597   3.402  1.00  0.00     0.016 A 
ATOM     36  C   UNL     1      -6.880   1.408   1.552  1.00  0.00     0.016 A 
ATOM     37  C   UNL     1      -4.767   1.567   3.263  1.00  0.00     0.010 A 
ATOM     38  C   UNL     1      -5.891   2.387   1.520  1.00  0.00     0.010 A 
ATOM     39  C   UNL     1      -4.837   2.664   2.388  1.00  0.00    -0.014 A 
BRANCH  39  40
ATOM     40  C   UNL     1      -4.159   4.139   2.622  1.00  0.00     0.031 A 
ATOM     41  C   UNL     1      -3.091   5.109   1.762  1.00  0.00     0.074 A 
ATOM     42  C   UNL     1      -4.508   4.586   3.853  1.00  0.00     0.049 A 
ATOM     43  N   UNL     1      -1.771   5.098   1.841  1.00  0.00    -0.248 NA
ATOM     44  C   UNL     1      -3.420   6.045   0.565  1.00  0.00     0.031 C 
ATOM     45  C   UNL     1      -4.056   5.756   4.579  1.00  0.00     0.029 A 
ATOM     46  N   UNL     1      -5.228   3.858   4.810  1.00  0.00    -0.354 N 
ATOM     47  C   UNL     1      -1.294   6.042   0.873  1.00  0.00     0.074 A 
ATOM     48  C   UNL     1      -2.283   6.138  -0.100  1.00  0.00     0.031 C 
ATOM     49  C   UNL     1      -4.156   5.478   5.896  1.00  0.00     0.029 A 
ATOM     50  C   UNL     1      -4.665   4.120   6.056  1.00  0.00     0.049 A 
ATOM     51  H   UNL     1      -5.996   3.267   4.633  1.00  0.00     0.167 HD
ATOM     52  C   UNL     1      -0.621   7.210   1.141  1.00  0.00     0.037 A 
ATOM     53  C   UNL     1      -4.031   3.074   6.664  1.00  0.00     0.037 A 
ATOM     54  C   UNL     1      -0.513   7.291   2.579  1.00  0.00     0.049 A 
ATOM     55  C   UNL     1      -2.500   3.213   6.496  1.00  0.00     0.074 A 
ATOM     56  C   UNL     1      -1.164   8.002   3.571  1.00  0.00     0.029 A 
ATOM     57  N   UNL     1       0.025   6.179   3.199  1.00  0.00    -0.354 N 
ATOM     58  N   UNL     1      -1.913   4.139   5.758  1.00  0.00    -0.248 NA
ATOM     59  C   UNL     1      -1.504   2.424   7.208  1.00  0.00     0.031 C 
ATOM     60  C   UNL     1      -1.030   7.259   4.794  1.00  0.00     0.029 A 
ATOM     61  C   UNL     1      -0.300   6.111   4.535  1.00  0.00     0.049 A 
ATOM     62  H   UNL     1       0.579   5.510   2.736  1.00  0.00     0.167 HD
ATOM     63  C   UNL     1      -0.538   4.128   5.914  1.00  0.00     0.074 A 
ATOM     64  C   UNL     1      -0.352   3.032   6.851  1.00  0.00     0.031 C 
ATOM     65  C   UNL     1       0.320   5.021   5.291  1.00  0.00     0.037 A 
BRANCH  52  66
ATOM     66  C   UNL     1      -0.559   8.380   0.096  1.00  0.00     0.058 A 
ATOM     67  C   UNL     1      -0.425   9.723   0.489  1.00  0.00     0.135 A 
ATOM     68  C   UNL     1      -0.660   8.225  -1.323  1.00  0.00     0.135 A 
ATOM     69  F   UNL     1      -0.209  10.038   1.772  1.00  0.00    -0.206 F 
ATOM     70  C   UNL     1      -0.481  10.805  -0.416  1.00  0.00     0.059 A 
ATOM     71  C   UNL     1      -0.834   9.286  -2.231  1.00  0.00     0.059 A 
ATOM     72  F   UNL     1      -0.553   7.017  -1.903  1.00  0.00    -0.206 F 
ATOM     73  C   UNL     1      -0.717  10.583  -1.770  1.00  0.00     0.060 A 
BRANCH  73  74
ATOM     74  S   UNL     1      -0.774  11.979  -2.924  1.00  0.00     0.124 S 
ATOM     75  O   UNL     1      -1.670  12.914  -2.249  1.00  0.00    -0.237 OA
ATOM     76  O   UNL     1       0.628  12.374  -2.984  1.00  0.00    -0.237 OA
ATOM     77  O   UNL     1      -1.310  11.391  -4.150  1.00  0.00    -0.744 OA
ENDBRANCH  73  74
ENDBRANCH  52  66
BRANCH  53  78
ATOM     78  C   UNL     1      -5.032   1.948   6.962  1.00  0.00     0.058 A 
ATOM     79  C   UNL     1      -6.254   2.381   7.556  1.00  0.00     0.135 A 
ATOM     80  C   UNL     1      -5.080   0.618   6.508  1.00  0.00     0.135 A 
ATOM     81  F   UNL     1      -6.309   3.588   8.144  1.00  0.00    -0.206 F 
ATOM     82  C   UNL     1      -7.462   1.677   7.505  1.00  0.00     0.059 A 
ATOM     83  C   UNL     1      -6.294  -0.148   6.496  1.00  0.00     0.059 A 
ATOM     84  F   UNL     1      -3.995   0.052   5.955  1.00  0.00    -0.206 F 
ATOM     85  C   UNL     1      -7.494   0.422   6.931  1.00  0.00     0.060 A 
BRANCH  85  86
ATOM     86  S   UNL     1      -9.098  -0.419   6.743  1.00  0.00     0.124 S 
ATOM     87  O   UNL     1      -8.861  -1.716   7.327  1.00  0.00    -0.237 OA
ATOM     88  O   UNL     1     -10.025   0.455   7.462  1.00  0.00    -0.237 OA
ATOM     89  O   UNL     1      -9.273  -0.382   5.288  1.00  0.00    -0.744 OA
ENDBRANCH  85  86
ENDBRANCH  53  78
BRANCH  65  90
ATOM     90  C   UNL     1       1.880   5.021   5.197  1.00  0.00     0.058 A 
ATOM     91  C   UNL     1       2.734   3.987   5.592  1.00  0.00     0.135 A 
ATOM     92  C   UNL     1       2.567   6.089   4.517  1.00  0.00     0.135 A 
ATOM     93  F   UNL     1       2.290   2.913   6.246  1.00  0.00    -0.206 F 
ATOM     94  C   UNL     1       4.115   3.999   5.327  1.00  0.00     0.059 A 
ATOM     95  C   UNL     1       3.901   6.055   4.125  1.00  0.00     0.059 A 
ATOM     96  F   UNL     1       1.970   7.251   4.211  1.00  0.00    -0.206 F 
ATOM     97  C   UNL     1       4.683   5.017   4.569  1.00  0.00     0.060 A 
BRANCH  97  98
ATOM     98  S   UNL     1       6.444   5.005   4.205  1.00  0.00     0.124 S 
ATOM     99  O   UNL     1       7.000   5.487   5.466  1.00  0.00    -0.237 OA
ATOM    100  O   UNL     1       6.692   3.600   3.898  1.00  0.00    -0.237 OA
ATOM    101  O   UNL     1       6.568   5.918   3.073  1.00  0.00    -0.744 OA
ENDBRANCH  97  98
ENDBRANCH  65  90
ENDBRANCH  39  40
ENDBRANCH  32  34
ENDBRANCH  31  32
ENDBRANCH  30  31
ENDBRANCH  29  30
ENDBRANCH  28  29
ENDBRANCH  27  28
ENDBRANCH   1  27
TORSDOF 23
