REMARK SMILES O=C(OCCOCCOCCOC(=O)c1ccc2c(c1)[C@@H](C1CCOCC1)C(=O)N2)c1ccc(-c2c3nc(c(-c4c(F)cc(S(=O)(=O)[O-])cc4F)c4ccc([nH]4)c(-c4c(F)cc(S(=O)(=O)[O-])cc4F)c4nc(c(-c5c(F)cc(S(=O)(=O)[O-])cc5F)c5ccc2[nH]5)C=C4)C=C3)cc1
REMARK SMILES IDX 7 1 6 2 5 3 4 4 3 5 2 6 1 7 31 8 32 9 96 10 33 11 95 12
REMARK SMILES IDX 34 13 35 14 36 15 89 16 37 17 94 18 88 19 90 20 38 21 93 22
REMARK SMILES IDX 87 23 86 24 39 26 73 27 52 28 72 29 53 30 56 31 71 32 91 33
REMARK SMILES IDX 54 34 55 35 70 37 92 38 57 39 40 40 41 41 50 42 42 43 43 44
REMARK SMILES IDX 49 45 51 46 44 47 45 48 46 49 47 50 48 51 74 52 75 53 84 54
REMARK SMILES IDX 76 55 77 56 83 57 85 58 78 59 79 60 80 61 81 62 82 63 58 64
REMARK SMILES IDX 59 65 68 66 60 67 61 68 67 69 69 70 62 71 63 72 64 73 65 74
REMARK SMILES IDX 66 75 8 76 9 77 10 78 11 79 12 80 13 81 14 82 15 83 16 84
REMARK SMILES IDX 20 85 17 86 19 87 18 88 21 89 30 90 28 91 29 93 22 94 23 95
REMARK SMILES IDX 27 96 24 97 26 98 25 99
REMARK H PARENT 90 25 56 36 30 92
REMARK Flexibility Score: inf
ROOT
ATOM      1  C   UNL     1       2.676  -0.913  -1.799  1.00  0.00     0.188 C 
ENDROOT
BRANCH   1   2
ATOM      2  O   UNL     1       4.017  -0.445  -1.723  1.00  0.00    -0.376 OA
BRANCH   2   3
ATOM      3  C   UNL     1       4.917  -1.117  -0.842  1.00  0.00     0.202 C 
BRANCH   3   4
ATOM      4  C   UNL     1       4.501  -1.352   0.621  1.00  0.00     0.261 C 
BRANCH   4   5
ATOM      5  O   UNL     1       3.109  -1.145   0.907  1.00  0.00    -0.460 OA
BRANCH   5   6
ATOM      6  C   UNL     1       2.524   0.019   1.281  1.00  0.00     0.338 C 
ATOM      7  O   UNL     1       1.328   0.050   1.556  1.00  0.00    -0.246 OA
BRANCH   6   8
ATOM      8  C   UNL     1       3.303   1.272   1.373  1.00  0.00     0.060 A 
ATOM      9  C   UNL     1       4.161   1.731   0.376  1.00  0.00     0.016 A 
ATOM     10  C   UNL     1       3.070   2.084   2.475  1.00  0.00     0.016 A 
ATOM     11  C   UNL     1       4.912   2.884   0.531  1.00  0.00     0.010 A 
ATOM     12  C   UNL     1       3.729   3.307   2.574  1.00  0.00     0.010 A 
ATOM     13  C   UNL     1       4.677   3.710   1.619  1.00  0.00    -0.014 A 
BRANCH  13  14
ATOM     14  C   UNL     1       5.469   4.948   1.807  1.00  0.00     0.031 A 
ATOM     15  C   UNL     1       6.172   5.128   3.119  1.00  0.00     0.074 A 
ATOM     16  C   UNL     1       5.562   5.876   0.832  1.00  0.00     0.049 A 
ATOM     17  N   UNL     1       6.738   6.191   3.616  1.00  0.00    -0.248 NA
ATOM     18  C   UNL     1       6.182   3.964   4.024  1.00  0.00     0.031 C 
ATOM     19  C   UNL     1       4.961   5.779  -0.501  1.00  0.00     0.029 A 
ATOM     20  N   UNL     1       6.219   7.079   0.799  1.00  0.00    -0.354 N 
ATOM     21  C   UNL     1       7.089   5.844   4.914  1.00  0.00     0.074 A 
ATOM     22  C   UNL     1       6.597   4.509   5.152  1.00  0.00     0.031 C 
ATOM     23  C   UNL     1       5.334   6.837  -1.237  1.00  0.00     0.029 A 
ATOM     24  C   UNL     1       6.111   7.738  -0.405  1.00  0.00     0.049 A 
ATOM     25  H   UNL     1       6.721   7.439   1.565  1.00  0.00     0.167 HD
ATOM     26  C   UNL     1       7.798   6.563   5.811  1.00  0.00     0.037 A 
ATOM     27  C   UNL     1       6.570   8.945  -0.786  1.00  0.00     0.037 A 
ATOM     28  C   UNL     1       8.348   7.853   5.505  1.00  0.00     0.049 A 
ATOM     29  C   UNL     1       7.342   9.740   0.229  1.00  0.00     0.074 A 
ATOM     30  C   UNL     1       9.107   8.682   6.305  1.00  0.00     0.029 A 
ATOM     31  N   UNL     1       8.206   8.489   4.276  1.00  0.00    -0.354 N 
ATOM     32  N   UNL     1       7.646   9.415   1.464  1.00  0.00    -0.248 NA
ATOM     33  C   UNL     1       7.832  11.056  -0.191  1.00  0.00     0.031 C 
ATOM     34  C   UNL     1       9.388   9.841   5.573  1.00  0.00     0.029 A 
ATOM     35  C   UNL     1       8.856   9.707   4.297  1.00  0.00     0.049 A 
ATOM     36  H   UNL     1       7.714   8.125   3.505  1.00  0.00     0.167 HD
ATOM     37  C   UNL     1       8.395  10.472   1.962  1.00  0.00     0.074 A 
ATOM     38  C   UNL     1       8.501  11.442   0.887  1.00  0.00     0.031 C 
ATOM     39  C   UNL     1       8.950  10.629   3.190  1.00  0.00     0.037 A 
BRANCH  26  40
ATOM     40  C   UNL     1       7.970   5.962   7.179  1.00  0.00     0.058 A 
ATOM     41  C   UNL     1       8.700   4.778   7.392  1.00  0.00     0.135 A 
ATOM     42  C   UNL     1       7.309   6.525   8.282  1.00  0.00     0.135 A 
ATOM     43  F   UNL     1       9.328   4.176   6.368  1.00  0.00    -0.206 F 
ATOM     44  C   UNL     1       8.706   4.137   8.626  1.00  0.00     0.059 A 
ATOM     45  C   UNL     1       7.336   5.923   9.536  1.00  0.00     0.059 A 
ATOM     46  F   UNL     1       6.593   7.651   8.139  1.00  0.00    -0.206 F 
ATOM     47  C   UNL     1       8.011   4.713   9.690  1.00  0.00     0.060 A 
BRANCH  47  48
ATOM     48  S   UNL     1       7.985   3.843  11.271  1.00  0.00     0.124 S 
ATOM     49  O   UNL     1       7.079   2.736  10.978  1.00  0.00    -0.237 OA
ATOM     50  O   UNL     1       9.387   3.482  11.450  1.00  0.00    -0.237 OA
ATOM     51  O   UNL     1       7.474   4.845  12.201  1.00  0.00    -0.744 OA
ENDBRANCH  47  48
ENDBRANCH  26  40
BRANCH  27  52
ATOM     52  C   UNL     1       6.332   9.450  -2.169  1.00  0.00     0.058 A 
ATOM     53  C   UNL     1       7.395   9.599  -3.075  1.00  0.00     0.135 A 
ATOM     54  C   UNL     1       5.043   9.764  -2.631  1.00  0.00     0.135 A 
ATOM     55  F   UNL     1       8.647   9.309  -2.690  1.00  0.00    -0.206 F 
ATOM     56  C   UNL     1       7.193  10.052  -4.376  1.00  0.00     0.059 A 
ATOM     57  C   UNL     1       4.812  10.197  -3.935  1.00  0.00     0.059 A 
ATOM     58  F   UNL     1       3.981   9.612  -1.825  1.00  0.00    -0.206 F 
ATOM     59  C   UNL     1       5.896  10.344  -4.799  1.00  0.00     0.060 A 
BRANCH  59  60
ATOM     60  S   UNL     1       5.641  10.873  -6.508  1.00  0.00     0.124 S 
ATOM     61  O   UNL     1       6.260  12.193  -6.505  1.00  0.00    -0.237 OA
ATOM     62  O   UNL     1       6.347   9.835  -7.252  1.00  0.00    -0.237 OA
ATOM     63  O   UNL     1       4.188  10.855  -6.648  1.00  0.00    -0.744 OA
ENDBRANCH  59  60
ENDBRANCH  27  52
BRANCH  39  64
ATOM     64  C   UNL     1       9.771  11.864   3.410  1.00  0.00     0.058 A 
ATOM     65  C   UNL     1       9.182  13.129   3.549  1.00  0.00     0.135 A 
ATOM     66  C   UNL     1      11.162  11.758   3.561  1.00  0.00     0.135 A 
ATOM     67  F   UNL     1       7.856  13.279   3.402  1.00  0.00    -0.206 F 
ATOM     68  C   UNL     1       9.951  14.255   3.813  1.00  0.00     0.059 A 
ATOM     69  C   UNL     1      11.945  12.864   3.861  1.00  0.00     0.059 A 
ATOM     70  F   UNL     1      11.767  10.565   3.447  1.00  0.00    -0.206 F 
ATOM     71  C   UNL     1      11.331  14.110   3.975  1.00  0.00     0.060 A 
BRANCH  71  72
ATOM     72  S   UNL     1      12.310  15.571   4.371  1.00  0.00     0.124 S 
ATOM     73  O   UNL     1      12.305  16.280   3.096  1.00  0.00    -0.237 OA
ATOM     74  O   UNL     1      11.532  16.184   5.443  1.00  0.00    -0.237 OA
ATOM     75  O   UNL     1      13.598  15.016   4.777  1.00  0.00    -0.744 OA
ENDBRANCH  71  72
ENDBRANCH  39  64
ENDBRANCH  13  14
ENDBRANCH   6   8
ENDBRANCH   5   6
ENDBRANCH   4   5
ENDBRANCH   3   4
ENDBRANCH   2   3
ENDBRANCH   1   2
BRANCH   1  76
ATOM     76  C   UNL     1       2.010  -0.606  -3.142  1.00  0.00     0.188 C 
BRANCH  76  77
ATOM     77  O   UNL     1       2.642  -1.121  -4.305  1.00  0.00    -0.376 OA
BRANCH  77  78
ATOM     78  C   UNL     1       4.021  -0.813  -4.472  1.00  0.00     0.202 C 
BRANCH  78  79
ATOM     79  C   UNL     1       4.444   0.660  -4.652  1.00  0.00     0.261 C 
BRANCH  79  80
ATOM     80  O   UNL     1       3.894   1.638  -3.744  1.00  0.00    -0.460 OA
BRANCH  80  81
ATOM     81  C   UNL     1       2.924   2.417  -4.287  1.00  0.00     0.338 C 
ATOM     82  O   UNL     1       2.386   2.257  -5.372  1.00  0.00    -0.246 OA
BRANCH  81  83
ATOM     83  C   UNL     1       2.622   3.603  -3.456  1.00  0.00     0.060 A 
ATOM     84  C   UNL     1       3.168   4.818  -3.919  1.00  0.00     0.018 A 
ATOM     85  C   UNL     1       1.618   3.583  -2.461  1.00  0.00     0.022 A 
ATOM     86  C   UNL     1       2.681   6.035  -3.448  1.00  0.00     0.027 A 
ATOM     87  C   UNL     1       1.145   4.806  -1.988  1.00  0.00    -0.011 A 
ATOM     88  C   UNL     1       1.661   5.993  -2.521  1.00  0.00     0.045 A 
ATOM     89  C   UNL     1      -0.035   5.155  -1.087  1.00  0.00     0.114 C 
ATOM     90  N   UNL     1       0.914   7.077  -2.104  1.00  0.00    -0.325 N 
ATOM     91  C   UNL     1      -0.177   6.682  -1.349  1.00  0.00     0.232 C 
ATOM     92  H   UNL     1       1.130   8.014  -2.317  1.00  0.00     0.169 HD
ATOM     93  O   UNL     1      -1.080   7.411  -0.987  1.00  0.00    -0.274 OA
BRANCH  89  94
ATOM     94  C   UNL     1       0.113   4.859   0.431  1.00  0.00     0.010 C 
ATOM     95  C   UNL     1      -1.186   5.193   1.205  1.00  0.00     0.033 C 
ATOM     96  C   UNL     1       1.302   5.588   1.085  1.00  0.00     0.033 C 
ATOM     97  C   UNL     1      -1.021   5.072   2.715  1.00  0.00     0.160 C 
ATOM     98  C   UNL     1       1.288   5.445   2.602  1.00  0.00     0.160 C 
ATOM     99  O   UNL     1       0.057   5.892   3.155  1.00  0.00    -0.381 OA
ENDBRANCH  89  94
ENDBRANCH  81  83
ENDBRANCH  80  81
ENDBRANCH  79  80
ENDBRANCH  78  79
ENDBRANCH  77  78
ENDBRANCH  76  77
ENDBRANCH   1  76
TORSDOF 21
