REMARK SMILES O=C(OCCOCCOCCOC(=O)c1ccc2c(=O)[nH]c(N3CC[NH2+]CC3)nc2c1)c1ccc(-c2c3nc(c(-c4c(F)cc(S(=O)(=O)[O-])cc4F)c4ccc([nH]4)c(-c4c(F)cc(S(=O)(=O)[O-])cc4F)c4nc(c(-c5c(F)cc(S(=O)(=O)[O-])cc5F)c5ccc2[nH]5)C=C4)C=C3)cc1
REMARK SMILES IDX 7 1 6 2 5 3 4 4 3 5 2 6 1 7 32 8 33 9 97 10 34 11 96 12
REMARK SMILES IDX 35 13 36 14 37 15 90 16 38 17 95 18 89 19 91 20 39 21 94 22
REMARK SMILES IDX 88 23 87 24 40 26 74 27 53 28 73 29 54 30 57 31 72 32 92 33
REMARK SMILES IDX 55 34 56 35 71 37 93 38 58 39 41 40 42 41 51 42 43 43 44 44
REMARK SMILES IDX 50 45 52 46 45 47 46 48 47 49 48 50 49 51 75 52 76 53 85 54
REMARK SMILES IDX 77 55 78 56 84 57 86 58 79 59 80 60 81 61 82 62 83 63 59 64
REMARK SMILES IDX 60 65 69 66 61 67 62 68 68 69 70 70 63 71 64 72 65 73 66 74
REMARK SMILES IDX 67 75 8 76 9 77 10 78 11 79 12 80 13 81 14 82 15 83 16 84
REMARK SMILES IDX 31 85 17 86 30 87 18 88 29 89 19 90 22 91 20 92 21 93 23 95
REMARK SMILES IDX 24 96 28 97 25 98 27 99 26 100
REMARK H PARENT 91 25 57 36 21 94 26 101 26 102
REMARK Flexibility Score: inf
ROOT
ATOM      1  C   UNL     1       2.646   1.679  -1.006  1.00  0.00     0.188 C 
ENDROOT
BRANCH   1   2
ATOM      2  O   UNL     1       3.982   1.574  -0.511  1.00  0.00    -0.376 OA
BRANCH   2   3
ATOM      3  C   UNL     1       4.844   0.747  -1.301  1.00  0.00     0.202 C 
BRANCH   3   4
ATOM      4  C   UNL     1       4.525  -0.763  -1.309  1.00  0.00     0.261 C 
BRANCH   4   5
ATOM      5  O   UNL     1       3.141  -1.078  -1.072  1.00  0.00    -0.460 OA
BRANCH   5   6
ATOM      6  C   UNL     1       2.531  -1.390   0.102  1.00  0.00     0.338 C 
ATOM      7  O   UNL     1       1.359  -1.765   0.071  1.00  0.00    -0.246 OA
BRANCH   6   8
ATOM      8  C   UNL     1       3.199  -1.280   1.435  1.00  0.00     0.060 A 
ATOM      9  C   UNL     1       4.318  -0.494   1.693  1.00  0.00     0.016 A 
ATOM     10  C   UNL     1       2.627  -1.973   2.516  1.00  0.00     0.016 A 
ATOM     11  C   UNL     1       4.935  -0.481   2.929  1.00  0.00     0.010 A 
ATOM     12  C   UNL     1       3.208  -1.921   3.789  1.00  0.00     0.010 A 
ATOM     13  C   UNL     1       4.393  -1.203   3.983  1.00  0.00    -0.014 A 
BRANCH  13  14
ATOM     14  C   UNL     1       5.202  -1.303   5.209  1.00  0.00     0.031 A 
ATOM     15  C   UNL     1       5.918  -2.591   5.472  1.00  0.00     0.074 A 
ATOM     16  C   UNL     1       5.443  -0.202   5.945  1.00  0.00     0.049 A 
ATOM     17  N   UNL     1       6.674  -2.923   6.480  1.00  0.00    -0.248 NA
ATOM     18  C   UNL     1       5.786  -3.641   4.445  1.00  0.00     0.031 C 
ATOM     19  C   UNL     1       4.928   1.136   5.644  1.00  0.00     0.029 A 
ATOM     20  N   UNL     1       6.208  -0.016   7.063  1.00  0.00    -0.354 N 
ATOM     21  C   UNL     1       7.100  -4.218   6.215  1.00  0.00     0.074 A 
ATOM     22  C   UNL     1       6.497  -4.626   4.968  1.00  0.00     0.031 C 
ATOM     23  C   UNL     1       5.394   2.003   6.556  1.00  0.00     0.029 A 
ATOM     24  C   UNL     1       6.169   1.272   7.544  1.00  0.00     0.049 A 
ATOM     25  H   UNL     1       6.735  -0.734   7.483  1.00  0.00     0.167 HD
ATOM     26  C   UNL     1       7.930  -4.987   6.955  1.00  0.00     0.037 A 
ATOM     27  C   UNL     1       6.665   1.788   8.684  1.00  0.00     0.037 A 
ATOM     28  C   UNL     1       8.505  -4.543   8.195  1.00  0.00     0.049 A 
ATOM     29  C   UNL     1       7.442   0.864   9.575  1.00  0.00     0.074 A 
ATOM     30  C   UNL     1       9.290  -5.248   9.086  1.00  0.00     0.029 A 
ATOM     31  N   UNL     1       8.350  -3.263   8.717  1.00  0.00    -0.354 N 
ATOM     32  N   UNL     1       7.767  -0.392   9.368  1.00  0.00    -0.248 NA
ATOM     33  C   UNL     1       7.919   1.413  10.848  1.00  0.00     0.031 C 
ATOM     34  C   UNL     1       9.567  -4.410  10.171  1.00  0.00     0.029 A 
ATOM     35  C   UNL     1       9.008  -3.163   9.928  1.00  0.00     0.049 A 
ATOM     36  H   UNL     1       7.846  -2.535   8.287  1.00  0.00     0.167 HD
ATOM     37  C   UNL     1       8.514  -0.776  10.472  1.00  0.00     0.074 A 
ATOM     38  C   UNL     1       8.601   0.386  11.336  1.00  0.00     0.031 C 
ATOM     39  C   UNL     1       9.079  -1.978  10.748  1.00  0.00     0.037 A 
BRANCH  26  40
ATOM     40  C   UNL     1       8.193  -6.381   6.465  1.00  0.00     0.058 A 
ATOM     41  C   UNL     1       8.973  -6.637   5.325  1.00  0.00     0.135 A 
ATOM     42  C   UNL     1       7.627  -7.481   7.129  1.00  0.00     0.135 A 
ATOM     43  F   UNL     1       9.506  -5.621   4.627  1.00  0.00    -0.206 F 
ATOM     44  C   UNL     1       9.161  -7.931   4.848  1.00  0.00     0.059 A 
ATOM     45  C   UNL     1       7.824  -8.785   6.686  1.00  0.00     0.059 A 
ATOM     46  F   UNL     1       6.856  -7.292   8.212  1.00  0.00    -0.206 F 
ATOM     47  C   UNL     1       8.582  -8.999   5.536  1.00  0.00     0.060 A 
BRANCH  47  48
ATOM     48  S   UNL     1       8.831 -10.670   4.902  1.00  0.00     0.124 S 
ATOM     49  O   UNL     1       8.018 -10.647   3.689  1.00  0.00    -0.237 OA
ATOM     50  O   UNL     1      10.275 -10.711   4.695  1.00  0.00    -0.237 OA
ATOM     51  O   UNL     1       8.330 -11.521   5.976  1.00  0.00    -0.744 OA
ENDBRANCH  47  48
ENDBRANCH  26  40
BRANCH  27  52
ATOM     52  C   UNL     1       6.371   3.194   9.075  1.00  0.00     0.058 A 
ATOM     53  C   UNL     1       7.380   4.158   9.200  1.00  0.00     0.135 A 
ATOM     54  C   UNL     1       5.054   3.594   9.361  1.00  0.00     0.135 A 
ATOM     55  F   UNL     1       8.656   3.829   8.947  1.00  0.00    -0.206 F 
ATOM     56  C   UNL     1       7.100   5.457   9.617  1.00  0.00     0.059 A 
ATOM     57  C   UNL     1       4.743   4.895   9.744  1.00  0.00     0.059 A 
ATOM     58  F   UNL     1       4.053   2.707   9.261  1.00  0.00    -0.206 F 
ATOM     59  C   UNL     1       5.778   5.815   9.889  1.00  0.00     0.060 A 
BRANCH  59  60
ATOM     60  S   UNL     1       5.433   7.505  10.426  1.00  0.00     0.124 S 
ATOM     61  O   UNL     1       5.986   7.503  11.776  1.00  0.00    -0.237 OA
ATOM     62  O   UNL     1       6.165   8.294   9.439  1.00  0.00    -0.237 OA
ATOM     63  O   UNL     1       3.979   7.600  10.339  1.00  0.00    -0.744 OA
ENDBRANCH  59  60
ENDBRANCH  27  52
BRANCH  39  64
ATOM     64  C   UNL     1       9.884  -2.067  12.010  1.00  0.00     0.058 A 
ATOM     65  C   UNL     1       9.277  -2.077  13.274  1.00  0.00     0.135 A 
ATOM     66  C   UNL     1      11.280  -2.191  11.942  1.00  0.00     0.135 A 
ATOM     67  F   UNL     1       7.945  -1.949  13.387  1.00  0.00    -0.206 F 
ATOM     68  C   UNL     1      10.033  -2.183  14.434  1.00  0.00     0.059 A 
ATOM     69  C   UNL     1      12.052  -2.333  13.087  1.00  0.00     0.059 A 
ATOM     70  F   UNL     1      11.903  -2.194  10.752  1.00  0.00    -0.206 F 
ATOM     71  C   UNL     1      11.419  -2.316  14.329  1.00  0.00     0.060 A 
BRANCH  71  72
ATOM     72  S   UNL     1      12.384  -2.496  15.841  1.00  0.00     0.124 S 
ATOM     73  O   UNL     1      12.332  -1.143  16.385  1.00  0.00    -0.237 OA
ATOM     74  O   UNL     1      11.626  -3.505  16.575  1.00  0.00    -0.237 OA
ATOM     75  O   UNL     1      13.692  -2.930  15.360  1.00  0.00    -0.744 OA
ENDBRANCH  71  72
ENDBRANCH  39  64
ENDBRANCH  13  14
ENDBRANCH   6   8
ENDBRANCH   5   6
ENDBRANCH   4   5
ENDBRANCH   3   4
ENDBRANCH   2   3
ENDBRANCH   1   2
BRANCH   1  76
ATOM     76  C   UNL     1       2.033   3.069  -0.844  1.00  0.00     0.188 C 
BRANCH  76  77
ATOM     77  O   UNL     1       2.695   4.143  -1.501  1.00  0.00    -0.376 OA
BRANCH  77  78
ATOM     78  C   UNL     1       4.072   4.332  -1.199  1.00  0.00     0.202 C 
BRANCH  78  79
ATOM     79  C   UNL     1       4.468   4.723   0.236  1.00  0.00     0.261 C 
BRANCH  79  80
ATOM     80  O   UNL     1       3.926   3.925   1.308  1.00  0.00    -0.460 OA
BRANCH  80  81
ATOM     81  C   UNL     1       2.947   4.541   2.018  1.00  0.00     0.338 C 
ATOM     82  O   UNL     1       2.406   5.602   1.748  1.00  0.00    -0.246 OA
BRANCH  81  83
ATOM     83  C   UNL     1       2.647   3.834   3.277  1.00  0.00     0.062 A 
ATOM     84  C   UNL     1       3.127   4.442   4.442  1.00  0.00     0.016 A 
ATOM     85  C   UNL     1       1.736   2.761   3.345  1.00  0.00     0.045 A 
ATOM     86  C   UNL     1       2.666   4.012   5.679  1.00  0.00     0.017 A 
ATOM     87  C   UNL     1       1.268   2.313   4.593  1.00  0.00     0.081 A 
ATOM     88  C   UNL     1       1.736   2.971   5.739  1.00  0.00     0.066 A 
ATOM     89  N   UNL     1       0.289   1.288   4.665  1.00  0.00    -0.214 NA
ATOM     90  C   UNL     1       1.162   2.586   7.032  1.00  0.00     0.260 A 
ATOM     91  C   UNL     1      -0.221   1.000   5.826  1.00  0.00     0.206 A 
ATOM     92  O   UNL     1       1.453   3.139   8.078  1.00  0.00    -0.269 OA
ATOM     93  N   UNL     1       0.220   1.599   6.972  1.00  0.00    -0.292 N 
ATOM     94  H   UNL     1      -0.172   1.296   7.823  1.00  0.00     0.173 HD
BRANCH  91  95
ATOM     95  N   UNL     1      -1.230   0.094   6.035  1.00  0.00    -0.331 N 
ATOM     96  C   UNL     1      -1.222  -1.252   5.466  1.00  0.00     0.181 C 
ATOM     97  C   UNL     1      -2.466   0.456   6.739  1.00  0.00     0.181 C 
ATOM     98  C   UNL     1      -1.617  -2.280   6.562  1.00  0.00     0.282 C 
ATOM     99  C   UNL     1      -2.808  -0.600   7.808  1.00  0.00     0.282 C 
ATOM    100  N   UNL     1      -2.889  -1.968   7.259  1.00  0.00    -0.343 N 
ATOM    101  H   UNL     1      -3.035  -2.634   8.018  1.00  0.00     0.346 HD
ATOM    102  H   UNL     1      -3.668  -2.034   6.604  1.00  0.00     0.346 HD
ENDBRANCH  91  95
ENDBRANCH  81  83
ENDBRANCH  80  81
ENDBRANCH  79  80
ENDBRANCH  78  79
ENDBRANCH  77  78
ENDBRANCH  76  77
ENDBRANCH   1  76
TORSDOF 21
