REMARK SMILES CC1(C)[C@H](C(=O)OCCOCCOCCOC(=O)c2ccc(-c3c4nc(c(-c5c(F)cc(S(=O)(=O)[O-])cc5F)c5ccc([nH]5)c(-c5c(F)cc(S(=O)(=O)[O-])cc5F)c5nc(c(-c6c(F)cc(S(=O)(=O)[O-])cc6F)c6ccc3[nH]6)C=C5)C=C4)cc2)[C@@H]1c1nc2ccc(F)cc2s1
REMARK SMILES IDX 12 1 11 2 10 3 9 4 8 5 7 6 5 7 6 8 4 9 1 10 2 11 3 12 85 13
REMARK SMILES IDX 86 14 87 15 95 16 88 17 94 18 89 19 93 20 90 21 91 22 92 23
REMARK SMILES IDX 13 24 14 25 15 26 16 27 17 28 18 29 19 30 20 31 84 32 21 33
REMARK SMILES IDX 83 34 22 35 23 36 24 37 77 38 25 39 82 40 76 41 78 42 26 43
REMARK SMILES IDX 81 44 75 45 74 46 27 48 61 49 40 50 60 51 41 52 44 53 59 54
REMARK SMILES IDX 79 55 42 56 43 57 58 59 80 60 45 61 28 62 29 63 38 64 30 65
REMARK SMILES IDX 31 66 37 67 39 68 32 69 33 70 34 71 35 72 36 73 62 74 63 75
REMARK SMILES IDX 72 76 64 77 65 78 71 79 73 80 66 81 67 82 68 83 69 84 70 85
REMARK SMILES IDX 46 86 47 87 56 88 48 89 49 90 55 91 57 92 50 93 51 94 52 95
REMARK SMILES IDX 53 96 54 97
REMARK H PARENT 78 47 44 58
REMARK Flexibility Score: inf
ROOT
ATOM      1  C   UNL     1      -0.125   1.351  -3.214  1.00  0.00     0.188 C 
ENDROOT
BRANCH   1   2
ATOM      2  C   UNL     1      -1.460   0.955  -3.866  1.00  0.00     0.188 C 
BRANCH   2   3
ATOM      3  O   UNL     1      -2.314   1.977  -4.361  1.00  0.00    -0.376 OA
BRANCH   3   4
ATOM      4  C   UNL     1      -2.655   3.071  -3.516  1.00  0.00     0.202 C 
BRANCH   4   5
ATOM      5  C   UNL     1      -3.050   2.820  -2.052  1.00  0.00     0.261 C 
BRANCH   5   6
ATOM      6  O   UNL     1      -2.067   2.084  -1.299  1.00  0.00    -0.463 OA
BRANCH   6   7
ATOM      7  C   UNL     1      -2.549   0.998  -0.635  1.00  0.00     0.310 C 
ATOM      8  O   UNL     1      -3.719   0.704  -0.533  1.00  0.00    -0.252 OA
BRANCH   7   9
ATOM      9  C   UNL     1      -1.502   0.049  -0.149  1.00  0.00     0.116 C 
ATOM     10  C   UNL     1       0.811  -1.037   0.165  1.00  0.00     0.013 C 
ATOM     11  C   UNL     1      -0.064   0.194   0.342  1.00  0.00    -0.011 C 
ATOM     12  C   UNL     1       0.734   1.462   0.162  1.00  0.00     0.013 C 
ATOM     13  C   UNL     1      -1.196   0.079   1.344  1.00  0.00     0.070 C 
BRANCH  13  14
ATOM     14  C   UNL     1      -1.818   1.228   2.147  1.00  0.00     0.098 A 
ATOM     15  N   UNL     1      -3.058   1.091   2.554  1.00  0.00    -0.241 NA
ATOM     16  S   UNL     1      -1.104   2.743   2.468  1.00  0.00    -0.118 S 
ATOM     17  C   UNL     1      -3.571   2.331   2.876  1.00  0.00     0.082 A 
ATOM     18  C   UNL     1      -2.635   3.367   2.923  1.00  0.00     0.057 A 
ATOM     19  C   UNL     1      -4.926   2.627   3.127  1.00  0.00     0.033 A 
ATOM     20  C   UNL     1      -2.989   4.679   3.265  1.00  0.00     0.060 A 
ATOM     21  C   UNL     1      -5.299   3.939   3.430  1.00  0.00     0.041 A 
ATOM     22  C   UNL     1      -4.335   4.936   3.508  1.00  0.00     0.124 A 
ATOM     23  F   UNL     1      -4.711   6.185   3.810  1.00  0.00    -0.207 F 
ENDBRANCH  13  14
ENDBRANCH   7   9
ENDBRANCH   6   7
ENDBRANCH   5   6
ENDBRANCH   4   5
ENDBRANCH   3   4
ENDBRANCH   2   3
ENDBRANCH   1   2
BRANCH   1  24
ATOM     24  O   UNL     1       0.095   2.728  -3.035  1.00  0.00    -0.376 OA
BRANCH  24  25
ATOM     25  C   UNL     1       0.824   3.471  -3.995  1.00  0.00     0.202 C 
BRANCH  25  26
ATOM     26  C   UNL     1       1.093   3.038  -5.450  1.00  0.00     0.261 C 
BRANCH  26  27
ATOM     27  O   UNL     1       0.842   1.682  -5.821  1.00  0.00    -0.460 OA
BRANCH  27  28
ATOM     28  C   UNL     1       1.867   0.811  -5.655  1.00  0.00     0.338 C 
ATOM     29  O   UNL     1       2.959   1.044  -5.171  1.00  0.00    -0.246 OA
BRANCH  28  30
ATOM     30  C   UNL     1       1.350  -0.537  -5.967  1.00  0.00     0.060 A 
ATOM     31  C   UNL     1       1.281  -1.500  -4.949  1.00  0.00     0.016 A 
ATOM     32  C   UNL     1       0.931  -0.838  -7.262  1.00  0.00     0.016 A 
ATOM     33  C   UNL     1       0.810  -2.782  -5.233  1.00  0.00     0.010 A 
ATOM     34  C   UNL     1       0.486  -2.128  -7.550  1.00  0.00     0.010 A 
ATOM     35  C   UNL     1       0.452  -3.112  -6.545  1.00  0.00    -0.014 A 
BRANCH  35  36
ATOM     36  C   UNL     1       0.237  -4.524  -6.938  1.00  0.00     0.031 A 
ATOM     37  C   UNL     1       1.384  -5.256  -7.577  1.00  0.00     0.074 A 
ATOM     38  C   UNL     1      -0.953  -5.126  -6.775  1.00  0.00     0.049 A 
ATOM     39  N   UNL     1       1.402  -6.423  -8.163  1.00  0.00    -0.248 NA
ATOM     40  C   UNL     1       2.687  -4.567  -7.560  1.00  0.00     0.031 C 
ATOM     41  C   UNL     1      -2.120  -4.536  -6.122  1.00  0.00     0.029 A 
ATOM     42  N   UNL     1      -1.383  -6.366  -7.179  1.00  0.00    -0.354 N 
ATOM     43  C   UNL     1       2.708  -6.600  -8.605  1.00  0.00     0.074 A 
ATOM     44  C   UNL     1       3.449  -5.414  -8.235  1.00  0.00     0.031 C 
ATOM     45  C   UNL     1      -3.144  -5.404  -6.196  1.00  0.00     0.029 A 
ATOM     46  C   UNL     1      -2.718  -6.588  -6.941  1.00  0.00     0.049 A 
ATOM     47  H   UNL     1      -0.791  -7.032  -7.598  1.00  0.00     0.167 HD
ATOM     48  C   UNL     1       3.238  -7.657  -9.262  1.00  0.00     0.037 A 
ATOM     49  C   UNL     1      -3.511  -7.611  -7.321  1.00  0.00     0.037 A 
ATOM     50  C   UNL     1       2.488  -8.828  -9.630  1.00  0.00     0.049 A 
ATOM     51  C   UNL     1      -2.918  -8.746  -8.119  1.00  0.00     0.074 A 
ATOM     52  C   UNL     1       2.931  -9.959 -10.292  1.00  0.00     0.029 A 
ATOM     53  N   UNL     1       1.138  -9.016  -9.373  1.00  0.00    -0.354 N 
ATOM     54  N   UNL     1      -1.682  -8.909  -8.531  1.00  0.00    -0.248 NA
ATOM     55  C   UNL     1      -3.825  -9.836  -8.507  1.00  0.00     0.031 C 
ATOM     56  C   UNL     1       1.836 -10.808 -10.482  1.00  0.00     0.029 A 
ATOM     57  C   UNL     1       0.726 -10.236  -9.881  1.00  0.00     0.049 A 
ATOM     58  H   UNL     1       0.558  -8.376  -8.900  1.00  0.00     0.167 HD
ATOM     59  C   UNL     1      -1.655 -10.137  -9.187  1.00  0.00     0.074 A 
ATOM     60  C   UNL     1      -2.999 -10.673  -9.122  1.00  0.00     0.031 C 
ATOM     61  C   UNL     1      -0.612 -10.767  -9.782  1.00  0.00     0.037 A 
BRANCH  48  62
ATOM     62  C   UNL     1       4.686  -7.577  -9.658  1.00  0.00     0.058 A 
ATOM     63  C   UNL     1       5.719  -7.645  -8.710  1.00  0.00     0.135 A 
ATOM     64  C   UNL     1       5.046  -7.458 -11.010  1.00  0.00     0.135 A 
ATOM     65  F   UNL     1       5.432  -7.737  -7.401  1.00  0.00    -0.206 F 
ATOM     66  C   UNL     1       7.056  -7.574  -9.085  1.00  0.00     0.059 A 
ATOM     67  C   UNL     1       6.377  -7.414 -11.412  1.00  0.00     0.059 A 
ATOM     68  F   UNL     1       4.098  -7.382 -11.958  1.00  0.00    -0.206 F 
ATOM     69  C   UNL     1       7.375  -7.459 -10.440  1.00  0.00     0.060 A 
BRANCH  69  70
ATOM     70  S   UNL     1       9.116  -7.375 -10.911  1.00  0.00     0.124 S 
ATOM     71  O   UNL     1       9.477  -6.038 -10.449  1.00  0.00    -0.237 OA
ATOM     72  O   UNL     1       9.696  -8.482 -10.159  1.00  0.00    -0.237 OA
ATOM     73  O   UNL     1       9.086  -7.551 -12.359  1.00  0.00    -0.744 OA
ENDBRANCH  69  70
ENDBRANCH  48  62
BRANCH  49  74
ATOM     74  C   UNL     1      -4.957  -7.605  -6.969  1.00  0.00     0.058 A 
ATOM     75  C   UNL     1      -5.482  -8.526  -6.051  1.00  0.00     0.135 A 
ATOM     76  C   UNL     1      -5.844  -6.681  -7.546  1.00  0.00     0.135 A 
ATOM     77  F   UNL     1      -4.679  -9.438  -5.483  1.00  0.00    -0.206 F 
ATOM     78  C   UNL     1      -6.835  -8.543  -5.727  1.00  0.00     0.059 A 
ATOM     79  C   UNL     1      -7.196  -6.660  -7.217  1.00  0.00     0.059 A 
ATOM     80  F   UNL     1      -5.392  -5.773  -8.425  1.00  0.00    -0.206 F 
ATOM     81  C   UNL     1      -7.684  -7.602  -6.314  1.00  0.00     0.060 A 
BRANCH  81  82
ATOM     82  S   UNL     1      -9.430  -7.606  -5.851  1.00  0.00     0.124 S 
ATOM     83  O   UNL     1      -9.906  -8.815  -6.513  1.00  0.00    -0.237 OA
ATOM     84  O   UNL     1      -9.360  -7.661  -4.394  1.00  0.00    -0.237 OA
ATOM     85  O   UNL     1      -9.926  -6.348  -6.401  1.00  0.00    -0.744 OA
ENDBRANCH  81  82
ENDBRANCH  49  74
BRANCH  61  86
ATOM     86  C   UNL     1      -0.847 -12.140 -10.350  1.00  0.00     0.058 A 
ATOM     87  C   UNL     1      -1.562 -12.343 -11.540  1.00  0.00     0.135 A 
ATOM     88  C   UNL     1      -0.262 -13.262  -9.737  1.00  0.00     0.135 A 
ATOM     89  F   UNL     1      -2.144 -11.308 -12.164  1.00  0.00    -0.206 F 
ATOM     90  C   UNL     1      -1.698 -13.612 -12.097  1.00  0.00     0.059 A 
ATOM     91  C   UNL     1      -0.361 -14.534 -10.291  1.00  0.00     0.059 A 
ATOM     92  F   UNL     1       0.442 -13.121  -8.602  1.00  0.00    -0.206 F 
ATOM     93  C   UNL     1      -1.087 -14.700 -11.469  1.00  0.00     0.060 A 
BRANCH  93  94
ATOM     94  S   UNL     1      -1.218 -16.329 -12.236  1.00  0.00     0.124 S 
ATOM     95  O   UNL     1      -2.612 -16.668 -11.973  1.00  0.00    -0.237 OA
ATOM     96  O   UNL     1      -0.886 -16.046 -13.629  1.00  0.00    -0.237 OA
ATOM     97  O   UNL     1      -0.232 -17.127 -11.513  1.00  0.00    -0.744 OA
ENDBRANCH  93  94
ENDBRANCH  61  86
ENDBRANCH  35  36
ENDBRANCH  28  30
ENDBRANCH  27  28
ENDBRANCH  26  27
ENDBRANCH  25  26
ENDBRANCH  24  25
ENDBRANCH   1  24
TORSDOF 21
