REMARK SMILES CCN(Cc1ccccn1)c1nc(C)cc(C)c1C(=O)OCCOCCOCCOC(=O)c1ccc(-c2c3nc(c(-c4c(F)cc(S(=O)(=O)[O-])cc4F)c4ccc([nH]4)c(-c4c(F)cc(S(=O)(=O)[O-])cc4F)c4nc(c(-c5c(F)cc(S(=O)(=O)[O-])cc5F)c5ccc2[nH]5)C=C4)C=C3)cc1
REMARK SMILES IDX 25 1 24 2 23 3 22 4 21 5 19 6 20 7 18 8 11 9 12 10 13 11
REMARK SMILES IDX 16 12 14 13 15 14 17 15 3 16 2 17 1 18 4 19 5 20 6 21 10 22
REMARK SMILES IDX 7 23 9 24 8 25 26 26 27 27 28 28 29 29 30 30 31 31 32 32
REMARK SMILES IDX 33 33 34 34 98 35 35 36 97 37 36 38 37 39 38 40 91 41 39 42
REMARK SMILES IDX 96 43 90 44 92 45 40 46 95 47 89 48 88 49 41 51 75 52 54 53
REMARK SMILES IDX 74 54 55 55 58 56 73 57 93 58 56 59 57 60 72 62 94 63 59 64
REMARK SMILES IDX 42 65 43 66 52 67 44 68 45 69 51 70 53 71 46 72 47 73 48 74
REMARK SMILES IDX 49 75 50 76 76 77 77 78 86 79 78 80 79 81 85 82 87 83 80 84
REMARK SMILES IDX 81 85 82 86 83 87 84 88 60 89 61 90 70 91 62 92 63 93 69 94
REMARK SMILES IDX 71 95 64 96 65 97 66 98 67 99 68 100
REMARK H PARENT 92 50 58 61
REMARK Flexibility Score: inf
ROOT
ATOM      1  C   UNL     1       2.179  -1.066   1.097  1.00  0.00     0.188 C 
ENDROOT
BRANCH   1   2
ATOM      2  O   UNL     1       2.303  -2.421   0.677  1.00  0.00    -0.376 OA
BRANCH   2   3
ATOM      3  C   UNL     1       1.892  -2.668  -0.663  1.00  0.00     0.202 C 
BRANCH   3   4
ATOM      4  C   UNL     1       2.990  -2.285  -1.652  1.00  0.00     0.261 C 
BRANCH   4   5
ATOM      5  O   UNL     1       3.403  -0.919  -1.466  1.00  0.00    -0.460 OA
BRANCH   5   6
ATOM      6  C   UNL     1       2.853   0.036  -2.244  1.00  0.00     0.342 C 
ATOM      7  O   UNL     1       2.068  -0.174  -3.167  1.00  0.00    -0.246 OA
BRANCH   6   8
ATOM      8  C   UNL     1       3.363   1.361  -1.816  1.00  0.00     0.105 A 
ATOM      9  C   UNL     1       2.490   2.461  -1.726  1.00  0.00     0.144 A 
ATOM     10  N   UNL     1       3.008   3.703  -1.594  1.00  0.00    -0.235 NA
ATOM     11  C   UNL     1       4.322   3.900  -1.385  1.00  0.00     0.040 A 
ATOM     12  C   UNL     1       4.758   1.561  -1.612  1.00  0.00    -0.031 A 
ATOM     13  C   UNL     1       4.745   5.314  -1.140  1.00  0.00     0.067 C 
ATOM     14  C   UNL     1       5.219   2.854  -1.345  1.00  0.00     0.028 A 
ATOM     15  C   UNL     1       5.779   0.455  -1.641  1.00  0.00     0.045 C 
BRANCH   9  16
ATOM     16  N   UNL     1       1.101   2.375  -1.695  1.00  0.00    -0.350 N 
BRANCH  16  17
ATOM     17  C   UNL     1       0.469   1.796  -0.512  1.00  0.00     0.115 C 
ATOM     18  C   UNL     1      -0.382   0.592  -0.893  1.00  0.00     0.027 C 
ENDBRANCH  16  17
BRANCH  16  19
ATOM     19  C   UNL     1       0.345   3.478  -2.324  1.00  0.00     0.174 C 
BRANCH  19  20
ATOM     20  C   UNL     1       0.245   4.822  -1.583  1.00  0.00     0.060 A 
ATOM     21  C   UNL     1      -0.410   5.864  -2.246  1.00  0.00     0.026 A 
ATOM     22  N   UNL     1       0.806   5.003  -0.356  1.00  0.00    -0.259 NA
ATOM     23  C   UNL     1      -0.411   7.138  -1.687  1.00  0.00     0.004 A 
ATOM     24  C   UNL     1       0.818   6.259   0.146  1.00  0.00     0.111 A 
ATOM     25  C   UNL     1       0.240   7.349  -0.480  1.00  0.00     0.020 A 
ENDBRANCH  19  20
ENDBRANCH  16  19
ENDBRANCH   9  16
ENDBRANCH   6   8
ENDBRANCH   5   6
ENDBRANCH   4   5
ENDBRANCH   3   4
ENDBRANCH   2   3
ENDBRANCH   1   2
BRANCH   1  26
ATOM     26  C   UNL     1       3.473  -0.488   1.695  1.00  0.00     0.188 C 
BRANCH  26  27
ATOM     27  O   UNL     1       4.331  -1.302   2.488  1.00  0.00    -0.376 OA
BRANCH  27  28
ATOM     28  C   UNL     1       3.791  -2.436   3.143  1.00  0.00     0.202 C 
BRANCH  28  29
ATOM     29  C   UNL     1       2.852  -2.181   4.327  1.00  0.00     0.261 C 
BRANCH  29  30
ATOM     30  O   UNL     1       1.761  -1.277   4.074  1.00  0.00    -0.460 OA
BRANCH  30  31
ATOM     31  C   UNL     1       1.941  -0.009   4.519  1.00  0.00     0.338 C 
ATOM     32  O   UNL     1       2.928   0.430   5.092  1.00  0.00    -0.246 OA
BRANCH  31  33
ATOM     33  C   UNL     1       0.801   0.852   4.127  1.00  0.00     0.060 A 
ATOM     34  C   UNL     1       1.071   2.076   3.499  1.00  0.00     0.016 A 
ATOM     35  C   UNL     1      -0.512   0.520   4.470  1.00  0.00     0.016 A 
ATOM     36  C   UNL     1       0.038   2.990   3.259  1.00  0.00     0.010 A 
ATOM     37  C   UNL     1      -1.541   1.446   4.247  1.00  0.00     0.010 A 
ATOM     38  C   UNL     1      -1.268   2.702   3.677  1.00  0.00    -0.014 A 
BRANCH  38  39
ATOM     39  C   UNL     1      -2.310   3.766   3.670  1.00  0.00     0.031 A 
ATOM     40  C   UNL     1      -2.569   4.546   4.933  1.00  0.00     0.074 A 
ATOM     41  C   UNL     1      -3.027   4.042   2.565  1.00  0.00     0.049 A 
ATOM     42  N   UNL     1      -3.453   5.483   5.165  1.00  0.00    -0.248 NA
ATOM     43  C   UNL     1      -1.724   4.215   6.090  1.00  0.00     0.031 C 
ATOM     44  C   UNL     1      -2.873   3.377   1.276  1.00  0.00     0.029 A 
ATOM     45  N   UNL     1      -4.037   4.950   2.357  1.00  0.00    -0.354 N 
ATOM     46  C   UNL     1      -3.278   5.850   6.494  1.00  0.00     0.074 A 
ATOM     47  C   UNL     1      -2.221   5.014   7.024  1.00  0.00     0.031 C 
ATOM     48  C   UNL     1      -3.753   3.900   0.406  1.00  0.00     0.029 A 
ATOM     49  C   UNL     1      -4.564   4.908   1.088  1.00  0.00     0.049 A 
ATOM     50  H   UNL     1      -4.354   5.573   3.051  1.00  0.00     0.167 HD
ATOM     51  C   UNL     1      -3.934   6.796   7.209  1.00  0.00     0.037 A 
ATOM     52  C   UNL     1      -5.598   5.583   0.544  1.00  0.00     0.037 A 
ATOM     53  C   UNL     1      -4.997   7.619   6.689  1.00  0.00     0.049 A 
ATOM     54  C   UNL     1      -6.355   6.589   1.374  1.00  0.00     0.074 A 
ATOM     55  C   UNL     1      -5.704   8.618   7.336  1.00  0.00     0.029 A 
ATOM     56  N   UNL     1      -5.518   7.529   5.407  1.00  0.00    -0.354 N 
ATOM     57  N   UNL     1      -6.154   6.953   2.618  1.00  0.00    -0.248 NA
ATOM     58  C   UNL     1      -7.482   7.276   0.725  1.00  0.00     0.031 C 
ATOM     59  C   UNL     1      -6.689   9.095   6.463  1.00  0.00     0.029 A 
ATOM     60  C   UNL     1      -6.557   8.434   5.252  1.00  0.00     0.049 A 
ATOM     61  H   UNL     1      -5.198   6.912   4.710  1.00  0.00     0.167 HD
ATOM     62  C   UNL     1      -7.111   7.926   2.892  1.00  0.00     0.074 A 
ATOM     63  C   UNL     1      -7.885   8.103   1.681  1.00  0.00     0.031 C 
ATOM     64  C   UNL     1      -7.324   8.612   4.043  1.00  0.00     0.037 A 
BRANCH  51  65
ATOM     65  C   UNL     1      -3.539   6.969   8.651  1.00  0.00     0.058 A 
ATOM     66  C   UNL     1      -2.307   7.534   9.018  1.00  0.00     0.135 A 
ATOM     67  C   UNL     1      -4.411   6.577   9.679  1.00  0.00     0.135 A 
ATOM     68  F   UNL     1      -1.430   7.914   8.076  1.00  0.00    -0.206 F 
ATOM     69  C   UNL     1      -1.938   7.668  10.353  1.00  0.00     0.059 A 
ATOM     70  C   UNL     1      -4.075   6.729  11.021  1.00  0.00     0.059 A 
ATOM     71  F   UNL     1      -5.603   6.034   9.385  1.00  0.00    -0.206 F 
ATOM     72  C   UNL     1      -2.828   7.258  11.347  1.00  0.00     0.060 A 
BRANCH  72  73
ATOM     73  S   UNL     1      -2.328   7.422  13.074  1.00  0.00     0.124 S 
ATOM     74  O   UNL     1      -1.339   6.354  13.192  1.00  0.00    -0.237 OA
ATOM     75  O   UNL     1      -1.799   8.781  13.119  1.00  0.00    -0.237 OA
ATOM     76  O   UNL     1      -3.570   7.211  13.810  1.00  0.00    -0.744 OA
ENDBRANCH  72  73
ENDBRANCH  51  65
BRANCH  52  77
ATOM     77  C   UNL     1      -5.992   5.319  -0.867  1.00  0.00     0.058 A 
ATOM     78  C   UNL     1      -5.789   6.281  -1.867  1.00  0.00     0.135 A 
ATOM     79  C   UNL     1      -6.573   4.098  -1.242  1.00  0.00     0.135 A 
ATOM     80  F   UNL     1      -5.253   7.471  -1.557  1.00  0.00    -0.206 F 
ATOM     81  C   UNL     1      -6.152   6.044  -3.189  1.00  0.00     0.059 A 
ATOM     82  C   UNL     1      -6.920   3.827  -2.562  1.00  0.00     0.059 A 
ATOM     83  F   UNL     1      -6.785   3.143  -0.323  1.00  0.00    -0.206 F 
ATOM     84  C   UNL     1      -6.710   4.810  -3.528  1.00  0.00     0.060 A 
BRANCH  84  85
ATOM     85  S   UNL     1      -7.107   4.487  -5.260  1.00  0.00     0.124 S 
ATOM     86  O   UNL     1      -8.280   5.332  -5.456  1.00  0.00    -0.237 OA
ATOM     87  O   UNL     1      -5.888   4.920  -5.936  1.00  0.00    -0.237 OA
ATOM     88  O   UNL     1      -7.352   3.049  -5.286  1.00  0.00    -0.744 OA
ENDBRANCH  84  85
ENDBRANCH  52  77
BRANCH  64  89
ATOM     89  C   UNL     1      -8.415   9.652   4.050  1.00  0.00     0.058 A 
ATOM     90  C   UNL     1      -9.774   9.303   4.044  1.00  0.00     0.135 A 
ATOM     91  C   UNL     1      -8.093  11.017   4.123  1.00  0.00     0.135 A 
ATOM     92  F   UNL     1     -10.141   8.013   3.969  1.00  0.00    -0.206 F 
ATOM     93  C   UNL     1     -10.775  10.270   4.090  1.00  0.00     0.059 A 
ATOM     94  C   UNL     1      -9.076  12.000   4.198  1.00  0.00     0.059 A 
ATOM     95  F   UNL     1      -6.809  11.409   4.142  1.00  0.00    -0.206 F 
ATOM     96  C   UNL     1     -10.416  11.617   4.170  1.00  0.00     0.060 A 
BRANCH  96  97
ATOM     97  S   UNL     1     -11.723  12.860   4.265  1.00  0.00     0.124 S 
ATOM     98  O   UNL     1     -12.234  12.856   2.899  1.00  0.00    -0.237 OA
ATOM     99  O   UNL     1     -12.614  12.300   5.277  1.00  0.00    -0.237 OA
ATOM    100  O   UNL     1     -11.012  14.071   4.666  1.00  0.00    -0.744 OA
ENDBRANCH  96  97
ENDBRANCH  64  89
ENDBRANCH  38  39
ENDBRANCH  31  33
ENDBRANCH  30  31
ENDBRANCH  29  30
ENDBRANCH  28  29
ENDBRANCH  27  28
ENDBRANCH  26  27
ENDBRANCH   1  26
TORSDOF 24
