REMARK SMILES COc1ccc(-c2cnc(N)c(C(=O)OCCOCCOCCOC(=O)c3ccc(-c4c5nc(c(-c6c(F)cc(S(=O)(=O)[O-])cc6F)c6ccc([nH]6)c(-c6c(F)cc(S(=O)(=O)[O-])cc6F)c6nc(c(-c7c(F)cc(S(=O)(=O)[O-])cc7F)c7ccc4[nH]7)C=C6)C=C5)cc3)c2)c(C)c1
REMARK SMILES IDX 20 1 19 2 18 3 17 4 16 5 15 6 13 7 14 8 12 9 7 10 8 11 93 12
REMARK SMILES IDX 9 13 10 14 6 15 3 16 4 17 96 18 5 19 94 20 95 21 2 22 1 23
REMARK SMILES IDX 11 24 21 27 22 28 23 29 24 30 25 31 26 32 27 33 28 34 92 35
REMARK SMILES IDX 29 36 91 37 30 38 31 39 32 40 85 41 33 42 90 43 84 44 86 45
REMARK SMILES IDX 34 46 89 47 83 48 82 49 35 51 69 52 48 53 68 54 49 55 52 56
REMARK SMILES IDX 67 57 87 58 50 59 51 60 66 62 88 63 53 64 36 65 37 66 46 67
REMARK SMILES IDX 38 68 39 69 45 70 47 71 40 72 41 73 42 74 43 75 44 76 70 77
REMARK SMILES IDX 71 78 80 79 72 80 73 81 79 82 81 83 74 84 75 85 76 86 77 87
REMARK SMILES IDX 78 88 54 89 55 90 64 91 56 92 57 93 63 94 65 95 58 96 59 97
REMARK SMILES IDX 60 98 61 99 62 100
REMARK H PARENT 11 25 11 26 86 50 52 61
REMARK Flexibility Score: inf
ROOT
ATOM      1  C   UNL     1      -0.279   6.696 -11.926  1.00  0.00     0.188 C 
ENDROOT
BRANCH   1   2
ATOM      2  C   UNL     1      -0.209   7.339 -10.559  1.00  0.00     0.188 C 
BRANCH   2   3
ATOM      3  O   UNL     1       0.428   8.597 -10.635  1.00  0.00    -0.376 OA
BRANCH   3   4
ATOM      4  C   UNL     1       1.384   8.668  -9.567  1.00  0.00     0.202 C 
BRANCH   4   5
ATOM      5  C   UNL     1       2.576   7.604  -9.759  1.00  0.00     0.261 C 
BRANCH   5   6
ATOM      6  O   UNL     1       2.910   6.099  -8.932  1.00  0.00    -0.460 OA
BRANCH   6   7
ATOM      7  C   UNL     1       3.285   5.358  -7.700  1.00  0.00     0.342 C 
ATOM      8  O   UNL     1       3.686   5.753  -6.604  1.00  0.00    -0.246 OA
BRANCH   7   9
ATOM      9  C   UNL     1       3.115   3.917  -7.511  1.00  0.00     0.102 A 
ATOM     10  C   UNL     1       2.560   2.101  -5.937  1.00  0.00     0.001 A 
ATOM     11  C   UNL     1       3.333   1.334  -6.808  1.00  0.00     0.122 A 
ATOM     12  C   UNL     1       2.464   3.437  -6.319  1.00  0.00     0.030 A 
ATOM     13  N   UNL     1       3.997   1.776  -7.931  1.00  0.00    -0.238 NA
ATOM     14  C   UNL     1       3.907   3.080  -8.253  1.00  0.00     0.138 A 
BRANCH  10  15
ATOM     15  C   UNL     1       1.980   1.529  -4.685  1.00  0.00    -0.014 A 
ATOM     16  C   UNL     1       1.041   0.206  -2.318  1.00  0.00     0.119 A 
ATOM     17  C   UNL     1       2.388   0.505  -2.462  1.00  0.00     0.047 A 
ATOM     18  C   UNL     1       0.163   0.575  -3.332  1.00  0.00     0.050 A 
ATOM     19  C   UNL     1       2.845   1.158  -3.626  1.00  0.00     0.013 A 
ATOM     20  C   UNL     1       0.605   1.256  -4.497  1.00  0.00    -0.040 A 
ATOM     21  C   UNL     1      -0.464   1.601  -5.497  1.00  0.00     0.045 C 
BRANCH  16  22
ATOM     22  O   UNL     1       0.515  -0.523  -1.286  1.00  0.00    -0.497 OA
ATOM     23  C   UNL     1       0.895  -0.066   0.010  1.00  0.00     0.278 C 
ENDBRANCH  16  22
ENDBRANCH  10  15
BRANCH  14  24
ATOM     24  N   UNL     1       4.737   3.563  -9.242  1.00  0.00    -0.383 N 
ATOM     25  H   UNL     1       5.297   2.941  -9.761  1.00  0.00     0.158 HD
ATOM     26  H   UNL     1       4.771   4.529  -9.428  1.00  0.00     0.158 HD
ENDBRANCH  14  24
ENDBRANCH   7   9
ENDBRANCH   6   7
ENDBRANCH   5   6
ENDBRANCH   4   5
ENDBRANCH   3   4
ENDBRANCH   2   3
ENDBRANCH   1   2
BRANCH   1  27
ATOM     27  O   UNL     1      -1.228   7.285 -12.796  1.00  0.00    -0.376 OA
BRANCH  27  28
ATOM     28  C   UNL     1      -2.473   7.609 -12.171  1.00  0.00     0.202 C 
BRANCH  28  29
ATOM     29  C   UNL     1      -3.271   6.399 -11.623  1.00  0.00     0.261 C 
BRANCH  29  30
ATOM     30  O   UNL     1      -2.772   5.895 -10.354  1.00  0.00    -0.460 OA
BRANCH  30  31
ATOM     31  C   UNL     1      -2.439   4.571 -10.237  1.00  0.00     0.338 C 
ATOM     32  O   UNL     1      -2.529   3.732 -11.121  1.00  0.00    -0.246 OA
BRANCH  31  33
ATOM     33  C   UNL     1      -1.481   4.471  -9.094  1.00  0.00     0.060 A 
ATOM     34  C   UNL     1      -1.667   4.942  -7.811  1.00  0.00     0.016 A 
ATOM     35  C   UNL     1      -0.190   4.254  -9.430  1.00  0.00     0.016 A 
ATOM     36  C   UNL     1      -0.623   5.551  -7.053  1.00  0.00     0.010 A 
ATOM     37  C   UNL     1       0.776   5.007  -8.733  1.00  0.00     0.010 A 
ATOM     38  C   UNL     1       0.596   5.912  -7.613  1.00  0.00    -0.014 A 
BRANCH  38  39
ATOM     39  C   UNL     1       1.430   7.307  -6.982  1.00  0.00     0.031 A 
ATOM     40  C   UNL     1       3.091   7.932  -6.964  1.00  0.00     0.074 A 
ATOM     41  C   UNL     1       0.567   8.220  -6.435  1.00  0.00     0.049 A 
ATOM     42  N   UNL     1       3.605   8.592  -5.945  1.00  0.00    -0.248 NA
ATOM     43  C   UNL     1       4.332   7.683  -7.883  1.00  0.00     0.031 C 
ATOM     44  C   UNL     1       0.820   9.583  -5.966  1.00  0.00     0.029 A 
ATOM     45  N   UNL     1      -0.797   8.062  -6.152  1.00  0.00    -0.354 N 
ATOM     46  C   UNL     1       4.981   8.786  -6.210  1.00  0.00     0.074 A 
ATOM     47  C   UNL     1       5.384   7.819  -7.108  1.00  0.00     0.031 C 
ATOM     48  C   UNL     1      -0.216   9.982  -5.202  1.00  0.00     0.029 A 
ATOM     49  C   UNL     1      -1.121   8.855  -5.052  1.00  0.00     0.049 A 
ATOM     50  H   UNL     1      -1.423   7.486  -6.648  1.00  0.00     0.167 HD
ATOM     51  C   UNL     1       5.707   9.887  -5.902  1.00  0.00     0.037 A 
ATOM     52  C   UNL     1      -1.429   8.221  -3.879  1.00  0.00     0.037 A 
ATOM     53  C   UNL     1       4.978  10.536  -4.846  1.00  0.00     0.049 A 
ATOM     54  C   UNL     1      -0.286   8.371  -2.864  1.00  0.00     0.074 A 
ATOM     55  C   UNL     1       4.048  11.552  -4.850  1.00  0.00     0.029 A 
ATOM     56  N   UNL     1       4.713   9.752  -3.725  1.00  0.00    -0.354 N 
ATOM     57  N   UNL     1       0.897   8.872  -3.146  1.00  0.00    -0.248 NA
ATOM     58  C   UNL     1      -0.400   8.045  -1.446  1.00  0.00     0.031 C 
ATOM     59  C   UNL     1       3.096  11.241  -3.825  1.00  0.00     0.029 A 
ATOM     60  C   UNL     1       3.497  10.092  -3.156  1.00  0.00     0.049 A 
ATOM     61  H   UNL     1       5.312   9.050  -3.382  1.00  0.00     0.167 HD
ATOM     62  C   UNL     1       1.696   8.893  -2.031  1.00  0.00     0.074 A 
ATOM     63  C   UNL     1       0.816   8.396  -0.986  1.00  0.00     0.031 C 
ATOM     64  C   UNL     1       3.007   9.302  -2.022  1.00  0.00     0.037 A 
BRANCH  51  65
ATOM     65  C   UNL     1       6.939  10.383  -6.715  1.00  0.00     0.058 A 
ATOM     66  C   UNL     1       7.583  11.569  -6.319  1.00  0.00     0.135 A 
ATOM     67  C   UNL     1       7.477   9.850  -7.937  1.00  0.00     0.135 A 
ATOM     68  F   UNL     1       7.182  12.219  -5.218  1.00  0.00    -0.206 F 
ATOM     69  C   UNL     1       8.632  12.169  -7.050  1.00  0.00     0.059 A 
ATOM     70  C   UNL     1       8.555  10.397  -8.646  1.00  0.00     0.059 A 
ATOM     71  F   UNL     1       6.961   8.805  -8.594  1.00  0.00    -0.206 F 
ATOM     72  C   UNL     1       9.116  11.575  -8.212  1.00  0.00     0.060 A 
BRANCH  72  73
ATOM     73  S   UNL     1      10.421  12.368  -9.176  1.00  0.00     0.124 S 
ATOM     74  O   UNL     1       9.780  13.612  -9.588  1.00  0.00    -0.237 OA
ATOM     75  O   UNL     1      11.494  12.495  -8.197  1.00  0.00    -0.237 OA
ATOM     76  O   UNL     1      10.678  11.419 -10.258  1.00  0.00    -0.744 OA
ENDBRANCH  72  73
ENDBRANCH  51  65
BRANCH  52  77
ATOM     77  C   UNL     1      -2.465   7.120  -4.065  1.00  0.00     0.058 A 
ATOM     78  C   UNL     1      -3.656   7.478  -4.754  1.00  0.00     0.135 A 
ATOM     79  C   UNL     1      -2.244   5.739  -3.942  1.00  0.00     0.135 A 
ATOM     80  F   UNL     1      -3.984   8.775  -4.882  1.00  0.00    -0.206 F 
ATOM     81  C   UNL     1      -4.469   6.558  -5.429  1.00  0.00     0.059 A 
ATOM     82  C   UNL     1      -3.074   4.785  -4.588  1.00  0.00     0.059 A 
ATOM     83  F   UNL     1      -1.136   5.286  -3.337  1.00  0.00    -0.206 F 
ATOM     84  C   UNL     1      -4.158   5.207  -5.369  1.00  0.00     0.060 A 
BRANCH  84  85
ATOM     85  S   UNL     1      -5.000   4.082  -6.554  1.00  0.00     0.124 S 
ATOM     86  O   UNL     1      -6.321   3.932  -5.961  1.00  0.00    -0.237 OA
ATOM     87  O   UNL     1      -4.951   4.854  -7.796  1.00  0.00    -0.237 OA
ATOM     88  O   UNL     1      -4.148   2.898  -6.543  1.00  0.00    -0.744 OA
ENDBRANCH  84  85
ENDBRANCH  52  77
BRANCH  64  89
ATOM     89  C   UNL     1       3.989   9.010  -0.889  1.00  0.00     0.058 A 
ATOM     90  C   UNL     1       3.881   7.917  -0.013  1.00  0.00     0.135 A 
ATOM     91  C   UNL     1       5.184   9.767  -0.755  1.00  0.00     0.135 A 
ATOM     92  F   UNL     1       2.882   7.029  -0.116  1.00  0.00    -0.206 F 
ATOM     93  C   UNL     1       4.815   7.670   0.995  1.00  0.00     0.059 A 
ATOM     94  C   UNL     1       6.180   9.469   0.167  1.00  0.00     0.059 A 
ATOM     95  F   UNL     1       5.438  10.836  -1.526  1.00  0.00    -0.206 F 
ATOM     96  C   UNL     1       5.957   8.458   1.082  1.00  0.00     0.060 A 
BRANCH  96  97
ATOM     97  S   UNL     1       7.138   8.190   2.411  1.00  0.00     0.124 S 
ATOM     98  O   UNL     1       6.611   9.075   3.441  1.00  0.00    -0.237 OA
ATOM     99  O   UNL     1       7.018   6.763   2.675  1.00  0.00    -0.237 OA
ATOM    100  O   UNL     1       8.411   8.606   1.811  1.00  0.00    -0.744 OA
ENDBRANCH  96  97
ENDBRANCH  64  89
ENDBRANCH  38  39
ENDBRANCH  31  33
ENDBRANCH  30  31
ENDBRANCH  29  30
ENDBRANCH  28  29
ENDBRANCH  27  28
ENDBRANCH   1  27
TORSDOF 23
