REMARK SMILES COc1cc([N+](=O)[O-])cc2c1=N[C@H](C(=O)OCCOCCOCCOC(=O)c1ccc(-c3c4nc(c(-c5c(F)cc(S(=O)(=O)[O-])cc5F)c5ccc([nH]5)c(-c5c(F)cc(S(=O)(=O)[O-])cc5F)c5nc(c(-c6c(F)cc(S(=O)(=O)[O-])cc6F)c6ccc3[nH]6)C=C5)C=C4)cc1)C=2CC[NH3+]
REMARK SMILES IDX 20 1 19 2 18 3 17 4 16 5 14 6 15 7 13 8 3 9 4 10 11 11 5 12
REMARK SMILES IDX 10 13 12 14 9 15 94 16 2 17 1 18 6 19 7 20 8 21 95 22 96 23
REMARK SMILES IDX 97 24 21 28 22 29 23 30 24 31 25 32 26 33 27 34 28 35 29 36
REMARK SMILES IDX 93 37 30 38 92 39 31 40 32 41 33 42 86 43 34 44 91 45 85 46
REMARK SMILES IDX 87 47 35 48 90 49 84 50 83 51 36 53 70 54 49 55 69 56 50 57
REMARK SMILES IDX 53 58 68 59 88 60 51 61 52 62 67 64 89 65 54 66 37 67 38 68
REMARK SMILES IDX 47 69 39 70 40 71 46 72 48 73 41 74 42 75 43 76 44 77 45 78
REMARK SMILES IDX 71 79 72 80 81 81 73 82 74 83 80 84 82 85 75 86 76 87 77 88
REMARK SMILES IDX 78 89 79 90 55 91 56 92 65 93 57 94 58 95 64 96 66 97 59 98
REMARK SMILES IDX 60 99 61 100 62 101 63 102
REMARK H PARENT 97 25 97 26 97 27 87 52 53 63
REMARK Flexibility Score: inf
ROOT
ATOM      1  C   UNL     1      -3.766  -5.062  -5.489  1.00  0.00     0.188 C 
ENDROOT
BRANCH   1   2
ATOM      2  O   UNL     1      -4.396  -5.990  -4.621  1.00  0.00    -0.376 OA
BRANCH   2   3
ATOM      3  C   UNL     1      -4.868  -5.528  -3.364  1.00  0.00     0.202 C 
BRANCH   3   4
ATOM      4  C   UNL     1      -3.839  -4.928  -2.401  1.00  0.00     0.261 C 
BRANCH   4   5
ATOM      5  O   UNL     1      -3.370  -3.629  -2.810  1.00  0.00    -0.461 OA
BRANCH   5   6
ATOM      6  C   UNL     1      -2.026  -3.509  -3.025  1.00  0.00     0.335 C 
ATOM      7  O   UNL     1      -1.232  -4.442  -2.991  1.00  0.00    -0.249 OA
BRANCH   6   8
ATOM      8  C   UNL     1      -1.637  -2.037  -3.299  1.00  0.00     0.243 C 
ATOM      9  C   UNL     1       1.380  -1.029  -1.470  1.00  0.00     0.151 A 
ATOM     10  C   UNL     1       2.614  -0.892  -1.997  1.00  0.00     0.134 A 
ATOM     11  C   UNL     1       0.248  -1.379  -2.375  1.00  0.00     0.109 A 
ATOM     12  C   UNL     1       2.882  -1.012  -3.426  1.00  0.00     0.273 A 
ATOM     13  C   UNL     1       0.596  -1.547  -3.793  1.00  0.00     0.012 A 
ATOM     14  N   UNL     1      -1.002  -1.528  -2.045  1.00  0.00    -0.261 NA
ATOM     15  C   UNL     1       1.915  -1.337  -4.304  1.00  0.00     0.096 A 
ATOM     16  C   UNL     1      -0.560  -1.904  -4.345  1.00  0.00    -0.019 C 
BRANCH   9  17
ATOM     17  O   UNL     1       1.118  -0.965  -0.119  1.00  0.00    -0.494 OA
ATOM     18  C   UNL     1       1.282   0.357   0.379  1.00  0.00     0.278 C 
ENDBRANCH   9  17
BRANCH  12  19
ATOM     19  N   UNL     1       4.220  -0.734  -3.963  1.00  0.00     0.062 N 
ATOM     20  O   UNL     1       4.395  -0.832  -5.185  1.00  0.00    -0.258 OA
ATOM     21  O   UNL     1       5.083  -0.365  -3.155  1.00  0.00    -0.258 OA
ENDBRANCH  12  19
BRANCH  16  22
ATOM     22  C   UNL     1      -0.783  -2.211  -5.785  1.00  0.00     0.096 C 
BRANCH  22  23
ATOM     23  C   UNL     1      -0.200  -3.587  -6.119  1.00  0.00     0.263 C 
BRANCH  23  24
ATOM     24  N   UNL     1      -1.046  -4.331  -7.022  1.00  0.00    -0.357 N 
ATOM     25  H   UNL     1      -1.954  -4.488  -6.585  1.00  0.00     0.344 HD
ATOM     26  H   UNL     1      -0.611  -5.229  -7.234  1.00  0.00     0.344 HD
ATOM     27  H   UNL     1      -1.171  -3.802  -7.885  1.00  0.00     0.344 HD
ENDBRANCH  23  24
ENDBRANCH  22  23
ENDBRANCH  16  22
ENDBRANCH   6   8
ENDBRANCH   5   6
ENDBRANCH   4   5
ENDBRANCH   3   4
ENDBRANCH   2   3
ENDBRANCH   1   2
BRANCH   1  28
ATOM     28  C   UNL     1      -4.433  -3.696  -5.748  1.00  0.00     0.188 C 
BRANCH  28  29
ATOM     29  O   UNL     1      -5.845  -3.660  -5.888  1.00  0.00    -0.376 OA
BRANCH  29  30
ATOM     30  C   UNL     1      -6.433  -4.657  -6.714  1.00  0.00     0.202 C 
BRANCH  30  31
ATOM     31  C   UNL     1      -6.183  -4.518  -8.220  1.00  0.00     0.261 C 
BRANCH  31  32
ATOM     32  O   UNL     1      -4.805  -4.714  -8.599  1.00  0.00    -0.460 OA
BRANCH  32  33
ATOM     33  C   UNL     1      -4.232  -3.706  -9.322  1.00  0.00     0.338 C 
ATOM     34  O   UNL     1      -4.730  -2.632  -9.573  1.00  0.00    -0.246 OA
BRANCH  33  35
ATOM     35  C   UNL     1      -2.825  -4.058  -9.673  1.00  0.00     0.060 A 
ATOM     36  C   UNL     1      -2.419  -5.380  -9.894  1.00  0.00     0.016 A 
ATOM     37  C   UNL     1      -1.879  -3.026  -9.744  1.00  0.00     0.016 A 
ATOM     38  C   UNL     1      -1.066  -5.673 -10.138  1.00  0.00     0.010 A 
ATOM     39  C   UNL     1      -0.524  -3.324  -9.962  1.00  0.00     0.010 A 
ATOM     40  C   UNL     1      -0.099  -4.654 -10.146  1.00  0.00    -0.014 A 
BRANCH  40  41
ATOM     41  C   UNL     1       1.315  -4.955 -10.514  1.00  0.00     0.031 A 
ATOM     42  C   UNL     1       2.339  -5.489  -9.542  1.00  0.00     0.074 A 
ATOM     43  C   UNL     1       1.673  -4.742 -11.793  1.00  0.00     0.049 A 
ATOM     44  N   UNL     1       3.602  -5.783  -9.742  1.00  0.00    -0.248 NA
ATOM     45  C   UNL     1       1.902  -5.715  -8.163  1.00  0.00     0.031 C 
ATOM     46  C   UNL     1       0.780  -4.241 -12.839  1.00  0.00     0.029 A 
ATOM     47  N   UNL     1       2.873  -4.920 -12.430  1.00  0.00    -0.354 N 
ATOM     48  C   UNL     1       4.105  -6.217  -8.516  1.00  0.00     0.074 A 
ATOM     49  C   UNL     1       3.021  -6.108  -7.565  1.00  0.00     0.031 C 
ATOM     50  C   UNL     1       1.465  -4.143 -13.986  1.00  0.00     0.029 A 
ATOM     51  C   UNL     1       2.842  -4.569 -13.756  1.00  0.00     0.049 A 
ATOM     52  H   UNL     1       3.678  -5.265 -11.980  1.00  0.00     0.167 HD
ATOM     53  C   UNL     1       5.342  -6.691  -8.220  1.00  0.00     0.037 A 
ATOM     54  C   UNL     1       3.810  -4.591 -14.691  1.00  0.00     0.037 A 
ATOM     55  C   UNL     1       6.400  -6.859  -9.189  1.00  0.00     0.049 A 
ATOM     56  C   UNL     1       5.170  -5.122 -14.342  1.00  0.00     0.074 A 
ATOM     57  C   UNL     1       7.654  -7.420  -9.002  1.00  0.00     0.029 A 
ATOM     58  N   UNL     1       6.333  -6.477 -10.520  1.00  0.00    -0.354 N 
ATOM     59  N   UNL     1       5.604  -5.585 -13.195  1.00  0.00    -0.248 NA
ATOM     60  C   UNL     1       6.166  -5.152 -15.421  1.00  0.00     0.031 C 
ATOM     61  C   UNL     1       8.359  -7.338 -10.207  1.00  0.00     0.029 A 
ATOM     62  C   UNL     1       7.529  -6.770 -11.158  1.00  0.00     0.049 A 
ATOM     63  H   UNL     1       5.551  -6.060 -10.949  1.00  0.00     0.167 HD
ATOM     64  C   UNL     1       6.918  -5.980 -13.421  1.00  0.00     0.074 A 
ATOM     65  C   UNL     1       7.200  -5.722 -14.817  1.00  0.00     0.031 C 
ATOM     66  C   UNL     1       7.809  -6.507 -12.546  1.00  0.00     0.037 A 
BRANCH  53  67
ATOM     67  C   UNL     1       5.648  -7.122  -6.804  1.00  0.00     0.058 A 
ATOM     68  C   UNL     1       5.122  -8.309  -6.270  1.00  0.00     0.135 A 
ATOM     69  C   UNL     1       6.607  -6.436  -6.038  1.00  0.00     0.135 A 
ATOM     70  F   UNL     1       4.200  -9.007  -6.952  1.00  0.00    -0.206 F 
ATOM     71  C   UNL     1       5.536  -8.801  -5.034  1.00  0.00     0.059 A 
ATOM     72  C   UNL     1       7.055  -6.922  -4.810  1.00  0.00     0.059 A 
ATOM     73  F   UNL     1       7.155  -5.301  -6.501  1.00  0.00    -0.206 F 
ATOM     74  C   UNL     1       6.514  -8.108  -4.317  1.00  0.00     0.060 A 
BRANCH  74  75
ATOM     75  S   UNL     1       7.086  -8.804  -2.750  1.00  0.00     0.124 S 
ATOM     76  O   UNL     1       5.905  -8.639  -1.908  1.00  0.00    -0.237 OA
ATOM     77  O   UNL     1       7.412 -10.177  -3.121  1.00  0.00    -0.237 OA
ATOM     78  O   UNL     1       8.227  -7.964  -2.398  1.00  0.00    -0.744 OA
ENDBRANCH  74  75
ENDBRANCH  53  67
BRANCH  54  79
ATOM     79  C   UNL     1       3.498  -4.125 -16.064  1.00  0.00     0.058 A 
ATOM     80  C   UNL     1       3.391  -5.033 -17.125  1.00  0.00     0.135 A 
ATOM     81  C   UNL     1       3.262  -2.767 -16.330  1.00  0.00     0.135 A 
ATOM     82  F   UNL     1       3.605  -6.341 -16.913  1.00  0.00    -0.206 F 
ATOM     83  C   UNL     1       3.082  -4.611 -18.411  1.00  0.00     0.059 A 
ATOM     84  C   UNL     1       2.924  -2.324 -17.602  1.00  0.00     0.059 A 
ATOM     85  F   UNL     1       3.326  -1.865 -15.338  1.00  0.00    -0.206 F 
ATOM     86  C   UNL     1       2.848  -3.253 -18.639  1.00  0.00     0.060 A 
BRANCH  86  87
ATOM     87  S   UNL     1       2.409  -2.723 -20.307  1.00  0.00     0.124 S 
ATOM     88  O   UNL     1       3.676  -2.894 -21.010  1.00  0.00    -0.237 OA
ATOM     89  O   UNL     1       1.352  -3.666 -20.658  1.00  0.00    -0.237 OA
ATOM     90  O   UNL     1       1.972  -1.343 -20.118  1.00  0.00    -0.744 OA
ENDBRANCH  86  87
ENDBRANCH  54  79
BRANCH  66  91
ATOM     91  C   UNL     1       9.178  -6.847 -13.069  1.00  0.00     0.058 A 
ATOM     92  C   UNL     1      10.107  -5.844 -13.390  1.00  0.00     0.135 A 
ATOM     93  C   UNL     1       9.586  -8.184 -13.203  1.00  0.00     0.135 A 
ATOM     94  F   UNL     1       9.766  -4.550 -13.288  1.00  0.00    -0.206 F 
ATOM     95  C   UNL     1      11.384  -6.155 -13.846  1.00  0.00     0.059 A 
ATOM     96  C   UNL     1      10.868  -8.518 -13.631  1.00  0.00     0.059 A 
ATOM     97  F   UNL     1       8.741  -9.183 -12.902  1.00  0.00    -0.206 F 
ATOM     98  C   UNL     1      11.757  -7.495 -13.960  1.00  0.00     0.060 A 
BRANCH  98  99
ATOM     99  S   UNL     1      13.429  -7.879 -14.524  1.00  0.00     0.124 S 
ATOM    100  O   UNL     1      13.364  -7.485 -15.928  1.00  0.00    -0.237 OA
ATOM    101  O   UNL     1      14.248  -7.029 -13.665  1.00  0.00    -0.237 OA
ATOM    102  O   UNL     1      13.552  -9.313 -14.280  1.00  0.00    -0.744 OA
ENDBRANCH  98  99
ENDBRANCH  66  91
ENDBRANCH  40  41
ENDBRANCH  33  35
ENDBRANCH  32  33
ENDBRANCH  31  32
ENDBRANCH  30  31
ENDBRANCH  29  30
ENDBRANCH  28  29
ENDBRANCH   1  28
TORSDOF 25
