REMARK SMILES CCC[N@@H+](CC1CC[NH2+]CC1)[C@@H](CC)C(=O)OCCOCCOCCOC(=O)c1ccc(-c2c3nc(c(-c4c(F)cc(S(=O)(=O)[O-])cc4F)c4ccc([nH]4)c(-c4c(F)cc(S(=O)(=O)[O-])cc4F)c4nc(c(-c5c(F)cc(S(=O)(=O)[O-])cc5F)c5ccc2[nH]5)C=C4)C=C3)cc1
REMARK SMILES IDX 21 1 20 2 19 3 18 4 17 5 15 6 16 7 12 8 4 9 3 11 2 12 1 13
REMARK SMILES IDX 5 14 6 15 7 16 11 17 8 18 10 19 9 20 13 23 14 24 22 25 23 26
REMARK SMILES IDX 24 27 25 28 26 29 27 30 28 31 29 32 30 33 94 34 31 35 93 36
REMARK SMILES IDX 32 37 33 38 34 39 87 40 35 41 92 42 86 43 88 44 36 45 91 46
REMARK SMILES IDX 85 47 84 48 37 50 71 51 50 52 70 53 51 54 54 55 69 56 89 57
REMARK SMILES IDX 52 58 53 59 68 61 90 62 55 63 38 64 39 65 48 66 40 67 41 68
REMARK SMILES IDX 47 69 49 70 42 71 43 72 44 73 45 74 46 75 72 76 73 77 82 78
REMARK SMILES IDX 74 79 75 80 81 81 83 82 76 83 77 84 78 85 79 86 80 87 56 88
REMARK SMILES IDX 57 89 66 90 58 91 59 92 65 93 67 94 60 95 61 96 62 97 63 98
REMARK SMILES IDX 64 99
REMARK H PARENT 4 10 9 21 9 22 88 49 54 60
REMARK Flexibility Score: inf
ROOT
ATOM      1  C   UNL     1      -1.677   0.881  -0.191  1.00  0.00     0.188 C 
ENDROOT
BRANCH   1   2
ATOM      2  O   UNL     1      -2.254   0.203  -1.297  1.00  0.00    -0.376 OA
BRANCH   2   3
ATOM      3  C   UNL     1      -1.353  -0.593  -2.090  1.00  0.00     0.202 C 
BRANCH   3   4
ATOM      4  C   UNL     1      -0.010   0.001  -2.586  1.00  0.00     0.261 C 
BRANCH   4   5
ATOM      5  O   UNL     1       0.938   0.309  -1.539  1.00  0.00    -0.459 OA
BRANCH   5   6
ATOM      6  C   UNL     1       1.035   1.619  -1.165  1.00  0.00     0.364 C 
ATOM      7  O   UNL     1       0.427   2.531  -1.717  1.00  0.00    -0.245 OA
BRANCH   6   8
ATOM      8  C   UNL     1       1.960   1.837   0.053  1.00  0.00     0.294 C 
BRANCH   8   9
ATOM      9  N   UNL     1       1.329   1.633   1.396  1.00  0.00    -0.323 N 
ATOM     10  H   UNL     1       0.408   1.411   1.016  1.00  0.00     0.348 HD
BRANCH   9  11
ATOM     11  C   UNL     1       1.507   0.439   2.236  1.00  0.00     0.262 C 
BRANCH  11  12
ATOM     12  C   UNL     1       1.043  -1.031   2.070  1.00  0.00     0.058 C 
ATOM     13  C   UNL     1       0.794  -1.692   0.740  1.00  0.00     0.010 C 
ENDBRANCH  11  12
ENDBRANCH   9  11
BRANCH   9  14
ATOM     14  C   UNL     1       1.409   2.866   2.257  1.00  0.00     0.266 C 
BRANCH  14  15
ATOM     15  C   UNL     1       2.673   3.428   3.022  1.00  0.00     0.055 C 
ATOM     16  C   UNL     1       3.474   4.528   2.308  1.00  0.00     0.071 C 
ATOM     17  C   UNL     1       3.651   2.483   3.732  1.00  0.00     0.071 C 
ATOM     18  C   UNL     1       4.658   4.050   1.483  1.00  0.00     0.261 C 
ATOM     19  C   UNL     1       4.790   1.983   2.853  1.00  0.00     0.261 C 
ATOM     20  N   UNL     1       5.493   3.036   2.125  1.00  0.00    -0.346 N 
ATOM     21  H   UNL     1       6.108   3.512   2.784  1.00  0.00     0.346 HD
ATOM     22  H   UNL     1       5.977   2.561   1.363  1.00  0.00     0.346 HD
ENDBRANCH  14  15
ENDBRANCH   9  14
ENDBRANCH   8   9
BRANCH   8  23
ATOM     23  C   UNL     1       3.362   1.351  -0.296  1.00  0.00     0.074 C 
ATOM     24  C   UNL     1       3.692  -0.117  -0.237  1.00  0.00     0.011 C 
ENDBRANCH   8  23
ENDBRANCH   6   8
ENDBRANCH   5   6
ENDBRANCH   4   5
ENDBRANCH   3   4
ENDBRANCH   2   3
ENDBRANCH   1   2
BRANCH   1  25
ATOM     25  C   UNL     1      -2.121   0.584   1.240  1.00  0.00     0.188 C 
BRANCH  25  26
ATOM     26  O   UNL     1      -2.223  -0.766   1.658  1.00  0.00    -0.376 OA
BRANCH  26  27
ATOM     27  C   UNL     1      -3.130  -1.583   0.933  1.00  0.00     0.202 C 
BRANCH  27  28
ATOM     28  C   UNL     1      -4.613  -1.178   0.915  1.00  0.00     0.261 C 
BRANCH  28  29
ATOM     29  O   UNL     1      -4.876   0.146   0.410  1.00  0.00    -0.460 OA
BRANCH  29  30
ATOM     30  C   UNL     1      -5.254   1.073   1.330  1.00  0.00     0.338 C 
ATOM     31  O   UNL     1      -5.449   0.887   2.525  1.00  0.00    -0.246 OA
BRANCH  30  32
ATOM     32  C   UNL     1      -5.174   2.421   0.728  1.00  0.00     0.060 A 
ATOM     33  C   UNL     1      -4.230   3.348   1.209  1.00  0.00     0.016 A 
ATOM     34  C   UNL     1      -6.066   2.784  -0.277  1.00  0.00     0.016 A 
ATOM     35  C   UNL     1      -4.168   4.635   0.677  1.00  0.00     0.010 A 
ATOM     36  C   UNL     1      -6.036   4.088  -0.774  1.00  0.00     0.010 A 
ATOM     37  C   UNL     1      -5.102   5.023  -0.287  1.00  0.00    -0.014 A 
BRANCH  37  38
ATOM     38  C   UNL     1      -5.255   6.450  -0.647  1.00  0.00     0.031 A 
ATOM     39  C   UNL     1      -6.321   7.241   0.056  1.00  0.00     0.074 A 
ATOM     40  C   UNL     1      -4.495   7.016  -1.600  1.00  0.00     0.049 A 
ATOM     41  N   UNL     1      -6.775   8.438  -0.203  1.00  0.00    -0.248 NA
ATOM     42  C   UNL     1      -6.970   6.584   1.204  1.00  0.00     0.031 C 
ATOM     43  C   UNL     1      -3.389   6.366  -2.299  1.00  0.00     0.029 A 
ATOM     44  N   UNL     1      -4.565   8.266  -2.163  1.00  0.00    -0.354 N 
ATOM     45  C   UNL     1      -7.777   8.669   0.732  1.00  0.00     0.074 A 
ATOM     46  C   UNL     1      -7.875   7.484   1.555  1.00  0.00     0.031 C 
ATOM     47  C   UNL     1      -2.905   7.211  -3.226  1.00  0.00     0.029 A 
ATOM     48  C   UNL     1      -3.698   8.440  -3.216  1.00  0.00     0.049 A 
ATOM     49  H   UNL     1      -5.176   8.969  -1.845  1.00  0.00     0.167 HD
ATOM     50  C   UNL     1      -8.547   9.772   0.884  1.00  0.00     0.037 A 
ATOM     51  C   UNL     1      -3.593   9.456  -4.096  1.00  0.00     0.037 A 
ATOM     52  C   UNL     1      -8.441  10.941   0.051  1.00  0.00     0.049 A 
ATOM     53  C   UNL     1      -4.524  10.637  -3.966  1.00  0.00     0.074 A 
ATOM     54  C   UNL     1      -9.159  12.120   0.127  1.00  0.00     0.029 A 
ATOM     55  N   UNL     1      -7.568  11.072  -1.021  1.00  0.00    -0.354 N 
ATOM     56  N   UNL     1      -5.462  10.858  -3.074  1.00  0.00    -0.248 NA
ATOM     57  C   UNL     1      -4.389  11.704  -4.967  1.00  0.00     0.031 C 
ATOM     58  C   UNL     1      -8.764  12.940  -0.934  1.00  0.00     0.029 A 
ATOM     59  C   UNL     1      -7.755  12.299  -1.636  1.00  0.00     0.049 A 
ATOM     60  H   UNL     1      -6.913  10.393  -1.302  1.00  0.00     0.167 HD
ATOM     61  C   UNL     1      -6.012  12.095  -3.394  1.00  0.00     0.074 A 
ATOM     62  C   UNL     1      -5.289  12.584  -4.550  1.00  0.00     0.031 C 
ATOM     63  C   UNL     1      -7.024  12.767  -2.789  1.00  0.00     0.037 A 
BRANCH  50  64
ATOM     64  C   UNL     1      -9.596   9.748   1.961  1.00  0.00     0.058 A 
ATOM     65  C   UNL     1      -9.263   9.785   3.325  1.00  0.00     0.135 A 
ATOM     66  C   UNL     1     -10.959   9.715   1.622  1.00  0.00     0.135 A 
ATOM     67  F   UNL     1      -7.976   9.795   3.707  1.00  0.00    -0.206 F 
ATOM     68  C   UNL     1     -10.242   9.766   4.313  1.00  0.00     0.059 A 
ATOM     69  C   UNL     1     -11.955   9.726   2.593  1.00  0.00     0.059 A 
ATOM     70  F   UNL     1     -11.334   9.671   0.334  1.00  0.00    -0.206 F 
ATOM     71  C   UNL     1     -11.586   9.740   3.937  1.00  0.00     0.060 A 
BRANCH  71  72
ATOM     72  S   UNL     1     -12.843   9.732   5.233  1.00  0.00     0.124 S 
ATOM     73  O   UNL     1     -12.684   8.390   5.785  1.00  0.00    -0.237 OA
ATOM     74  O   UNL     1     -12.408  10.827   6.094  1.00  0.00    -0.237 OA
ATOM     75  O   UNL     1     -14.086   9.966   4.504  1.00  0.00    -0.744 OA
ENDBRANCH  71  72
ENDBRANCH  50  64
BRANCH  51  76
ATOM     76  C   UNL     1      -2.595   9.391  -5.198  1.00  0.00     0.058 A 
ATOM     77  C   UNL     1      -1.500  10.266  -5.236  1.00  0.00     0.135 A 
ATOM     78  C   UNL     1      -2.717   8.456  -6.239  1.00  0.00     0.135 A 
ATOM     79  F   UNL     1      -1.347  11.191  -4.275  1.00  0.00    -0.206 F 
ATOM     80  C   UNL     1      -0.568  10.226  -6.268  1.00  0.00     0.059 A 
ATOM     81  C   UNL     1      -1.781   8.376  -7.267  1.00  0.00     0.059 A 
ATOM     82  F   UNL     1      -3.744   7.593  -6.252  1.00  0.00    -0.206 F 
ATOM     83  C   UNL     1      -0.714   9.272  -7.277  1.00  0.00     0.060 A 
BRANCH  83  84
ATOM     84  S   UNL     1       0.533   9.196  -8.582  1.00  0.00     0.124 S 
ATOM     85  O   UNL     1       0.251  10.415  -9.331  1.00  0.00    -0.237 OA
ATOM     86  O   UNL     1       1.776   9.189  -7.817  1.00  0.00    -0.237 OA
ATOM     87  O   UNL     1       0.224   7.946  -9.271  1.00  0.00    -0.744 OA
ENDBRANCH  83  84
ENDBRANCH  51  76
BRANCH  63  88
ATOM     88  C   UNL     1      -7.400  14.113  -3.350  1.00  0.00     0.058 A 
ATOM     89  C   UNL     1      -8.066  14.240  -4.579  1.00  0.00     0.135 A 
ATOM     90  C   UNL     1      -7.147  15.286  -2.619  1.00  0.00     0.135 A 
ATOM     91  F   UNL     1      -8.328  13.152  -5.322  1.00  0.00    -0.206 F 
ATOM     92  C   UNL     1      -8.448  15.483  -5.074  1.00  0.00     0.059 A 
ATOM     93  C   UNL     1      -7.549  16.536  -3.080  1.00  0.00     0.059 A 
ATOM     94  F   UNL     1      -6.524  15.223  -1.432  1.00  0.00    -0.206 F 
ATOM     95  C   UNL     1      -8.189  16.625  -4.315  1.00  0.00     0.060 A 
BRANCH  95  96
ATOM     96  S   UNL     1      -8.726  18.227  -4.953  1.00  0.00     0.124 S 
ATOM     97  O   UNL     1      -7.790  18.435  -6.053  1.00  0.00    -0.237 OA
ATOM     98  O   UNL     1     -10.109  17.960  -5.339  1.00  0.00    -0.237 OA
ATOM     99  O   UNL     1      -8.562  19.122  -3.812  1.00  0.00    -0.744 OA
ENDBRANCH  95  96
ENDBRANCH  63  88
ENDBRANCH  37  38
ENDBRANCH  30  32
ENDBRANCH  29  30
ENDBRANCH  28  29
ENDBRANCH  27  28
ENDBRANCH  26  27
ENDBRANCH  25  26
ENDBRANCH   1  25
TORSDOF 26
