REMARK SMILES O=C(OCCOCCOCCOC(=O)[C@@H]1CCCN(C(=O)Nc2ccccc2)C1)c1ccc(-c2c3nc(c(-c4c(F)cc(S(=O)(=O)[O-])cc4F)c4ccc([nH]4)c(-c4c(F)cc(S(=O)(=O)[O-])cc4F)c4nc(c(-c5c(F)cc(S(=O)(=O)[O-])cc5F)c5ccc2[nH]5)C=C4)C=C3)cc1
REMARK SMILES IDX 7 1 6 2 5 3 4 4 3 5 2 6 1 7 30 8 31 9 95 10 32 11 94 12
REMARK SMILES IDX 33 13 34 14 35 15 88 16 36 17 93 18 87 19 89 20 37 21 92 22
REMARK SMILES IDX 86 23 85 24 38 26 72 27 51 28 71 29 52 30 55 31 70 32 90 33
REMARK SMILES IDX 53 34 54 35 69 37 91 38 56 39 39 40 40 41 49 42 41 43 42 44
REMARK SMILES IDX 48 45 50 46 43 47 44 48 45 49 46 50 47 51 73 52 74 53 83 54
REMARK SMILES IDX 75 55 76 56 82 57 84 58 77 59 78 60 79 61 80 62 81 63 57 64
REMARK SMILES IDX 58 65 67 66 59 67 60 68 66 69 68 70 61 71 62 72 63 73 64 74
REMARK SMILES IDX 65 75 8 76 9 77 10 78 11 79 12 80 13 81 14 82 15 83 16 84
REMARK SMILES IDX 29 85 17 86 19 87 18 88 20 89 21 90 22 91 23 93 24 94 28 95
REMARK SMILES IDX 25 96 27 97 26 98
REMARK H PARENT 89 25 55 36 22 92
REMARK Flexibility Score: inf
ROOT
ATOM      1  C   UNL     1       2.512  -0.560   1.662  1.00  0.00     0.188 C 
ENDROOT
BRANCH   1   2
ATOM      2  O   UNL     1       3.842  -0.677   1.149  1.00  0.00    -0.376 OA
BRANCH   2   3
ATOM      3  C   UNL     1       4.684   0.421   1.504  1.00  0.00     0.202 C 
BRANCH   3   4
ATOM      4  C   UNL     1       4.539   1.618   0.549  1.00  0.00     0.261 C 
BRANCH   4   5
ATOM      5  O   UNL     1       3.185   1.809   0.100  1.00  0.00    -0.460 OA
BRANCH   5   6
ATOM      6  C   UNL     1       2.579   1.305  -1.005  1.00  0.00     0.338 C 
ATOM      7  O   UNL     1       1.404   1.615  -1.206  1.00  0.00    -0.246 OA
BRANCH   6   8
ATOM      8  C   UNL     1       3.241   0.407  -2.009  1.00  0.00     0.060 A 
ATOM      9  C   UNL     1       4.366  -0.388  -1.781  1.00  0.00     0.016 A 
ATOM     10  C   UNL     1       2.626   0.310  -3.273  1.00  0.00     0.016 A 
ATOM     11  C   UNL     1       4.899  -1.208  -2.772  1.00  0.00     0.010 A 
ATOM     12  C   UNL     1       3.141  -0.526  -4.270  1.00  0.00     0.010 A 
ATOM     13  C   UNL     1       4.297  -1.272  -4.025  1.00  0.00    -0.014 A 
BRANCH  13  14
ATOM     14  C   UNL     1       4.974  -2.031  -5.093  1.00  0.00     0.031 A 
ATOM     15  C   UNL     1       5.786  -1.272  -6.095  1.00  0.00     0.074 A 
ATOM     16  C   UNL     1       4.932  -3.376  -5.099  1.00  0.00     0.049 A 
ATOM     17  N   UNL     1       6.427  -1.715  -7.140  1.00  0.00    -0.248 NA
ATOM     18  C   UNL     1       5.897   0.183  -5.887  1.00  0.00     0.031 C 
ATOM     19  C   UNL     1       4.239  -4.195  -4.105  1.00  0.00     0.029 A 
ATOM     20  N   UNL     1       5.488  -4.290  -5.955  1.00  0.00    -0.354 N 
ATOM     21  C   UNL     1       6.994  -0.595  -7.732  1.00  0.00     0.074 A 
ATOM     22  C   UNL     1       6.628   0.550  -6.929  1.00  0.00     0.031 C 
ATOM     23  C   UNL     1       4.413  -5.492  -4.409  1.00  0.00     0.029 A 
ATOM     24  C   UNL     1       5.174  -5.593  -5.647  1.00  0.00     0.049 A 
ATOM     25  H   UNL     1       6.057  -4.039  -6.718  1.00  0.00     0.167 HD
ATOM     26  C   UNL     1       7.742  -0.537  -8.857  1.00  0.00     0.037 A 
ATOM     27  C   UNL     1       5.432  -6.735  -6.314  1.00  0.00     0.037 A 
ATOM     28  C   UNL     1       8.092  -1.695  -9.632  1.00  0.00     0.049 A 
ATOM     29  C   UNL     1       6.202  -6.635  -7.602  1.00  0.00     0.074 A 
ATOM     30  C   UNL     1       8.833  -1.761 -10.796  1.00  0.00     0.029 A 
ATOM     31  N   UNL     1       7.714  -2.994  -9.318  1.00  0.00    -0.354 N 
ATOM     32  N   UNL     1       6.720  -5.568  -8.165  1.00  0.00    -0.248 NA
ATOM     33  C   UNL     1       6.406  -7.876  -8.359  1.00  0.00     0.031 C 
ATOM     34  C   UNL     1       8.863  -3.096 -11.212  1.00  0.00     0.029 A 
ATOM     35  C   UNL     1       8.176  -3.867 -10.285  1.00  0.00     0.049 A 
ATOM     36  H   UNL     1       7.193  -3.255  -8.524  1.00  0.00     0.167 HD
ATOM     37  C   UNL     1       7.310  -6.007  -9.342  1.00  0.00     0.074 A 
ATOM     38  C   UNL     1       7.107  -7.442  -9.398  1.00  0.00     0.031 C 
ATOM     39  C   UNL     1       7.951  -5.291 -10.299  1.00  0.00     0.037 A 
BRANCH  26  40
ATOM     40  C   UNL     1       8.158   0.821  -9.338  1.00  0.00     0.058 A 
ATOM     41  C   UNL     1       9.179   1.553  -8.714  1.00  0.00     0.135 A 
ATOM     42  C   UNL     1       7.513   1.401 -10.442  1.00  0.00     0.135 A 
ATOM     43  F   UNL     1       9.804   1.058  -7.634  1.00  0.00    -0.206 F 
ATOM     44  C   UNL     1       9.536   2.823  -9.158  1.00  0.00     0.059 A 
ATOM     45  C   UNL     1       7.866   2.660 -10.915  1.00  0.00     0.059 A 
ATOM     46  F   UNL     1       6.518   0.748 -11.062  1.00  0.00    -0.206 F 
ATOM     47  C   UNL     1       8.871   3.369 -10.259  1.00  0.00     0.060 A 
BRANCH  47  48
ATOM     48  S   UNL     1       9.341   5.018 -10.823  1.00  0.00     0.124 S 
ATOM     49  O   UNL     1       8.761   5.858  -9.779  1.00  0.00    -0.237 OA
ATOM     50  O   UNL     1      10.798   4.940 -10.838  1.00  0.00    -0.237 OA
ATOM     51  O   UNL     1       8.708   5.122 -12.134  1.00  0.00    -0.744 OA
ENDBRANCH  47  48
ENDBRANCH  26  40
BRANCH  27  52
ATOM     52  C   UNL     1       4.892  -8.036  -5.826  1.00  0.00     0.058 A 
ATOM     53  C   UNL     1       5.733  -9.068  -5.386  1.00  0.00     0.135 A 
ATOM     54  C   UNL     1       3.507  -8.273  -5.793  1.00  0.00     0.135 A 
ATOM     55  F   UNL     1       7.065  -8.902  -5.407  1.00  0.00    -0.206 F 
ATOM     56  C   UNL     1       5.226 -10.289  -4.944  1.00  0.00     0.059 A 
ATOM     57  C   UNL     1       2.974  -9.473  -5.332  1.00  0.00     0.059 A 
ATOM     58  F   UNL     1       2.651  -7.319  -6.191  1.00  0.00    -0.206 F 
ATOM     59  C   UNL     1       3.843 -10.482  -4.923  1.00  0.00     0.060 A 
BRANCH  59  60
ATOM     60  S   UNL     1       3.179 -12.053  -4.325  1.00  0.00     0.124 S 
ATOM     61  O   UNL     1       3.399 -12.921  -5.476  1.00  0.00    -0.237 OA
ATOM     62  O   UNL     1       4.009 -12.320  -3.155  1.00  0.00    -0.237 OA
ATOM     63  O   UNL     1       1.784 -11.734  -4.030  1.00  0.00    -0.744 OA
ENDBRANCH  59  60
ENDBRANCH  27  52
BRANCH  39  64
ATOM     64  C   UNL     1       8.474  -6.050 -11.481  1.00  0.00     0.058 A 
ATOM     65  C   UNL     1       7.617  -6.477 -12.505  1.00  0.00     0.135 A 
ATOM     66  C   UNL     1       9.852  -6.269 -11.631  1.00  0.00     0.135 A 
ATOM     67  F   UNL     1       6.291  -6.296 -12.397  1.00  0.00    -0.206 F 
ATOM     68  C   UNL     1       8.110  -7.101 -13.644  1.00  0.00     0.059 A 
ATOM     69  C   UNL     1      10.368  -6.872 -12.772  1.00  0.00     0.059 A 
ATOM     70  F   UNL     1      10.709  -5.869 -10.679  1.00  0.00    -0.206 F 
ATOM     71  C   UNL     1       9.488  -7.287 -13.771  1.00  0.00     0.060 A 
BRANCH  71  72
ATOM     72  S   UNL     1      10.122  -8.031 -15.288  1.00  0.00     0.124 S 
ATOM     73  O   UNL     1       9.789  -9.437 -15.086  1.00  0.00    -0.237 OA
ATOM     74  O   UNL     1       9.357  -7.340 -16.320  1.00  0.00    -0.237 OA
ATOM     75  O   UNL     1      11.546  -7.711 -15.252  1.00  0.00    -0.744 OA
ENDBRANCH  71  72
ENDBRANCH  39  64
ENDBRANCH  13  14
ENDBRANCH   6   8
ENDBRANCH   5   6
ENDBRANCH   4   5
ENDBRANCH   3   4
ENDBRANCH   2   3
ENDBRANCH   1   2
BRANCH   1  76
ATOM     76  C   UNL     1       2.238  -1.619   2.721  1.00  0.00     0.188 C 
BRANCH  76  77
ATOM     77  O   UNL     1       3.313  -1.671   3.659  1.00  0.00    -0.376 OA
BRANCH  77  78
ATOM     78  C   UNL     1       3.894  -2.975   3.776  1.00  0.00     0.202 C 
BRANCH  78  79
ATOM     79  C   UNL     1       4.854  -3.356   2.629  1.00  0.00     0.261 C 
BRANCH  79  80
ATOM     80  O   UNL     1       4.279  -3.501   1.316  1.00  0.00    -0.463 OA
BRANCH  80  81
ATOM     81  C   UNL     1       3.329  -4.460   1.178  1.00  0.00     0.310 C 
ATOM     82  O   UNL     1       2.878  -5.105   2.119  1.00  0.00    -0.252 OA
BRANCH  81  83
ATOM     83  C   UNL     1       2.867  -4.577  -0.269  1.00  0.00     0.119 C 
ATOM     84  C   UNL     1       1.339  -4.570  -0.378  1.00  0.00     0.019 C 
ATOM     85  C   UNL     1       3.386  -5.872  -0.886  1.00  0.00     0.136 C 
ATOM     86  C   UNL     1       0.707  -5.829   0.213  1.00  0.00     0.023 C 
ATOM     87  N   UNL     1       2.929  -7.007  -0.095  1.00  0.00    -0.324 N 
ATOM     88  C   UNL     1       1.463  -7.138  -0.077  1.00  0.00     0.121 C 
BRANCH  87  89
ATOM     89  C   UNL     1       3.885  -7.605   0.700  1.00  0.00     0.321 C 
ATOM     90  O   UNL     1       5.062  -7.217   0.690  1.00  0.00    -0.248 OA
ATOM     91  N   UNL     1       3.585  -8.496   1.669  1.00  0.00    -0.308 N 
ATOM     92  H   UNL     1       4.277  -8.559   2.367  1.00  0.00     0.171 HD
BRANCH  91  93
ATOM     93  C   UNL     1       2.506  -9.343   1.889  1.00  0.00     0.042 A 
ATOM     94  C   UNL     1       2.023  -9.428   3.197  1.00  0.00     0.026 A 
ATOM     95  C   UNL     1       1.893 -10.062   0.863  1.00  0.00     0.026 A 
ATOM     96  C   UNL     1       0.844 -10.122   3.455  1.00  0.00     0.002 A 
ATOM     97  C   UNL     1       0.722 -10.770   1.128  1.00  0.00     0.002 A 
ATOM     98  C   UNL     1       0.184 -10.777   2.416  1.00  0.00     0.000 A 
ENDBRANCH  91  93
ENDBRANCH  87  89
ENDBRANCH  81  83
ENDBRANCH  80  81
ENDBRANCH  79  80
ENDBRANCH  78  79
ENDBRANCH  77  78
ENDBRANCH  76  77
ENDBRANCH   1  76
TORSDOF 22
