REMARK SMILES Cn1c(SCC(=O)Nc2cccc(C(=O)OCCOCCOCCOC(=O)c3ccc(-c4c5nc(c(-c6c(F)cc(S(=O)(=O)[O-])cc6F)c6ccc([nH]6)c(-c6c(F)cc(S(=O)(=O)[O-])cc6F)c6nc(c(-c7c(F)cc(S(=O)(=O)[O-])cc7F)c7ccc4[nH]7)C=C6)C=C5)cc3)c2)nnc1[C@@H]1CCCN1C(=O)c1ccccc1Cl
REMARK SMILES IDX 18 1 17 2 16 3 14 4 15 5 13 6 9 7 10 8 94 9 11 10 12 11 8 12
REMARK SMILES IDX 6 13 7 14 5 16 4 17 3 18 1 19 2 20 97 21 95 22 96 23 98 24
REMARK SMILES IDX 99 25 102 26 100 27 101 28 103 29 104 30 105 31 106 32
REMARK SMILES IDX 110 33 107 34 109 35 111 36 108 37 19 38 20 39 21 40 22 41
REMARK SMILES IDX 23 42 24 43 25 44 26 45 27 46 28 47 29 48 93 49 30 50 92 51
REMARK SMILES IDX 31 52 32 53 33 54 86 55 34 56 91 57 85 58 87 59 35 60 90 61
REMARK SMILES IDX 84 62 83 63 36 65 70 66 49 67 69 68 50 69 53 70 68 71 88 72
REMARK SMILES IDX 51 73 52 74 67 76 89 77 54 78 37 79 38 80 47 81 39 82 40 83
REMARK SMILES IDX 46 84 48 85 41 86 42 87 43 88 44 89 45 90 71 91 72 92 81 93
REMARK SMILES IDX 73 94 74 95 80 96 82 97 75 98 76 99 77 100 78 101 79 102
REMARK SMILES IDX 55 103 56 104 65 105 57 106 58 107 64 108 66 109 59 110
REMARK SMILES IDX 60 111 61 112 62 113 63 114
REMARK H PARENT 8 15 87 64 53 75
REMARK Flexibility Score: inf
ROOT
ATOM      1  C   UNL     1      -4.192   4.522   0.059  1.00  0.00     0.202 C 
ENDROOT
BRANCH   1   2
ATOM      2  C   UNL     1      -2.780   4.768  -0.498  1.00  0.00     0.261 C 
BRANCH   2   3
ATOM      3  O   UNL     1      -1.712   4.716   0.451  1.00  0.00    -0.460 OA
BRANCH   3   4
ATOM      4  C   UNL     1      -1.113   5.893   0.759  1.00  0.00     0.338 C 
ATOM      5  O   UNL     1      -1.363   6.984   0.278  1.00  0.00    -0.246 OA
BRANCH   4   6
ATOM      6  C   UNL     1      -0.134   5.697   1.860  1.00  0.00     0.062 A 
ATOM      7  C   UNL     1       1.592   4.348   2.892  1.00  0.00     0.042 A 
ATOM      8  C   UNL     1       1.822   5.351   3.828  1.00  0.00     0.026 A 
ATOM      9  C   UNL     1       0.533   4.484   2.007  1.00  0.00     0.041 A 
ATOM     10  C   UNL     1       1.091   6.541   3.761  1.00  0.00     0.003 A 
ATOM     11  C   UNL     1       0.148   6.734   2.746  1.00  0.00     0.016 A 
BRANCH   7  12
ATOM     12  N   UNL     1       2.457   3.251   2.851  1.00  0.00    -0.325 N 
ATOM     13  C   UNL     1       2.941   2.574   1.765  1.00  0.00     0.234 C 
ATOM     14  O   UNL     1       3.749   1.663   1.987  1.00  0.00    -0.274 OA
ATOM     15  H   UNL     1       2.761   2.918   3.727  1.00  0.00     0.169 HD
BRANCH  13  16
ATOM     16  C   UNL     1       2.704   3.035   0.341  1.00  0.00     0.178 C 
BRANCH  16  17
ATOM     17  S   UNL     1       1.233   2.534  -0.530  1.00  0.00    -0.076 SA
BRANCH  17  18
ATOM     18  C   UNL     1       0.560   1.079   0.106  1.00  0.00     0.191 A 
ATOM     19  C   UNL     1       2.572  -0.405   0.417  1.00  0.00     0.154 C 
ATOM     20  N   UNL     1       1.182  -0.136   0.188  1.00  0.00    -0.307 N 
ATOM     21  C   UNL     1       0.182  -1.071   0.037  1.00  0.00     0.156 A 
ATOM     22  N   UNL     1      -0.741   0.892   0.173  1.00  0.00    -0.123 NA
ATOM     23  N   UNL     1      -0.980  -0.456   0.147  1.00  0.00    -0.132 NA
BRANCH  21  24
ATOM     24  C   UNL     1       0.340  -2.515  -0.270  1.00  0.00     0.154 C 
ATOM     25  C   UNL     1       0.997  -3.306   0.867  1.00  0.00     0.035 C 
ATOM     26  N   UNL     1       1.152  -2.824  -1.457  1.00  0.00    -0.328 N 
ATOM     27  C   UNL     1       1.613  -4.508   0.167  1.00  0.00     0.024 C 
ATOM     28  C   UNL     1       1.964  -4.006  -1.225  1.00  0.00     0.120 C 
BRANCH  26  29
ATOM     29  C   UNL     1       1.028  -2.375  -2.768  1.00  0.00     0.255 C 
ATOM     30  O   UNL     1       1.446  -3.018  -3.731  1.00  0.00    -0.269 OA
BRANCH  29  31
ATOM     31  C   UNL     1       0.496  -1.036  -3.066  1.00  0.00     0.058 A 
ATOM     32  C   UNL     1      -0.862  -0.866  -3.350  1.00  0.00     0.015 A 
ATOM     33  C   UNL     1       1.382   0.040  -3.224  1.00  0.00     0.053 A 
ATOM     34  C   UNL     1      -1.344   0.400  -3.703  1.00  0.00     0.001 A 
ATOM     35  C   UNL     1       0.893   1.299  -3.583  1.00  0.00     0.021 A 
ATOM     36  Cl  UNL     1       3.087  -0.114  -2.977  1.00  0.00    -0.083 Cl
ATOM     37  C   UNL     1      -0.472   1.485  -3.797  1.00  0.00     0.002 A 
ENDBRANCH  29  31
ENDBRANCH  26  29
ENDBRANCH  21  24
ENDBRANCH  17  18
ENDBRANCH  16  17
ENDBRANCH  13  16
ENDBRANCH   7  12
ENDBRANCH   4   6
ENDBRANCH   3   4
ENDBRANCH   2   3
ENDBRANCH   1   2
BRANCH   1  38
ATOM     38  O   UNL     1      -4.610   4.979   1.334  1.00  0.00    -0.376 OA
BRANCH  38  39
ATOM     39  C   UNL     1      -3.719   4.961   2.433  1.00  0.00     0.188 C 
BRANCH  39  40
ATOM     40  C   UNL     1      -2.988   3.659   2.816  1.00  0.00     0.188 C 
BRANCH  40  41
ATOM     41  O   UNL     1      -3.219   2.518   2.035  1.00  0.00    -0.376 OA
BRANCH  41  42
ATOM     42  C   UNL     1      -4.416   1.778   2.176  1.00  0.00     0.202 C 
BRANCH  42  43
ATOM     43  C   UNL     1      -5.494   1.994   3.260  1.00  0.00     0.261 C 
BRANCH  43  44
ATOM     44  O   UNL     1      -5.456   3.192   4.041  1.00  0.00    -0.460 OA
BRANCH  44  45
ATOM     45  C   UNL     1      -4.953   3.066   5.298  1.00  0.00     0.338 C 
ATOM     46  O   UNL     1      -4.537   2.057   5.825  1.00  0.00    -0.246 OA
BRANCH  45  47
ATOM     47  C   UNL     1      -4.785   4.422   5.871  1.00  0.00     0.060 A 
ATOM     48  C   UNL     1      -3.487   4.896   6.113  1.00  0.00     0.016 A 
ATOM     49  C   UNL     1      -5.893   5.215   6.169  1.00  0.00     0.016 A 
ATOM     50  C   UNL     1      -3.294   6.160   6.670  1.00  0.00     0.010 A 
ATOM     51  C   UNL     1      -5.698   6.470   6.755  1.00  0.00     0.010 A 
ATOM     52  C   UNL     1      -4.400   6.936   7.034  1.00  0.00    -0.014 A 
BRANCH  52  53
ATOM     53  C   UNL     1      -4.207   8.143   7.876  1.00  0.00     0.031 A 
ATOM     54  C   UNL     1      -4.431   8.026   9.358  1.00  0.00     0.074 A 
ATOM     55  C   UNL     1      -3.836   9.320   7.342  1.00  0.00     0.049 A 
ATOM     56  N   UNL     1      -4.383   8.948  10.284  1.00  0.00    -0.248 NA
ATOM     57  C   UNL     1      -4.762   6.683   9.859  1.00  0.00     0.031 C 
ATOM     58  C   UNL     1      -3.559   9.557   5.928  1.00  0.00     0.029 A 
ATOM     59  N   UNL     1      -3.648  10.545   7.935  1.00  0.00    -0.354 N 
ATOM     60  C   UNL     1      -4.689   8.301  11.476  1.00  0.00     0.074 A 
ATOM     61  C   UNL     1      -4.956   6.917  11.148  1.00  0.00     0.031 C 
ATOM     62  C   UNL     1      -3.263  10.857   5.755  1.00  0.00     0.029 A 
ATOM     63  C   UNL     1      -3.362  11.549   7.041  1.00  0.00     0.049 A 
ATOM     64  H   UNL     1      -3.712  10.689   8.906  1.00  0.00     0.167 HD
ATOM     65  C   UNL     1      -4.738   8.811  12.730  1.00  0.00     0.037 A 
ATOM     66  C   UNL     1      -3.228  12.877   7.233  1.00  0.00     0.037 A 
ATOM     67  C   UNL     1      -4.492  10.195  13.046  1.00  0.00     0.049 A 
ATOM     68  C   UNL     1      -3.351  13.443   8.624  1.00  0.00     0.074 A 
ATOM     69  C   UNL     1      -4.495  10.809  14.286  1.00  0.00     0.029 A 
ATOM     70  N   UNL     1      -4.221  11.186  12.112  1.00  0.00    -0.354 N 
ATOM     71  N   UNL     1      -3.602  12.817   9.751  1.00  0.00    -0.248 NA
ATOM     72  C   UNL     1      -3.165  14.893   8.772  1.00  0.00     0.031 C 
ATOM     73  C   UNL     1      -4.289  12.180  14.096  1.00  0.00     0.029 A 
ATOM     74  C   UNL     1      -4.090  12.413  12.744  1.00  0.00     0.049 A 
ATOM     75  H   UNL     1      -4.135  11.039  11.142  1.00  0.00     0.167 HD
ATOM     76  C   UNL     1      -3.588  13.794  10.743  1.00  0.00     0.074 A 
ATOM     77  C   UNL     1      -3.285  15.049  10.084  1.00  0.00     0.031 C 
ATOM     78  C   UNL     1      -3.802  13.662  12.078  1.00  0.00     0.037 A 
BRANCH  65  79
ATOM     79  C   UNL     1      -5.120   7.867  13.839  1.00  0.00     0.058 A 
ATOM     80  C   UNL     1      -4.288   6.806  14.235  1.00  0.00     0.135 A 
ATOM     81  C   UNL     1      -6.351   8.009  14.501  1.00  0.00     0.135 A 
ATOM     82  F   UNL     1      -3.106   6.611  13.628  1.00  0.00    -0.206 F 
ATOM     83  C   UNL     1      -4.685   5.890  15.204  1.00  0.00     0.059 A 
ATOM     84  C   UNL     1      -6.754   7.126  15.498  1.00  0.00     0.059 A 
ATOM     85  F   UNL     1      -7.187   9.006  14.169  1.00  0.00    -0.206 F 
ATOM     86  C   UNL     1      -5.925   6.053  15.823  1.00  0.00     0.060 A 
BRANCH  86  87
ATOM     87  S   UNL     1      -6.447   4.831  17.044  1.00  0.00     0.124 S 
ATOM     88  O   UNL     1      -6.739   3.680  16.196  1.00  0.00    -0.237 OA
ATOM     89  O   UNL     1      -5.263   4.710  17.890  1.00  0.00    -0.237 OA
ATOM     90  O   UNL     1      -7.605   5.454  17.677  1.00  0.00    -0.744 OA
ENDBRANCH  86  87
ENDBRANCH  65  79
BRANCH  66  91
ATOM     91  C   UNL     1      -2.977  13.759   6.062  1.00  0.00     0.058 A 
ATOM     92  C   UNL     1      -1.730  14.367   5.862  1.00  0.00     0.135 A 
ATOM     93  C   UNL     1      -3.970  13.967   5.090  1.00  0.00     0.135 A 
ATOM     94  F   UNL     1      -0.755  14.214   6.771  1.00  0.00    -0.206 F 
ATOM     95  C   UNL     1      -1.470  15.140   4.734  1.00  0.00     0.059 A 
ATOM     96  C   UNL     1      -3.725  14.713   3.942  1.00  0.00     0.059 A 
ATOM     97  F   UNL     1      -5.180  13.405   5.234  1.00  0.00    -0.206 F 
ATOM     98  C   UNL     1      -2.470  15.294   3.771  1.00  0.00     0.060 A 
BRANCH  98  99
ATOM     99  S   UNL     1      -2.082  16.206   2.262  1.00  0.00     0.124 S 
ATOM    100  O   UNL     1      -1.982  17.573   2.760  1.00  0.00    -0.237 OA
ATOM    101  O   UNL     1      -0.827  15.585   1.847  1.00  0.00    -0.237 OA
ATOM    102  O   UNL     1      -3.225  15.931   1.398  1.00  0.00    -0.744 OA
ENDBRANCH  98  99
ENDBRANCH  66  91
BRANCH  78 103
ATOM    103  C   UNL     1      -3.699  14.903  12.927  1.00  0.00     0.058 A 
ATOM    104  C   UNL     1      -4.660  15.925  12.868  1.00  0.00     0.135 A 
ATOM    105  C   UNL     1      -2.648  15.050  13.849  1.00  0.00     0.135 A 
ATOM    106  F   UNL     1      -5.684  15.842  12.004  1.00  0.00    -0.206 F 
ATOM    107  C   UNL     1      -4.567  17.061  13.669  1.00  0.00     0.059 A 
ATOM    108  C   UNL     1      -2.553  16.161  14.682  1.00  0.00     0.059 A 
ATOM    109  F   UNL     1      -1.707  14.099  13.959  1.00  0.00    -0.206 F 
ATOM    110  C   UNL     1      -3.510  17.169  14.575  1.00  0.00     0.060 A 
BRANCH 110 111
ATOM    111  S   UNL     1      -3.413  18.636  15.623  1.00  0.00     0.124 S 
ATOM    112  O   UNL     1      -3.019  19.660  14.660  1.00  0.00    -0.237 OA
ATOM    113  O   UNL     1      -4.774  18.741  16.140  1.00  0.00    -0.237 OA
ATOM    114  O   UNL     1      -2.399  18.283  16.611  1.00  0.00    -0.744 OA
ENDBRANCH 110 111
ENDBRANCH  78 103
ENDBRANCH  52  53
ENDBRANCH  45  47
ENDBRANCH  44  45
ENDBRANCH  43  44
ENDBRANCH  42  43
ENDBRANCH  41  42
ENDBRANCH  40  41
ENDBRANCH  39  40
ENDBRANCH  38  39
ENDBRANCH   1  38
TORSDOF 27
