REMARK SMILES C/C(C(=O)NCc1cscc1C)=C(\C)C(=O)OCCOCCOCCOC(=O)c1ccc(-c2c3nc(c(-c4c(F)cc(S(=O)(=O)[O-])cc4F)c4ccc([nH]4)c(-c4c(F)cc(S(=O)(=O)[O-])cc4F)c4nc(c(-c5c(F)cc(S(=O)(=O)[O-])cc5F)c5ccc2[nH]5)C=C4)C=C3)cc1
REMARK SMILES IDX 21 1 20 2 19 3 18 4 17 5 15 6 16 7 13 8 1 9 2 10 14 11 3 12
REMARK SMILES IDX 4 13 5 14 6 16 7 17 8 18 11 19 9 20 10 21 12 22 22 23 23 24
REMARK SMILES IDX 24 25 25 26 26 27 27 28 28 29 29 30 30 31 94 32 31 33 93 34
REMARK SMILES IDX 32 35 33 36 34 37 87 38 35 39 92 40 86 41 88 42 36 43 91 44
REMARK SMILES IDX 85 45 84 46 37 48 71 49 50 50 70 51 51 52 54 53 69 54 89 55
REMARK SMILES IDX 52 56 53 57 68 59 90 60 55 61 38 62 39 63 48 64 40 65 41 66
REMARK SMILES IDX 47 67 49 68 42 69 43 70 44 71 45 72 46 73 72 74 73 75 82 76
REMARK SMILES IDX 74 77 75 78 81 79 83 80 76 81 77 82 78 83 79 84 80 85 56 86
REMARK SMILES IDX 57 87 66 88 58 89 59 90 65 91 67 92 60 93 61 94 62 95 63 96
REMARK SMILES IDX 64 97
REMARK H PARENT 5 15 88 47 54 58
REMARK Flexibility Score: inf
ROOT
ATOM      1  C   UNL     1       0.880  -4.330   3.117  1.00  0.00     0.188 C 
ENDROOT
BRANCH   1   2
ATOM      2  O   UNL     1       0.531  -5.707   3.012  1.00  0.00    -0.376 OA
BRANCH   2   3
ATOM      3  C   UNL     1      -0.684  -5.963   2.320  1.00  0.00     0.202 C 
BRANCH   3   4
ATOM      4  C   UNL     1      -0.558  -5.838   0.800  1.00  0.00     0.261 C 
BRANCH   4   5
ATOM      5  O   UNL     1       0.085  -4.621   0.400  1.00  0.00    -0.460 OA
BRANCH   5   6
ATOM      6  C   UNL     1      -0.657  -3.576  -0.036  1.00  0.00     0.334 C 
ATOM      7  O   UNL     1      -1.863  -3.543  -0.198  1.00  0.00    -0.247 OA
BRANCH   6   8
ATOM      8  C   UNL     1       0.321  -2.526  -0.460  1.00  0.00     0.042 C 
ATOM      9  C   UNL     1       1.573  -0.401  -0.305  1.00  0.00     0.051 C 
ATOM     10  C   UNL     1       0.435  -1.296   0.104  1.00  0.00     0.024 C 
ATOM     11  C   UNL     1       1.228  -3.034  -1.555  1.00  0.00     0.053 C 
BRANCH  10  12
ATOM     12  C   UNL     1      -0.442  -0.893   1.262  1.00  0.00     0.247 C 
ATOM     13  O   UNL     1      -0.970  -1.749   1.970  1.00  0.00    -0.270 OA
ATOM     14  N   UNL     1      -0.627   0.405   1.628  1.00  0.00    -0.348 N 
ATOM     15  H   UNL     1      -1.209   0.526   2.412  1.00  0.00     0.164 HD
BRANCH  14  16
ATOM     16  C   UNL     1      -0.117   1.636   1.067  1.00  0.00     0.153 C 
BRANCH  16  17
ATOM     17  C   UNL     1      -0.688   2.892   1.650  1.00  0.00    -0.015 A 
ATOM     18  C   UNL     1      -1.638   2.995   2.647  1.00  0.00     0.070 A 
ATOM     19  C   UNL     1      -0.255   4.217   1.225  1.00  0.00    -0.035 A 
ATOM     20  S   UNL     1      -1.912   4.599   3.130  1.00  0.00    -0.152 S 
ATOM     21  C   UNL     1      -0.850   5.214   1.970  1.00  0.00     0.068 A 
ATOM     22  C   UNL     1       0.715   4.516   0.132  1.00  0.00     0.045 C 
ENDBRANCH  16  17
ENDBRANCH  14  16
ENDBRANCH  10  12
ENDBRANCH   6   8
ENDBRANCH   5   6
ENDBRANCH   4   5
ENDBRANCH   3   4
ENDBRANCH   2   3
ENDBRANCH   1   2
BRANCH   1  23
ATOM     23  C   UNL     1       2.208  -3.974   2.417  1.00  0.00     0.188 C 
BRANCH  23  24
ATOM     24  O   UNL     1       3.213  -4.960   2.205  1.00  0.00    -0.376 OA
BRANCH  24  25
ATOM     25  C   UNL     1       3.353  -6.011   3.146  1.00  0.00     0.202 C 
BRANCH  25  26
ATOM     26  C   UNL     1       3.778  -5.650   4.575  1.00  0.00     0.261 C 
BRANCH  26  27
ATOM     27  O   UNL     1       3.087  -4.535   5.165  1.00  0.00    -0.460 OA
BRANCH  27  28
ATOM     28  C   UNL     1       3.793  -3.377   5.210  1.00  0.00     0.338 C 
ATOM     29  O   UNL     1       4.941  -3.206   4.835  1.00  0.00    -0.246 OA
BRANCH  28  30
ATOM     30  C   UNL     1       2.929  -2.259   5.653  1.00  0.00     0.060 A 
ATOM     31  C   UNL     1       2.840  -1.130   4.827  1.00  0.00     0.016 A 
ATOM     32  C   UNL     1       2.298  -2.265   6.899  1.00  0.00     0.016 A 
ATOM     33  C   UNL     1       2.155   0.008   5.258  1.00  0.00     0.010 A 
ATOM     34  C   UNL     1       1.629  -1.113   7.340  1.00  0.00     0.010 A 
ATOM     35  C   UNL     1       1.585   0.042   6.538  1.00  0.00    -0.014 A 
BRANCH  35  36
ATOM     36  C   UNL     1       1.119   1.347   7.085  1.00  0.00     0.031 A 
ATOM     37  C   UNL     1       2.088   2.169   7.896  1.00  0.00     0.074 A 
ATOM     38  C   UNL     1      -0.125   1.803   6.843  1.00  0.00     0.049 A 
ATOM     39  N   UNL     1       1.953   3.377   8.376  1.00  0.00    -0.248 NA
ATOM     40  C   UNL     1       3.380   1.538   8.216  1.00  0.00     0.031 C 
ATOM     41  C   UNL     1      -1.144   1.079   6.087  1.00  0.00     0.029 A 
ATOM     42  N   UNL     1      -0.744   2.982   7.191  1.00  0.00    -0.354 N 
ATOM     43  C   UNL     1       3.124   3.640   9.079  1.00  0.00     0.074 A 
ATOM     44  C   UNL     1       3.958   2.464   8.967  1.00  0.00     0.031 C 
ATOM     45  C   UNL     1      -2.249   1.841   6.004  1.00  0.00     0.029 A 
ATOM     46  C   UNL     1      -2.027   3.112   6.697  1.00  0.00     0.049 A 
ATOM     47  H   UNL     1      -0.310   3.673   7.743  1.00  0.00     0.167 HD
ATOM     48  C   UNL     1       3.467   4.758   9.763  1.00  0.00     0.037 A 
ATOM     49  C   UNL     1      -2.897   4.149   6.768  1.00  0.00     0.037 A 
ATOM     50  C   UNL     1       2.633   5.928   9.856  1.00  0.00     0.049 A 
ATOM     51  C   UNL     1      -2.441   5.408   7.479  1.00  0.00     0.074 A 
ATOM     52  C   UNL     1       2.892   7.123  10.505  1.00  0.00     0.029 A 
ATOM     53  N   UNL     1       1.374   6.048   9.285  1.00  0.00    -0.354 N 
ATOM     54  N   UNL     1      -1.272   5.688   8.011  1.00  0.00    -0.248 NA
ATOM     55  C   UNL     1      -3.416   6.503   7.582  1.00  0.00     0.031 C 
ATOM     56  C   UNL     1       1.770   7.948  10.364  1.00  0.00     0.029 A 
ATOM     57  C   UNL     1       0.832   7.285   9.590  1.00  0.00     0.049 A 
ATOM     58  H   UNL     1       0.931   5.355   8.744  1.00  0.00     0.167 HD
ATOM     59  C   UNL     1      -1.365   7.000   8.469  1.00  0.00     0.074 A 
ATOM     60  C   UNL     1      -2.679   7.476   8.095  1.00  0.00     0.031 C 
ATOM     61  C   UNL     1      -0.466   7.744   9.165  1.00  0.00     0.037 A 
BRANCH  48  62
ATOM     62  C   UNL     1       4.777   4.755  10.502  1.00  0.00     0.058 A 
ATOM     63  C   UNL     1       6.010   4.828   9.835  1.00  0.00     0.135 A 
ATOM     64  C   UNL     1       4.796   4.710  11.906  1.00  0.00     0.135 A 
ATOM     65  F   UNL     1       6.053   4.854   8.493  1.00  0.00    -0.206 F 
ATOM     66  C   UNL     1       7.215   4.836  10.532  1.00  0.00     0.059 A 
ATOM     67  C   UNL     1       5.987   4.743  12.625  1.00  0.00     0.059 A 
ATOM     68  F   UNL     1       3.646   4.636  12.595  1.00  0.00    -0.206 F 
ATOM     69  C   UNL     1       7.193   4.793  11.928  1.00  0.00     0.060 A 
BRANCH  69  70
ATOM     70  S   UNL     1       8.763   4.814  12.820  1.00  0.00     0.124 S 
ATOM     71  O   UNL     1       9.261   3.466  12.566  1.00  0.00    -0.237 OA
ATOM     72  O   UNL     1       9.487   5.892  12.152  1.00  0.00    -0.237 OA
ATOM     73  O   UNL     1       8.369   5.089  14.198  1.00  0.00    -0.744 OA
ENDBRANCH  69  70
ENDBRANCH  48  62
BRANCH  49  74
ATOM     74  C   UNL     1      -4.223   4.104   6.055  1.00  0.00     0.058 A 
ATOM     75  C   UNL     1      -4.564   5.068   5.085  1.00  0.00     0.135 A 
ATOM     76  C   UNL     1      -5.168   3.091   6.280  1.00  0.00     0.135 A 
ATOM     77  F   UNL     1      -3.763   6.122   4.866  1.00  0.00    -0.206 F 
ATOM     78  C   UNL     1      -5.724   4.989   4.322  1.00  0.00     0.059 A 
ATOM     79  C   UNL     1      -6.333   2.978   5.519  1.00  0.00     0.059 A 
ATOM     80  F   UNL     1      -4.950   2.165   7.228  1.00  0.00    -0.206 F 
ATOM     81  C   UNL     1      -6.592   3.922   4.528  1.00  0.00     0.060 A 
BRANCH  81  82
ATOM     82  S   UNL     1      -8.040   3.784   3.459  1.00  0.00     0.124 S 
ATOM     83  O   UNL     1      -8.769   5.005   3.780  1.00  0.00    -0.237 OA
ATOM     84  O   UNL     1      -7.431   3.735   2.133  1.00  0.00    -0.237 OA
ATOM     85  O   UNL     1      -8.668   2.542   3.902  1.00  0.00    -0.744 OA
ENDBRANCH  81  82
ENDBRANCH  49  74
BRANCH  61  86
ATOM     86  C   UNL     1      -0.876   9.145   9.541  1.00  0.00     0.058 A 
ATOM     87  C   UNL     1      -1.894   9.382  10.480  1.00  0.00     0.135 A 
ATOM     88  C   UNL     1      -0.239  10.260   8.975  1.00  0.00     0.135 A 
ATOM     89  F   UNL     1      -2.534   8.352  11.058  1.00  0.00    -0.206 F 
ATOM     90  C   UNL     1      -2.305  10.671  10.800  1.00  0.00     0.059 A 
ATOM     91  C   UNL     1      -0.610  11.561   9.308  1.00  0.00     0.059 A 
ATOM     92  F   UNL     1       0.757  10.095   8.090  1.00  0.00    -0.206 F 
ATOM     93  C   UNL     1      -1.661  11.755  10.203  1.00  0.00     0.060 A 
BRANCH  93  94
ATOM     94  S   UNL     1      -2.207  13.423  10.624  1.00  0.00     0.124 S 
ATOM     95  O   UNL     1      -3.434  13.535   9.843  1.00  0.00    -0.237 OA
ATOM     96  O   UNL     1      -2.382  13.342  12.071  1.00  0.00    -0.237 OA
ATOM     97  O   UNL     1      -1.099  14.264  10.179  1.00  0.00    -0.744 OA
ENDBRANCH  93  94
ENDBRANCH  61  86
ENDBRANCH  35  36
ENDBRANCH  28  30
ENDBRANCH  27  28
ENDBRANCH  26  27
ENDBRANCH  25  26
ENDBRANCH  24  25
ENDBRANCH  23  24
ENDBRANCH   1  23
TORSDOF 23
