REMARK SMILES Cc1n[nH]c(C[N@H+]2CCC[C@H](c3cccc(C(=O)OCCOCCOCCOC(=O)c4ccc(-c5c6nc(c(-c7c(F)cc(S(=O)(=O)[O-])cc7F)c7ccc([nH]7)c(-c7c(F)cc(S(=O)(=O)[O-])cc7F)c7nc(c(-c8c(F)cc(S(=O)(=O)[O-])cc8F)c8ccc5[nH]8)C=C7)C=C6)cc4)c3)C2)n1
REMARK SMILES IDX 23 1 22 2 21 3 20 4 19 5 17 6 18 7 16 8 12 9 13 10 97 11
REMARK SMILES IDX 14 12 15 13 11 14 7 15 8 16 98 17 9 19 10 20 6 21 5 22 1 23
REMARK SMILES IDX 2 24 3 25 99 26 4 27 24 29 25 30 26 31 27 32 28 33 29 34
REMARK SMILES IDX 30 35 31 36 32 37 96 38 33 39 95 40 34 41 35 42 36 43 89 44
REMARK SMILES IDX 37 45 94 46 88 47 90 48 38 49 93 50 87 51 86 52 39 54 73 55
REMARK SMILES IDX 52 56 72 57 53 58 56 59 71 60 91 61 54 62 55 63 70 65 92 66
REMARK SMILES IDX 57 67 40 68 41 69 50 70 42 71 43 72 49 73 51 74 44 75 45 76
REMARK SMILES IDX 46 77 47 78 48 79 74 80 75 81 84 82 76 83 77 84 83 85 85 86
REMARK SMILES IDX 78 87 79 88 80 89 81 90 82 91 58 92 59 93 68 94 60 95 61 96
REMARK SMILES IDX 67 97 69 98 62 99 63 100 64 101 65 102 66 103
REMARK H PARENT 7 18 4 28 90 53 56 64
REMARK Flexibility Score: inf
ROOT
ATOM      1  C   UNL     1      -1.884  11.527  -2.104  1.00  0.00     0.188 C 
ENDROOT
BRANCH   1   2
ATOM      2  O   UNL     1      -2.814  12.514  -1.716  1.00  0.00    -0.376 OA
BRANCH   2   3
ATOM      3  C   UNL     1      -4.123  12.177  -1.294  1.00  0.00     0.202 C 
BRANCH   3   4
ATOM      4  C   UNL     1      -4.871  10.873  -1.643  1.00  0.00     0.261 C 
BRANCH   4   5
ATOM      5  O   UNL     1      -4.074   9.718  -1.905  1.00  0.00    -0.460 OA
BRANCH   5   6
ATOM      6  C   UNL     1      -4.027   9.302  -3.192  1.00  0.00     0.338 C 
ATOM      7  O   UNL     1      -4.657   9.752  -4.136  1.00  0.00    -0.246 OA
BRANCH   6   8
ATOM      8  C   UNL     1      -2.920   8.333  -3.336  1.00  0.00     0.060 A 
ATOM      9  C   UNL     1      -1.665   6.391  -2.562  1.00  0.00    -0.038 A 
ATOM     10  C   UNL     1      -0.728   6.646  -3.579  1.00  0.00     0.004 A 
ATOM     11  C   UNL     1      -2.731   7.297  -2.415  1.00  0.00     0.020 A 
ATOM     12  C   UNL     1      -0.896   7.702  -4.478  1.00  0.00     0.001 A 
ATOM     13  C   UNL     1      -2.009   8.526  -4.378  1.00  0.00     0.016 A 
BRANCH   9  14
ATOM     14  C   UNL     1      -1.563   5.172  -1.640  1.00  0.00     0.074 C 
ATOM     15  N   UNL     1      -0.996   3.442  -3.373  1.00  0.00    -0.328 N 
ATOM     16  C   UNL     1      -2.324   2.828  -3.266  1.00  0.00     0.262 C 
ATOM     17  C   UNL     1      -0.573   4.069  -2.101  1.00  0.00     0.270 C 
ATOM     18  H   UNL     1      -1.086   4.189  -4.062  1.00  0.00     0.348 HD
ATOM     19  C   UNL     1      -3.378   3.810  -2.751  1.00  0.00     0.062 C 
ATOM     20  C   UNL     1      -2.928   4.469  -1.447  1.00  0.00     0.020 C 
BRANCH  15  21
ATOM     21  C   UNL     1       0.026   2.527  -3.911  1.00  0.00     0.340 C 
BRANCH  21  22
ATOM     22  C   UNL     1       0.316   1.350  -3.043  1.00  0.00     0.179 A 
ATOM     23  C   UNL     1       1.113  -0.363  -0.075  1.00  0.00     0.092 C 
ATOM     24  C   UNL     1       0.731   0.050  -1.438  1.00  0.00     0.147 A 
ATOM     25  N   UNL     1       0.143  -0.762  -2.325  1.00  0.00    -0.159 NA
ATOM     26  N   UNL     1       0.896   1.338  -1.862  1.00  0.00    -0.211 NA
ATOM     27  N   UNL     1      -0.092   0.083  -3.344  1.00  0.00    -0.258 N 
ATOM     28  H   UNL     1      -0.505  -0.179  -4.198  1.00  0.00     0.192 HD
ENDBRANCH  21  22
ENDBRANCH  15  21
ENDBRANCH   9  14
ENDBRANCH   6   8
ENDBRANCH   5   6
ENDBRANCH   4   5
ENDBRANCH   3   4
ENDBRANCH   2   3
ENDBRANCH   1   2
BRANCH   1  29
ATOM     29  C   UNL     1      -1.369  10.496  -1.080  1.00  0.00     0.188 C 
BRANCH  29  30
ATOM     30  O   UNL     1      -2.147  10.200   0.059  1.00  0.00    -0.376 OA
BRANCH  30  31
ATOM     31  C   UNL     1      -2.201  11.044   1.195  1.00  0.00     0.202 C 
BRANCH  31  32
ATOM     32  C   UNL     1      -1.353  12.290   1.442  1.00  0.00     0.261 C 
BRANCH  32  33
ATOM     33  O   UNL     1      -0.694  12.841   0.325  1.00  0.00    -0.460 OA
BRANCH  33  34
ATOM     34  C   UNL     1       0.595  12.454   0.235  1.00  0.00     0.338 C 
ATOM     35  O   UNL     1       1.119  11.501   0.789  1.00  0.00    -0.246 OA
BRANCH  34  36
ATOM     36  C   UNL     1       1.328  13.440  -0.552  1.00  0.00     0.060 A 
ATOM     37  C   UNL     1       2.619  13.084  -0.939  1.00  0.00     0.016 A 
ATOM     38  C   UNL     1       0.867  14.764  -0.570  1.00  0.00     0.016 A 
ATOM     39  C   UNL     1       3.531  14.093  -1.119  1.00  0.00     0.010 A 
ATOM     40  C   UNL     1       1.784  15.770  -0.735  1.00  0.00     0.010 A 
ATOM     41  C   UNL     1       3.117  15.416  -0.916  1.00  0.00    -0.014 A 
BRANCH  41  42
ATOM     42  C   UNL     1       4.121  16.447  -1.034  1.00  0.00     0.031 A 
ATOM     43  C   UNL     1       4.511  16.638  -2.442  1.00  0.00     0.074 A 
ATOM     44  C   UNL     1       4.553  17.171   0.016  1.00  0.00     0.049 A 
ATOM     45  N   UNL     1       5.599  16.244  -3.012  1.00  0.00    -0.248 NA
ATOM     46  C   UNL     1       3.475  17.103  -3.384  1.00  0.00     0.031 C 
ATOM     47  C   UNL     1       3.967  17.202   1.361  1.00  0.00     0.029 A 
ATOM     48  N   UNL     1       5.534  18.116   0.088  1.00  0.00    -0.354 N 
ATOM     49  C   UNL     1       5.508  16.743  -4.305  1.00  0.00     0.074 A 
ATOM     50  C   UNL     1       4.114  16.993  -4.551  1.00  0.00     0.031 C 
ATOM     51  C   UNL     1       4.439  18.280   2.027  1.00  0.00     0.029 A 
ATOM     52  C   UNL     1       5.458  18.926   1.218  1.00  0.00     0.049 A 
ATOM     53  H   UNL     1       6.233  18.215  -0.597  1.00  0.00     0.167 HD
ATOM     54  C   UNL     1       6.604  17.315  -4.869  1.00  0.00     0.037 A 
ATOM     55  C   UNL     1       6.144  20.077   1.434  1.00  0.00     0.037 A 
ATOM     56  C   UNL     1       7.804  16.925  -4.174  1.00  0.00     0.049 A 
ATOM     57  C   UNL     1       7.353  20.041   0.574  1.00  0.00     0.074 A 
ATOM     58  C   UNL     1       8.578  15.790  -4.064  1.00  0.00     0.029 A 
ATOM     59  N   UNL     1       8.097  17.723  -3.101  1.00  0.00    -0.354 N 
ATOM     60  N   UNL     1       8.320  19.177   0.734  1.00  0.00    -0.248 NA
ATOM     61  C   UNL     1       7.345  20.735  -0.710  1.00  0.00     0.031 C 
ATOM     62  C   UNL     1       9.285  15.900  -2.829  1.00  0.00     0.029 A 
ATOM     63  C   UNL     1       8.962  17.115  -2.231  1.00  0.00     0.049 A 
ATOM     64  H   UNL     1       7.729  18.626  -2.970  1.00  0.00     0.167 HD
ATOM     65  C   UNL     1       8.756  18.912  -0.549  1.00  0.00     0.074 A 
ATOM     66  C   UNL     1       8.258  20.012  -1.364  1.00  0.00     0.031 C 
ATOM     67  C   UNL     1       9.166  17.661  -0.906  1.00  0.00     0.037 A 
BRANCH  54  68
ATOM     68  C   UNL     1       6.543  18.611  -5.651  1.00  0.00     0.058 A 
ATOM     69  C   UNL     1       7.674  19.032  -6.374  1.00  0.00     0.135 A 
ATOM     70  C   UNL     1       5.529  19.586  -5.490  1.00  0.00     0.135 A 
ATOM     71  F   UNL     1       8.720  18.206  -6.542  1.00  0.00    -0.206 F 
ATOM     72  C   UNL     1       7.791  20.325  -6.890  1.00  0.00     0.059 A 
ATOM     73  C   UNL     1       5.597  20.855  -6.045  1.00  0.00     0.059 A 
ATOM     74  F   UNL     1       4.464  19.396  -4.704  1.00  0.00    -0.206 F 
ATOM     75  C   UNL     1       6.743  21.228  -6.722  1.00  0.00     0.060 A 
BRANCH  75  76
ATOM     76  S   UNL     1       6.891  22.903  -7.363  1.00  0.00     0.124 S 
ATOM     77  O   UNL     1       7.888  23.472  -6.465  1.00  0.00    -0.237 OA
ATOM     78  O   UNL     1       7.323  22.662  -8.736  1.00  0.00    -0.237 OA
ATOM     79  O   UNL     1       5.537  23.433  -7.225  1.00  0.00    -0.744 OA
ENDBRANCH  75  76
ENDBRANCH  54  68
BRANCH  55  80
ATOM     80  C   UNL     1       5.668  21.327   2.087  1.00  0.00     0.058 A 
ATOM     81  C   UNL     1       6.562  22.368   2.402  1.00  0.00     0.135 A 
ATOM     82  C   UNL     1       4.298  21.652   2.143  1.00  0.00     0.135 A 
ATOM     83  F   UNL     1       7.887  22.153   2.366  1.00  0.00    -0.206 F 
ATOM     84  C   UNL     1       6.128  23.668   2.684  1.00  0.00     0.059 A 
ATOM     85  C   UNL     1       3.841  22.937   2.433  1.00  0.00     0.059 A 
ATOM     86  F   UNL     1       3.357  20.751   1.824  1.00  0.00    -0.206 F 
ATOM     87  C   UNL     1       4.763  23.949   2.672  1.00  0.00     0.060 A 
BRANCH  87  88
ATOM     88  S   UNL     1       4.204  25.661   2.840  1.00  0.00     0.124 S 
ATOM     89  O   UNL     1       4.504  25.939   4.241  1.00  0.00    -0.237 OA
ATOM     90  O   UNL     1       5.033  26.355   1.861  1.00  0.00    -0.237 OA
ATOM     91  O   UNL     1       2.783  25.587   2.509  1.00  0.00    -0.744 OA
ENDBRANCH  87  88
ENDBRANCH  55  80
BRANCH  67  92
ATOM     92  C   UNL     1       9.755  16.785   0.159  1.00  0.00     0.058 A 
ATOM     93  C   UNL     1       9.066  16.272   1.270  1.00  0.00     0.135 A 
ATOM     94  C   UNL     1      11.100  16.412   0.009  1.00  0.00     0.135 A 
ATOM     95  F   UNL     1       7.757  16.515   1.442  1.00  0.00    -0.206 F 
ATOM     96  C   UNL     1       9.703  15.462   2.214  1.00  0.00     0.059 A 
ATOM     97  C   UNL     1      11.745  15.582   0.916  1.00  0.00     0.059 A 
ATOM     98  F   UNL     1      11.802  16.838  -1.056  1.00  0.00    -0.206 F 
ATOM     99  C   UNL     1      11.046  15.125   2.029  1.00  0.00     0.060 A 
BRANCH  99 100
ATOM    100  S   UNL     1      11.868  14.055   3.228  1.00  0.00     0.124 S 
ATOM    101  O   UNL     1      11.949  14.916   4.403  1.00  0.00    -0.237 OA
ATOM    102  O   UNL     1      10.946  12.928   3.329  1.00  0.00    -0.237 OA
ATOM    103  O   UNL     1      13.147  13.748   2.592  1.00  0.00    -0.744 OA
ENDBRANCH  99 100
ENDBRANCH  67  92
ENDBRANCH  41  42
ENDBRANCH  34  36
ENDBRANCH  33  34
ENDBRANCH  32  33
ENDBRANCH  31  32
ENDBRANCH  30  31
ENDBRANCH  29  30
ENDBRANCH   1  29
TORSDOF 23
