REMARK SMILES Cc1cc(Cl)cc2c1O[C@H](C(F)(F)F)C(C(=O)OCCOCCOCCOC(=O)c1ccc(-c3c4nc(c(-c5c(F)cc(S(=O)(=O)[O-])cc5F)c5ccc([nH]5)c(-c5c(F)cc(S(=O)(=O)[O-])cc5F)c5nc(c(-c6c(F)cc(S(=O)(=O)[O-])cc6F)c6ccc3[nH]6)C=C5)C=C4)cc1)=C2
REMARK SMILES IDX 23 1 22 2 21 3 20 4 19 5 18 6 16 7 17 8 15 9 1 10 2 11 3 12
REMARK SMILES IDX 8 13 4 14 7 15 9 16 5 17 6 18 96 19 10 20 11 21 12 22 13 23
REMARK SMILES IDX 14 24 24 25 25 26 26 27 27 28 28 29 29 30 30 31 31 32 95 33
REMARK SMILES IDX 32 34 94 35 33 36 34 37 35 38 88 39 36 40 93 41 87 42 89 43
REMARK SMILES IDX 37 44 92 45 86 46 85 47 38 49 72 50 51 51 71 52 52 53 55 54
REMARK SMILES IDX 70 55 90 56 53 57 54 58 69 60 91 61 56 62 39 63 40 64 49 65
REMARK SMILES IDX 41 66 42 67 48 68 50 69 43 70 44 71 45 72 46 73 47 74 73 75
REMARK SMILES IDX 74 76 83 77 75 78 76 79 82 80 84 81 77 82 78 83 79 84 80 85
REMARK SMILES IDX 81 86 57 87 58 88 67 89 59 90 60 91 66 92 68 93 61 94 62 95
REMARK SMILES IDX 63 96 64 97 65 98
REMARK H PARENT 89 48 55 59
REMARK Flexibility Score: inf
ROOT
ATOM      1  C   UNL     1      -3.446  -3.482  -4.484  1.00  0.00     0.188 C 
ENDROOT
BRANCH   1   2
ATOM      2  C   UNL     1      -3.157  -3.389  -5.998  1.00  0.00     0.188 C 
BRANCH   2   3
ATOM      3  O   UNL     1      -3.204  -4.538  -6.820  1.00  0.00    -0.376 OA
BRANCH   3   4
ATOM      4  C   UNL     1      -2.388  -5.666  -6.558  1.00  0.00     0.202 C 
BRANCH   4   5
ATOM      5  C   UNL     1      -0.931  -5.529  -6.112  1.00  0.00     0.261 C 
BRANCH   5   6
ATOM      6  O   UNL     1      -0.718  -4.574  -5.067  1.00  0.00    -0.460 OA
BRANCH   6   7
ATOM      7  C   UNL     1       0.147  -3.579  -5.376  1.00  0.00     0.338 C 
ATOM      8  O   UNL     1       0.773  -3.449  -6.416  1.00  0.00    -0.246 OA
BRANCH   7   9
ATOM      9  C   UNL     1       0.157  -2.578  -4.296  1.00  0.00     0.087 C 
ATOM     10  C   UNL     1       0.900  -0.017   0.086  1.00  0.00     0.048 C 
ATOM     11  C   UNL     1       0.529   0.340  -1.326  1.00  0.00    -0.007 A 
ATOM     12  C   UNL     1       0.455   1.692  -1.694  1.00  0.00     0.027 A 
ATOM     13  C   UNL     1       0.348  -0.646  -2.311  1.00  0.00     0.131 A 
ATOM     14  C   UNL     1       0.178   2.050  -3.012  1.00  0.00     0.042 A 
ATOM     15  C   UNL     1       0.104  -0.280  -3.640  1.00  0.00     0.019 A 
ATOM     16  O   UNL     1       0.440  -1.948  -1.902  1.00  0.00    -0.475 OA
ATOM     17  Cl  UNL     1       0.090   3.712  -3.442  1.00  0.00    -0.084 Cl
ATOM     18  C   UNL     1       0.000   1.072  -3.986  1.00  0.00     0.032 A 
ATOM     19  C   UNL     1       0.027  -1.300  -4.671  1.00  0.00     0.027 C 
ATOM     20  C   UNL     1       0.320  -3.023  -2.871  1.00  0.00     0.316 C 
BRANCH  20  21
ATOM     21  C   UNL     1       1.518  -3.964  -2.676  1.00  0.00     0.430 C 
ATOM     22  F   UNL     1       1.647  -4.328  -1.376  1.00  0.00    -0.167 F 
ATOM     23  F   UNL     1       1.383  -5.112  -3.381  1.00  0.00    -0.167 F 
ATOM     24  F   UNL     1       2.683  -3.392  -3.053  1.00  0.00    -0.167 F 
ENDBRANCH  20  21
ENDBRANCH   7   9
ENDBRANCH   6   7
ENDBRANCH   5   6
ENDBRANCH   4   5
ENDBRANCH   3   4
ENDBRANCH   2   3
ENDBRANCH   1   2
BRANCH   1  25
ATOM     25  O   UNL     1      -3.890  -4.688  -3.894  1.00  0.00    -0.376 OA
BRANCH  25  26
ATOM     26  C   UNL     1      -5.039  -5.340  -4.414  1.00  0.00     0.202 C 
BRANCH  26  27
ATOM     27  C   UNL     1      -6.342  -4.575  -4.668  1.00  0.00     0.261 C 
BRANCH  27  28
ATOM     28  O   UNL     1      -6.188  -3.383  -5.447  1.00  0.00    -0.460 OA
BRANCH  28  29
ATOM     29  C   UNL     1      -6.507  -2.234  -4.801  1.00  0.00     0.338 C 
ATOM     30  O   UNL     1      -6.918  -2.118  -3.659  1.00  0.00    -0.246 OA
BRANCH  29  31
ATOM     31  C   UNL     1      -6.099  -1.084  -5.627  1.00  0.00     0.060 A 
ATOM     32  C   UNL     1      -5.139  -0.205  -5.108  1.00  0.00     0.016 A 
ATOM     33  C   UNL     1      -6.687  -0.847  -6.870  1.00  0.00     0.016 A 
ATOM     34  C   UNL     1      -4.778   0.933  -5.825  1.00  0.00     0.010 A 
ATOM     35  C   UNL     1      -6.345   0.311  -7.575  1.00  0.00     0.010 A 
ATOM     36  C   UNL     1      -5.411   1.218  -7.042  1.00  0.00    -0.014 A 
BRANCH  36  37
ATOM     37  C   UNL     1      -5.244   2.555  -7.656  1.00  0.00     0.031 A 
ATOM     38  C   UNL     1      -6.234   3.630  -7.301  1.00  0.00     0.074 A 
ATOM     39  C   UNL     1      -4.222   2.818  -8.489  1.00  0.00     0.049 A 
ATOM     40  N   UNL     1      -6.318   4.857  -7.742  1.00  0.00    -0.248 NA
ATOM     41  C   UNL     1      -7.265   3.272  -6.311  1.00  0.00     0.031 C 
ATOM     42  C   UNL     1      -3.172   1.873  -8.865  1.00  0.00     0.029 A 
ATOM     43  N   UNL     1      -3.906   3.964  -9.174  1.00  0.00    -0.354 N 
ATOM     44  C   UNL     1      -7.403   5.420  -7.081  1.00  0.00     0.074 A 
ATOM     45  C   UNL     1      -7.965   4.394  -6.231  1.00  0.00     0.031 C 
ATOM     46  C   UNL     1      -2.330   2.478  -9.724  1.00  0.00     0.029 A 
ATOM     47  C   UNL     1      -2.800   3.839  -9.980  1.00  0.00     0.049 A 
ATOM     48  H   UNL     1      -4.423   4.798  -9.095  1.00  0.00     0.167 HD
ATOM     49  C   UNL     1      -7.882   6.683  -7.169  1.00  0.00     0.037 A 
ATOM     50  C   UNL     1      -2.247   4.718 -10.841  1.00  0.00     0.037 A 
ATOM     51  C   UNL     1      -7.331   7.697  -8.027  1.00  0.00     0.049 A 
ATOM     52  C   UNL     1      -2.860   6.087 -10.996  1.00  0.00     0.074 A 
ATOM     53  C   UNL     1      -7.753   9.004  -8.193  1.00  0.00     0.029 A 
ATOM     54  N   UNL     1      -6.244   7.516  -8.868  1.00  0.00    -0.354 N 
ATOM     55  N   UNL     1      -3.886   6.609 -10.366  1.00  0.00    -0.248 NA
ATOM     56  C   UNL     1      -2.243   6.986 -11.983  1.00  0.00     0.031 C 
ATOM     57  C   UNL     1      -6.947   9.600  -9.169  1.00  0.00     0.029 A 
ATOM     58  C   UNL     1      -5.994   8.680  -9.574  1.00  0.00     0.049 A 
ATOM     59  H   UNL     1      -5.726   6.682  -8.951  1.00  0.00     0.167 HD
ATOM     60  C   UNL     1      -4.023   7.902 -10.863  1.00  0.00     0.074 A 
ATOM     61  C   UNL     1      -2.969   8.087 -11.839  1.00  0.00     0.031 C 
ATOM     62  C   UNL     1      -4.938   8.850 -10.541  1.00  0.00     0.037 A 
BRANCH  49  63
ATOM     63  C   UNL     1      -9.073   7.033  -6.325  1.00  0.00     0.058 A 
ATOM     64  C   UNL     1      -8.960   7.217  -4.938  1.00  0.00     0.135 A 
ATOM     65  C   UNL     1     -10.332   7.229  -6.913  1.00  0.00     0.135 A 
ATOM     66  F   UNL     1      -7.783   7.018  -4.323  1.00  0.00    -0.206 F 
ATOM     67  C   UNL     1     -10.057   7.573  -4.161  1.00  0.00     0.059 A 
ATOM     68  C   UNL     1     -11.438   7.608  -6.159  1.00  0.00     0.059 A 
ATOM     69  F   UNL     1     -10.495   7.057  -8.235  1.00  0.00    -0.206 F 
ATOM     70  C   UNL     1     -11.292   7.770  -4.782  1.00  0.00     0.060 A 
BRANCH  70  71
ATOM     71  S   UNL     1     -12.700   8.253  -3.761  1.00  0.00     0.124 S 
ATOM     72  O   UNL     1     -12.953   7.024  -3.014  1.00  0.00    -0.237 OA
ATOM     73  O   UNL     1     -12.156   9.364  -2.987  1.00  0.00    -0.237 OA
ATOM     74  O   UNL     1     -13.722   8.614  -4.738  1.00  0.00    -0.744 OA
ENDBRANCH  70  71
ENDBRANCH  49  63
BRANCH  50  75
ATOM     75  C   UNL     1      -1.052   4.329 -11.636  1.00  0.00     0.058 A 
ATOM     76  C   UNL     1       0.201   4.908 -11.387  1.00  0.00     0.135 A 
ATOM     77  C   UNL     1      -1.139   3.377 -12.664  1.00  0.00     0.135 A 
ATOM     78  F   UNL     1       0.332   5.835 -10.426  1.00  0.00    -0.206 F 
ATOM     79  C   UNL     1       1.324   4.564 -12.133  1.00  0.00     0.059 A 
ATOM     80  C   UNL     1      -0.025   2.999 -13.408  1.00  0.00     0.059 A 
ATOM     81  F   UNL     1      -2.314   2.791 -12.940  1.00  0.00    -0.206 F 
ATOM     82  C   UNL     1       1.201   3.604 -13.139  1.00  0.00     0.060 A 
BRANCH  82  83
ATOM     83  S   UNL     1       2.677   3.130 -14.067  1.00  0.00     0.124 S 
ATOM     84  O   UNL     1       2.915   4.322 -14.872  1.00  0.00    -0.237 OA
ATOM     85  O   UNL     1       3.640   2.878 -12.999  1.00  0.00    -0.237 OA
ATOM     86  O   UNL     1       2.245   1.946 -14.803  1.00  0.00    -0.744 OA
ENDBRANCH  82  83
ENDBRANCH  50  75
BRANCH  62  87
ATOM     87  C   UNL     1      -4.837  10.184 -11.228  1.00  0.00     0.058 A 
ATOM     88  C   UNL     1      -5.225  10.352 -12.565  1.00  0.00     0.135 A 
ATOM     89  C   UNL     1      -4.428  11.323 -10.515  1.00  0.00     0.135 A 
ATOM     90  F   UNL     1      -5.621   9.295 -13.292  1.00  0.00    -0.206 F 
ATOM     91  C   UNL     1      -5.199  11.601 -13.177  1.00  0.00     0.059 A 
ATOM     92  C   UNL     1      -4.417  12.586 -11.099  1.00  0.00     0.059 A 
ATOM     93  F   UNL     1      -4.058  11.219  -9.229  1.00  0.00    -0.206 F 
ATOM     94  C   UNL     1      -4.798  12.714 -12.434  1.00  0.00     0.060 A 
BRANCH  94  95
ATOM     95  S   UNL     1      -4.816  14.335 -13.229  1.00  0.00     0.124 S 
ATOM     96  O   UNL     1      -3.679  14.231 -14.136  1.00  0.00    -0.237 OA
ATOM     97  O   UNL     1      -6.132  14.358 -13.861  1.00  0.00    -0.237 OA
ATOM     98  O   UNL     1      -4.646  15.263 -12.114  1.00  0.00    -0.744 OA
ENDBRANCH  94  95
ENDBRANCH  62  87
ENDBRANCH  36  37
ENDBRANCH  29  31
ENDBRANCH  28  29
ENDBRANCH  27  28
ENDBRANCH  26  27
ENDBRANCH  25  26
ENDBRANCH   1  25
TORSDOF 21
