REMARK SMILES Cc1cccc2c1[C@H]1c3c(C)cccc3[C@H](CC(=O)OCCOCCOCCOC(=O)c3ccc(-c4c5nc(c(-c6c(F)cc(S(=O)(=O)[O-])cc6F)c6ccc([nH]6)c(-c6c(F)cc(S(=O)(=O)[O-])cc6F)c6nc(c(-c7c(F)cc(S(=O)(=O)[O-])cc7F)c7ccc4[nH]7)C=C6)C=C5)cc3)C[C@H]1CC2
REMARK SMILES IDX 25 1 24 2 23 3 22 4 21 5 20 6 18 7 19 8 17 9 16 10 1 11 2 12
REMARK SMILES IDX 3 13 7 14 4 15 6 16 8 17 5 18 101 19 9 20 99 21 100 22 10 23
REMARK SMILES IDX 15 24 98 25 12 26 11 27 14 28 13 29 26 30 27 31 28 32 29 33
REMARK SMILES IDX 30 34 31 35 32 36 33 37 97 38 34 39 96 40 35 41 36 42 37 43
REMARK SMILES IDX 90 44 38 45 95 46 89 47 91 48 39 49 94 50 88 51 87 52 40 54
REMARK SMILES IDX 74 55 53 56 73 57 54 58 57 59 72 60 92 61 55 62 56 63 71 65
REMARK SMILES IDX 93 66 58 67 41 68 42 69 51 70 43 71 44 72 50 73 52 74 45 75
REMARK SMILES IDX 46 76 47 77 48 78 49 79 75 80 76 81 85 82 77 83 78 84 84 85
REMARK SMILES IDX 86 86 79 87 80 88 81 89 82 90 83 91 59 92 60 93 69 94 61 95
REMARK SMILES IDX 62 96 68 97 70 98 63 99 64 100 65 101 66 102 67 103
REMARK H PARENT 91 53 57 64
REMARK Flexibility Score: inf
ROOT
ATOM      1  C   UNL     1      -6.923  -2.135   0.452  1.00  0.00     0.188 C 
ENDROOT
BRANCH   1   2
ATOM      2  C   UNL     1      -7.379  -1.526   1.778  1.00  0.00     0.188 C 
BRANCH   2   3
ATOM      3  O   UNL     1      -8.454  -0.608   1.774  1.00  0.00    -0.376 OA
BRANCH   3   4
ATOM      4  C   UNL     1      -8.114   0.762   1.552  1.00  0.00     0.202 C 
BRANCH   4   5
ATOM      5  C   UNL     1      -7.216   1.463   2.602  1.00  0.00     0.261 C 
BRANCH   5   6
ATOM      6  O   UNL     1      -5.832   1.041   2.526  1.00  0.00    -0.463 OA
BRANCH   6   7
ATOM      7  C   UNL     1      -5.290   0.293   3.514  1.00  0.00     0.306 C 
ATOM      8  O   UNL     1      -5.822   0.121   4.604  1.00  0.00    -0.252 OA
BRANCH   7   9
ATOM      9  C   UNL     1      -3.959  -0.369   3.124  1.00  0.00     0.131 C 
BRANCH   9  10
ATOM     10  C   UNL     1      -3.763  -0.957   1.689  1.00  0.00     0.031 C 
ATOM     11  C   UNL     1       1.708  -0.507  -0.018  1.00  0.00     0.044 C 
ATOM     12  C   UNL     1       0.973  -1.065  -1.209  1.00  0.00    -0.047 A 
ATOM     13  C   UNL     1       1.637  -1.134  -2.443  1.00  0.00     0.004 A 
ATOM     14  C   UNL     1      -0.377  -1.483  -1.131  1.00  0.00    -0.034 A 
ATOM     15  C   UNL     1       1.017  -1.695  -3.557  1.00  0.00     0.001 A 
ATOM     16  C   UNL     1      -0.934  -2.205  -2.211  1.00  0.00    -0.044 A 
ATOM     17  C   UNL     1      -1.255  -1.128   0.065  1.00  0.00     0.053 C 
ATOM     18  C   UNL     1      -0.241  -2.275  -3.427  1.00  0.00     0.004 A 
ATOM     19  C   UNL     1      -2.187  -3.039  -2.054  1.00  0.00     0.036 C 
ATOM     20  C   UNL     1      -2.198   0.094  -0.104  1.00  0.00    -0.034 A 
ATOM     21  C   UNL     1      -2.064  -2.408   0.412  1.00  0.00     0.002 C 
ATOM     22  C   UNL     1      -2.974  -2.826  -0.760  1.00  0.00     0.009 C 
ATOM     23  C   UNL     1      -1.976   1.224  -0.949  1.00  0.00    -0.047 A 
ATOM     24  C   UNL     1      -3.423   0.055   0.603  1.00  0.00    -0.040 A 
ATOM     25  C   UNL     1      -2.814  -2.172   1.725  1.00  0.00     0.013 C 
ATOM     26  C   UNL     1      -2.986   2.194  -1.130  1.00  0.00     0.004 A 
ATOM     27  C   UNL     1      -0.769   1.471  -1.806  1.00  0.00     0.044 C 
ATOM     28  C   UNL     1      -4.456   0.907   0.185  1.00  0.00     0.004 A 
ATOM     29  C   UNL     1      -4.243   2.008  -0.612  1.00  0.00     0.001 A 
ENDBRANCH   9  10
ENDBRANCH   7   9
ENDBRANCH   6   7
ENDBRANCH   5   6
ENDBRANCH   4   5
ENDBRANCH   3   4
ENDBRANCH   2   3
ENDBRANCH   1   2
BRANCH   1  30
ATOM     30  O   UNL     1      -6.944  -1.368  -0.731  1.00  0.00    -0.376 OA
BRANCH  30  31
ATOM     31  C   UNL     1      -8.208  -1.331  -1.402  1.00  0.00     0.202 C 
BRANCH  31  32
ATOM     32  C   UNL     1      -8.886  -2.671  -1.799  1.00  0.00     0.261 C 
BRANCH  32  33
ATOM     33  O   UNL     1      -9.331  -3.475  -0.673  1.00  0.00    -0.460 OA
BRANCH  33  34
ATOM     34  C   UNL     1      -8.696  -4.671  -0.502  1.00  0.00     0.338 C 
ATOM     35  O   UNL     1      -7.907  -5.194  -1.282  1.00  0.00    -0.246 OA
BRANCH  34  36
ATOM     36  C   UNL     1      -8.827  -5.123   0.907  1.00  0.00     0.060 A 
ATOM     37  C   UNL     1      -7.686  -5.134   1.734  1.00  0.00     0.016 A 
ATOM     38  C   UNL     1     -10.040  -5.599   1.395  1.00  0.00     0.016 A 
ATOM     39  C   UNL     1      -7.754  -5.603   3.047  1.00  0.00     0.010 A 
ATOM     40  C   UNL     1     -10.090  -6.141   2.687  1.00  0.00     0.010 A 
ATOM     41  C   UNL     1      -8.944  -6.173   3.505  1.00  0.00    -0.014 A 
BRANCH  41  42
ATOM     42  C   UNL     1      -8.919  -7.072   4.687  1.00  0.00     0.031 A 
ATOM     43  C   UNL     1      -8.573  -8.518   4.447  1.00  0.00     0.074 A 
ATOM     44  C   UNL     1      -9.206  -6.644   5.929  1.00  0.00     0.049 A 
ATOM     45  N   UNL     1      -8.638  -9.537   5.262  1.00  0.00    -0.248 NA
ATOM     46  C   UNL     1      -8.087  -8.857   3.097  1.00  0.00     0.031 C 
ATOM     47  C   UNL     1      -9.462  -5.259   6.315  1.00  0.00     0.029 A 
ATOM     48  N   UNL     1      -9.344  -7.352   7.099  1.00  0.00    -0.354 N 
ATOM     49  C   UNL     1      -8.212 -10.636   4.524  1.00  0.00     0.074 A 
ATOM     50  C   UNL     1      -7.905 -10.164   3.193  1.00  0.00     0.031 C 
ATOM     51  C   UNL     1      -9.758  -5.222   7.628  1.00  0.00     0.029 A 
ATOM     52  C   UNL     1      -9.754  -6.584   8.163  1.00  0.00     0.049 A 
ATOM     53  H   UNL     1      -9.166  -8.318   7.168  1.00  0.00     0.167 HD
ATOM     54  C   UNL     1      -8.089 -11.924   4.918  1.00  0.00     0.037 A 
ATOM     55  C   UNL     1     -10.119  -6.948   9.410  1.00  0.00     0.037 A 
ATOM     56  C   UNL     1      -8.421 -12.397   6.235  1.00  0.00     0.049 A 
ATOM     57  C   UNL     1     -10.095  -8.410   9.792  1.00  0.00     0.074 A 
ATOM     58  C   UNL     1      -8.354 -13.688   6.728  1.00  0.00     0.029 A 
ATOM     59  N   UNL     1      -8.892 -11.598   7.267  1.00  0.00    -0.354 N 
ATOM     60  N   UNL     1      -9.715  -9.447   9.083  1.00  0.00    -0.248 NA
ATOM     61  C   UNL     1     -10.560  -8.750  11.145  1.00  0.00     0.031 C 
ATOM     62  C   UNL     1      -8.835 -13.679   8.041  1.00  0.00     0.029 A 
ATOM     63  C   UNL     1      -9.147 -12.373   8.386  1.00  0.00     0.049 A 
ATOM     64  H   UNL     1      -9.026 -10.624   7.212  1.00  0.00     0.167 HD
ATOM     65  C   UNL     1      -9.877 -10.557   9.909  1.00  0.00     0.074 A 
ATOM     66  C   UNL     1     -10.366 -10.061  11.178  1.00  0.00     0.031 C 
ATOM     67  C   UNL     1      -9.646 -11.868   9.641  1.00  0.00     0.037 A 
BRANCH  54  68
ATOM     68  C   UNL     1      -7.608 -12.918   3.898  1.00  0.00     0.058 A 
ATOM     69  C   UNL     1      -6.277 -12.932   3.454  1.00  0.00     0.135 A 
ATOM     70  C   UNL     1      -8.483 -13.886   3.380  1.00  0.00     0.135 A 
ATOM     71  F   UNL     1      -5.406 -12.010   3.894  1.00  0.00    -0.206 F 
ATOM     72  C   UNL     1      -5.833 -13.864   2.522  1.00  0.00     0.059 A 
ATOM     73  C   UNL     1      -8.054 -14.845   2.469  1.00  0.00     0.059 A 
ATOM     74  F   UNL     1      -9.770 -13.908   3.761  1.00  0.00    -0.206 F 
ATOM     75  C   UNL     1      -6.728 -14.821   2.040  1.00  0.00     0.060 A 
BRANCH  75  76
ATOM     76  S   UNL     1      -6.125 -16.036   0.849  1.00  0.00     0.124 S 
ATOM     77  O   UNL     1      -5.878 -15.201  -0.323  1.00  0.00    -0.237 OA
ATOM     78  O   UNL     1      -4.937 -16.558   1.516  1.00  0.00    -0.237 OA
ATOM     79  O   UNL     1      -7.237 -16.974   0.726  1.00  0.00    -0.744 OA
ENDBRANCH  75  76
ENDBRANCH  54  68
BRANCH  55  80
ATOM     80  C   UNL     1     -10.564  -5.920  10.392  1.00  0.00     0.058 A 
ATOM     81  C   UNL     1      -9.797  -5.632  11.531  1.00  0.00     0.135 A 
ATOM     82  C   UNL     1     -11.766  -5.214  10.222  1.00  0.00     0.135 A 
ATOM     83  F   UNL     1      -8.653  -6.297  11.754  1.00  0.00    -0.206 F 
ATOM     84  C   UNL     1     -10.204  -4.686  12.467  1.00  0.00     0.059 A 
ATOM     85  C   UNL     1     -12.181  -4.243  11.129  1.00  0.00     0.059 A 
ATOM     86  F   UNL     1     -12.541  -5.453   9.153  1.00  0.00    -0.206 F 
ATOM     87  C   UNL     1     -11.394  -3.989  12.252  1.00  0.00     0.060 A 
BRANCH  87  88
ATOM     88  S   UNL     1     -11.877  -2.720  13.444  1.00  0.00     0.124 S 
ATOM     89  O   UNL     1     -12.190  -3.522  14.621  1.00  0.00    -0.237 OA
ATOM     90  O   UNL     1     -10.668  -1.907  13.527  1.00  0.00    -0.237 OA
ATOM     91  O   UNL     1     -13.017  -2.071  12.802  1.00  0.00    -0.744 OA
ENDBRANCH  87  88
ENDBRANCH  55  80
BRANCH  67  92
ATOM     92  C   UNL     1      -9.910 -12.861  10.743  1.00  0.00     0.058 A 
ATOM     93  C   UNL     1     -11.214 -13.160  11.169  1.00  0.00     0.135 A 
ATOM     94  C   UNL     1      -8.850 -13.554  11.354  1.00  0.00     0.135 A 
ATOM     95  F   UNL     1     -12.265 -12.530  10.620  1.00  0.00    -0.206 F 
ATOM     96  C   UNL     1     -11.456 -14.078  12.187  1.00  0.00     0.059 A 
ATOM     97  C   UNL     1      -9.071 -14.501  12.350  1.00  0.00     0.059 A 
ATOM     98  F   UNL     1      -7.583 -13.324  10.975  1.00  0.00    -0.206 F 
ATOM     99  C   UNL     1     -10.377 -14.742  12.773  1.00  0.00     0.060 A 
BRANCH  99 100
ATOM    100  S   UNL     1     -10.709 -15.928  14.093  1.00  0.00     0.124 S 
ATOM    101  O   UNL     1     -11.125 -15.049  15.181  1.00  0.00    -0.237 OA
ATOM    102  O   UNL     1     -11.760 -16.756  13.510  1.00  0.00    -0.237 OA
ATOM    103  O   UNL     1      -9.425 -16.596  14.283  1.00  0.00    -0.744 OA
ENDBRANCH  99 100
ENDBRANCH  67  92
ENDBRANCH  41  42
ENDBRANCH  34  36
ENDBRANCH  33  34
ENDBRANCH  32  33
ENDBRANCH  31  32
ENDBRANCH  30  31
ENDBRANCH   1  30
TORSDOF 21
