REMARK SMILES CCCc1n[nH]c(C(=O)Nc2ccc(Br)cc2C(=O)OCCOCCOCCOC(=O)c2ccc(-c3c4nc(c(-c5c(F)cc(S(=O)(=O)[O-])cc5F)c5ccc([nH]5)c(-c5c(F)cc(S(=O)(=O)[O-])cc5F)c5nc(c(-c6c(F)cc(S(=O)(=O)[O-])cc6F)c6ccc3[nH]6)C=C5)C=C4)cc2)n1
REMARK SMILES IDX 24 1 23 2 22 3 21 4 20 5 18 6 19 7 17 8 11 9 12 10 13 11
REMARK SMILES IDX 16 12 14 13 15 14 10 15 8 16 9 17 7 19 4 20 5 21 98 22 6 23
REMARK SMILES IDX 3 25 2 26 1 27 25 28 26 29 27 30 28 31 29 32 30 33 31 34
REMARK SMILES IDX 32 35 33 36 97 37 34 38 96 39 35 40 36 41 37 42 90 43 38 44
REMARK SMILES IDX 95 45 89 46 91 47 39 48 94 49 88 50 87 51 40 53 74 54 53 55
REMARK SMILES IDX 73 56 54 57 57 58 72 59 92 60 55 61 56 62 71 64 93 65 58 66
REMARK SMILES IDX 41 67 42 68 51 69 43 70 44 71 50 72 52 73 45 74 46 75 47 76
REMARK SMILES IDX 48 77 49 78 75 79 76 80 85 81 77 82 78 83 84 84 86 85 79 86
REMARK SMILES IDX 80 87 81 88 82 89 83 90 59 91 60 92 69 93 61 94 62 95 68 96
REMARK SMILES IDX 70 97 63 98 64 99 65 100 66 101 67 102
REMARK H PARENT 10 18 6 24 91 52 57 63
REMARK Flexibility Score: inf
ROOT
ATOM      1  C   UNL     1       2.505  -2.922  -4.902  1.00  0.00     0.188 C 
ENDROOT
BRANCH   1   2
ATOM      2  O   UNL     1       2.479  -3.488  -6.208  1.00  0.00    -0.376 OA
BRANCH   2   3
ATOM      3  C   UNL     1       1.720  -2.873  -7.237  1.00  0.00     0.202 C 
BRANCH   3   4
ATOM      4  C   UNL     1       0.212  -2.703  -7.029  1.00  0.00     0.261 C 
BRANCH   4   5
ATOM      5  O   UNL     1      -0.139  -2.066  -5.787  1.00  0.00    -0.460 OA
BRANCH   5   6
ATOM      6  C   UNL     1      -0.872  -2.829  -4.939  1.00  0.00     0.340 C 
ATOM      7  O   UNL     1      -1.356  -3.922  -5.192  1.00  0.00    -0.246 OA
BRANCH   6   8
ATOM      8  C   UNL     1      -0.944  -2.239  -3.579  1.00  0.00     0.084 A 
ATOM      9  C   UNL     1      -1.120  -0.869  -3.295  1.00  0.00     0.056 A 
ATOM     10  C   UNL     1      -1.386  -0.517  -1.966  1.00  0.00     0.028 A 
ATOM     11  C   UNL     1      -1.279  -1.447  -0.927  1.00  0.00     0.018 A 
ATOM     12  C   UNL     1      -0.825  -3.173  -2.531  1.00  0.00     0.033 A 
ATOM     13  C   UNL     1      -0.950  -2.763  -1.211  1.00  0.00     0.018 A 
ATOM     14  Br  UNL     1      -0.679  -3.993   0.194  1.00  0.00    -0.051 Br
BRANCH   9  15
ATOM     15  N   UNL     1      -1.066   0.097  -4.324  1.00  0.00    -0.318 N 
ATOM     16  C   UNL     1      -0.836   1.463  -4.319  1.00  0.00     0.293 C 
ATOM     17  O   UNL     1      -1.098   2.076  -5.360  1.00  0.00    -0.265 OA
ATOM     18  H   UNL     1      -1.223  -0.274  -5.223  1.00  0.00     0.170 HD
BRANCH  16  19
ATOM     19  C   UNL     1      -0.262   2.164  -3.189  1.00  0.00     0.214 A 
ATOM     20  C   UNL     1       0.625   2.773  -1.358  1.00  0.00     0.151 A 
ATOM     21  N   UNL     1       0.311   3.939  -1.937  1.00  0.00    -0.158 NA
ATOM     22  N   UNL     1       0.334   1.671  -2.120  1.00  0.00    -0.207 NA
ATOM     23  N   UNL     1      -0.204   3.527  -3.109  1.00  0.00    -0.255 N 
ATOM     24  H   UNL     1      -0.504   4.134  -3.823  1.00  0.00     0.192 HD
BRANCH  20  25
ATOM     25  C   UNL     1       1.206   2.694   0.014  1.00  0.00     0.079 C 
BRANCH  25  26
ATOM     26  C   UNL     1       0.869   1.410   0.780  1.00  0.00     0.005 C 
ATOM     27  C   UNL     1       1.726   0.219   0.370  1.00  0.00     0.004 C 
ENDBRANCH  25  26
ENDBRANCH  20  25
ENDBRANCH  16  19
ENDBRANCH   9  15
ENDBRANCH   6   8
ENDBRANCH   5   6
ENDBRANCH   4   5
ENDBRANCH   3   4
ENDBRANCH   2   3
ENDBRANCH   1   2
BRANCH   1  28
ATOM     28  C   UNL     1       2.556  -1.392  -4.706  1.00  0.00     0.188 C 
BRANCH  28  29
ATOM     29  O   UNL     1       2.765  -0.643  -5.893  1.00  0.00    -0.376 OA
BRANCH  29  30
ATOM     30  C   UNL     1       4.032  -0.005  -6.001  1.00  0.00     0.202 C 
BRANCH  30  31
ATOM     31  C   UNL     1       5.216  -0.954  -6.236  1.00  0.00     0.261 C 
BRANCH  31  32
ATOM     32  O   UNL     1       5.440  -1.923  -5.198  1.00  0.00    -0.460 OA
BRANCH  32  33
ATOM     33  C   UNL     1       5.835  -1.445  -3.996  1.00  0.00     0.338 C 
ATOM     34  O   UNL     1       6.024  -0.279  -3.701  1.00  0.00    -0.246 OA
BRANCH  33  35
ATOM     35  C   UNL     1       5.839  -2.565  -3.031  1.00  0.00     0.060 A 
ATOM     36  C   UNL     1       5.064  -2.457  -1.871  1.00  0.00     0.016 A 
ATOM     37  C   UNL     1       6.613  -3.707  -3.261  1.00  0.00     0.016 A 
ATOM     38  C   UNL     1       5.095  -3.477  -0.917  1.00  0.00     0.010 A 
ATOM     39  C   UNL     1       6.650  -4.722  -2.298  1.00  0.00     0.010 A 
ATOM     40  C   UNL     1       5.917  -4.598  -1.105  1.00  0.00    -0.014 A 
BRANCH  40  41
ATOM     41  C   UNL     1       6.120  -5.552   0.016  1.00  0.00     0.031 A 
ATOM     42  C   UNL     1       7.333  -5.396   0.895  1.00  0.00     0.074 A 
ATOM     43  C   UNL     1       5.221  -6.518   0.279  1.00  0.00     0.049 A 
ATOM     44  N   UNL     1       7.672  -6.062   1.969  1.00  0.00    -0.248 NA
ATOM     45  C   UNL     1       8.291  -4.346   0.511  1.00  0.00     0.031 C 
ATOM     46  C   UNL     1       4.007  -6.778  -0.492  1.00  0.00     0.029 A 
ATOM     47  N   UNL     1       5.192  -7.460   1.278  1.00  0.00    -0.354 N 
ATOM     48  C   UNL     1       8.873  -5.508   2.395  1.00  0.00     0.074 A 
ATOM     49  C   UNL     1       9.226  -4.479   1.441  1.00  0.00     0.031 C 
ATOM     50  C   UNL     1       3.351  -7.813   0.062  1.00  0.00     0.029 A 
ATOM     51  C   UNL     1       4.101  -8.295   1.221  1.00  0.00     0.049 A 
ATOM     52  H   UNL     1       5.889  -7.532   1.970  1.00  0.00     0.167 HD
ATOM     53  C   UNL     1       9.610  -5.816   3.490  1.00  0.00     0.037 A 
ATOM     54  C   UNL     1       3.748  -9.327   2.014  1.00  0.00     0.037 A 
ATOM     55  C   UNL     1       9.266  -6.844   4.437  1.00  0.00     0.049 A 
ATOM     56  C   UNL     1       4.597  -9.669   3.212  1.00  0.00     0.074 A 
ATOM     57  C   UNL     1       9.939  -7.215   5.589  1.00  0.00     0.029 A 
ATOM     58  N   UNL     1       8.158  -7.673   4.339  1.00  0.00    -0.354 N 
ATOM     59  N   UNL     1       5.704  -9.102   3.631  1.00  0.00    -0.248 NA
ATOM     60  C   UNL     1       4.138 -10.782   4.056  1.00  0.00     0.031 C 
ATOM     61  C   UNL     1       9.260  -8.295   6.166  1.00  0.00     0.029 A 
ATOM     62  C   UNL     1       8.137  -8.564   5.400  1.00  0.00     0.049 A 
ATOM     63  H   UNL     1       7.485  -7.633   3.622  1.00  0.00     0.167 HD
ATOM     64  C   UNL     1       6.054  -9.767   4.803  1.00  0.00     0.074 A 
ATOM     65  C   UNL     1       5.038 -10.774   5.030  1.00  0.00     0.031 C 
ATOM     66  C   UNL     1       7.117  -9.559   5.620  1.00  0.00     0.037 A 
BRANCH  53  67
ATOM     67  C   UNL     1      10.873  -5.031   3.716  1.00  0.00     0.058 A 
ATOM     68  C   UNL     1      10.842  -3.690   4.130  1.00  0.00     0.135 A 
ATOM     69  C   UNL     1      12.128  -5.633   3.539  1.00  0.00     0.135 A 
ATOM     70  F   UNL     1       9.667  -3.061   4.297  1.00  0.00    -0.206 F 
ATOM     71  C   UNL     1      12.011  -2.965   4.336  1.00  0.00     0.059 A 
ATOM     72  C   UNL     1      13.311  -4.935   3.763  1.00  0.00     0.059 A 
ATOM     73  F   UNL     1      12.215  -6.913   3.141  1.00  0.00    -0.206 F 
ATOM     74  C   UNL     1      13.242  -3.596   4.147  1.00  0.00     0.060 A 
BRANCH  74  75
ATOM     75  S   UNL     1      14.752  -2.644   4.416  1.00  0.00     0.124 S 
ATOM     76  O   UNL     1      14.776  -1.797   3.228  1.00  0.00    -0.237 OA
ATOM     77  O   UNL     1      14.471  -1.960   5.675  1.00  0.00    -0.237 OA
ATOM     78  O   UNL     1      15.791  -3.666   4.480  1.00  0.00    -0.744 OA
ENDBRANCH  74  75
ENDBRANCH  53  67
BRANCH  54  79
ATOM     79  C   UNL     1       2.517 -10.105   1.714  1.00  0.00     0.058 A 
ATOM     80  C   UNL     1       1.379 -10.009   2.529  1.00  0.00     0.135 A 
ATOM     81  C   UNL     1       2.457 -10.965   0.607  1.00  0.00     0.135 A 
ATOM     82  F   UNL     1       1.392  -9.210   3.607  1.00  0.00    -0.206 F 
ATOM     83  C   UNL     1       0.230 -10.749   2.267  1.00  0.00     0.059 A 
ATOM     84  C   UNL     1       1.312 -11.697   0.310  1.00  0.00     0.059 A 
ATOM     85  F   UNL     1       3.517 -11.086  -0.208  1.00  0.00    -0.206 F 
ATOM     86  C   UNL     1       0.205 -11.590   1.153  1.00  0.00     0.060 A 
BRANCH  86  87
ATOM     87  S   UNL     1      -1.307 -12.510   0.791  1.00  0.00     0.124 S 
ATOM     88  O   UNL     1      -1.261 -13.560   1.802  1.00  0.00    -0.237 OA
ATOM     89  O   UNL     1      -2.337 -11.492   0.973  1.00  0.00    -0.237 OA
ATOM     90  O   UNL     1      -1.109 -12.950  -0.587  1.00  0.00    -0.744 OA
ENDBRANCH  86  87
ENDBRANCH  54  79
BRANCH  66  91
ATOM     91  C   UNL     1       7.215 -10.408   6.859  1.00  0.00     0.058 A 
ATOM     92  C   UNL     1       7.558 -11.768   6.802  1.00  0.00     0.135 A 
ATOM     93  C   UNL     1       6.988  -9.843   8.125  1.00  0.00     0.135 A 
ATOM     94  F   UNL     1       7.785 -12.358   5.618  1.00  0.00    -0.206 F 
ATOM     95  C   UNL     1       7.634 -12.547   7.953  1.00  0.00     0.059 A 
ATOM     96  C   UNL     1       7.085 -10.597   9.290  1.00  0.00     0.059 A 
ATOM     97  F   UNL     1       6.673  -8.543   8.239  1.00  0.00    -0.206 F 
ATOM     98  C   UNL     1       7.389 -11.954   9.193  1.00  0.00     0.060 A 
BRANCH  98  99
ATOM     99  S   UNL     1       7.492 -12.972  10.681  1.00  0.00     0.124 S 
ATOM    100  O   UNL     1       6.230 -13.702  10.623  1.00  0.00    -0.237 OA
ATOM    101  O   UNL     1       8.694 -13.764  10.440  1.00  0.00    -0.237 OA
ATOM    102  O   UNL     1       7.602 -11.990  11.756  1.00  0.00    -0.744 OA
ENDBRANCH  98  99
ENDBRANCH  66  91
ENDBRANCH  40  41
ENDBRANCH  33  35
ENDBRANCH  32  33
ENDBRANCH  31  32
ENDBRANCH  30  31
ENDBRANCH  29  30
ENDBRANCH  28  29
ENDBRANCH   1  28
TORSDOF 24
