REMARK SMILES O=C(OCCOCCOCCOC(=O)c1ccc(-c2c3nc(c(-c4c(F)cc(S(=O)(=O)[O-])cc4F)c4ccc([nH]4)c(-c4c(F)cc(S(=O)(=O)[O-])cc4F)c4nc(c(-c5c(F)cc(S(=O)(=O)[O-])cc5F)c5ccc2[nH]5)C=C4)C=C3)cc1)C1=Cc2cc(Cl)cc(Cl)c2O[C@@H]1C(F)(F)F
REMARK SMILES IDX 8 1 7 2 6 3 5 4 4 5 3 6 2 7 1 8 81 9 82 10 92 11 83 12 91 13
REMARK SMILES IDX 84 14 90 15 85 16 88 17 86 18 87 19 89 20 93 21 94 22 95 23
REMARK SMILES IDX 96 24 9 25 10 26 11 27 12 28 13 29 14 30 15 31 16 32 80 33
REMARK SMILES IDX 17 34 79 35 18 36 19 37 20 38 73 39 21 40 78 41 72 42 74 43
REMARK SMILES IDX 22 44 77 45 71 46 70 47 23 49 57 50 36 51 56 52 37 53 40 54
REMARK SMILES IDX 55 55 75 56 38 57 39 58 54 60 76 61 41 62 24 63 25 64 34 65
REMARK SMILES IDX 26 66 27 67 33 68 35 69 28 70 29 71 30 72 31 73 32 74 58 75
REMARK SMILES IDX 59 76 68 77 60 78 61 79 67 80 69 81 62 82 63 83 64 84 65 85
REMARK SMILES IDX 66 86 42 87 43 88 52 89 44 90 45 91 51 92 53 93 46 94 47 95
REMARK SMILES IDX 48 96 49 97 50 98
REMARK H PARENT 74 48 40 59
REMARK Flexibility Score: inf
ROOT
ATOM      1  C   UNL     1       2.148  -1.331   3.174  1.00  0.00     0.188 C 
ENDROOT
BRANCH   1   2
ATOM      2  C   UNL     1       2.488  -1.582   1.695  1.00  0.00     0.188 C 
BRANCH   2   3
ATOM      3  O   UNL     1       3.875  -1.589   1.184  1.00  0.00    -0.376 OA
BRANCH   3   4
ATOM      4  C   UNL     1       4.534  -0.691  -0.100  1.00  0.00     0.202 C 
BRANCH   4   5
ATOM      5  C   UNL     1       3.865   1.273  -0.741  1.00  0.00     0.261 C 
BRANCH   5   6
ATOM      6  O   UNL     1       2.912   1.574  -1.883  1.00  0.00    -0.460 OA
BRANCH   6   7
ATOM      7  C   UNL     1       3.081   0.726  -2.908  1.00  0.00     0.338 C 
ATOM      8  O   UNL     1       2.361   0.580  -3.865  1.00  0.00    -0.246 OA
BRANCH   7   9
ATOM      9  C   UNL     1       3.963  -0.208  -2.220  1.00  0.00     0.087 C 
ATOM     10  C   UNL     1       5.355   0.206  -2.056  1.00  0.00     0.027 C 
ATOM     11  C   UNL     1       2.718  -0.450  -0.780  1.00  0.00     0.316 C 
ATOM     12  C   UNL     1       6.044   0.855  -0.521  1.00  0.00     0.020 A 
ATOM     13  O   UNL     1       3.359   0.408   0.846  1.00  0.00    -0.474 OA
ATOM     14  C   UNL     1       7.351   1.256  -0.491  1.00  0.00     0.032 A 
ATOM     15  C   UNL     1       5.083   1.033   0.914  1.00  0.00     0.146 A 
ATOM     16  C   UNL     1       7.787   1.756   0.748  1.00  0.00     0.043 A 
ATOM     17  C   UNL     1       5.593   1.585   2.059  1.00  0.00     0.085 A 
ATOM     18  Cl  UNL     1       9.453   2.237   0.847  1.00  0.00    -0.084 Cl
ATOM     19  C   UNL     1       6.966   1.916   1.943  1.00  0.00     0.045 A 
ATOM     20  Cl  UNL     1       4.722   1.965   3.465  1.00  0.00    -0.080 Cl
BRANCH  11  21
ATOM     21  C   UNL     1       2.432  -2.062  -1.156  1.00  0.00     0.430 C 
ATOM     22  F   UNL     1       2.631  -3.022  -0.253  1.00  0.00    -0.167 F 
ATOM     23  F   UNL     1       1.161  -2.198  -1.605  1.00  0.00    -0.167 F 
ATOM     24  F   UNL     1       3.222  -2.462  -2.202  1.00  0.00    -0.167 F 
ENDBRANCH  11  21
ENDBRANCH   7   9
ENDBRANCH   6   7
ENDBRANCH   5   6
ENDBRANCH   4   5
ENDBRANCH   3   4
ENDBRANCH   2   3
ENDBRANCH   1   2
BRANCH   1  25
ATOM     25  O   UNL     1       3.105  -0.777   4.039  1.00  0.00    -0.376 OA
BRANCH  25  26
ATOM     26  C   UNL     1       4.393  -1.371   4.029  1.00  0.00     0.202 C 
BRANCH  26  27
ATOM     27  C   UNL     1       4.494  -2.875   4.302  1.00  0.00     0.261 C 
BRANCH  27  28
ATOM     28  O   UNL     1       4.034  -3.701   3.217  1.00  0.00    -0.460 OA
BRANCH  28  29
ATOM     29  C   UNL     1       2.936  -4.468   3.436  1.00  0.00     0.338 C 
ATOM     30  O   UNL     1       2.245  -4.505   4.438  1.00  0.00    -0.246 OA
BRANCH  29  31
ATOM     31  C   UNL     1       2.620  -5.195   2.192  1.00  0.00     0.060 A 
ATOM     32  C   UNL     1       1.377  -5.014   1.561  1.00  0.00     0.016 A 
ATOM     33  C   UNL     1       3.565  -6.072   1.663  1.00  0.00     0.016 A 
ATOM     34  C   UNL     1       1.091  -5.692   0.374  1.00  0.00     0.010 A 
ATOM     35  C   UNL     1       3.258  -6.788   0.510  1.00  0.00     0.010 A 
ATOM     36  C   UNL     1       2.016  -6.616  -0.127  1.00  0.00    -0.014 A 
BRANCH  36  37
ATOM     37  C   UNL     1       1.610  -7.630  -1.126  1.00  0.00     0.031 A 
ATOM     38  C   UNL     1       1.085  -8.931  -0.592  1.00  0.00     0.074 A 
ATOM     39  C   UNL     1       1.808  -7.451  -2.442  1.00  0.00     0.049 A 
ATOM     40  N   UNL     1       0.855 -10.054  -1.214  1.00  0.00    -0.248 NA
ATOM     41  C   UNL     1       0.815  -8.971   0.855  1.00  0.00     0.031 C 
ATOM     42  C   UNL     1       2.287  -6.221  -3.065  1.00  0.00     0.029 A 
ATOM     43  N   UNL     1       1.667  -8.332  -3.485  1.00  0.00    -0.354 N 
ATOM     44  C   UNL     1       0.438 -10.943  -0.231  1.00  0.00     0.074 A 
ATOM     45  C   UNL     1       0.474 -10.236   1.029  1.00  0.00     0.031 C 
ATOM     46  C   UNL     1       2.438  -6.436  -4.385  1.00  0.00     0.029 A 
ATOM     47  C   UNL     1       2.111  -7.831  -4.686  1.00  0.00     0.049 A 
ATOM     48  H   UNL     1       1.286  -9.233  -3.384  1.00  0.00     0.167 HD
ATOM     49  C   UNL     1       0.067 -12.237  -0.368  1.00  0.00     0.037 A 
ATOM     50  C   UNL     1       2.277  -8.445  -5.876  1.00  0.00     0.037 A 
ATOM     51  C   UNL     1       0.081 -12.932  -1.626  1.00  0.00     0.049 A 
ATOM     52  C   UNL     1       1.920  -9.905  -6.005  1.00  0.00     0.074 A 
ATOM     53  C   UNL     1      -0.293 -14.235  -1.892  1.00  0.00     0.029 A 
ATOM     54  N   UNL     1       0.522 -12.387  -2.826  1.00  0.00    -0.354 N 
ATOM     55  N   UNL     1       1.490 -10.734  -5.082  1.00  0.00    -0.248 NA
ATOM     56  C   UNL     1       2.068 -10.516  -7.334  1.00  0.00     0.031 C 
ATOM     57  C   UNL     1      -0.001 -14.504  -3.232  1.00  0.00     0.029 A 
ATOM     58  C   UNL     1       0.463 -13.339  -3.828  1.00  0.00     0.049 A 
ATOM     59  H   UNL     1       0.830 -11.460  -2.945  1.00  0.00     0.167 HD
ATOM     60  C   UNL     1       1.279 -11.951  -5.723  1.00  0.00     0.074 A 
ATOM     61  C   UNL     1       1.637 -11.752  -7.113  1.00  0.00     0.031 C 
ATOM     62  C   UNL     1       0.817 -13.120  -5.212  1.00  0.00     0.037 A 
BRANCH  49  63
ATOM     63  C   UNL     1      -0.307 -12.981   0.886  1.00  0.00     0.058 A 
ATOM     64  C   UNL     1      -1.432 -12.636   1.655  1.00  0.00     0.135 A 
ATOM     65  C   UNL     1       0.495 -14.038   1.346  1.00  0.00     0.135 A 
ATOM     66  F   UNL     1      -2.227 -11.621   1.276  1.00  0.00    -0.206 F 
ATOM     67  C   UNL     1      -1.712 -13.268   2.862  1.00  0.00     0.059 A 
ATOM     68  C   UNL     1       0.209 -14.714   2.528  1.00  0.00     0.059 A 
ATOM     69  F   UNL     1       1.584 -14.412   0.657  1.00  0.00    -0.206 F 
ATOM     70  C   UNL     1      -0.881 -14.304   3.292  1.00  0.00     0.060 A 
BRANCH  70  71
ATOM     71  S   UNL     1      -1.238 -15.092   4.875  1.00  0.00     0.124 S 
ATOM     72  O   UNL     1      -0.893 -14.030   5.814  1.00  0.00    -0.237 OA
ATOM     73  O   UNL     1      -2.660 -15.396   4.756  1.00  0.00    -0.237 OA
ATOM     74  O   UNL     1      -0.351 -16.251   4.887  1.00  0.00    -0.744 OA
ENDBRANCH  70  71
ENDBRANCH  49  63
BRANCH  50  75
ATOM     75  C   UNL     1       2.821  -7.673  -7.027  1.00  0.00     0.058 A 
ATOM     76  C   UNL     1       2.012  -7.323  -8.117  1.00  0.00     0.135 A 
ATOM     77  C   UNL     1       4.149  -7.216  -7.029  1.00  0.00     0.135 A 
ATOM     78  F   UNL     1       0.742  -7.753  -8.175  1.00  0.00    -0.206 F 
ATOM     79  C   UNL     1       2.492  -6.534  -9.160  1.00  0.00     0.059 A 
ATOM     80  C   UNL     1       4.644  -6.404  -8.045  1.00  0.00     0.059 A 
ATOM     81  F   UNL     1       4.967  -7.521  -6.009  1.00  0.00    -0.206 F 
ATOM     82  C   UNL     1       3.805  -6.064  -9.105  1.00  0.00     0.060 A 
BRANCH  82  83
ATOM     83  S   UNL     1       4.381  -4.950 -10.405  1.00  0.00     0.124 S 
ATOM     84  O   UNL     1       4.425  -5.838 -11.561  1.00  0.00    -0.237 OA
ATOM     85  O   UNL     1       3.334  -3.934 -10.419  1.00  0.00    -0.237 OA
ATOM     86  O   UNL     1       5.678  -4.496  -9.910  1.00  0.00    -0.744 OA
ENDBRANCH  82  83
ENDBRANCH  50  75
BRANCH  62  87
ATOM     87  C   UNL     1       0.601 -14.274  -6.157  1.00  0.00     0.058 A 
ATOM     88  C   UNL     1       1.664 -14.991  -6.725  1.00  0.00     0.135 A 
ATOM     89  C   UNL     1      -0.705 -14.734  -6.406  1.00  0.00     0.135 A 
ATOM     90  F   UNL     1       2.931 -14.595  -6.527  1.00  0.00    -0.206 F 
ATOM     91  C   UNL     1       1.440 -16.118  -7.512  1.00  0.00     0.059 A 
ATOM     92  C   UNL     1      -0.950 -15.877  -7.158  1.00  0.00     0.059 A 
ATOM     93  F   UNL     1      -1.760 -14.092  -5.878  1.00  0.00    -0.206 F 
ATOM     94  C   UNL     1       0.130 -16.560  -7.712  1.00  0.00     0.060 A 
BRANCH  94  95
ATOM     95  S   UNL     1      -0.140 -18.062  -8.677  1.00  0.00     0.124 S 
ATOM     96  O   UNL     1       0.231 -17.622 -10.018  1.00  0.00    -0.237 OA
ATOM     97  O   UNL     1       0.775 -19.006  -8.043  1.00  0.00    -0.237 OA
ATOM     98  O   UNL     1      -1.559 -18.344  -8.480  1.00  0.00    -0.744 OA
ENDBRANCH  94  95
ENDBRANCH  62  87
ENDBRANCH  36  37
ENDBRANCH  29  31
ENDBRANCH  28  29
ENDBRANCH  27  28
ENDBRANCH  26  27
ENDBRANCH  25  26
ENDBRANCH   1  25
TORSDOF 21
