REMARK SMILES CCC[C@@](C)(Nc1cc(C)cc(C)c1)C(=O)OCCOCCOCCOC(=O)c1ccc(-c2c3nc(c(-c4c(F)cc(S(=O)(=O)[O-])cc4F)c4ccc([nH]4)c(-c4c(F)cc(S(=O)(=O)[O-])cc4F)c4nc(c(-c5c(F)cc(S(=O)(=O)[O-])cc5F)c5ccc2[nH]5)C=C4)C=C3)cc1
REMARK SMILES IDX 22 1 21 2 20 3 19 4 18 5 17 6 15 7 16 8 4 9 5 10 3 11 2 12
REMARK SMILES IDX 1 13 6 14 7 16 8 17 14 18 9 19 12 20 10 21 11 22 13 23 23 24
REMARK SMILES IDX 24 25 25 26 26 27 27 28 28 29 29 30 30 31 94 32 31 33 93 34
REMARK SMILES IDX 32 35 33 36 34 37 87 38 35 39 92 40 86 41 88 42 36 43 91 44
REMARK SMILES IDX 85 45 84 46 37 48 71 49 50 50 70 51 51 52 54 53 69 54 89 55
REMARK SMILES IDX 52 56 53 57 68 59 90 60 55 61 38 62 39 63 48 64 40 65 41 66
REMARK SMILES IDX 47 67 49 68 42 69 43 70 44 71 45 72 46 73 72 74 73 75 82 76
REMARK SMILES IDX 74 77 75 78 81 79 83 80 76 81 77 82 78 83 79 84 80 85 56 86
REMARK SMILES IDX 57 87 66 88 58 89 59 90 65 91 67 92 60 93 61 94 62 95 63 96
REMARK SMILES IDX 64 97
REMARK H PARENT 6 15 88 47 54 58
REMARK Flexibility Score: inf
ROOT
ATOM      1  C   UNL     1       3.808  -1.033  -2.839  1.00  0.00     0.188 C 
ENDROOT
BRANCH   1   2
ATOM      2  C   UNL     1       3.086  -1.700  -1.666  1.00  0.00     0.188 C 
BRANCH   2   3
ATOM      3  O   UNL     1       2.901  -3.108  -1.728  1.00  0.00    -0.376 OA
BRANCH   3   4
ATOM      4  C   UNL     1       1.941  -3.571  -2.683  1.00  0.00     0.202 C 
BRANCH   4   5
ATOM      5  C   UNL     1       0.551  -2.946  -2.563  1.00  0.00     0.261 C 
BRANCH   5   6
ATOM      6  O   UNL     1       0.613  -1.572  -2.992  1.00  0.00    -0.462 OA
BRANCH   6   7
ATOM      7  C   UNL     1      -0.274  -0.713  -2.444  1.00  0.00     0.331 C 
ATOM      8  O   UNL     1      -1.138  -1.080  -1.649  1.00  0.00    -0.249 OA
BRANCH   7   9
ATOM      9  C   UNL     1      -0.086   0.773  -2.850  1.00  0.00     0.133 C 
ATOM     10  C   UNL     1      -1.503   1.351  -3.009  1.00  0.00     0.047 C 
BRANCH   9  11
ATOM     11  C   UNL     1       0.712   1.537  -1.737  1.00  0.00     0.040 C 
BRANCH  11  12
ATOM     12  C   UNL     1       0.212   1.556  -0.286  1.00  0.00    -0.000 C 
ATOM     13  C   UNL     1       0.767   0.445   0.594  1.00  0.00     0.004 C 
ENDBRANCH  11  12
ENDBRANCH   9  11
BRANCH   9  14
ATOM     14  N   UNL     1       0.639   1.129  -4.110  1.00  0.00    -0.370 N 
ATOM     15  H   UNL     1       0.770   2.101  -4.197  1.00  0.00     0.161 HD
BRANCH  14  16
ATOM     16  C   UNL     1       1.167   0.441  -5.176  1.00  0.00     0.035 A 
ATOM     17  C   UNL     1       0.728  -0.802  -5.619  1.00  0.00     0.029 A 
ATOM     18  C   UNL     1       2.298   0.986  -5.821  1.00  0.00     0.029 A 
ATOM     19  C   UNL     1       1.451  -1.546  -6.567  1.00  0.00    -0.049 A 
ATOM     20  C   UNL     1       2.998   0.298  -6.824  1.00  0.00    -0.049 A 
ATOM     21  C   UNL     1       1.105  -2.978  -6.837  1.00  0.00     0.044 C 
ATOM     22  C   UNL     1       2.574  -0.982  -7.179  1.00  0.00     0.007 A 
ATOM     23  C   UNL     1       4.219   0.883  -7.471  1.00  0.00     0.044 C 
ENDBRANCH  14  16
ENDBRANCH   9  14
ENDBRANCH   7   9
ENDBRANCH   6   7
ENDBRANCH   5   6
ENDBRANCH   4   5
ENDBRANCH   3   4
ENDBRANCH   2   3
ENDBRANCH   1   2
BRANCH   1  24
ATOM     24  O   UNL     1       3.813  -1.708  -4.088  1.00  0.00    -0.376 OA
BRANCH  24  25
ATOM     25  C   UNL     1       4.873  -2.649  -4.258  1.00  0.00     0.202 C 
BRANCH  25  26
ATOM     26  C   UNL     1       6.169  -2.019  -4.781  1.00  0.00     0.261 C 
BRANCH  26  27
ATOM     27  O   UNL     1       6.718  -1.118  -3.806  1.00  0.00    -0.460 OA
BRANCH  27  28
ATOM     28  C   UNL     1       6.537   0.197  -4.075  1.00  0.00     0.338 C 
ATOM     29  O   UNL     1       6.225   0.700  -5.142  1.00  0.00    -0.246 OA
BRANCH  28  30
ATOM     30  C   UNL     1       6.598   0.973  -2.819  1.00  0.00     0.060 A 
ATOM     31  C   UNL     1       5.685   2.027  -2.662  1.00  0.00     0.016 A 
ATOM     32  C   UNL     1       7.533   0.685  -1.822  1.00  0.00     0.016 A 
ATOM     33  C   UNL     1       5.788   2.875  -1.565  1.00  0.00     0.010 A 
ATOM     34  C   UNL     1       7.636   1.535  -0.722  1.00  0.00     0.010 A 
ATOM     35  C   UNL     1       6.817   2.675  -0.638  1.00  0.00    -0.014 A 
BRANCH  35  36
ATOM     36  C   UNL     1       7.241   3.805   0.218  1.00  0.00     0.031 A 
ATOM     37  C   UNL     1       8.419   4.622  -0.249  1.00  0.00     0.074 A 
ATOM     38  C   UNL     1       6.586   4.117   1.349  1.00  0.00     0.049 A 
ATOM     39  N   UNL     1       9.030   5.616   0.337  1.00  0.00    -0.248 NA
ATOM     40  C   UNL     1       8.995   4.253  -1.557  1.00  0.00     0.031 C 
ATOM     41  C   UNL     1       5.409   3.421   1.865  1.00  0.00     0.029 A 
ATOM     42  N   UNL     1       6.831   5.100   2.271  1.00  0.00    -0.354 N 
ATOM     43  C   UNL     1      10.066   5.978  -0.519  1.00  0.00     0.074 A 
ATOM     44  C   UNL     1      10.028   5.074  -1.644  1.00  0.00     0.031 C 
ATOM     45  C   UNL     1       5.041   3.993   3.025  1.00  0.00     0.029 A 
ATOM     46  C   UNL     1       5.975   5.071   3.345  1.00  0.00     0.049 A 
ATOM     47  H   UNL     1       7.551   5.764   2.173  1.00  0.00     0.167 HD
ATOM     48  C   UNL     1      10.962   6.983  -0.383  1.00  0.00     0.037 A 
ATOM     49  C   UNL     1       5.968   5.821   4.464  1.00  0.00     0.037 A 
ATOM     50  C   UNL     1      10.980   7.878   0.742  1.00  0.00     0.049 A 
ATOM     51  C   UNL     1       7.004   6.907   4.617  1.00  0.00     0.074 A 
ATOM     52  C   UNL     1      11.834   8.938   0.987  1.00  0.00     0.029 A 
ATOM     53  N   UNL     1      10.099   7.816   1.813  1.00  0.00    -0.354 N 
ATOM     54  N   UNL     1       7.977   7.244   3.801  1.00  0.00    -0.248 NA
ATOM     55  C   UNL     1       6.932   7.725   5.834  1.00  0.00     0.031 C 
ATOM     56  C   UNL     1      11.503   9.483   2.232  1.00  0.00     0.029 A 
ATOM     57  C   UNL     1      10.397   8.809   2.729  1.00  0.00     0.049 A 
ATOM     58  H   UNL     1       9.369   7.162   1.907  1.00  0.00     0.167 HD
ATOM     59  C   UNL     1       8.604   8.341   4.387  1.00  0.00     0.074 A 
ATOM     60  C   UNL     1       7.894   8.611   5.621  1.00  0.00     0.031 C 
ATOM     61  C   UNL     1       9.664   9.065   3.944  1.00  0.00     0.037 A 
BRANCH  48  62
ATOM     62  C   UNL     1      12.004   7.143  -1.457  1.00  0.00     0.058 A 
ATOM     63  C   UNL     1      11.678   7.573  -2.754  1.00  0.00     0.135 A 
ATOM     64  C   UNL     1      13.355   6.881  -1.178  1.00  0.00     0.135 A 
ATOM     65  F   UNL     1      10.400   7.813  -3.087  1.00  0.00    -0.206 F 
ATOM     66  C   UNL     1      12.650   7.714  -3.741  1.00  0.00     0.059 A 
ATOM     67  C   UNL     1      14.348   7.046  -2.140  1.00  0.00     0.059 A 
ATOM     68  F   UNL     1      13.724   6.457   0.041  1.00  0.00    -0.206 F 
ATOM     69  C   UNL     1      13.983   7.452  -3.422  1.00  0.00     0.060 A 
BRANCH  69  70
ATOM     70  S   UNL     1      15.234   7.658  -4.708  1.00  0.00     0.124 S 
ATOM     71  O   UNL     1      14.939   6.530  -5.586  1.00  0.00    -0.237 OA
ATOM     72  O   UNL     1      14.915   8.978  -5.242  1.00  0.00    -0.237 OA
ATOM     73  O   UNL     1      16.494   7.569  -3.975  1.00  0.00    -0.744 OA
ENDBRANCH  69  70
ENDBRANCH  48  62
BRANCH  49  74
ATOM     74  C   UNL     1       4.950   5.577   5.521  1.00  0.00     0.058 A 
ATOM     75  C   UNL     1       3.948   6.518   5.798  1.00  0.00     0.135 A 
ATOM     76  C   UNL     1       4.961   4.395   6.280  1.00  0.00     0.135 A 
ATOM     77  F   UNL     1       3.898   7.667   5.107  1.00  0.00    -0.206 F 
ATOM     78  C   UNL     1       3.007   6.309   6.802  1.00  0.00     0.059 A 
ATOM     79  C   UNL     1       4.013   4.149   7.268  1.00  0.00     0.059 A 
ATOM     80  F   UNL     1       5.890   3.454   6.047  1.00  0.00    -0.206 F 
ATOM     81  C   UNL     1       3.047   5.119   7.530  1.00  0.00     0.060 A 
BRANCH  81  82
ATOM     82  S   UNL     1       1.795   4.842   8.802  1.00  0.00     0.124 S 
ATOM     83  O   UNL     1       2.205   5.790   9.831  1.00  0.00    -0.237 OA
ATOM     84  O   UNL     1       0.562   5.163   8.091  1.00  0.00    -0.237 OA
ATOM     85  O   UNL     1       1.966   3.432   9.139  1.00  0.00    -0.744 OA
ENDBRANCH  81  82
ENDBRANCH  49  74
BRANCH  61  86
ATOM     86  C   UNL     1      10.072  10.262   4.762  1.00  0.00     0.058 A 
ATOM     87  C   UNL     1      10.667  10.138   6.027  1.00  0.00     0.135 A 
ATOM     88  C   UNL     1       9.883  11.557   4.251  1.00  0.00     0.135 A 
ATOM     89  F   UNL     1      10.872   8.924   6.562  1.00  0.00    -0.206 F 
ATOM     90  C   UNL     1      11.014  11.256   6.778  1.00  0.00     0.059 A 
ATOM     91  C   UNL     1      10.257  12.688   4.968  1.00  0.00     0.059 A 
ATOM     92  F   UNL     1       9.336  11.734   3.038  1.00  0.00    -0.206 F 
ATOM     93  C   UNL     1      10.801  12.527   6.241  1.00  0.00     0.060 A 
BRANCH  93  94
ATOM     94  S   UNL     1      11.248  13.971   7.227  1.00  0.00     0.124 S 
ATOM     95  O   UNL     1      10.193  13.975   8.235  1.00  0.00    -0.237 OA
ATOM     96  O   UNL     1      12.582  13.621   7.706  1.00  0.00    -0.237 OA
ATOM     97  O   UNL     1      11.202  15.068   6.265  1.00  0.00    -0.744 OA
ENDBRANCH  93  94
ENDBRANCH  61  86
ENDBRANCH  35  36
ENDBRANCH  28  30
ENDBRANCH  27  28
ENDBRANCH  26  27
ENDBRANCH  25  26
ENDBRANCH  24  25
ENDBRANCH   1  24
TORSDOF 24
