REMARK SMILES Cc1ccccc1NC(=O)c1ccccc1NC(=O)CCC(=O)OCCOCCOCCOC(=O)c1ccc(-c2c3nc(c(-c4c(F)cc(S(=O)(=O)[O-])cc4F)c4ccc([nH]4)c(-c4c(F)cc(S(=O)(=O)[O-])cc4F)c4nc(c(-c5c(F)cc(S(=O)(=O)[O-])cc5F)c5ccc2[nH]5)C=C4)C=C3)cc1
REMARK SMILES IDX 28 1 27 2 26 3 25 4 24 5 22 6 23 7 21 8 20 9 18 10 17 11
REMARK SMILES IDX 19 13 16 14 11 15 12 16 13 17 15 18 14 19 9 20 8 21 10 23
REMARK SMILES IDX 7 24 1 25 2 26 3 27 4 28 6 29 5 30 29 31 30 32 31 33 32 34
REMARK SMILES IDX 33 35 34 36 35 37 36 38 37 39 101 40 38 41 100 42 39 43
REMARK SMILES IDX 40 44 41 45 94 46 42 47 99 48 93 49 95 50 43 51 98 52 92 53
REMARK SMILES IDX 91 54 44 56 78 57 57 58 77 59 58 60 61 61 76 62 96 63 59 64
REMARK SMILES IDX 60 65 75 67 97 68 62 69 45 70 46 71 55 72 47 73 48 74 54 75
REMARK SMILES IDX 56 76 49 77 50 78 51 79 52 80 53 81 79 82 80 83 89 84 81 85
REMARK SMILES IDX 82 86 88 87 90 88 83 89 84 90 85 91 86 92 87 93 63 94 64 95
REMARK SMILES IDX 73 96 65 97 66 98 72 99 74 100 67 101 68 102 69 103 70 104
REMARK SMILES IDX 71 105
REMARK H PARENT 17 12 8 22 95 55 61 66
REMARK Flexibility Score: inf
ROOT
ATOM      1  C   UNL     1      -3.620   5.459   0.745  1.00  0.00     0.188 C 
ENDROOT
BRANCH   1   2
ATOM      2  O   UNL     1      -2.340   6.028   0.465  1.00  0.00    -0.376 OA
BRANCH   2   3
ATOM      3  C   UNL     1      -1.050   5.184   0.190  1.00  0.00     0.202 C 
BRANCH   3   4
ATOM      4  C   UNL     1       0.772   4.945   1.411  1.00  0.00     0.261 C 
BRANCH   4   5
ATOM      5  O   UNL     1       1.421   3.539   1.919  1.00  0.00    -0.463 OA
BRANCH   5   6
ATOM      6  C   UNL     1       1.200   3.249   3.210  1.00  0.00     0.306 C 
ATOM      7  O   UNL     1       1.292   4.161   4.011  1.00  0.00    -0.252 OA
BRANCH   6   8
ATOM      8  C   UNL     1       0.599   1.904   3.631  1.00  0.00     0.132 C 
BRANCH   8   9
ATOM      9  C   UNL     1       0.042   0.680   2.979  1.00  0.00     0.112 C 
BRANCH   9  10
ATOM     10  C   UNL     1       0.472   0.910   1.650  1.00  0.00     0.224 C 
ATOM     11  N   UNL     1       0.032   1.878   0.826  1.00  0.00    -0.325 N 
ATOM     12  H   UNL     1      -0.055   1.498  -0.078  1.00  0.00     0.169 HD
ATOM     13  O   UNL     1       1.481   0.262   1.370  1.00  0.00    -0.275 OA
BRANCH  11  14
ATOM     14  C   UNL     1      -0.355   3.253   0.776  1.00  0.00     0.054 A 
ATOM     15  C   UNL     1       0.612   4.064  -0.527  1.00  0.00     0.063 A 
ATOM     16  C   UNL     1       0.864   5.854  -0.518  1.00  0.00     0.016 A 
ATOM     17  C   UNL     1       0.127   6.864   0.775  1.00  0.00     0.001 A 
ATOM     18  C   UNL     1      -1.077   4.312   2.060  1.00  0.00     0.027 A 
ATOM     19  C   UNL     1      -0.850   6.110   2.070  1.00  0.00     0.002 A 
BRANCH  15  20
ATOM     20  C   UNL     1       1.217   3.305  -1.667  1.00  0.00     0.257 C 
ATOM     21  N   UNL     1       1.636   1.993  -1.494  1.00  0.00    -0.322 N 
ATOM     22  H   UNL     1       2.588   1.889  -1.268  1.00  0.00     0.170 HD
ATOM     23  O   UNL     1       1.522   3.955  -2.663  1.00  0.00    -0.269 OA
BRANCH  21  24
ATOM     24  C   UNL     1       0.900   0.761  -1.595  1.00  0.00     0.044 A 
ATOM     25  C   UNL     1       2.949  -0.537  -0.651  1.00  0.00     0.046 C 
ATOM     26  C   UNL     1       1.505  -0.440  -1.126  1.00  0.00    -0.027 A 
ATOM     27  C   UNL     1       0.678  -1.543  -0.803  1.00  0.00     0.005 A 
ATOM     28  C   UNL     1      -0.711  -1.453  -0.888  1.00  0.00     0.000 A 
ATOM     29  C   UNL     1      -0.499   0.797  -1.767  1.00  0.00     0.026 A 
ATOM     30  C   UNL     1      -1.297  -0.289  -1.374  1.00  0.00     0.002 A 
ENDBRANCH  21  24
ENDBRANCH  15  20
ENDBRANCH  11  14
ENDBRANCH   9  10
ENDBRANCH   8   9
ENDBRANCH   6   8
ENDBRANCH   5   6
ENDBRANCH   4   5
ENDBRANCH   3   4
ENDBRANCH   2   3
ENDBRANCH   1   2
BRANCH   1  31
ATOM     31  C   UNL     1      -3.837   3.969   0.861  1.00  0.00     0.188 C 
BRANCH  31  32
ATOM     32  O   UNL     1      -3.253   3.152  -0.148  1.00  0.00    -0.376 OA
BRANCH  32  33
ATOM     33  C   UNL     1      -4.050   3.004  -1.305  1.00  0.00     0.202 C 
BRANCH  33  34
ATOM     34  C   UNL     1      -5.322   2.156  -1.060  1.00  0.00     0.261 C 
BRANCH  34  35
ATOM     35  O   UNL     1      -5.518   1.818   0.353  1.00  0.00    -0.460 OA
BRANCH  35  36
ATOM     36  C   UNL     1      -5.227   0.610   0.914  1.00  0.00     0.338 C 
ATOM     37  O   UNL     1      -5.074  -0.427   0.280  1.00  0.00    -0.246 OA
BRANCH  36  38
ATOM     38  C   UNL     1      -4.604   0.845   2.293  1.00  0.00     0.060 A 
ATOM     39  C   UNL     1      -5.066   0.876   3.624  1.00  0.00     0.016 A 
ATOM     40  C   UNL     1      -3.297   1.193   2.180  1.00  0.00     0.016 A 
ATOM     41  C   UNL     1      -4.234   1.365   4.781  1.00  0.00     0.010 A 
ATOM     42  C   UNL     1      -2.605   1.756   3.279  1.00  0.00     0.010 A 
ATOM     43  C   UNL     1      -2.923   1.849   4.637  1.00  0.00    -0.014 A 
BRANCH  43  44
ATOM     44  C   UNL     1      -1.949   2.766   5.556  1.00  0.00     0.031 A 
ATOM     45  C   UNL     1      -0.450   2.432   6.234  1.00  0.00     0.074 A 
ATOM     46  C   UNL     1      -2.129   4.089   5.234  1.00  0.00     0.049 A 
ATOM     47  N   UNL     1       0.471   3.339   6.480  1.00  0.00    -0.248 NA
ATOM     48  C   UNL     1       0.199   1.109   6.441  1.00  0.00     0.031 C 
ATOM     49  C   UNL     1      -1.207   5.237   5.272  1.00  0.00     0.029 A 
ATOM     50  N   UNL     1      -3.303   4.707   4.778  1.00  0.00    -0.354 N 
ATOM     51  C   UNL     1       1.793   2.803   6.428  1.00  0.00     0.074 A 
ATOM     52  C   UNL     1       1.534   1.385   6.514  1.00  0.00     0.031 C 
ATOM     53  C   UNL     1      -1.887   6.397   5.210  1.00  0.00     0.029 A 
ATOM     54  C   UNL     1      -3.279   6.035   5.266  1.00  0.00     0.049 A 
ATOM     55  H   UNL     1      -4.007   4.296   4.226  1.00  0.00     0.167 HD
ATOM     56  C   UNL     1       2.906   3.634   6.181  1.00  0.00     0.037 A 
ATOM     57  C   UNL     1      -4.084   6.306   6.335  1.00  0.00     0.037 A 
ATOM     58  C   UNL     1       2.494   5.020   6.438  1.00  0.00     0.049 A 
ATOM     59  C   UNL     1      -3.204   6.398   7.600  1.00  0.00     0.074 A 
ATOM     60  C   UNL     1       2.382   6.242   5.798  1.00  0.00     0.029 A 
ATOM     61  N   UNL     1       1.849   5.182   7.638  1.00  0.00    -0.354 N 
ATOM     62  N   UNL     1      -2.016   5.832   7.689  1.00  0.00    -0.248 NA
ATOM     63  C   UNL     1      -3.405   7.333   8.710  1.00  0.00     0.031 C 
ATOM     64  C   UNL     1       1.409   7.012   6.553  1.00  0.00     0.029 A 
ATOM     65  C   UNL     1       1.004   6.261   7.657  1.00  0.00     0.049 A 
ATOM     66  H   UNL     1       1.980   4.583   8.408  1.00  0.00     0.167 HD
ATOM     67  C   UNL     1      -1.254   6.446   8.642  1.00  0.00     0.074 A 
ATOM     68  C   UNL     1      -2.198   7.323   9.313  1.00  0.00     0.031 C 
ATOM     69  C   UNL     1       0.105   6.353   8.809  1.00  0.00     0.037 A 
BRANCH  56  70
ATOM     70  C   UNL     1       4.392   3.353   5.709  1.00  0.00     0.058 A 
ATOM     71  C   UNL     1       5.434   4.321   5.883  1.00  0.00     0.135 A 
ATOM     72  C   UNL     1       4.832   2.222   4.984  1.00  0.00     0.135 A 
ATOM     73  F   UNL     1       5.188   5.492   6.491  1.00  0.00    -0.206 F 
ATOM     74  C   UNL     1       6.777   4.153   5.453  1.00  0.00     0.059 A 
ATOM     75  C   UNL     1       6.182   2.025   4.549  1.00  0.00     0.059 A 
ATOM     76  F   UNL     1       3.954   1.266   4.639  1.00  0.00    -0.206 F 
ATOM     77  C   UNL     1       7.157   2.989   4.804  1.00  0.00     0.060 A 
BRANCH  77  78
ATOM     78  S   UNL     1       8.914   2.757   4.350  1.00  0.00     0.124 S 
ATOM     79  O   UNL     1       9.153   3.847   3.409  1.00  0.00    -0.237 OA
ATOM     80  O   UNL     1       9.593   2.883   5.637  1.00  0.00    -0.237 OA
ATOM     81  O   UNL     1       8.948   1.418   3.766  1.00  0.00    -0.744 OA
ENDBRANCH  77  78
ENDBRANCH  56  70
BRANCH  57  82
ATOM     82  C   UNL     1      -5.465   5.809   5.948  1.00  0.00     0.058 A 
ATOM     83  C   UNL     1      -6.034   6.514   4.845  1.00  0.00     0.135 A 
ATOM     84  C   UNL     1      -5.859   4.459   6.056  1.00  0.00     0.135 A 
ATOM     85  F   UNL     1      -5.691   7.797   4.636  1.00  0.00    -0.206 F 
ATOM     86  C   UNL     1      -6.774   5.890   3.831  1.00  0.00     0.059 A 
ATOM     87  C   UNL     1      -6.638   3.822   5.056  1.00  0.00     0.059 A 
ATOM     88  F   UNL     1      -5.348   3.689   7.028  1.00  0.00    -0.206 F 
ATOM     89  C   UNL     1      -7.051   4.532   3.925  1.00  0.00     0.060 A 
BRANCH  89  90
ATOM     90  S   UNL     1      -7.834   3.716   2.496  1.00  0.00     0.124 S 
ATOM     91  O   UNL     1      -9.241   4.032   2.704  1.00  0.00    -0.237 OA
ATOM     92  O   UNL     1      -7.202   4.387   1.362  1.00  0.00    -0.237 OA
ATOM     93  O   UNL     1      -7.483   2.311   2.664  1.00  0.00    -0.744 OA
ENDBRANCH  89  90
ENDBRANCH  57  82
BRANCH  69  94
ATOM     94  C   UNL     1       0.651   6.038  10.206  1.00  0.00     0.058 A 
ATOM     95  C   UNL     1      -0.185   5.694  11.283  1.00  0.00     0.135 A 
ATOM     96  C   UNL     1       2.044   5.898  10.468  1.00  0.00     0.135 A 
ATOM     97  F   UNL     1      -1.517   5.618  11.155  1.00  0.00    -0.206 F 
ATOM     98  C   UNL     1       0.310   5.394  12.546  1.00  0.00     0.059 A 
ATOM     99  C   UNL     1       2.556   5.481  11.691  1.00  0.00     0.059 A 
ATOM    100  F   UNL     1       2.980   6.145   9.539  1.00  0.00    -0.206 F 
ATOM    101  C   UNL     1       1.681   5.314  12.746  1.00  0.00     0.060 A 
BRANCH 101 102
ATOM    102  S   UNL     1       2.305   5.077  14.409  1.00  0.00     0.124 S 
ATOM    103  O   UNL     1       2.170   6.426  14.949  1.00  0.00    -0.237 OA
ATOM    104  O   UNL     1       1.387   4.082  14.954  1.00  0.00    -0.237 OA
ATOM    105  O   UNL     1       3.673   4.615  14.198  1.00  0.00    -0.744 OA
ENDBRANCH 101 102
ENDBRANCH  69  94
ENDBRANCH  43  44
ENDBRANCH  36  38
ENDBRANCH  35  36
ENDBRANCH  34  35
ENDBRANCH  33  34
ENDBRANCH  32  33
ENDBRANCH  31  32
ENDBRANCH   1  31
TORSDOF 25
