REMARK SMILES CNC(=O)[C@H](C)S(=O)(=O)c1cc(C(=O)OCCOCCOCCOC(=O)c2ccc(-c3c4nc(c(-c5c(F)cc(S(=O)(=O)[O-])cc5F)c5ccc([nH]5)c(-c5c(F)cc(S(=O)(=O)[O-])cc5F)c5nc(c(-c6c(F)cc(S(=O)(=O)[O-])cc6F)c6ccc3[nH]6)C=C5)C=C4)cc2)c(C)cc1C
REMARK SMILES IDX 19 1 18 2 17 3 16 4 15 5 13 6 14 7 12 8 10 9 11 10 96 11
REMARK SMILES IDX 95 12 97 13 93 14 94 15 7 16 8 17 9 18 5 19 6 20 3 21 1 22
REMARK SMILES IDX 2 23 4 25 20 26 21 27 22 28 23 29 24 30 25 31 26 32 27 33
REMARK SMILES IDX 28 34 92 35 29 36 91 37 30 38 31 39 32 40 85 41 33 42 90 43
REMARK SMILES IDX 84 44 86 45 34 46 89 47 83 48 82 49 35 51 69 52 48 53 68 54
REMARK SMILES IDX 49 55 52 56 67 57 87 58 50 59 51 60 66 62 88 63 53 64 36 65
REMARK SMILES IDX 37 66 46 67 38 68 39 69 45 70 47 71 40 72 41 73 42 74 43 75
REMARK SMILES IDX 44 76 70 77 71 78 80 79 72 80 73 81 79 82 81 83 74 84 75 85
REMARK SMILES IDX 76 86 77 87 78 88 54 89 55 90 64 91 56 92 57 93 63 94 65 95
REMARK SMILES IDX 58 96 59 97 60 98 61 99 62 100
REMARK H PARENT 2 24 86 50 52 61
REMARK Flexibility Score: inf
ROOT
ATOM      1  C   UNL     1       3.344  -0.757  -1.835  1.00  0.00     0.188 C 
ENDROOT
BRANCH   1   2
ATOM      2  O   UNL     1       3.819  -1.369  -3.022  1.00  0.00    -0.376 OA
BRANCH   2   3
ATOM      3  C   UNL     1       3.616  -0.701  -4.262  1.00  0.00     0.202 C 
BRANCH   3   4
ATOM      4  C   UNL     1       2.185  -0.322  -4.629  1.00  0.00     0.261 C 
BRANCH   4   5
ATOM      5  O   UNL     1       1.670   0.654  -3.708  1.00  0.00    -0.460 OA
BRANCH   5   6
ATOM      6  C   UNL     1       0.352   0.547  -3.434  1.00  0.00     0.338 C 
ATOM      7  O   UNL     1      -0.427  -0.244  -3.942  1.00  0.00    -0.246 OA
BRANCH   6   8
ATOM      8  C   UNL     1      -0.021   1.414  -2.288  1.00  0.00     0.064 A 
ATOM      9  C   UNL     1      -1.262   1.517  -0.175  1.00  0.00     0.071 A 
ATOM     10  C   UNL     1      -0.812   0.802  -1.298  1.00  0.00     0.036 A 
ATOM     11  C   UNL     1      -1.073   2.907  -0.130  1.00  0.00    -0.032 A 
ATOM     12  C   UNL     1      -0.237   3.496  -1.103  1.00  0.00     0.009 A 
ATOM     13  C   UNL     1      -1.667   3.831   0.898  1.00  0.00     0.046 C 
ATOM     14  C   UNL     1       0.338   2.763  -2.158  1.00  0.00    -0.036 A 
ATOM     15  C   UNL     1       1.213   3.506  -3.129  1.00  0.00     0.045 C 
BRANCH   9  16
ATOM     16  S   UNL     1      -2.134   0.574   1.084  1.00  0.00     0.190 S 
ATOM     17  O   UNL     1      -3.080  -0.233   0.334  1.00  0.00    -0.223 OA
ATOM     18  O   UNL     1      -2.630   1.503   2.080  1.00  0.00    -0.223 OA
BRANCH  16  19
ATOM     19  C   UNL     1      -1.002  -0.521   1.886  1.00  0.00     0.199 C 
ATOM     20  C   UNL     1      -0.282  -1.530   1.013  1.00  0.00     0.036 C 
BRANCH  19  21
ATOM     21  C   UNL     1      -0.143   0.153   2.927  1.00  0.00     0.238 C 
ATOM     22  C   UNL     1       1.545   1.405   1.460  1.00  0.00     0.142 C 
ATOM     23  N   UNL     1       0.968   0.887   2.669  1.00  0.00    -0.358 N 
ATOM     24  H   UNL     1       1.486   1.110   3.476  1.00  0.00     0.163 HD
ATOM     25  O   UNL     1      -0.382  -0.017   4.127  1.00  0.00    -0.274 OA
ENDBRANCH  19  21
ENDBRANCH  16  19
ENDBRANCH   9  16
ENDBRANCH   6   8
ENDBRANCH   5   6
ENDBRANCH   4   5
ENDBRANCH   3   4
ENDBRANCH   2   3
ENDBRANCH   1   2
BRANCH   1  26
ATOM     26  C   UNL     1       3.852   0.646  -1.439  1.00  0.00     0.188 C 
BRANCH  26  27
ATOM     27  O   UNL     1       4.836   1.311  -2.212  1.00  0.00    -0.376 OA
BRANCH  27  28
ATOM     28  C   UNL     1       6.099   0.687  -2.418  1.00  0.00     0.202 C 
BRANCH  28  29
ATOM     29  C   UNL     1       6.859   0.110  -1.224  1.00  0.00     0.261 C 
BRANCH  29  30
ATOM     30  O   UNL     1       6.126  -0.907  -0.521  1.00  0.00    -0.460 OA
BRANCH  30  31
ATOM     31  C   UNL     1       6.170  -0.782   0.826  1.00  0.00     0.338 C 
ATOM     32  O   UNL     1       6.755   0.073   1.469  1.00  0.00    -0.246 OA
BRANCH  31  33
ATOM     33  C   UNL     1       5.270  -1.748   1.472  1.00  0.00     0.060 A 
ATOM     34  C   UNL     1       4.040  -1.272   1.929  1.00  0.00     0.016 A 
ATOM     35  C   UNL     1       5.712  -3.023   1.823  1.00  0.00     0.016 A 
ATOM     36  C   UNL     1       3.264  -2.044   2.785  1.00  0.00     0.010 A 
ATOM     37  C   UNL     1       4.931  -3.802   2.687  1.00  0.00     0.010 A 
ATOM     38  C   UNL     1       3.726  -3.296   3.207  1.00  0.00    -0.014 A 
BRANCH  38  39
ATOM     39  C   UNL     1       3.038  -3.938   4.355  1.00  0.00     0.031 A 
ATOM     40  C   UNL     1       3.625  -3.775   5.731  1.00  0.00     0.074 A 
ATOM     41  C   UNL     1       1.843  -4.536   4.197  1.00  0.00     0.049 A 
ATOM     42  N   UNL     1       3.201  -4.242   6.876  1.00  0.00    -0.248 NA
ATOM     43  C   UNL     1       4.858  -2.975   5.828  1.00  0.00     0.031 C 
ATOM     44  C   UNL     1       1.137  -4.684   2.926  1.00  0.00     0.029 A 
ATOM     45  N   UNL     1       0.998  -5.100   5.118  1.00  0.00    -0.354 N 
ATOM     46  C   UNL     1       4.128  -3.823   7.823  1.00  0.00     0.074 A 
ATOM     47  C   UNL     1       5.140  -3.065   7.119  1.00  0.00     0.031 C 
ATOM     48  C   UNL     1      -0.055  -5.261   3.153  1.00  0.00     0.029 A 
ATOM     49  C   UNL     1      -0.173  -5.575   4.576  1.00  0.00     0.049 A 
ATOM     50  H   UNL     1       1.210  -5.160   6.077  1.00  0.00     0.167 HD
ATOM     51  C   UNL     1       4.140  -4.057   9.157  1.00  0.00     0.037 A 
ATOM     52  C   UNL     1      -1.211  -6.207   5.161  1.00  0.00     0.037 A 
ATOM     53  C   UNL     1       3.120  -4.794   9.855  1.00  0.00     0.049 A 
ATOM     54  C   UNL     1      -1.164  -6.476   6.644  1.00  0.00     0.074 A 
ATOM     55  C   UNL     1       3.062  -5.130  11.195  1.00  0.00     0.029 A 
ATOM     56  N   UNL     1       1.968  -5.297   9.266  1.00  0.00    -0.354 N 
ATOM     57  N   UNL     1      -0.240  -6.144   7.515  1.00  0.00    -0.248 NA
ATOM     58  C   UNL     1      -2.293  -7.220   7.220  1.00  0.00     0.031 C 
ATOM     59  C   UNL     1       1.891  -5.866  11.411  1.00  0.00     0.029 A 
ATOM     60  C   UNL     1       1.197  -5.948  10.214  1.00  0.00     0.049 A 
ATOM     61  H   UNL     1       1.734  -5.204   8.315  1.00  0.00     0.167 HD
ATOM     62  C   UNL     1      -0.683  -6.628   8.743  1.00  0.00     0.074 A 
ATOM     63  C   UNL     1      -1.966  -7.255   8.505  1.00  0.00     0.031 C 
ATOM     64  C   UNL     1      -0.080  -6.565   9.957  1.00  0.00     0.037 A 
BRANCH  51  65
ATOM     65  C   UNL     1       5.332  -3.563   9.927  1.00  0.00     0.058 A 
ATOM     66  C   UNL     1       5.531  -2.203  10.209  1.00  0.00     0.135 A 
ATOM     67  C   UNL     1       6.305  -4.474  10.372  1.00  0.00     0.135 A 
ATOM     68  F   UNL     1       4.646  -1.288   9.783  1.00  0.00    -0.206 F 
ATOM     69  C   UNL     1       6.670  -1.758  10.875  1.00  0.00     0.059 A 
ATOM     70  C   UNL     1       7.438  -4.055  11.061  1.00  0.00     0.059 A 
ATOM     71  F   UNL     1       6.167  -5.786  10.123  1.00  0.00    -0.206 F 
ATOM     72  C   UNL     1       7.622  -2.692  11.290  1.00  0.00     0.060 A 
BRANCH  72  73
ATOM     73  S   UNL     1       9.110  -2.103  12.124  1.00  0.00     0.124 S 
ATOM     74  O   UNL     1       9.870  -1.551  11.007  1.00  0.00    -0.237 OA
ATOM     75  O   UNL     1       8.577  -1.129  13.071  1.00  0.00    -0.237 OA
ATOM     76  O   UNL     1       9.665  -3.314  12.723  1.00  0.00    -0.744 OA
ENDBRANCH  72  73
ENDBRANCH  51  65
BRANCH  52  77
ATOM     77  C   UNL     1      -2.368  -6.660   4.342  1.00  0.00     0.058 A 
ATOM     78  C   UNL     1      -3.640  -6.088   4.494  1.00  0.00     0.135 A 
ATOM     79  C   UNL     1      -2.226  -7.686   3.394  1.00  0.00     0.135 A 
ATOM     80  F   UNL     1      -3.834  -5.115   5.398  1.00  0.00    -0.206 F 
ATOM     81  C   UNL     1      -4.732  -6.524   3.748  1.00  0.00     0.059 A 
ATOM     82  C   UNL     1      -3.294  -8.120   2.617  1.00  0.00     0.059 A 
ATOM     83  F   UNL     1      -1.029  -8.262   3.201  1.00  0.00    -0.206 F 
ATOM     84  C   UNL     1      -4.548  -7.542   2.810  1.00  0.00     0.060 A 
BRANCH  84  85
ATOM     85  S   UNL     1      -5.954  -8.079   1.812  1.00  0.00     0.124 S 
ATOM     86  O   UNL     1      -6.690  -8.905   2.762  1.00  0.00    -0.237 OA
ATOM     87  O   UNL     1      -6.579  -6.812   1.447  1.00  0.00    -0.237 OA
ATOM     88  O   UNL     1      -5.323  -8.797   0.708  1.00  0.00    -0.744 OA
ENDBRANCH  84  85
ENDBRANCH  52  77
BRANCH  64  89
ATOM     89  C   UNL     1      -0.813  -7.170  11.123  1.00  0.00     0.058 A 
ATOM     90  C   UNL     1      -0.920  -8.560  11.286  1.00  0.00     0.135 A 
ATOM     91  C   UNL     1      -1.384  -6.347  12.107  1.00  0.00     0.135 A 
ATOM     92  F   UNL     1      -0.393  -9.390  10.373  1.00  0.00    -0.206 F 
ATOM     93  C   UNL     1      -1.597  -9.114  12.369  1.00  0.00     0.059 A 
ATOM     94  C   UNL     1      -2.043  -6.880  13.211  1.00  0.00     0.059 A 
ATOM     95  F   UNL     1      -1.296  -5.011  12.007  1.00  0.00    -0.206 F 
ATOM     96  C   UNL     1      -2.159  -8.265  13.324  1.00  0.00     0.060 A 
BRANCH  96  97
ATOM     97  S   UNL     1      -3.024  -8.992  14.732  1.00  0.00     0.124 S 
ATOM     98  O   UNL     1      -4.291  -9.386  14.127  1.00  0.00    -0.237 OA
ATOM     99  O   UNL     1      -2.137 -10.087  15.116  1.00  0.00    -0.237 OA
ATOM    100  O   UNL     1      -3.099  -7.893  15.690  1.00  0.00    -0.744 OA
ENDBRANCH  96  97
ENDBRANCH  64  89
ENDBRANCH  38  39
ENDBRANCH  31  33
ENDBRANCH  30  31
ENDBRANCH  29  30
ENDBRANCH  28  29
ENDBRANCH  27  28
ENDBRANCH  26  27
ENDBRANCH   1  26
TORSDOF 23
