REMARK SMILES C[C@@H](NC(=O)CNC(=O)N1CC(=O)Nc2ccccc21)C(=O)OCCOCCOCCOC(=O)c1ccc(-c2c3nc(c(-c4c(F)cc(S(=O)(=O)[O-])cc4F)c4ccc([nH]4)c(-c4c(F)cc(S(=O)(=O)[O-])cc4F)c4nc(c(-c5c(F)cc(S(=O)(=O)[O-])cc5F)c5ccc2[nH]5)C=C4)C=C3)cc1
REMARK SMILES IDX 27 1 26 2 25 3 24 4 23 5 21 6 22 7 2 8 1 9 3 10 4 11 5 13
REMARK SMILES IDX 6 14 7 15 8 16 9 18 10 19 11 20 20 21 12 22 15 23 19 24
REMARK SMILES IDX 13 25 14 26 16 27 18 28 17 30 28 31 29 32 30 33 31 34 32 35
REMARK SMILES IDX 33 36 34 37 35 38 36 39 100 40 37 41 99 42 38 43 39 44 40 45
REMARK SMILES IDX 93 46 41 47 98 48 92 49 94 50 42 51 97 52 91 53 90 54 43 56
REMARK SMILES IDX 77 57 56 58 76 59 57 60 60 61 75 62 95 63 58 64 59 65 74 67
REMARK SMILES IDX 96 68 61 69 44 70 45 71 54 72 46 73 47 74 53 75 55 76 48 77
REMARK SMILES IDX 49 78 50 79 51 80 52 81 78 82 79 83 88 84 80 85 81 86 87 87
REMARK SMILES IDX 89 88 82 89 83 90 84 91 85 92 86 93 62 94 63 95 72 96 64 97
REMARK SMILES IDX 65 98 71 99 73 100 66 101 67 102 68 103 69 104 70 105
REMARK H PARENT 3 12 7 17 14 29 94 55 60 66
REMARK Flexibility Score: inf
ROOT
ATOM      1  C   UNL     1      -3.374  -0.422   1.235  1.00  0.00     0.188 C 
ENDROOT
BRANCH   1   2
ATOM      2  O   UNL     1      -2.975  -1.509   0.362  1.00  0.00    -0.376 OA
BRANCH   2   3
ATOM      3  C   UNL     1      -3.784  -1.681  -0.826  1.00  0.00     0.202 C 
BRANCH   3   4
ATOM      4  C   UNL     1      -3.232  -2.701  -1.942  1.00  0.00     0.261 C 
BRANCH   4   5
ATOM      5  O   UNL     1      -1.848  -2.391  -2.425  1.00  0.00    -0.462 OA
BRANCH   5   6
ATOM      6  C   UNL     1      -1.198  -2.379  -3.630  1.00  0.00     0.328 C 
ATOM      7  O   UNL     1      -1.734  -2.643  -4.697  1.00  0.00    -0.250 OA
BRANCH   6   8
ATOM      8  C   UNL     1       0.345  -2.014  -3.489  1.00  0.00     0.189 C 
ATOM      9  C   UNL     1       0.940  -0.612  -3.261  1.00  0.00     0.043 C 
BRANCH   8  10
ATOM     10  N   UNL     1       0.912  -2.948  -2.538  1.00  0.00    -0.341 N 
ATOM     11  C   UNL     1       0.633  -3.038  -1.214  1.00  0.00     0.240 C 
ATOM     12  H   UNL     1       1.573  -3.587  -2.891  1.00  0.00     0.164 HD
ATOM     13  O   UNL     1       1.083  -4.027  -0.622  1.00  0.00    -0.273 OA
BRANCH  11  14
ATOM     14  C   UNL     1      -0.388  -2.103  -0.516  1.00  0.00     0.218 C 
BRANCH  14  15
ATOM     15  N   UNL     1      -0.619  -0.626  -0.799  1.00  0.00    -0.329 N 
ATOM     16  C   UNL     1      -1.178   0.473  -1.298  1.00  0.00     0.322 C 
ATOM     17  H   UNL     1       0.118  -0.230  -0.281  1.00  0.00     0.165 HD
ATOM     18  O   UNL     1      -0.678   1.420  -0.652  1.00  0.00    -0.248 OA
BRANCH  16  19
ATOM     19  N   UNL     1      -2.077   0.769  -2.285  1.00  0.00    -0.283 N 
ATOM     20  C   UNL     1      -2.770   0.148  -3.471  1.00  0.00     0.227 C 
ATOM     21  C   UNL     1      -2.411   2.182  -2.421  1.00  0.00     0.070 A 
ATOM     22  C   UNL     1      -2.205   0.661  -4.800  1.00  0.00     0.244 C 
ATOM     23  C   UNL     1      -2.330   2.781  -3.699  1.00  0.00     0.065 A 
ATOM     24  C   UNL     1      -2.958   2.902  -1.365  1.00  0.00     0.028 A 
ATOM     25  O   UNL     1      -2.176   0.007  -5.837  1.00  0.00    -0.273 OA
ATOM     26  N   UNL     1      -1.980   2.014  -4.815  1.00  0.00    -0.323 N 
ATOM     27  C   UNL     1      -2.708   4.099  -3.895  1.00  0.00     0.028 A 
ATOM     28  C   UNL     1      -3.436   4.190  -1.595  1.00  0.00     0.002 A 
ATOM     29  H   UNL     1      -1.575   2.442  -5.604  1.00  0.00     0.170 HD
ATOM     30  C   UNL     1      -3.276   4.801  -2.840  1.00  0.00     0.002 A 
ENDBRANCH  16  19
ENDBRANCH  14  15
ENDBRANCH  11  14
ENDBRANCH   8  10
ENDBRANCH   6   8
ENDBRANCH   5   6
ENDBRANCH   4   5
ENDBRANCH   3   4
ENDBRANCH   2   3
ENDBRANCH   1   2
BRANCH   1  31
ATOM     31  C   UNL     1      -2.196   0.150   2.079  1.00  0.00     0.188 C 
BRANCH  31  32
ATOM     32  O   UNL     1      -2.541   0.589   3.400  1.00  0.00    -0.376 OA
BRANCH  32  33
ATOM     33  C   UNL     1      -3.467   1.670   3.509  1.00  0.00     0.202 C 
BRANCH  33  34
ATOM     34  C   UNL     1      -2.878   3.091   3.478  1.00  0.00     0.261 C 
BRANCH  34  35
ATOM     35  O   UNL     1      -2.515   3.561   2.163  1.00  0.00    -0.460 OA
BRANCH  35  36
ATOM     36  C   UNL     1      -1.229   3.980   2.039  1.00  0.00     0.338 C 
ATOM     37  O   UNL     1      -0.317   3.773   2.836  1.00  0.00    -0.246 OA
BRANCH  36  38
ATOM     38  C   UNL     1      -1.030   4.825   0.840  1.00  0.00     0.060 A 
ATOM     39  C   UNL     1       0.072   4.585   0.010  1.00  0.00     0.016 A 
ATOM     40  C   UNL     1      -1.833   5.947   0.612  1.00  0.00     0.016 A 
ATOM     41  C   UNL     1       0.391   5.470  -1.031  1.00  0.00     0.010 A 
ATOM     42  C   UNL     1      -1.524   6.819  -0.443  1.00  0.00     0.010 A 
ATOM     43  C   UNL     1      -0.390   6.611  -1.256  1.00  0.00    -0.014 A 
BRANCH  43  44
ATOM     44  C   UNL     1       0.006   7.685  -2.216  1.00  0.00     0.031 A 
ATOM     45  C   UNL     1       0.418   9.023  -1.667  1.00  0.00     0.074 A 
ATOM     46  C   UNL     1      -0.057   7.536  -3.553  1.00  0.00     0.049 A 
ATOM     47  N   UNL     1       0.559  10.168  -2.282  1.00  0.00    -0.248 NA
ATOM     48  C   UNL     1       0.721   9.064  -0.228  1.00  0.00     0.031 C 
ATOM     49  C   UNL     1      -0.300   6.286  -4.257  1.00  0.00     0.029 A 
ATOM     50  N   UNL     1       0.016   8.473  -4.560  1.00  0.00    -0.354 N 
ATOM     51  C   UNL     1       0.966  11.069  -1.307  1.00  0.00     0.074 A 
ATOM     52  C   UNL     1       1.003  10.346  -0.052  1.00  0.00     0.031 C 
ATOM     53  C   UNL     1      -0.496   6.544  -5.561  1.00  0.00     0.029 A 
ATOM     54  C   UNL     1      -0.381   7.983  -5.783  1.00  0.00     0.049 A 
ATOM     55  H   UNL     1       0.320   9.399  -4.419  1.00  0.00     0.167 HD
ATOM     56  C   UNL     1       1.304  12.374  -1.444  1.00  0.00     0.037 A 
ATOM     57  C   UNL     1      -0.660   8.616  -6.940  1.00  0.00     0.037 A 
ATOM     58  C   UNL     1       1.287  13.096  -2.687  1.00  0.00     0.049 A 
ATOM     59  C   UNL     1      -0.413  10.094  -7.061  1.00  0.00     0.074 A 
ATOM     60  C   UNL     1       1.642  14.412  -2.924  1.00  0.00     0.029 A 
ATOM     61  N   UNL     1       0.886  12.564  -3.903  1.00  0.00    -0.354 N 
ATOM     62  N   UNL     1      -0.010  10.934  -6.140  1.00  0.00    -0.248 NA
ATOM     63  C   UNL     1      -0.615  10.703  -8.384  1.00  0.00     0.031 C 
ATOM     64  C   UNL     1       1.426  14.686  -4.281  1.00  0.00     0.029 A 
ATOM     65  C   UNL     1       0.967  13.530  -4.892  1.00  0.00     0.049 A 
ATOM     66  H   UNL     1       0.589  11.636  -4.042  1.00  0.00     0.167 HD
ATOM     67  C   UNL     1       0.158  12.154  -6.785  1.00  0.00     0.074 A 
ATOM     68  C   UNL     1      -0.222  11.953  -8.168  1.00  0.00     0.031 C 
ATOM     69  C   UNL     1       0.617  13.322  -6.276  1.00  0.00     0.037 A 
BRANCH  56  70
ATOM     70  C   UNL     1       1.695  13.096  -0.189  1.00  0.00     0.058 A 
ATOM     71  C   UNL     1       2.924  12.853   0.447  1.00  0.00     0.135 A 
ATOM     72  C   UNL     1       0.803  13.991   0.420  1.00  0.00     0.135 A 
ATOM     73  F   UNL     1       3.803  11.991  -0.089  1.00  0.00    -0.206 F 
ATOM     74  C   UNL     1       3.228  13.424   1.677  1.00  0.00     0.059 A 
ATOM     75  C   UNL     1       1.097  14.593   1.638  1.00  0.00     0.059 A 
ATOM     76  F   UNL     1      -0.382  14.258  -0.151  1.00  0.00    -0.206 F 
ATOM     77  C   UNL     1       2.297  14.277   2.274  1.00  0.00     0.060 A 
BRANCH  77  78
ATOM     78  S   UNL     1       2.655  14.946   3.911  1.00  0.00     0.124 S 
ATOM     79  O   UNL     1       2.293  13.820   4.766  1.00  0.00    -0.237 OA
ATOM     80  O   UNL     1       4.081  15.246   3.829  1.00  0.00    -0.237 OA
ATOM     81  O   UNL     1       1.778  16.109   3.998  1.00  0.00    -0.744 OA
ENDBRANCH  77  78
ENDBRANCH  56  70
BRANCH  57  82
ATOM     82  C   UNL     1      -1.213   7.846  -8.084  1.00  0.00     0.058 A 
ATOM     83  C   UNL     1      -0.408   7.477  -9.169  1.00  0.00     0.135 A 
ATOM     84  C   UNL     1      -2.561   7.454  -8.102  1.00  0.00     0.135 A 
ATOM     85  F   UNL     1       0.884   7.838  -9.197  1.00  0.00    -0.206 F 
ATOM     86  C   UNL     1      -0.919   6.749 -10.238  1.00  0.00     0.059 A 
ATOM     87  C   UNL     1      -3.093   6.716  -9.155  1.00  0.00     0.059 A 
ATOM     88  F   UNL     1      -3.369   7.773  -7.078  1.00  0.00    -0.206 F 
ATOM     89  C   UNL     1      -2.263   6.371 -10.221  1.00  0.00     0.060 A 
BRANCH  89  90
ATOM     90  S   UNL     1      -2.897   5.376 -11.589  1.00  0.00     0.124 S 
ATOM     91  O   UNL     1      -2.935   6.353 -12.670  1.00  0.00    -0.237 OA
ATOM     92  O   UNL     1      -1.880   4.335 -11.702  1.00  0.00    -0.237 OA
ATOM     93  O   UNL     1      -4.196   4.924 -11.098  1.00  0.00    -0.744 OA
ENDBRANCH  89  90
ENDBRANCH  57  82
BRANCH  69  94
ATOM     94  C   UNL     1       0.812  14.473  -7.220  1.00  0.00     0.058 A 
ATOM     95  C   UNL     1      -0.263  15.250  -7.675  1.00  0.00     0.135 A 
ATOM     96  C   UNL     1       2.109  14.858  -7.599  1.00  0.00     0.135 A 
ATOM     97  F   UNL     1      -1.522  14.917  -7.351  1.00  0.00    -0.206 F 
ATOM     98  C   UNL     1      -0.059  16.375  -8.470  1.00  0.00     0.059 A 
ATOM     99  C   UNL     1       2.338  15.988  -8.378  1.00  0.00     0.059 A 
ATOM    100  F   UNL     1       3.172  14.148  -7.188  1.00  0.00    -0.206 F 
ATOM    101  C   UNL     1       1.246  16.741  -8.809  1.00  0.00     0.060 A 
BRANCH 101 102
ATOM    102  S   UNL     1       1.507  18.249  -9.768  1.00  0.00     0.124 S 
ATOM    103  O   UNL     1       1.149  17.809 -11.112  1.00  0.00    -0.237 OA
ATOM    104  O   UNL     1       0.579  19.185  -9.140  1.00  0.00    -0.237 OA
ATOM    105  O   UNL     1       2.921  18.544  -9.557  1.00  0.00    -0.744 OA
ENDBRANCH 101 102
ENDBRANCH  69  94
ENDBRANCH  43  44
ENDBRANCH  36  38
ENDBRANCH  35  36
ENDBRANCH  34  35
ENDBRANCH  33  34
ENDBRANCH  32  33
ENDBRANCH  31  32
ENDBRANCH   1  31
TORSDOF 24
