REMARK SMILES Cn1ccc(-c2n[nH]c(=O)n2-c2ccc(C(=O)OCCOCCOCCOC(=O)c3ccc(-c4c5nc(c(-c6c(F)cc(S(=O)(=O)[O-])cc6F)c6ccc([nH]6)c(-c6c(F)cc(S(=O)(=O)[O-])cc6F)c6nc(c(-c7c(F)cc(S(=O)(=O)[O-])cc7F)c7ccc4[nH]7)C=C6)C=C5)cc3)cc2)n1
REMARK SMILES IDX 23 1 22 2 21 3 20 4 19 5 18 6 16 7 17 8 15 9 12 10 13 11
REMARK SMILES IDX 97 12 14 13 96 14 11 15 6 16 7 17 8 18 9 19 10 21 5 22 1 23
REMARK SMILES IDX 2 24 3 25 98 26 4 27 24 28 25 29 26 30 27 31 28 32 29 33
REMARK SMILES IDX 30 34 31 35 95 36 32 37 94 38 33 39 34 40 35 41 88 42 36 43
REMARK SMILES IDX 93 44 87 45 89 46 37 47 92 48 86 49 85 50 38 52 72 53 51 54
REMARK SMILES IDX 71 55 52 56 55 57 70 58 90 59 53 60 54 61 69 63 91 64 56 65
REMARK SMILES IDX 39 66 40 67 49 68 41 69 42 70 48 71 50 72 43 73 44 74 45 75
REMARK SMILES IDX 46 76 47 77 73 78 74 79 83 80 75 81 76 82 82 83 84 84 77 85
REMARK SMILES IDX 78 86 79 87 80 88 81 89 57 90 58 91 67 92 59 93 60 94 66 95
REMARK SMILES IDX 68 96 61 97 62 98 63 99 64 100 65 101
REMARK H PARENT 8 20 89 51 55 62
REMARK Flexibility Score: inf
ROOT
ATOM      1  C   UNL     1       1.698   3.563   6.965  1.00  0.00     0.188 C 
ENDROOT
BRANCH   1   2
ATOM      2  C   UNL     1       0.772   4.803   6.985  1.00  0.00     0.188 C 
BRANCH   2   3
ATOM      3  O   UNL     1      -0.243   4.939   7.973  1.00  0.00    -0.376 OA
BRANCH   3   4
ATOM      4  C   UNL     1      -1.026   3.813   8.345  1.00  0.00     0.202 C 
BRANCH   4   5
ATOM      5  C   UNL     1      -1.728   2.961   7.269  1.00  0.00     0.261 C 
BRANCH   5   6
ATOM      6  O   UNL     1      -0.912   2.590   6.146  1.00  0.00    -0.460 OA
BRANCH   6   7
ATOM      7  C   UNL     1      -1.243   3.144   4.956  1.00  0.00     0.338 C 
ATOM      8  O   UNL     1      -2.227   3.820   4.707  1.00  0.00    -0.246 OA
BRANCH   7   9
ATOM      9  C   UNL     1      -0.141   2.947   3.987  1.00  0.00     0.060 A 
ATOM     10  C   UNL     1       1.830   2.653   2.017  1.00  0.00     0.052 A 
ATOM     11  C   UNL     1       1.289   3.913   2.276  1.00  0.00     0.028 A 
ATOM     12  C   UNL     1       1.461   1.568   2.834  1.00  0.00     0.028 A 
ATOM     13  C   UNL     1       0.279   4.051   3.232  1.00  0.00     0.018 A 
ATOM     14  C   UNL     1       0.487   1.712   3.826  1.00  0.00     0.018 A 
BRANCH  10  15
ATOM     15  N   UNL     1       2.667   2.453   0.905  1.00  0.00    -0.242 N 
ATOM     16  C   UNL     1       2.616   1.444  -0.014  1.00  0.00     0.189 A 
ATOM     17  N   UNL     1       3.572   1.452  -0.903  1.00  0.00    -0.150 NA
ATOM     18  N   UNL     1       4.272   2.592  -0.600  1.00  0.00    -0.226 N 
ATOM     19  C   UNL     1       3.699   3.256   0.488  1.00  0.00     0.348 A 
ATOM     20  H   UNL     1       5.072   2.901  -1.084  1.00  0.00     0.195 HD
ATOM     21  O   UNL     1       4.095   4.319   0.943  1.00  0.00    -0.246 OA
BRANCH  16  22
ATOM     22  C   UNL     1       1.511   0.504  -0.086  1.00  0.00     0.130 A 
ATOM     23  C   UNL     1      -1.941  -0.060   0.002  1.00  0.00     0.173 C 
ATOM     24  N   UNL     1      -0.504  -0.176  -0.070  1.00  0.00    -0.275 N 
ATOM     25  C   UNL     1       0.236  -1.310  -0.217  1.00  0.00     0.109 A 
ATOM     26  N   UNL     1       0.238   0.935   0.004  1.00  0.00    -0.170 NA
ATOM     27  C   UNL     1       1.550  -0.901  -0.266  1.00  0.00     0.054 A 
ENDBRANCH  16  22
ENDBRANCH  10  15
ENDBRANCH   7   9
ENDBRANCH   6   7
ENDBRANCH   5   6
ENDBRANCH   4   5
ENDBRANCH   3   4
ENDBRANCH   2   3
ENDBRANCH   1   2
BRANCH   1  28
ATOM     28  O   UNL     1       1.279   2.502   7.807  1.00  0.00    -0.376 OA
BRANCH  28  29
ATOM     29  C   UNL     1       2.091   2.165   8.923  1.00  0.00     0.202 C 
BRANCH  29  30
ATOM     30  C   UNL     1       2.388   3.231   9.977  1.00  0.00     0.261 C 
BRANCH  30  31
ATOM     31  O   UNL     1       2.587   4.539   9.472  1.00  0.00    -0.460 OA
BRANCH  31  32
ATOM     32  C   UNL     1       3.794   4.774   8.922  1.00  0.00     0.338 C 
ATOM     33  O   UNL     1       4.627   3.946   8.600  1.00  0.00    -0.246 OA
BRANCH  32  34
ATOM     34  C   UNL     1       3.969   6.228   8.836  1.00  0.00     0.060 A 
ATOM     35  C   UNL     1       5.034   6.709   8.070  1.00  0.00     0.016 A 
ATOM     36  C   UNL     1       3.270   7.038   9.742  1.00  0.00     0.016 A 
ATOM     37  C   UNL     1       5.551   7.948   8.381  1.00  0.00     0.010 A 
ATOM     38  C   UNL     1       3.805   8.255  10.074  1.00  0.00     0.010 A 
ATOM     39  C   UNL     1       4.990   8.647   9.451  1.00  0.00    -0.014 A 
BRANCH  39  40
ATOM     40  C   UNL     1       5.729   9.759  10.010  1.00  0.00     0.031 A 
ATOM     41  C   UNL     1       5.452  11.072   9.393  1.00  0.00     0.074 A 
ATOM     42  C   UNL     1       6.449   9.574  11.135  1.00  0.00     0.049 A 
ATOM     43  N   UNL     1       6.284  11.901   8.856  1.00  0.00    -0.248 NA
ATOM     44  C   UNL     1       4.039  11.466   9.258  1.00  0.00     0.031 C 
ATOM     45  C   UNL     1       6.478   8.366  11.973  1.00  0.00     0.029 A 
ATOM     46  N   UNL     1       7.182  10.464  11.855  1.00  0.00    -0.354 N 
ATOM     47  C   UNL     1       5.523  13.018   8.525  1.00  0.00     0.074 A 
ATOM     48  C   UNL     1       4.145  12.619   8.603  1.00  0.00     0.031 C 
ATOM     49  C   UNL     1       6.988   8.680  13.182  1.00  0.00     0.029 A 
ATOM     50  C   UNL     1       7.407  10.071  13.169  1.00  0.00     0.049 A 
ATOM     51  H   UNL     1       7.521  11.309  11.481  1.00  0.00     0.167 HD
ATOM     52  C   UNL     1       6.066  14.264   8.494  1.00  0.00     0.037 A 
ATOM     53  C   UNL     1       7.794  10.869  14.194  1.00  0.00     0.037 A 
ATOM     54  C   UNL     1       7.498  14.215   8.349  1.00  0.00     0.049 A 
ATOM     55  C   UNL     1       8.356  12.113  13.604  1.00  0.00     0.074 A 
ATOM     56  C   UNL     1       8.357  13.658   7.420  1.00  0.00     0.029 A 
ATOM     57  N   UNL     1       8.271  14.513   9.445  1.00  0.00    -0.354 N 
ATOM     58  N   UNL     1       9.463  12.174  12.915  1.00  0.00    -0.248 NA
ATOM     59  C   UNL     1       7.462  13.251  13.436  1.00  0.00     0.031 C 
ATOM     60  C   UNL     1       9.500  13.245   8.162  1.00  0.00     0.029 A 
ATOM     61  C   UNL     1       9.290  13.597   9.496  1.00  0.00     0.049 A 
ATOM     62  H   UNL     1       8.120  15.251  10.079  1.00  0.00     0.167 HD
ATOM     63  C   UNL     1       9.227  13.130  11.937  1.00  0.00     0.074 A 
ATOM     64  C   UNL     1       8.031  13.838  12.380  1.00  0.00     0.031 C 
ATOM     65  C   UNL     1       9.852  13.073  10.724  1.00  0.00     0.037 A 
BRANCH  52  66
ATOM     66  C   UNL     1       5.333  15.491   8.986  1.00  0.00     0.058 A 
ATOM     67  C   UNL     1       5.895  16.762   8.762  1.00  0.00     0.135 A 
ATOM     68  C   UNL     1       4.262  15.453   9.912  1.00  0.00     0.135 A 
ATOM     69  F   UNL     1       6.919  16.914   7.908  1.00  0.00    -0.206 F 
ATOM     70  C   UNL     1       5.489  17.891   9.473  1.00  0.00     0.059 A 
ATOM     71  C   UNL     1       3.799  16.576  10.581  1.00  0.00     0.059 A 
ATOM     72  F   UNL     1       3.679  14.311  10.297  1.00  0.00    -0.206 F 
ATOM     73  C   UNL     1       4.455  17.780  10.399  1.00  0.00     0.060 A 
BRANCH  73  74
ATOM     74  S   UNL     1       4.033  19.186  11.439  1.00  0.00     0.124 S 
ATOM     75  O   UNL     1       5.174  19.220  12.346  1.00  0.00    -0.237 OA
ATOM     76  O   UNL     1       3.954  20.272  10.467  1.00  0.00    -0.237 OA
ATOM     77  O   UNL     1       2.760  18.791  12.034  1.00  0.00    -0.744 OA
ENDBRANCH  73  74
ENDBRANCH  52  66
BRANCH  53  78
ATOM     78  C   UNL     1       7.401  10.762  15.626  1.00  0.00     0.058 A 
ATOM     79  C   UNL     1       8.075  11.490  16.621  1.00  0.00     0.135 A 
ATOM     80  C   UNL     1       6.201  10.135  16.026  1.00  0.00     0.135 A 
ATOM     81  F   UNL     1       9.207  12.147  16.325  1.00  0.00    -0.206 F 
ATOM     82  C   UNL     1       7.575  11.617  17.922  1.00  0.00     0.059 A 
ATOM     83  C   UNL     1       5.697  10.226  17.321  1.00  0.00     0.059 A 
ATOM     84  F   UNL     1       5.426   9.483  15.147  1.00  0.00    -0.206 F 
ATOM     85  C   UNL     1       6.376  10.990  18.260  1.00  0.00     0.060 A 
BRANCH  85  86
ATOM     86  S   UNL     1       5.646  11.273  19.889  1.00  0.00     0.124 S 
ATOM     87  O   UNL     1       6.577  10.568  20.763  1.00  0.00    -0.237 OA
ATOM     88  O   UNL     1       5.659  12.729  19.984  1.00  0.00    -0.237 OA
ATOM     89  O   UNL     1       4.320  10.671  19.776  1.00  0.00    -0.744 OA
ENDBRANCH  85  86
ENDBRANCH  53  78
BRANCH  65  90
ATOM     90  C   UNL     1      11.061  12.187  10.586  1.00  0.00     0.058 A 
ATOM     91  C   UNL     1      11.029  10.786  10.700  1.00  0.00     0.135 A 
ATOM     92  C   UNL     1      12.267  12.768  10.165  1.00  0.00     0.135 A 
ATOM     93  F   UNL     1       9.889  10.145  10.991  1.00  0.00    -0.206 F 
ATOM     94  C   UNL     1      12.156  10.003  10.446  1.00  0.00     0.059 A 
ATOM     95  C   UNL     1      13.395  12.004   9.876  1.00  0.00     0.059 A 
ATOM     96  F   UNL     1      12.344  14.096   9.975  1.00  0.00    -0.206 F 
ATOM     97  C   UNL     1      13.335  10.621  10.030  1.00  0.00     0.060 A 
BRANCH  97  98
ATOM     98  S   UNL     1      14.761   9.596   9.604  1.00  0.00     0.124 S 
ATOM     99  O   UNL     1      15.247   9.186  10.918  1.00  0.00    -0.237 OA
ATOM    100  O   UNL     1      14.165   8.540   8.791  1.00  0.00    -0.237 OA
ATOM    101  O   UNL     1      15.633  10.513   8.874  1.00  0.00    -0.744 OA
ENDBRANCH  97  98
ENDBRANCH  65  90
ENDBRANCH  39  40
ENDBRANCH  32  34
ENDBRANCH  31  32
ENDBRANCH  30  31
ENDBRANCH  29  30
ENDBRANCH  28  29
ENDBRANCH   1  28
TORSDOF 22
