REMARK SMILES Cc1ccc([C@@]23C[C@@H]4C[C@@H](C[C@@](C(=O)N5CCC(C(=O)OCCOCCOCCOC(=O)c6ccc(-c7c8nc(c(-c9c(F)cc(S(=O)(=O)[O-])cc9F)c9ccc([nH]9)c(-c9c(F)cc(S(=O)(=O)[O-])cc9F)c9nc(c(-c%10c(F)cc(S(=O)(=O)[O-])cc%10F)c%10ccc7[nH]%10)C=C9)C=C8)cc6)CC5)(C4)C2)C3)cc1
REMARK SMILES IDX 26 1 25 2 24 3 23 4 22 5 21 6 19 7 20 8 18 9 13 10 14 11
REMARK SMILES IDX 15 12 16 13 100 14 17 15 99 16 12 17 6 18 7 19 102 20 103 21
REMARK SMILES IDX 8 22 10 23 9 24 101 25 11 26 5 27 1 28 2 29 3 30 105 31 4 32
REMARK SMILES IDX 104 33 27 34 28 35 29 36 30 37 31 38 32 39 33 40 34 41 98 42
REMARK SMILES IDX 35 43 97 44 36 45 37 46 38 47 91 48 39 49 96 50 90 51 92 52
REMARK SMILES IDX 40 53 95 54 89 55 88 56 41 58 75 59 54 60 74 61 55 62 58 63
REMARK SMILES IDX 73 64 93 65 56 66 57 67 72 69 94 70 59 71 42 72 43 73 52 74
REMARK SMILES IDX 44 75 45 76 51 77 53 78 46 79 47 80 48 81 49 82 50 83 76 84
REMARK SMILES IDX 77 85 86 86 78 87 79 88 85 89 87 90 80 91 81 92 82 93 83 94
REMARK SMILES IDX 84 95 60 96 61 97 70 98 62 99 63 100 69 101 71 102 64 103
REMARK SMILES IDX 65 104 66 105 67 106 68 107
REMARK H PARENT 92 57 58 68
REMARK Flexibility Score: inf
ROOT
ATOM      1  C   UNL     1      -8.898  -2.732  -9.147  1.00  0.00     0.188 C 
ENDROOT
BRANCH   1   2
ATOM      2  C   UNL     1      -9.124  -4.065  -8.431  1.00  0.00     0.188 C 
BRANCH   2   3
ATOM      3  O   UNL     1     -10.018  -4.167  -7.306  1.00  0.00    -0.376 OA
BRANCH   3   4
ATOM      4  C   UNL     1     -10.280  -3.094  -6.391  1.00  0.00     0.202 C 
BRANCH   4   5
ATOM      5  C   UNL     1      -9.905  -2.950  -4.761  1.00  0.00     0.261 C 
BRANCH   5   6
ATOM      6  O   UNL     1      -8.399  -3.086  -3.767  1.00  0.00    -0.463 OA
BRANCH   6   7
ATOM      7  C   UNL     1      -7.420  -4.056  -3.299  1.00  0.00     0.309 C 
ATOM      8  O   UNL     1      -7.370  -5.284  -3.461  1.00  0.00    -0.252 OA
BRANCH   7   9
ATOM      9  C   UNL     1      -6.204  -3.744  -2.545  1.00  0.00     0.103 C 
ATOM     10  C   UNL     1      -5.530  -1.907   0.519  1.00  0.00     0.228 C 
ATOM     11  O   UNL     1      -6.319  -2.336   1.361  1.00  0.00    -0.274 OA
ATOM     12  N   UNL     1      -4.873  -2.745  -0.390  1.00  0.00    -0.342 N 
ATOM     13  C   UNL     1      -5.127  -4.165  -0.283  1.00  0.00     0.120 C 
ATOM     14  C   UNL     1      -4.459  -2.344  -1.742  1.00  0.00     0.120 C 
ATOM     15  C   UNL     1      -6.323  -4.452  -1.159  1.00  0.00     0.037 C 
ATOM     16  C   UNL     1      -5.707  -2.349  -2.604  1.00  0.00     0.037 C 
BRANCH  10  17
ATOM     17  C   UNL     1      -5.143  -0.432   0.490  1.00  0.00     0.051 C 
ATOM     18  C   UNL     1      -2.980   0.933   0.486  1.00  0.00    -0.003 C 
ATOM     19  C   UNL     1      -3.519   1.594  -0.819  1.00  0.00     0.015 C 
ATOM     20  C   UNL     1      -3.618  -0.444   0.620  1.00  0.00     0.028 C 
ATOM     21  C   UNL     1      -3.511   1.742   1.698  1.00  0.00     0.015 C 
ATOM     22  C   UNL     1      -5.056   1.728  -0.803  1.00  0.00    -0.009 C 
ATOM     23  C   UNL     1      -5.064   1.782   1.700  1.00  0.00    -0.009 C 
ATOM     24  C   UNL     1      -5.533   2.501   0.425  1.00  0.00     0.007 C 
ATOM     25  C   UNL     1      -5.665   0.334  -0.744  1.00  0.00     0.020 C 
ATOM     26  C   UNL     1      -5.654   0.349   1.721  1.00  0.00     0.020 C 
BRANCH  18  27
ATOM     27  C   UNL     1      -1.447   0.775   0.432  1.00  0.00    -0.042 A 
ATOM     28  C   UNL     1       2.843   0.294  -0.059  1.00  0.00     0.044 C 
ATOM     29  C   UNL     1       1.370   0.482   0.129  1.00  0.00    -0.051 A 
ATOM     30  C   UNL     1       0.565  -0.638   0.287  1.00  0.00     0.004 A 
ATOM     31  C   UNL     1       0.771   1.747   0.134  1.00  0.00     0.004 A 
ATOM     32  C   UNL     1      -0.811  -0.490   0.451  1.00  0.00     0.004 A 
ATOM     33  C   UNL     1      -0.618   1.891   0.283  1.00  0.00     0.004 A 
ENDBRANCH  18  27
ENDBRANCH  10  17
ENDBRANCH   7   9
ENDBRANCH   6   7
ENDBRANCH   5   6
ENDBRANCH   4   5
ENDBRANCH   3   4
ENDBRANCH   2   3
ENDBRANCH   1   2
BRANCH   1  34
ATOM     34  O   UNL     1      -8.715  -1.695  -8.203  1.00  0.00    -0.376 OA
BRANCH  34  35
ATOM     35  C   UNL     1      -8.538  -0.389  -8.706  1.00  0.00     0.202 C 
BRANCH  35  36
ATOM     36  C   UNL     1      -7.120  -0.146  -9.242  1.00  0.00     0.261 C 
BRANCH  36  37
ATOM     37  O   UNL     1      -6.111  -0.124  -8.200  1.00  0.00    -0.460 OA
BRANCH  37  38
ATOM     38  C   UNL     1      -5.211  -1.178  -8.139  1.00  0.00     0.338 C 
ATOM     39  O   UNL     1      -4.113  -1.117  -8.644  1.00  0.00    -0.246 OA
BRANCH  38  40
ATOM     40  C   UNL     1      -5.712  -2.247  -7.208  1.00  0.00     0.060 A 
ATOM     41  C   UNL     1      -5.469  -3.626  -7.185  1.00  0.00     0.016 A 
ATOM     42  C   UNL     1      -6.632  -1.824  -6.326  1.00  0.00     0.016 A 
ATOM     43  C   UNL     1      -6.340  -4.589  -6.484  1.00  0.00     0.010 A 
ATOM     44  C   UNL     1      -7.539  -2.767  -5.863  1.00  0.00     0.010 A 
ATOM     45  C   UNL     1      -7.542  -4.215  -5.861  1.00  0.00    -0.014 A 
BRANCH  45  46
ATOM     46  C   UNL     1      -8.805  -5.318  -5.208  1.00  0.00     0.031 A 
ATOM     47  C   UNL     1      -9.631  -5.405  -3.565  1.00  0.00     0.074 A 
ATOM     48  C   UNL     1      -8.964  -6.494  -5.855  1.00  0.00     0.049 A 
ATOM     49  N   UNL     1      -9.785  -6.506  -2.839  1.00  0.00    -0.248 NA
ATOM     50  C   UNL     1     -10.045  -4.276  -2.595  1.00  0.00     0.031 C 
ATOM     51  C   UNL     1      -9.935  -7.530  -5.534  1.00  0.00     0.029 A 
ATOM     52  N   UNL     1      -8.151  -7.064  -6.835  1.00  0.00    -0.354 N 
ATOM     53  C   UNL     1     -10.280  -6.176  -1.549  1.00  0.00     0.074 A 
ATOM     54  C   UNL     1     -10.290  -4.785  -1.417  1.00  0.00     0.031 C 
ATOM     55  C   UNL     1      -9.530  -8.682  -6.084  1.00  0.00     0.029 A 
ATOM     56  C   UNL     1      -8.227  -8.453  -6.680  1.00  0.00     0.049 A 
ATOM     57  H   UNL     1      -7.623  -6.580  -7.511  1.00  0.00     0.167 HD
ATOM     58  C   UNL     1     -10.824  -7.017  -0.632  1.00  0.00     0.037 A 
ATOM     59  C   UNL     1      -7.128  -9.241  -6.532  1.00  0.00     0.037 A 
ATOM     60  C   UNL     1     -10.787  -8.339  -1.155  1.00  0.00     0.049 A 
ATOM     61  C   UNL     1      -7.193 -10.127  -5.311  1.00  0.00     0.074 A 
ATOM     62  C   UNL     1     -11.598  -8.961  -2.083  1.00  0.00     0.029 A 
ATOM     63  N   UNL     1      -9.580  -8.999  -1.137  1.00  0.00    -0.354 N 
ATOM     64  N   UNL     1      -7.990  -9.919  -4.297  1.00  0.00    -0.248 NA
ATOM     65  C   UNL     1      -6.385 -11.331  -5.139  1.00  0.00     0.031 C 
ATOM     66  C   UNL     1     -10.828  -9.975  -2.696  1.00  0.00     0.029 A 
ATOM     67  C   UNL     1      -9.592 -10.007  -2.074  1.00  0.00     0.049 A 
ATOM     68  H   UNL     1      -8.824  -8.784  -0.544  1.00  0.00     0.167 HD
ATOM     69  C   UNL     1      -7.794 -10.893  -3.349  1.00  0.00     0.074 A 
ATOM     70  C   UNL     1      -6.801 -11.768  -3.937  1.00  0.00     0.031 C 
ATOM     71  C   UNL     1      -8.456 -10.897  -2.156  1.00  0.00     0.037 A 
BRANCH  58  72
ATOM     72  C   UNL     1     -11.710  -6.484   0.491  1.00  0.00     0.058 A 
ATOM     73  C   UNL     1     -13.030  -6.951   0.615  1.00  0.00     0.135 A 
ATOM     74  C   UNL     1     -11.380  -5.402   1.346  1.00  0.00     0.135 A 
ATOM     75  F   UNL     1     -13.453  -8.006  -0.095  1.00  0.00    -0.206 F 
ATOM     76  C   UNL     1     -13.982  -6.326   1.427  1.00  0.00     0.059 A 
ATOM     77  C   UNL     1     -12.335  -4.714   2.115  1.00  0.00     0.059 A 
ATOM     78  F   UNL     1     -10.120  -4.935   1.402  1.00  0.00    -0.206 F 
ATOM     79  C   UNL     1     -13.643  -5.181   2.141  1.00  0.00     0.060 A 
BRANCH  79  80
ATOM     80  S   UNL     1     -14.942  -4.303   3.045  1.00  0.00     0.124 S 
ATOM     81  O   UNL     1     -16.037  -4.276   2.078  1.00  0.00    -0.237 OA
ATOM     82  O   UNL     1     -15.143  -5.168   4.202  1.00  0.00    -0.237 OA
ATOM     83  O   UNL     1     -14.344  -3.001   3.328  1.00  0.00    -0.744 OA
ENDBRANCH  79  80
ENDBRANCH  58  72
BRANCH  59  84
ATOM     84  C   UNL     1      -5.909  -8.738  -7.230  1.00  0.00     0.058 A 
ATOM     85  C   UNL     1      -5.984  -8.587  -8.632  1.00  0.00     0.135 A 
ATOM     86  C   UNL     1      -4.850  -8.091  -6.579  1.00  0.00     0.135 A 
ATOM     87  F   UNL     1      -6.965  -9.195  -9.321  1.00  0.00    -0.206 F 
ATOM     88  C   UNL     1      -5.149  -7.724  -9.334  1.00  0.00     0.059 A 
ATOM     89  C   UNL     1      -3.984  -7.226  -7.270  1.00  0.00     0.059 A 
ATOM     90  F   UNL     1      -4.712  -8.190  -5.249  1.00  0.00    -0.206 F 
ATOM     91  C   UNL     1      -4.180  -7.011  -8.639  1.00  0.00     0.060 A 
BRANCH  91  92
ATOM     92  S   UNL     1      -3.331  -5.685  -9.538  1.00  0.00     0.124 S 
ATOM     93  O   UNL     1      -2.624  -6.420 -10.580  1.00  0.00    -0.237 OA
ATOM     94  O   UNL     1      -4.460  -4.877  -9.997  1.00  0.00    -0.237 OA
ATOM     95  O   UNL     1      -2.494  -5.071  -8.514  1.00  0.00    -0.744 OA
ENDBRANCH  91  92
ENDBRANCH  59  84
BRANCH  71  96
ATOM     96  C   UNL     1      -8.164 -11.742  -0.933  1.00  0.00     0.058 A 
ATOM     97  C   UNL     1      -6.899 -12.257  -0.621  1.00  0.00     0.135 A 
ATOM     98  C   UNL     1      -9.152 -11.900   0.079  1.00  0.00     0.135 A 
ATOM     99  F   UNL     1      -5.852 -12.083  -1.438  1.00  0.00    -0.206 F 
ATOM    100  C   UNL     1      -6.644 -12.934   0.574  1.00  0.00     0.059 A 
ATOM    101  C   UNL     1      -8.899 -12.502   1.305  1.00  0.00     0.059 A 
ATOM    102  F   UNL     1     -10.407 -11.453  -0.081  1.00  0.00    -0.206 F 
ATOM    103  C   UNL     1      -7.649 -13.050   1.531  1.00  0.00     0.060 A 
BRANCH 103 104
ATOM    104  S   UNL     1      -7.332 -13.891   3.090  1.00  0.00     0.124 S 
ATOM    105  O   UNL     1      -7.841 -15.229   2.802  1.00  0.00    -0.237 OA
ATOM    106  O   UNL     1      -5.882 -13.787   3.231  1.00  0.00    -0.237 OA
ATOM    107  O   UNL     1      -8.106 -13.111   4.049  1.00  0.00    -0.744 OA
ENDBRANCH 103 104
ENDBRANCH  71  96
ENDBRANCH  45  46
ENDBRANCH  38  40
ENDBRANCH  37  38
ENDBRANCH  36  37
ENDBRANCH  35  36
ENDBRANCH  34  35
ENDBRANCH   1  34
TORSDOF 22
