REMARK SMILES CS(=O)(=O)c1ccc(/C=C(/C(=O)OCCOCCOCCOC(=O)c2ccc(-c3c4nc(c(-c5c(F)cc(S(=O)(=O)[O-])cc5F)c5ccc([nH]5)c(-c5c(F)cc(S(=O)(=O)[O-])cc5F)c5nc(c(-c6c(F)cc(S(=O)(=O)[O-])cc6F)c6ccc3[nH]6)C=C5)C=C4)cc2)c2ccc(F)cc2)cc1
REMARK SMILES IDX 18 1 17 2 16 3 15 4 14 5 13 6 11 7 12 8 10 9 9 10 8 11 5 12
REMARK SMILES IDX 6 13 99 14 7 15 98 16 2 17 1 18 3 19 4 20 91 21 92 22 97 23
REMARK SMILES IDX 93 24 96 25 94 26 95 27 19 28 20 29 21 30 22 31 23 32 24 33
REMARK SMILES IDX 25 34 26 35 90 36 27 37 89 38 28 39 29 40 30 41 83 42 31 43
REMARK SMILES IDX 88 44 82 45 84 46 32 47 87 48 81 49 80 50 33 52 67 53 46 54
REMARK SMILES IDX 66 55 47 56 50 57 65 58 85 59 48 60 49 61 64 63 86 64 51 65
REMARK SMILES IDX 34 66 35 67 44 68 36 69 37 70 43 71 45 72 38 73 39 74 40 75
REMARK SMILES IDX 41 76 42 77 68 78 69 79 78 80 70 81 71 82 77 83 79 84 72 85
REMARK SMILES IDX 73 86 74 87 75 88 76 89 52 90 53 91 62 92 54 93 55 94 61 95
REMARK SMILES IDX 63 96 56 97 57 98 58 99 59 100 60 101
REMARK H PARENT 84 51 50 62
REMARK Flexibility Score: inf
ROOT
ATOM      1  C   UNL     1       1.842  -9.534   3.611  1.00  0.00     0.188 C 
ENDROOT
BRANCH   1   2
ATOM      2  C   UNL     1       1.554 -10.718   2.665  1.00  0.00     0.188 C 
BRANCH   2   3
ATOM      3  O   UNL     1       2.608 -11.658   2.633  1.00  0.00    -0.376 OA
BRANCH   3   4
ATOM      4  C   UNL     1       3.423 -11.675   1.475  1.00  0.00     0.202 C 
BRANCH   4   5
ATOM      5  C   UNL     1       4.082 -10.375   0.969  1.00  0.00     0.261 C 
BRANCH   5   6
ATOM      6  O   UNL     1       3.351  -9.151   1.149  1.00  0.00    -0.460 OA
BRANCH   6   7
ATOM      7  C   UNL     1       2.528  -8.748   0.148  1.00  0.00     0.338 C 
ATOM      8  O   UNL     1       2.357  -9.350  -0.900  1.00  0.00    -0.246 OA
BRANCH   7   9
ATOM      9  C   UNL     1       1.769  -7.506   0.537  1.00  0.00     0.067 C 
ATOM     10  C   UNL     1       2.397  -6.532   1.244  1.00  0.00     0.024 C 
BRANCH  10  11
ATOM     11  C   UNL     1       1.911  -5.171   1.601  1.00  0.00    -0.025 A 
ATOM     12  C   UNL     1       1.088  -2.491   1.825  1.00  0.00     0.067 A 
ATOM     13  C   UNL     1       0.146  -3.512   1.914  1.00  0.00     0.021 A 
ATOM     14  C   UNL     1       2.448  -2.793   1.757  1.00  0.00     0.021 A 
ATOM     15  C   UNL     1       0.569  -4.844   1.844  1.00  0.00     0.009 A 
ATOM     16  C   UNL     1       2.853  -4.129   1.640  1.00  0.00     0.009 A 
BRANCH  12  17
ATOM     17  S   UNL     1       0.565  -0.796   1.750  1.00  0.00     0.175 S 
ATOM     18  C   UNL     1       1.073  -0.274   0.129  1.00  0.00     0.163 C 
ATOM     19  O   UNL     1       1.347  -0.063   2.727  1.00  0.00    -0.224 OA
ATOM     20  O   UNL     1      -0.884  -0.769   1.776  1.00  0.00    -0.224 OA
ENDBRANCH  12  17
ENDBRANCH  10  11
BRANCH   9  21
ATOM     21  C   UNL     1       0.359  -7.397   0.105  1.00  0.00    -0.011 A 
ATOM     22  C   UNL     1      -0.631  -8.125   0.791  1.00  0.00     0.012 A 
ATOM     23  C   UNL     1      -0.029  -6.482  -0.884  1.00  0.00     0.012 A 
ATOM     24  C   UNL     1      -1.983  -7.911   0.521  1.00  0.00     0.040 A 
ATOM     25  C   UNL     1      -1.385  -6.263  -1.142  1.00  0.00     0.040 A 
ATOM     26  C   UNL     1      -2.347  -6.973  -0.434  1.00  0.00     0.123 A 
ATOM     27  F   UNL     1      -3.644  -6.726  -0.653  1.00  0.00    -0.207 F 
ENDBRANCH   9  21
ENDBRANCH   7   9
ENDBRANCH   6   7
ENDBRANCH   5   6
ENDBRANCH   4   5
ENDBRANCH   3   4
ENDBRANCH   2   3
ENDBRANCH   1   2
BRANCH   1  28
ATOM     28  O   UNL     1       3.012  -9.528   4.418  1.00  0.00    -0.376 OA
BRANCH  28  29
ATOM     29  C   UNL     1       3.413 -10.721   5.074  1.00  0.00     0.202 C 
BRANCH  29  30
ATOM     30  C   UNL     1       2.413 -11.538   5.916  1.00  0.00     0.261 C 
BRANCH  30  31
ATOM     31  O   UNL     1       1.063 -11.610   5.436  1.00  0.00    -0.460 OA
BRANCH  31  32
ATOM     32  C   UNL     1       0.172 -10.807   6.077  1.00  0.00     0.338 C 
ATOM     33  O   UNL     1       0.396 -10.054   6.999  1.00  0.00    -0.246 OA
BRANCH  32  34
ATOM     34  C   UNL     1      -1.120 -10.845   5.351  1.00  0.00     0.060 A 
ATOM     35  C   UNL     1      -1.622  -9.649   4.818  1.00  0.00     0.016 A 
ATOM     36  C   UNL     1      -1.849 -12.029   5.231  1.00  0.00     0.016 A 
ATOM     37  C   UNL     1      -2.857  -9.631   4.170  1.00  0.00     0.010 A 
ATOM     38  C   UNL     1      -3.103 -12.004   4.608  1.00  0.00     0.010 A 
ATOM     39  C   UNL     1      -3.622 -10.802   4.093  1.00  0.00    -0.014 A 
BRANCH  39  40
ATOM     40  C   UNL     1      -5.032 -10.731   3.636  1.00  0.00     0.031 A 
ATOM     41  C   UNL     1      -6.113 -10.547   4.666  1.00  0.00     0.074 A 
ATOM     42  C   UNL     1      -5.350 -10.812   2.332  1.00  0.00     0.049 A 
ATOM     43  N   UNL     1      -7.410 -10.498   4.508  1.00  0.00    -0.248 NA
ATOM     44  C   UNL     1      -5.668 -10.403   6.061  1.00  0.00     0.031 C 
ATOM     45  C   UNL     1      -4.393 -10.954   1.237  1.00  0.00     0.029 A 
ATOM     46  N   UNL     1      -6.574 -10.791   1.709  1.00  0.00    -0.354 N 
ATOM     47  C   UNL     1      -7.938 -10.325   5.782  1.00  0.00     0.074 A 
ATOM     48  C   UNL     1      -6.822 -10.300   6.703  1.00  0.00     0.031 C 
ATOM     49  C   UNL     1      -5.067 -11.006   0.074  1.00  0.00     0.029 A 
ATOM     50  C   UNL     1      -6.503 -10.948   0.345  1.00  0.00     0.049 A 
ATOM     51  H   UNL     1      -7.422 -10.674   2.195  1.00  0.00     0.167 HD
ATOM     52  C   UNL     1      -9.235 -10.198   6.152  1.00  0.00     0.037 A 
ATOM     53  C   UNL     1      -7.486 -11.061  -0.573  1.00  0.00     0.037 A 
ATOM     54  C   UNL     1     -10.345 -10.245   5.235  1.00  0.00     0.049 A 
ATOM     55  C   UNL     1      -8.927 -10.997  -0.128  1.00  0.00     0.074 A 
ATOM     56  C   UNL     1     -11.695 -10.125   5.513  1.00  0.00     0.029 A 
ATOM     57  N   UNL     1     -10.236 -10.444   3.866  1.00  0.00    -0.354 N 
ATOM     58  N   UNL     1      -9.414 -10.815   1.077  1.00  0.00    -0.248 NA
ATOM     59  C   UNL     1      -9.954 -11.162  -1.168  1.00  0.00     0.031 C 
ATOM     60  C   UNL     1     -12.405 -10.309   4.322  1.00  0.00     0.029 A 
ATOM     61  C   UNL     1     -11.496 -10.479   3.290  1.00  0.00     0.049 A 
ATOM     62  H   UNL     1      -9.388 -10.544   3.376  1.00  0.00     0.167 HD
ATOM     63  C   UNL     1     -10.800 -10.812   0.934  1.00  0.00     0.074 A 
ATOM     64  C   UNL     1     -11.073 -11.002  -0.475  1.00  0.00     0.031 C 
ATOM     65  C   UNL     1     -11.758 -10.662   1.883  1.00  0.00     0.037 A 
BRANCH  52  66
ATOM     66  C   UNL     1      -9.523 -10.040   7.619  1.00  0.00     0.058 A 
ATOM     67  C   UNL     1      -9.200  -8.865   8.317  1.00  0.00     0.135 A 
ATOM     68  C   UNL     1     -10.144 -11.077   8.336  1.00  0.00     0.135 A 
ATOM     69  F   UNL     1      -8.588  -7.851   7.686  1.00  0.00    -0.206 F 
ATOM     70  C   UNL     1      -9.452  -8.736   9.679  1.00  0.00     0.059 A 
ATOM     71  C   UNL     1     -10.432 -10.958   9.692  1.00  0.00     0.059 A 
ATOM     72  F   UNL     1     -10.471 -12.223   7.719  1.00  0.00    -0.206 F 
ATOM     73  C   UNL     1     -10.066  -9.790  10.358  1.00  0.00     0.060 A 
BRANCH  73  74
ATOM     74  S   UNL     1     -10.375  -9.612  12.128  1.00  0.00     0.124 S 
ATOM     75  O   UNL     1      -9.024  -9.711  12.670  1.00  0.00    -0.237 OA
ATOM     76  O   UNL     1     -10.994  -8.293  12.205  1.00  0.00    -0.237 OA
ATOM     77  O   UNL     1     -11.257 -10.734  12.434  1.00  0.00    -0.744 OA
ENDBRANCH  73  74
ENDBRANCH  52  66
BRANCH  53  78
ATOM     78  C   UNL     1      -7.146 -11.268  -2.008  1.00  0.00     0.058 A 
ATOM     79  C   UNL     1      -7.417 -10.282  -2.969  1.00  0.00     0.135 A 
ATOM     80  C   UNL     1      -6.553 -12.462  -2.450  1.00  0.00     0.135 A 
ATOM     81  F   UNL     1      -8.001  -9.132  -2.602  1.00  0.00    -0.206 F 
ATOM     82  C   UNL     1      -7.123 -10.475  -4.315  1.00  0.00     0.059 A 
ATOM     83  C   UNL     1      -6.223 -12.666  -3.786  1.00  0.00     0.059 A 
ATOM     84  F   UNL     1      -6.269 -13.437  -1.572  1.00  0.00    -0.206 F 
ATOM     85  C   UNL     1      -6.521 -11.669  -4.714  1.00  0.00     0.060 A 
BRANCH  85  86
ATOM     86  S   UNL     1      -6.097 -11.889  -6.456  1.00  0.00     0.124 S 
ATOM     87  O   UNL     1      -7.413 -12.062  -7.060  1.00  0.00    -0.237 OA
ATOM     88  O   UNL     1      -5.412 -10.637  -6.764  1.00  0.00    -0.237 OA
ATOM     89  O   UNL     1      -5.245 -13.075  -6.448  1.00  0.00    -0.744 OA
ENDBRANCH  85  86
ENDBRANCH  53  78
BRANCH  65  90
ATOM     90  C   UNL     1     -13.197 -10.656   1.435  1.00  0.00     0.058 A 
ATOM     91  C   UNL     1     -13.845 -11.821   0.996  1.00  0.00     0.135 A 
ATOM     92  C   UNL     1     -13.956  -9.476   1.507  1.00  0.00     0.135 A 
ATOM     93  F   UNL     1     -13.167 -12.977   0.903  1.00  0.00    -0.206 F 
ATOM     94  C   UNL     1     -15.186 -11.812   0.624  1.00  0.00     0.059 A 
ATOM     95  C   UNL     1     -15.306  -9.450   1.170  1.00  0.00     0.059 A 
ATOM     96  F   UNL     1     -13.392  -8.333   1.931  1.00  0.00    -0.206 F 
ATOM     97  C   UNL     1     -15.910 -10.622   0.718  1.00  0.00     0.060 A 
BRANCH  97  98
ATOM     98  S   UNL     1     -17.659 -10.633   0.269  1.00  0.00     0.124 S 
ATOM     99  O   UNL     1     -17.590 -10.750  -1.184  1.00  0.00    -0.237 OA
ATOM    100  O   UNL     1     -18.156 -11.810   0.976  1.00  0.00    -0.237 OA
ATOM    101  O   UNL     1     -18.149  -9.354   0.773  1.00  0.00    -0.744 OA
ENDBRANCH  97  98
ENDBRANCH  65  90
ENDBRANCH  39  40
ENDBRANCH  32  34
ENDBRANCH  31  32
ENDBRANCH  30  31
ENDBRANCH  29  30
ENDBRANCH  28  29
ENDBRANCH   1  28
TORSDOF 23
