REMARK SMILES COC(=O)c1ccccc1-c1ccc(/C=C(\C#N)C(=O)OCCOCCOCCOC(=O)c2ccc(-c3c4nc(c(-c5c(F)cc(S(=O)(=O)[O-])cc5F)c5ccc([nH]5)c(-c5c(F)cc(S(=O)(=O)[O-])cc5F)c5nc(c(-c6c(F)cc(S(=O)(=O)[O-])cc6F)c6ccc3[nH]6)C=C5)C=C4)cc2)o1
REMARK SMILES IDX 25 1 24 2 23 3 22 4 21 5 19 6 20 7 16 8 15 9 14 10 11 11
REMARK SMILES IDX 12 12 99 13 13 14 10 15 5 16 6 17 7 18 9 19 8 20 3 21 4 22
REMARK SMILES IDX 2 23 1 24 17 25 18 26 26 27 27 28 28 29 29 30 30 31 31 32
REMARK SMILES IDX 32 33 33 34 34 35 98 36 35 37 97 38 36 39 37 40 38 41 91 42
REMARK SMILES IDX 39 43 96 44 90 45 92 46 40 47 95 48 89 49 88 50 41 52 75 53
REMARK SMILES IDX 54 54 74 55 55 56 58 57 73 58 93 59 56 60 57 61 72 63 94 64
REMARK SMILES IDX 59 65 42 66 43 67 52 68 44 69 45 70 51 71 53 72 46 73 47 74
REMARK SMILES IDX 48 75 49 76 50 77 76 78 77 79 86 80 78 81 79 82 85 83 87 84
REMARK SMILES IDX 80 85 81 86 82 87 83 88 84 89 60 90 61 91 70 92 62 93 63 94
REMARK SMILES IDX 69 95 71 96 64 97 65 98 66 99 67 100 68 101
REMARK H PARENT 92 51 58 62
REMARK Flexibility Score: inf
ROOT
ATOM      1  C   UNL     1      -4.775  -1.432   5.334  1.00  0.00     0.188 C 
ENDROOT
BRANCH   1   2
ATOM      2  O   UNL     1      -5.832  -1.852   6.170  1.00  0.00    -0.376 OA
BRANCH   2   3
ATOM      3  C   UNL     1      -6.478  -3.102   5.997  1.00  0.00     0.202 C 
BRANCH   3   4
ATOM      4  C   UNL     1      -6.659  -3.769   4.630  1.00  0.00     0.261 C 
BRANCH   4   5
ATOM      5  O   UNL     1      -5.483  -3.759   3.816  1.00  0.00    -0.459 OA
BRANCH   5   6
ATOM      6  C   UNL     1      -5.548  -2.925   2.752  1.00  0.00     0.349 C 
ATOM      7  O   UNL     1      -6.541  -2.320   2.375  1.00  0.00    -0.245 OA
BRANCH   6   8
ATOM      8  C   UNL     1      -4.204  -2.739   2.155  1.00  0.00     0.141 C 
ATOM      9  C   UNL     1      -4.047  -1.566   1.501  1.00  0.00     0.074 C 
BRANCH   9  10
ATOM     10  C   UNL     1      -3.192  -1.394   0.370  1.00  0.00     0.129 A 
ATOM     11  C   UNL     1      -1.839  -1.930  -1.322  1.00  0.00     0.135 A 
ATOM     12  C   UNL     1      -2.136  -0.596  -1.479  1.00  0.00     0.051 A 
ATOM     13  O   UNL     1      -2.474  -2.408  -0.221  1.00  0.00    -0.457 OA
ATOM     14  C   UNL     1      -2.992  -0.254  -0.401  1.00  0.00     0.051 A 
BRANCH  11  15
ATOM     15  C   UNL     1      -0.999  -2.885  -2.031  1.00  0.00     0.032 A 
ATOM     16  C   UNL     1       0.363  -2.646  -2.293  1.00  0.00     0.071 A 
ATOM     17  C   UNL     1       1.114  -3.554  -3.058  1.00  0.00     0.016 A 
ATOM     18  C   UNL     1       0.524  -4.720  -3.542  1.00  0.00     0.001 A 
ATOM     19  C   UNL     1      -1.569  -4.075  -2.513  1.00  0.00     0.013 A 
ATOM     20  C   UNL     1      -0.815  -4.984  -3.264  1.00  0.00     0.001 A 
BRANCH  16  21
ATOM     21  C   UNL     1       1.063  -1.438  -1.809  1.00  0.00     0.338 C 
ATOM     22  O   UNL     1       1.799  -0.762  -2.513  1.00  0.00    -0.246 OA
BRANCH  21  23
ATOM     23  O   UNL     1       0.792  -1.245  -0.498  1.00  0.00    -0.465 OA
ATOM     24  C   UNL     1       1.258  -0.002   0.025  1.00  0.00     0.282 C 
ENDBRANCH  21  23
ENDBRANCH  16  21
ENDBRANCH  11  15
ENDBRANCH   9  10
BRANCH   8  25
ATOM     25  C   UNL     1      -3.486  -4.002   1.708  1.00  0.00     0.107 C 
ATOM     26  N   UNL     1      -2.891  -5.049   1.336  1.00  0.00    -0.192 NA
ENDBRANCH   8  25
ENDBRANCH   6   8
ENDBRANCH   5   6
ENDBRANCH   4   5
ENDBRANCH   3   4
ENDBRANCH   2   3
ENDBRANCH   1   2
BRANCH   1  27
ATOM     27  C   UNL     1      -3.470  -2.256   5.245  1.00  0.00     0.188 C 
BRANCH  27  28
ATOM     28  O   UNL     1      -3.335  -3.451   5.969  1.00  0.00    -0.376 OA
BRANCH  28  29
ATOM     29  C   UNL     1      -3.316  -3.375   7.381  1.00  0.00     0.202 C 
BRANCH  29  30
ATOM     30  C   UNL     1      -2.710  -2.182   8.146  1.00  0.00     0.261 C 
BRANCH  30  31
ATOM     31  O   UNL     1      -2.927  -0.869   7.603  1.00  0.00    -0.460 OA
BRANCH  31  32
ATOM     32  C   UNL     1      -1.833  -0.267   7.050  1.00  0.00     0.338 C 
ATOM     33  O   UNL     1      -0.712  -0.722   6.970  1.00  0.00    -0.246 OA
BRANCH  32  34
ATOM     34  C   UNL     1      -2.266   0.959   6.339  1.00  0.00     0.060 A 
ATOM     35  C   UNL     1      -2.142   1.040   4.939  1.00  0.00     0.016 A 
ATOM     36  C   UNL     1      -2.768   2.035   7.064  1.00  0.00     0.016 A 
ATOM     37  C   UNL     1      -2.509   2.208   4.263  1.00  0.00     0.010 A 
ATOM     38  C   UNL     1      -3.100   3.212   6.392  1.00  0.00     0.010 A 
ATOM     39  C   UNL     1      -2.947   3.317   4.996  1.00  0.00    -0.014 A 
BRANCH  39  40
ATOM     40  C   UNL     1      -3.032   4.667   4.387  1.00  0.00     0.031 A 
ATOM     41  C   UNL     1      -1.863   5.592   4.587  1.00  0.00     0.074 A 
ATOM     42  C   UNL     1      -4.142   5.100   3.764  1.00  0.00     0.049 A 
ATOM     43  N   UNL     1      -1.780   6.881   4.398  1.00  0.00    -0.248 NA
ATOM     44  C   UNL     1      -0.625   4.973   5.090  1.00  0.00     0.031 C 
ATOM     45  C   UNL     1      -5.316   4.286   3.457  1.00  0.00     0.029 A 
ATOM     46  N   UNL     1      -4.475   6.356   3.315  1.00  0.00    -0.354 N 
ATOM     47  C   UNL     1      -0.495   7.235   4.791  1.00  0.00     0.074 A 
ATOM     48  C   UNL     1       0.163   6.027   5.237  1.00  0.00     0.031 C 
ATOM     49  C   UNL     1      -6.257   5.073   2.905  1.00  0.00     0.029 A 
ATOM     50  C   UNL     1      -5.774   6.454   2.872  1.00  0.00     0.049 A 
ATOM     51  H   UNL     1      -3.844   7.112   3.311  1.00  0.00     0.167 HD
ATOM     52  C   UNL     1       0.080   8.460   4.787  1.00  0.00     0.037 A 
ATOM     53  C   UNL     1      -6.500   7.539   2.531  1.00  0.00     0.037 A 
ATOM     54  C   UNL     1      -0.588   9.655   4.348  1.00  0.00     0.049 A 
ATOM     55  C   UNL     1      -5.868   8.909   2.609  1.00  0.00     0.074 A 
ATOM     56  C   UNL     1      -0.091  10.945   4.292  1.00  0.00     0.029 A 
ATOM     57  N   UNL     1      -1.899   9.709   3.898  1.00  0.00    -0.354 N 
ATOM     58  N   UNL     1      -4.652   9.237   2.978  1.00  0.00    -0.248 NA
ATOM     59  C   UNL     1      -6.707  10.059   2.233  1.00  0.00     0.031 C 
ATOM     60  C   UNL     1      -1.120  11.788   3.864  1.00  0.00     0.029 A 
ATOM     61  C   UNL     1      -2.235  11.013   3.583  1.00  0.00     0.049 A 
ATOM     62  H   UNL     1      -2.501   8.934   3.815  1.00  0.00     0.167 HD
ATOM     63  C   UNL     1      -4.567  10.620   2.834  1.00  0.00     0.074 A 
ATOM     64  C   UNL     1      -5.856  11.070   2.354  1.00  0.00     0.031 C 
ATOM     65  C   UNL     1      -3.514  11.441   3.070  1.00  0.00     0.037 A 
BRANCH  52  66
ATOM     66  C   UNL     1       1.485   8.575   5.310  1.00  0.00     0.058 A 
ATOM     67  C   UNL     1       2.582   8.045   4.612  1.00  0.00     0.135 A 
ATOM     68  C   UNL     1       1.740   9.254   6.513  1.00  0.00     0.135 A 
ATOM     69  F   UNL     1       2.393   7.368   3.469  1.00  0.00    -0.206 F 
ATOM     70  C   UNL     1       3.879   8.162   5.101  1.00  0.00     0.059 A 
ATOM     71  C   UNL     1       3.032   9.411   7.005  1.00  0.00     0.059 A 
ATOM     72  F   UNL     1       0.727   9.775   7.223  1.00  0.00    -0.206 F 
ATOM     73  C   UNL     1       4.093   8.849   6.298  1.00  0.00     0.060 A 
BRANCH  73  74
ATOM     74  S   UNL     1       5.783   8.996   6.914  1.00  0.00     0.124 S 
ATOM     75  O   UNL     1       6.061   7.626   7.333  1.00  0.00    -0.237 OA
ATOM     76  O   UNL     1       6.505   9.456   5.732  1.00  0.00    -0.237 OA
ATOM     77  O   UNL     1       5.669   9.971   7.994  1.00  0.00    -0.744 OA
ENDBRANCH  73  74
ENDBRANCH  52  66
BRANCH  53  78
ATOM     78  C   UNL     1      -7.920   7.386   2.107  1.00  0.00     0.058 A 
ATOM     79  C   UNL     1      -8.311   7.652   0.786  1.00  0.00     0.135 A 
ATOM     80  C   UNL     1      -8.915   6.977   3.010  1.00  0.00     0.135 A 
ATOM     81  F   UNL     1      -7.402   8.061  -0.112  1.00  0.00    -0.206 F 
ATOM     82  C   UNL     1      -9.636   7.531   0.377  1.00  0.00     0.059 A 
ATOM     83  C   UNL     1     -10.241   6.820   2.618  1.00  0.00     0.059 A 
ATOM     84  F   UNL     1      -8.595   6.704   4.284  1.00  0.00    -0.206 F 
ATOM     85  C   UNL     1     -10.593   7.109   1.300  1.00  0.00     0.060 A 
BRANCH  85  86
ATOM     86  S   UNL     1     -12.300   6.905   0.743  1.00  0.00     0.124 S 
ATOM     87  O   UNL     1     -12.712   8.290   0.547  1.00  0.00    -0.237 OA
ATOM     88  O   UNL     1     -12.130   6.111  -0.470  1.00  0.00    -0.237 OA
ATOM     89  O   UNL     1     -12.936   6.208   1.857  1.00  0.00    -0.744 OA
ENDBRANCH  85  86
ENDBRANCH  53  78
BRANCH  65  90
ATOM     90  C   UNL     1      -3.658  12.903   2.745  1.00  0.00     0.058 A 
ATOM     91  C   UNL     1      -4.396  13.779   3.554  1.00  0.00     0.135 A 
ATOM     92  C   UNL     1      -2.933  13.454   1.674  1.00  0.00     0.135 A 
ATOM     93  F   UNL     1      -5.113  13.304   4.585  1.00  0.00    -0.206 F 
ATOM     94  C   UNL     1      -4.404  15.151   3.318  1.00  0.00     0.059 A 
ATOM     95  C   UNL     1      -2.904  14.824   1.436  1.00  0.00     0.059 A 
ATOM     96  F   UNL     1      -2.203  12.660   0.873  1.00  0.00    -0.206 F 
ATOM     97  C   UNL     1      -3.643  15.665   2.266  1.00  0.00     0.060 A 
BRANCH  97  98
ATOM     98  S   UNL     1      -3.587  17.455   2.031  1.00  0.00     0.124 S 
ATOM     99  O   UNL     1      -4.929  17.729   1.527  1.00  0.00    -0.237 OA
ATOM    100  O   UNL     1      -3.306  17.936   3.380  1.00  0.00    -0.237 OA
ATOM    101  O   UNL     1      -2.506  17.640   1.067  1.00  0.00    -0.744 OA
ENDBRANCH  97  98
ENDBRANCH  65  90
ENDBRANCH  39  40
ENDBRANCH  32  34
ENDBRANCH  31  32
ENDBRANCH  30  31
ENDBRANCH  29  30
ENDBRANCH  28  29
ENDBRANCH  27  28
ENDBRANCH   1  27
TORSDOF 25
