REMARK SMILES O=C(Cc1c[nH]c(=O)n(Cc2ccccc2)c1=O)OCCOCCOCCOC(=O)c1ccc(-c2c3nc(c(-c4c(F)cc(S(=O)(=O)[O-])cc4F)c4ccc([nH]4)c(-c4c(F)cc(S(=O)(=O)[O-])cc4F)c4nc(c(-c5c(F)cc(S(=O)(=O)[O-])cc5F)c5ccc2[nH]5)C=C4)C=C3)cc1
REMARK SMILES IDX 23 1 22 2 21 3 20 4 19 5 2 6 1 7 3 8 4 9 5 10 17 11 6 12
REMARK SMILES IDX 9 13 18 14 7 15 8 17 10 18 11 19 12 20 16 21 13 22 15 23
REMARK SMILES IDX 14 24 24 25 25 26 26 27 27 28 28 29 29 30 30 31 31 32 32 33
REMARK SMILES IDX 96 34 33 35 95 36 34 37 35 38 36 39 89 40 37 41 94 42 88 43
REMARK SMILES IDX 90 44 38 45 93 46 87 47 86 48 39 50 73 51 52 52 72 53 53 54
REMARK SMILES IDX 56 55 71 56 91 57 54 58 55 59 70 61 92 62 57 63 40 64 41 65
REMARK SMILES IDX 50 66 42 67 43 68 49 69 51 70 44 71 45 72 46 73 47 74 48 75
REMARK SMILES IDX 74 76 75 77 84 78 76 79 77 80 83 81 85 82 78 83 79 84 80 85
REMARK SMILES IDX 81 86 82 87 58 88 59 89 68 90 60 91 61 92 67 93 69 94 62 95
REMARK SMILES IDX 63 96 64 97 65 98 66 99
REMARK H PARENT 6 16 90 49 56 60
REMARK Flexibility Score: inf
ROOT
ATOM      1  C   UNL     1       3.088   0.105  -2.044  1.00  0.00     0.188 C 
ENDROOT
BRANCH   1   2
ATOM      2  O   UNL     1       4.456  -0.150  -1.796  1.00  0.00    -0.376 OA
BRANCH   2   3
ATOM      3  C   UNL     1       4.926   0.045  -0.477  1.00  0.00     0.202 C 
BRANCH   3   4
ATOM      4  C   UNL     1       4.326  -0.925   0.530  1.00  0.00     0.261 C 
BRANCH   4   5
ATOM      5  O   UNL     1       2.891  -0.879   0.716  1.00  0.00    -0.463 OA
BRANCH   5   6
ATOM      6  C   UNL     1       2.078   0.108   1.151  1.00  0.00     0.310 C 
ATOM      7  O   UNL     1       0.892  -0.146   1.367  1.00  0.00    -0.252 OA
BRANCH   6   8
ATOM      8  C   UNL     1       2.556   1.553   1.183  1.00  0.00     0.165 C 
BRANCH   8   9
ATOM      9  C   UNL     1       3.534   1.997   2.210  1.00  0.00     0.045 A 
ATOM     10  C   UNL     1       3.905   3.280   2.320  1.00  0.00     0.097 A 
ATOM     11  C   UNL     1       4.118   1.046   3.186  1.00  0.00     0.260 A 
ATOM     12  N   UNL     1       4.752   3.668   3.311  1.00  0.00    -0.314 N 
ATOM     13  N   UNL     1       5.285   1.458   3.782  1.00  0.00    -0.256 N 
ATOM     14  O   UNL     1       3.586  -0.039   3.397  1.00  0.00    -0.269 OA
ATOM     15  C   UNL     1       5.394   2.786   4.142  1.00  0.00     0.328 A 
ATOM     16  H   UNL     1       4.912   4.631   3.438  1.00  0.00     0.171 HD
ATOM     17  O   UNL     1       5.980   3.196   5.139  1.00  0.00    -0.248 OA
BRANCH  13  18
ATOM     18  C   UNL     1       6.141   0.455   4.404  1.00  0.00     0.166 C 
BRANCH  18  19
ATOM     19  C   UNL     1       7.594   0.549   3.959  1.00  0.00    -0.028 A 
ATOM     20  C   UNL     1       8.414   1.581   4.441  1.00  0.00     0.005 A 
ATOM     21  C   UNL     1       8.159  -0.382   3.074  1.00  0.00     0.005 A 
ATOM     22  C   UNL     1       9.736   1.717   4.023  1.00  0.00     0.000 A 
ATOM     23  C   UNL     1       9.500  -0.266   2.682  1.00  0.00     0.000 A 
ATOM     24  C   UNL     1      10.283   0.790   3.147  1.00  0.00     0.000 A 
ENDBRANCH  18  19
ENDBRANCH  13  18
ENDBRANCH   8   9
ENDBRANCH   6   8
ENDBRANCH   5   6
ENDBRANCH   4   5
ENDBRANCH   3   4
ENDBRANCH   2   3
ENDBRANCH   1   2
BRANCH   1  25
ATOM     25  C   UNL     1       2.281  -1.085  -2.586  1.00  0.00     0.188 C 
BRANCH  25  26
ATOM     26  O   UNL     1       2.938  -2.297  -2.925  1.00  0.00    -0.376 OA
BRANCH  26  27
ATOM     27  C   UNL     1       4.209  -2.247  -3.555  1.00  0.00     0.202 C 
BRANCH  27  28
ATOM     28  C   UNL     1       4.359  -1.446  -4.860  1.00  0.00     0.261 C 
BRANCH  28  29
ATOM     29  O   UNL     1       4.053  -0.038  -4.778  1.00  0.00    -0.460 OA
BRANCH  29  30
ATOM     30  C   UNL     1       2.932   0.380  -5.421  1.00  0.00     0.338 C 
ATOM     31  O   UNL     1       2.149  -0.317  -6.050  1.00  0.00    -0.246 OA
BRANCH  30  32
ATOM     32  C   UNL     1       2.671   1.809  -5.120  1.00  0.00     0.060 A 
ATOM     33  C   UNL     1       3.598   2.797  -5.449  1.00  0.00     0.016 A 
ATOM     34  C   UNL     1       1.456   2.167  -4.510  1.00  0.00     0.016 A 
ATOM     35  C   UNL     1       3.294   4.143  -5.198  1.00  0.00     0.010 A 
ATOM     36  C   UNL     1       1.164   3.510  -4.241  1.00  0.00     0.010 A 
ATOM     37  C   UNL     1       2.069   4.516  -4.608  1.00  0.00    -0.014 A 
BRANCH  37  38
ATOM     38  C   UNL     1       1.675   5.952  -4.561  1.00  0.00     0.031 A 
ATOM     39  C   UNL     1       1.739   6.771  -3.303  1.00  0.00     0.074 A 
ATOM     40  C   UNL     1       1.252   6.529  -5.704  1.00  0.00     0.049 A 
ATOM     41  N   UNL     1       1.539   8.056  -3.150  1.00  0.00    -0.248 NA
ATOM     42  C   UNL     1       2.060   6.061  -2.057  1.00  0.00     0.031 C 
ATOM     43  C   UNL     1       1.104   5.833  -6.984  1.00  0.00     0.029 A 
ATOM     44  N   UNL     1       0.886   7.822  -5.983  1.00  0.00    -0.354 N 
ATOM     45  C   UNL     1       1.742   8.323  -1.802  1.00  0.00     0.074 A 
ATOM     46  C   UNL     1       2.027   7.049  -1.169  1.00  0.00     0.031 C 
ATOM     47  C   UNL     1       0.714   6.713  -7.918  1.00  0.00     0.029 A 
ATOM     48  C   UNL     1       0.560   8.029  -7.303  1.00  0.00     0.049 A 
ATOM     49  H   UNL     1       0.859   8.534  -5.303  1.00  0.00     0.167 HD
ATOM     50  C   UNL     1       1.714   9.518  -1.160  1.00  0.00     0.037 A 
ATOM     51  C   UNL     1       0.189   9.149  -7.954  1.00  0.00     0.037 A 
ATOM     52  C   UNL     1       1.401  10.780  -1.790  1.00  0.00     0.049 A 
ATOM     53  C   UNL     1       0.117  10.453  -7.208  1.00  0.00     0.074 A 
ATOM     54  C   UNL     1       1.386  12.043  -1.221  1.00  0.00     0.029 A 
ATOM     55  N   UNL     1       1.032  10.943  -3.118  1.00  0.00    -0.354 N 
ATOM     56  N   UNL     1       0.401  10.699  -5.951  1.00  0.00    -0.248 NA
ATOM     57  C   UNL     1      -0.319  11.633  -7.968  1.00  0.00     0.031 C 
ATOM     58  C   UNL     1       0.954  12.959  -2.186  1.00  0.00     0.029 A 
ATOM     59  C   UNL     1       0.757  12.278  -3.375  1.00  0.00     0.049 A 
ATOM     60  H   UNL     1       0.974  10.217  -3.780  1.00  0.00     0.167 HD
ATOM     61  C   UNL     1       0.199  12.064  -5.777  1.00  0.00     0.074 A 
ATOM     62  C   UNL     1      -0.213  12.594  -7.060  1.00  0.00     0.031 C 
ATOM     63  C   UNL     1       0.342  12.807  -4.652  1.00  0.00     0.037 A 
BRANCH  50  64
ATOM     64  C   UNL     1       2.052   9.543   0.307  1.00  0.00     0.058 A 
ATOM     65  C   UNL     1       3.366   9.333   0.752  1.00  0.00     0.135 A 
ATOM     66  C   UNL     1       1.083   9.880   1.268  1.00  0.00     0.135 A 
ATOM     67  F   UNL     1       4.332   9.000  -0.119  1.00  0.00    -0.206 F 
ATOM     68  C   UNL     1       3.705   9.436   2.097  1.00  0.00     0.059 A 
ATOM     69  C   UNL     1       1.404  10.012   2.617  1.00  0.00     0.059 A 
ATOM     70  F   UNL     1      -0.188  10.100   0.898  1.00  0.00    -0.206 F 
ATOM     71  C   UNL     1       2.717   9.778   3.022  1.00  0.00     0.060 A 
BRANCH  71  72
ATOM     72  S   UNL     1       3.183   9.885   4.762  1.00  0.00     0.124 S 
ATOM     73  O   UNL     1       3.503   8.490   5.053  1.00  0.00    -0.237 OA
ATOM     74  O   UNL     1       4.318  10.801   4.721  1.00  0.00    -0.237 OA
ATOM     75  O   UNL     1       1.980  10.401   5.407  1.00  0.00    -0.744 OA
ENDBRANCH  71  72
ENDBRANCH  50  64
BRANCH  51  76
ATOM     76  C   UNL     1      -0.110   9.087  -9.410  1.00  0.00     0.058 A 
ATOM     77  C   UNL     1       0.741   9.690 -10.348  1.00  0.00     0.135 A 
ATOM     78  C   UNL     1      -1.236   8.402  -9.893  1.00  0.00     0.135 A 
ATOM     79  F   UNL     1       1.826  10.362  -9.934  1.00  0.00    -0.206 F 
ATOM     80  C   UNL     1       0.483   9.626 -11.712  1.00  0.00     0.059 A 
ATOM     81  C   UNL     1      -1.500   8.299 -11.255  1.00  0.00     0.059 A 
ATOM     82  F   UNL     1      -2.073   7.796  -9.037  1.00  0.00    -0.206 F 
ATOM     83  C   UNL     1      -0.638   8.921 -12.156  1.00  0.00     0.060 A 
BRANCH  83  84
ATOM     84  S   UNL     1      -0.931   8.802 -13.934  1.00  0.00     0.124 S 
ATOM     85  O   UNL     1      -1.282  10.178 -14.267  1.00  0.00    -0.237 OA
ATOM     86  O   UNL     1       0.362   8.335 -14.423  1.00  0.00    -0.237 OA
ATOM     87  O   UNL     1      -2.019   7.833 -14.031  1.00  0.00    -0.744 OA
ENDBRANCH  83  84
ENDBRANCH  51  76
BRANCH  63  88
ATOM     88  C   UNL     1       0.062  14.285  -4.746  1.00  0.00     0.058 A 
ATOM     89  C   UNL     1      -1.243  14.780  -4.898  1.00  0.00     0.135 A 
ATOM     90  C   UNL     1       1.103  15.220  -4.617  1.00  0.00     0.135 A 
ATOM     91  F   UNL     1      -2.275  13.932  -5.034  1.00  0.00    -0.206 F 
ATOM     92  C   UNL     1      -1.504  16.146  -4.934  1.00  0.00     0.059 A 
ATOM     93  C   UNL     1       0.861  16.591  -4.620  1.00  0.00     0.059 A 
ATOM     94  F   UNL     1       2.370  14.805  -4.462  1.00  0.00    -0.206 F 
ATOM     95  C   UNL     1      -0.446  17.045  -4.787  1.00  0.00     0.060 A 
BRANCH  95  96
ATOM     96  S   UNL     1      -0.811  18.814  -4.790  1.00  0.00     0.124 S 
ATOM     97  O   UNL     1      -1.201  19.033  -6.179  1.00  0.00    -0.237 OA
ATOM     98  O   UNL     1      -1.886  18.909  -3.807  1.00  0.00    -0.237 OA
ATOM     99  O   UNL     1       0.453  19.424  -4.390  1.00  0.00    -0.744 OA
ENDBRANCH  95  96
ENDBRANCH  63  88
ENDBRANCH  37  38
ENDBRANCH  30  32
ENDBRANCH  29  30
ENDBRANCH  28  29
ENDBRANCH  27  28
ENDBRANCH  26  27
ENDBRANCH  25  26
ENDBRANCH   1  25
TORSDOF 23
