REMARK SMILES O=C(OCCOCCOCCOC(=O)[C@@H](Cc1ccccc1)N1C(=O)/C(=C/c2ccncc2)SC1=S)c1ccc(-c2c3nc(c(-c4c(F)cc(S(=O)(=O)[O-])cc4F)c4ccc([nH]4)c(-c4c(F)cc(S(=O)(=O)[O-])cc4F)c4nc(c(-c5c(F)cc(S(=O)(=O)[O-])cc5F)c5ccc2[nH]5)C=C4)C=C3)cc1
REMARK SMILES IDX 7 1 6 2 5 3 4 4 3 5 2 6 1 7 37 8 38 9 102 10 39 11 101 12
REMARK SMILES IDX 40 13 41 14 42 15 95 16 43 17 100 18 94 19 96 20 44 21 99 22
REMARK SMILES IDX 93 23 92 24 45 26 79 27 58 28 78 29 59 30 62 31 77 32 97 33
REMARK SMILES IDX 60 34 61 35 76 37 98 38 63 39 46 40 47 41 56 42 48 43 49 44
REMARK SMILES IDX 55 45 57 46 50 47 51 48 52 49 53 50 54 51 80 52 81 53 90 54
REMARK SMILES IDX 82 55 83 56 89 57 91 58 84 59 85 60 86 61 87 62 88 63 64 64
REMARK SMILES IDX 65 65 74 66 66 67 67 68 73 69 75 70 68 71 69 72 70 73 71 74
REMARK SMILES IDX 72 75 8 76 9 77 10 78 11 79 12 80 13 81 14 82 15 83 16 84
REMARK SMILES IDX 17 85 18 86 22 87 19 88 21 89 20 90 23 91 24 92 35 93 25 94
REMARK SMILES IDX 26 95 34 96 36 97 27 98 28 99 29 100 33 101 30 102 32 103
REMARK SMILES IDX 31 104
REMARK H PARENT 96 25 62 36
REMARK Flexibility Score: inf
ROOT
ATOM      1  C   UNL     1       2.534   1.452   0.682  1.00  0.00     0.188 C 
ENDROOT
BRANCH   1   2
ATOM      2  O   UNL     1       3.807   0.882   1.001  1.00  0.00    -0.376 OA
BRANCH   2   3
ATOM      3  C   UNL     1       4.835   1.201   0.062  1.00  0.00     0.202 C 
BRANCH   3   4
ATOM      4  C   UNL     1       4.664   0.665  -1.373  1.00  0.00     0.261 C 
BRANCH   4   5
ATOM      5  O   UNL     1       3.348   0.192  -1.711  1.00  0.00    -0.460 OA
BRANCH   5   6
ATOM      6  C   UNL     1       2.709  -0.970  -1.438  1.00  0.00     0.338 C 
ATOM      7  O   UNL     1       1.545  -1.079  -1.828  1.00  0.00    -0.246 OA
BRANCH   6   8
ATOM      8  C   UNL     1       3.292  -2.120  -0.674  1.00  0.00     0.060 A 
ATOM      9  C   UNL     1       4.545  -2.139  -0.073  1.00  0.00     0.016 A 
ATOM     10  C   UNL     1       2.498  -3.286  -0.561  1.00  0.00     0.016 A 
ATOM     11  C   UNL     1       5.011  -3.281   0.575  1.00  0.00     0.010 A 
ATOM     12  C   UNL     1       2.961  -4.441   0.090  1.00  0.00     0.010 A 
ATOM     13  C   UNL     1       4.238  -4.445   0.642  1.00  0.00    -0.014 A 
BRANCH  13  14
ATOM     14  C   UNL     1       4.936  -5.662   1.114  1.00  0.00     0.031 A 
ATOM     15  C   UNL     1       5.898  -6.299   0.159  1.00  0.00     0.074 A 
ATOM     16  C   UNL     1       4.896  -6.020   2.410  1.00  0.00     0.049 A 
ATOM     17  N   UNL     1       6.818  -7.191   0.391  1.00  0.00    -0.248 NA
ATOM     18  C   UNL     1       5.800  -5.878  -1.251  1.00  0.00     0.031 C 
ATOM     19  C   UNL     1       3.974  -5.475   3.400  1.00  0.00     0.029 A 
ATOM     20  N   UNL     1       5.741  -6.815   3.147  1.00  0.00    -0.354 N 
ATOM     21  C   UNL     1       7.354  -7.499  -0.851  1.00  0.00     0.074 A 
ATOM     22  C   UNL     1       6.721  -6.637  -1.823  1.00  0.00     0.031 C 
ATOM     23  C   UNL     1       4.427  -5.784   4.628  1.00  0.00     0.029 A 
ATOM     24  C   UNL     1       5.611  -6.627   4.510  1.00  0.00     0.049 A 
ATOM     25  H   UNL     1       6.374  -7.453   2.745  1.00  0.00     0.167 HD
ATOM     26  C   UNL     1       8.239  -8.476  -1.149  1.00  0.00     0.037 A 
ATOM     27  C   UNL     1       6.383  -7.068   5.527  1.00  0.00     0.037 A 
ATOM     28  C   UNL     1       8.811  -9.343  -0.156  1.00  0.00     0.049 A 
ATOM     29  C   UNL     1       7.455  -8.074   5.177  1.00  0.00     0.074 A 
ATOM     30  C   UNL     1       9.605 -10.460  -0.334  1.00  0.00     0.029 A 
ATOM     31  N   UNL     1       8.639  -9.184   1.213  1.00  0.00    -0.354 N 
ATOM     32  N   UNL     1       7.899  -8.428   3.993  1.00  0.00    -0.248 NA
ATOM     33  C   UNL     1       8.062  -8.815   6.293  1.00  0.00     0.031 C 
ATOM     34  C   UNL     1       9.876 -11.002   0.927  1.00  0.00     0.029 A 
ATOM     35  C   UNL     1       9.306 -10.186   1.892  1.00  0.00     0.049 A 
ATOM     36  H   UNL     1       8.118  -8.464   1.637  1.00  0.00     0.167 HD
ATOM     37  C   UNL     1       8.774  -9.485   4.219  1.00  0.00     0.074 A 
ATOM     38  C   UNL     1       8.885  -9.634   5.656  1.00  0.00     0.031 C 
ATOM     39  C   UNL     1       9.381 -10.305   3.326  1.00  0.00     0.037 A 
BRANCH  26  40
ATOM     40  C   UNL     1       8.503  -8.740  -2.600  1.00  0.00     0.058 A 
ATOM     41  C   UNL     1       9.282  -7.887  -3.394  1.00  0.00     0.135 A 
ATOM     42  C   UNL     1       7.936  -9.872  -3.211  1.00  0.00     0.135 A 
ATOM     43  F   UNL     1       9.804  -6.765  -2.872  1.00  0.00    -0.206 F 
ATOM     44  C   UNL     1       9.488  -8.145  -4.746  1.00  0.00     0.059 A 
ATOM     45  C   UNL     1       8.149 -10.163  -4.553  1.00  0.00     0.059 A 
ATOM     46  F   UNL     1       7.155 -10.702  -2.502  1.00  0.00    -0.206 F 
ATOM     47  C   UNL     1       8.922  -9.289  -5.314  1.00  0.00     0.060 A 
BRANCH  47  48
ATOM     48  S   UNL     1       9.222  -9.624  -7.061  1.00  0.00     0.124 S 
ATOM     49  O   UNL     1       8.429  -8.578  -7.700  1.00  0.00    -0.237 OA
ATOM     50  O   UNL     1      10.670  -9.472  -7.160  1.00  0.00    -0.237 OA
ATOM     51  O   UNL     1       8.723 -10.985  -7.238  1.00  0.00    -0.744 OA
ENDBRANCH  47  48
ENDBRANCH  26  40
BRANCH  27  52
ATOM     52  C   UNL     1       6.146  -6.688   6.957  1.00  0.00     0.058 A 
ATOM     53  C   UNL     1       7.185  -6.178   7.762  1.00  0.00     0.135 A 
ATOM     54  C   UNL     1       4.916  -6.928   7.589  1.00  0.00     0.135 A 
ATOM     55  F   UNL     1       8.391  -5.932   7.226  1.00  0.00    -0.206 F 
ATOM     56  C   UNL     1       7.032  -5.988   9.135  1.00  0.00     0.059 A 
ATOM     57  C   UNL     1       4.721  -6.689   8.944  1.00  0.00     0.059 A 
ATOM     58  F   UNL     1       3.884  -7.431   6.896  1.00  0.00    -0.206 F 
ATOM     59  C   UNL     1       5.797  -6.264   9.718  1.00  0.00     0.060 A 
BRANCH  59  60
ATOM     60  S   UNL     1       5.569  -6.137  11.503  1.00  0.00     0.124 S 
ATOM     61  O   UNL     1       5.539  -7.543  11.891  1.00  0.00    -0.237 OA
ATOM     62  O   UNL     1       6.750  -5.392  11.925  1.00  0.00    -0.237 OA
ATOM     63  O   UNL     1       4.300  -5.424  11.596  1.00  0.00    -0.744 OA
ENDBRANCH  59  60
ENDBRANCH  27  52
BRANCH  39  64
ATOM     64  C   UNL     1      10.183 -11.444   3.885  1.00  0.00     0.058 A 
ATOM     65  C   UNL     1       9.561 -12.543   4.500  1.00  0.00     0.135 A 
ATOM     66  C   UNL     1      11.579 -11.461   3.759  1.00  0.00     0.135 A 
ATOM     67  F   UNL     1       8.226 -12.573   4.643  1.00  0.00    -0.206 F 
ATOM     68  C   UNL     1      10.301 -13.606   5.003  1.00  0.00     0.059 A 
ATOM     69  C   UNL     1      12.337 -12.527   4.227  1.00  0.00     0.059 A 
ATOM     70  F   UNL     1      12.217 -10.440   3.165  1.00  0.00    -0.206 F 
ATOM     71  C   UNL     1      11.690 -13.588   4.861  1.00  0.00     0.060 A 
BRANCH  71  72
ATOM     72  S   UNL     1      12.640 -14.981   5.501  1.00  0.00     0.124 S 
ATOM     73  O   UNL     1      12.552 -14.759   6.940  1.00  0.00    -0.237 OA
ATOM     74  O   UNL     1      11.897 -16.128   4.988  1.00  0.00    -0.237 OA
ATOM     75  O   UNL     1      13.963 -14.787   4.915  1.00  0.00    -0.744 OA
ENDBRANCH  71  72
ENDBRANCH  39  64
ENDBRANCH  13  14
ENDBRANCH   6   8
ENDBRANCH   5   6
ENDBRANCH   4   5
ENDBRANCH   3   4
ENDBRANCH   2   3
ENDBRANCH   1   2
BRANCH   1  76
ATOM     76  C   UNL     1       1.837   2.116   1.868  1.00  0.00     0.188 C 
BRANCH  76  77
ATOM     77  O   UNL     1       2.379   3.374   2.268  1.00  0.00    -0.376 OA
BRANCH  77  78
ATOM     78  C   UNL     1       3.682   3.368   2.851  1.00  0.00     0.202 C 
BRANCH  78  79
ATOM     79  C   UNL     1       3.773   2.700   4.219  1.00  0.00     0.261 C 
BRANCH  79  80
ATOM     80  O   UNL     1       3.641   1.284   4.069  1.00  0.00    -0.462 OA
BRANCH  80  81
ATOM     81  C   UNL     1       2.711   0.644   4.810  1.00  0.00     0.329 C 
ATOM     82  O   UNL     1       1.846   1.191   5.487  1.00  0.00    -0.250 OA
BRANCH  81  83
ATOM     83  C   UNL     1       2.908  -0.873   4.755  1.00  0.00     0.206 C 
BRANCH  83  84
ATOM     84  C   UNL     1       3.832  -1.438   3.657  1.00  0.00     0.073 C 
BRANCH  84  85
ATOM     85  C   UNL     1       5.342  -1.475   3.797  1.00  0.00    -0.045 A 
ATOM     86  C   UNL     1       5.985  -2.715   3.841  1.00  0.00     0.004 A 
ATOM     87  C   UNL     1       6.165  -0.351   3.737  1.00  0.00     0.004 A 
ATOM     88  C   UNL     1       7.371  -2.857   3.800  1.00  0.00     0.000 A 
ATOM     89  C   UNL     1       7.562  -0.473   3.733  1.00  0.00     0.000 A 
ATOM     90  C   UNL     1       8.165  -1.727   3.752  1.00  0.00     0.000 A 
ENDBRANCH  84  85
ENDBRANCH  83  84
BRANCH  83  91
ATOM     91  N   UNL     1       3.139  -1.384   6.110  1.00  0.00    -0.278 N 
ATOM     92  C   UNL     1       4.021  -0.692   6.922  1.00  0.00     0.267 C 
ATOM     93  C   UNL     1       2.569  -2.517   6.652  1.00  0.00     0.149 C 
ATOM     94  O   UNL     1       4.640   0.316   6.629  1.00  0.00    -0.268 OA
ATOM     95  C   UNL     1       4.064  -1.310   8.264  1.00  0.00     0.081 C 
ATOM     96  S   UNL     1       3.216  -2.792   8.269  1.00  0.00    -0.054 SA
ATOM     97  S   UNL     1       1.422  -3.515   5.964  1.00  0.00    -0.052 S 
ATOM     98  C   UNL     1       4.686  -0.667   9.255  1.00  0.00     0.029 C 
BRANCH  98  99
ATOM     99  C   UNL     1       4.937  -1.173  10.597  1.00  0.00    -0.021 A 
ATOM    100  C   UNL     1       6.080  -1.937  10.815  1.00  0.00     0.028 A 
ATOM    101  C   UNL     1       4.109  -0.851  11.667  1.00  0.00     0.028 A 
ATOM    102  C   UNL     1       6.380  -2.301  12.114  1.00  0.00     0.111 A 
ATOM    103  C   UNL     1       4.499  -1.265  12.929  1.00  0.00     0.111 A 
ATOM    104  N   UNL     1       5.640  -1.934  13.185  1.00  0.00    -0.265 NA
ENDBRANCH  98  99
ENDBRANCH  83  91
ENDBRANCH  81  83
ENDBRANCH  80  81
ENDBRANCH  79  80
ENDBRANCH  78  79
ENDBRANCH  77  78
ENDBRANCH  76  77
ENDBRANCH   1  76
TORSDOF 24
