REMARK SMILES CC(C)(C)c1ccc(NS(=O)(=O)c2cccc(C(=O)OCCOCCOCCOC(=O)c3ccc(-c4c5nc(c(-c6c(F)cc(S(=O)(=O)[O-])cc6F)c6ccc([nH]6)c(-c6c(F)cc(S(=O)(=O)[O-])cc6F)c6nc(c(-c7c(F)cc(S(=O)(=O)[O-])cc7F)c7ccc4[nH]7)C=C6)C=C5)cc3)c2)cc1
REMARK SMILES IDX 24 1 23 2 22 3 21 4 20 5 18 6 19 7 17 8 13 9 14 10 98 11
REMARK SMILES IDX 15 12 16 13 10 14 11 15 12 16 9 17 8 19 5 20 6 21 100 22
REMARK SMILES IDX 7 23 99 24 2 25 1 26 3 27 4 28 25 29 26 30 27 31 28 32 29 33
REMARK SMILES IDX 30 34 31 35 32 36 33 37 97 38 34 39 96 40 35 41 36 42 37 43
REMARK SMILES IDX 90 44 38 45 95 46 89 47 91 48 39 49 94 50 88 51 87 52 40 54
REMARK SMILES IDX 74 55 53 56 73 57 54 58 57 59 72 60 92 61 55 62 56 63 71 65
REMARK SMILES IDX 93 66 58 67 41 68 42 69 51 70 43 71 44 72 50 73 52 74 45 75
REMARK SMILES IDX 46 76 47 77 48 78 49 79 75 80 76 81 85 82 77 83 78 84 84 85
REMARK SMILES IDX 86 86 79 87 80 88 81 89 82 90 83 91 59 92 60 93 69 94 61 95
REMARK SMILES IDX 62 96 68 97 70 98 63 99 64 100 65 101 66 102 67 103
REMARK H PARENT 9 18 91 53 57 64
REMARK Flexibility Score: inf
ROOT
ATOM      1  C   UNL     1       6.546   2.900   4.595  1.00  0.00     0.188 C 
ENDROOT
BRANCH   1   2
ATOM      2  O   UNL     1       7.459   3.213   5.620  1.00  0.00    -0.376 OA
BRANCH   2   3
ATOM      3  C   UNL     1       8.582   4.037   5.354  1.00  0.00     0.202 C 
BRANCH   3   4
ATOM      4  C   UNL     1       8.841   4.831   4.055  1.00  0.00     0.261 C 
BRANCH   4   5
ATOM      5  O   UNL     1       7.806   4.875   3.065  1.00  0.00    -0.460 OA
BRANCH   5   6
ATOM      6  C   UNL     1       8.053   4.153   1.945  1.00  0.00     0.338 C 
ATOM      7  O   UNL     1       9.061   3.503   1.717  1.00  0.00    -0.246 OA
BRANCH   6   8
ATOM      8  C   UNL     1       6.865   4.099   1.055  1.00  0.00     0.061 A 
ATOM      9  C   UNL     1       4.990   5.065  -0.137  1.00  0.00     0.088 A 
ATOM     10  C   UNL     1       4.859   3.882  -0.876  1.00  0.00     0.022 A 
ATOM     11  C   UNL     1       6.013   5.190   0.821  1.00  0.00     0.038 A 
ATOM     12  C   UNL     1       5.635   2.771  -0.560  1.00  0.00     0.002 A 
ATOM     13  C   UNL     1       6.636   2.880   0.401  1.00  0.00     0.016 A 
BRANCH   9  14
ATOM     14  S   UNL     1       3.950   6.453  -0.539  1.00  0.00     0.261 S 
ATOM     15  O   UNL     1       4.093   6.684  -1.962  1.00  0.00    -0.201 OA
ATOM     16  O   UNL     1       4.261   7.519   0.393  1.00  0.00    -0.201 OA
BRANCH  14  17
ATOM     17  N   UNL     1       2.300   6.089  -0.280  1.00  0.00    -0.280 N 
ATOM     18  H   UNL     1       1.696   6.798   0.037  1.00  0.00     0.180 HD
BRANCH  17  19
ATOM     19  C   UNL     1       1.772   4.774  -0.513  1.00  0.00     0.049 A 
ATOM     20  C   UNL     1       0.761   2.151  -0.946  1.00  0.00    -0.042 A 
ATOM     21  C   UNL     1       1.622   2.443   0.124  1.00  0.00     0.006 A 
ATOM     22  C   UNL     1       0.376   3.230  -1.766  1.00  0.00     0.006 A 
ATOM     23  C   UNL     1       2.087   3.741   0.360  1.00  0.00     0.027 A 
ATOM     24  C   UNL     1       0.881   4.526  -1.558  1.00  0.00     0.027 A 
BRANCH  20  25
ATOM     25  C   UNL     1       0.266   0.717  -1.228  1.00  0.00    -0.013 C 
ATOM     26  C   UNL     1       0.682  -0.299  -0.138  1.00  0.00     0.016 C 
ATOM     27  C   UNL     1       0.862   0.227  -2.565  1.00  0.00     0.016 C 
ATOM     28  C   UNL     1      -1.274   0.672  -1.322  1.00  0.00     0.016 C 
ENDBRANCH  20  25
ENDBRANCH  17  19
ENDBRANCH  14  17
ENDBRANCH   9  14
ENDBRANCH   6   8
ENDBRANCH   5   6
ENDBRANCH   4   5
ENDBRANCH   3   4
ENDBRANCH   2   3
ENDBRANCH   1   2
BRANCH   1  29
ATOM     29  C   UNL     1       5.404   3.916   4.395  1.00  0.00     0.188 C 
BRANCH  29  30
ATOM     30  O   UNL     1       5.469   5.191   5.003  1.00  0.00    -0.376 OA
BRANCH  30  31
ATOM     31  C   UNL     1       5.594   5.302   6.414  1.00  0.00     0.202 C 
BRANCH  31  32
ATOM     32  C   UNL     1       4.910   4.348   7.414  1.00  0.00     0.261 C 
BRANCH  32  33
ATOM     33  O   UNL     1       4.798   2.972   7.037  1.00  0.00    -0.460 OA
BRANCH  33  34
ATOM     34  C   UNL     1       3.554   2.566   6.694  1.00  0.00     0.338 C 
ATOM     35  O   UNL     1       2.536   3.249   6.649  1.00  0.00    -0.246 OA
BRANCH  34  36
ATOM     36  C   UNL     1       3.615   1.183   6.196  1.00  0.00     0.060 A 
ATOM     37  C   UNL     1       3.320   0.935   4.847  1.00  0.00     0.016 A 
ATOM     38  C   UNL     1       3.905   0.133   7.066  1.00  0.00     0.016 A 
ATOM     39  C   UNL     1       3.295  -0.373   4.367  1.00  0.00     0.010 A 
ATOM     40  C   UNL     1       3.853  -1.178   6.590  1.00  0.00     0.010 A 
ATOM     41  C   UNL     1       3.519  -1.438   5.247  1.00  0.00    -0.014 A 
BRANCH  41  42
ATOM     42  C   UNL     1       3.215  -2.826   4.828  1.00  0.00     0.031 A 
ATOM     43  C   UNL     1       1.895  -3.419   5.237  1.00  0.00     0.074 A 
ATOM     44  C   UNL     1       4.096  -3.550   4.115  1.00  0.00     0.049 A 
ATOM     45  N   UNL     1       1.455  -4.641   5.097  1.00  0.00    -0.248 NA
ATOM     46  C   UNL     1       0.947  -2.508   5.900  1.00  0.00     0.031 C 
ATOM     47  C   UNL     1       5.384  -3.068   3.621  1.00  0.00     0.029 A 
ATOM     48  N   UNL     1       4.043  -4.857   3.702  1.00  0.00    -0.354 N 
ATOM     49  C   UNL     1       0.189  -4.653   5.671  1.00  0.00     0.074 A 
ATOM     50  C   UNL     1      -0.060  -3.322   6.179  1.00  0.00     0.031 C 
ATOM     51  C   UNL     1       6.013  -4.077   2.992  1.00  0.00     0.029 A 
ATOM     52  C   UNL     1       5.190  -5.283   3.075  1.00  0.00     0.049 A 
ATOM     53  H   UNL     1       3.258  -5.436   3.841  1.00  0.00     0.167 HD
ATOM     54  C   UNL     1      -0.687  -5.681   5.763  1.00  0.00     0.037 A 
ATOM     55  C   UNL     1       5.546  -6.513   2.652  1.00  0.00     0.037 A 
ATOM     56  C   UNL     1      -0.428  -7.004   5.258  1.00  0.00     0.049 A 
ATOM     57  C   UNL     1       4.584  -7.662   2.832  1.00  0.00     0.074 A 
ATOM     58  C   UNL     1      -1.254  -8.113   5.289  1.00  0.00     0.029 A 
ATOM     59  N   UNL     1       0.750  -7.400   4.642  1.00  0.00    -0.354 N 
ATOM     60  N   UNL     1       3.383  -7.660   3.361  1.00  0.00    -0.248 NA
ATOM     61  C   UNL     1       5.026  -8.981   2.355  1.00  0.00     0.031 C 
ATOM     62  C   UNL     1      -0.555  -9.193   4.741  1.00  0.00     0.029 A 
ATOM     63  C   UNL     1       0.682  -8.743   4.308  1.00  0.00     0.049 A 
ATOM     64  H   UNL     1       1.521  -6.814   4.467  1.00  0.00     0.167 HD
ATOM     65  C   UNL     1       2.913  -8.966   3.248  1.00  0.00     0.074 A 
ATOM     66  C   UNL     1       3.957  -9.728   2.595  1.00  0.00     0.031 C 
ATOM     67  C   UNL     1       1.724  -9.486   3.643  1.00  0.00     0.037 A 
BRANCH  54  68
ATOM     68  C   UNL     1      -1.992  -5.424   6.464  1.00  0.00     0.058 A 
ATOM     69  C   UNL     1      -2.989  -4.610   5.901  1.00  0.00     0.135 A 
ATOM     70  C   UNL     1      -2.261  -6.022   7.706  1.00  0.00     0.135 A 
ATOM     71  F   UNL     1      -2.778  -3.997   4.726  1.00  0.00    -0.206 F 
ATOM     72  C   UNL     1      -4.194  -4.378   6.557  1.00  0.00     0.059 A 
ATOM     73  C   UNL     1      -3.471  -5.828   8.365  1.00  0.00     0.059 A 
ATOM     74  F   UNL     1      -1.342  -6.805   8.292  1.00  0.00    -0.206 F 
ATOM     75  C   UNL     1      -4.426  -4.993   7.788  1.00  0.00     0.060 A 
BRANCH  75  76
ATOM     76  S   UNL     1      -5.997  -4.686   8.621  1.00  0.00     0.124 S 
ATOM     77  O   UNL     1      -5.836  -3.299   9.046  1.00  0.00    -0.237 OA
ATOM     78  O   UNL     1      -6.965  -4.913   7.553  1.00  0.00    -0.237 OA
ATOM     79  O   UNL     1      -6.012  -5.673   9.696  1.00  0.00    -0.744 OA
ENDBRANCH  75  76
ENDBRANCH  54  68
BRANCH  55  80
ATOM     80  C   UNL     1       6.880  -6.731   2.031  1.00  0.00     0.058 A 
ATOM     81  C   UNL     1       7.001  -7.055   0.672  1.00  0.00     0.135 A 
ATOM     82  C   UNL     1       8.061  -6.626   2.784  1.00  0.00     0.135 A 
ATOM     83  F   UNL     1       5.902  -7.180  -0.088  1.00  0.00    -0.206 F 
ATOM     84  C   UNL     1       8.241  -7.283   0.083  1.00  0.00     0.059 A 
ATOM     85  C   UNL     1       9.314  -6.820   2.211  1.00  0.00     0.059 A 
ATOM     86  F   UNL     1       8.002  -6.310   4.087  1.00  0.00    -0.206 F 
ATOM     87  C   UNL     1       9.393  -7.159   0.861  1.00  0.00     0.060 A 
BRANCH  87  88
ATOM     88  S   UNL     1      10.999  -7.408   0.073  1.00  0.00     0.124 S 
ATOM     89  O   UNL     1      10.996  -8.849  -0.150  1.00  0.00    -0.237 OA
ATOM     90  O   UNL     1      10.883  -6.576  -1.121  1.00  0.00    -0.237 OA
ATOM     91  O   UNL     1      11.944  -6.926   1.076  1.00  0.00    -0.744 OA
ENDBRANCH  87  88
ENDBRANCH  55  80
BRANCH  67  92
ATOM     92  C   UNL     1       1.453 -10.934   3.333  1.00  0.00     0.058 A 
ATOM     93  C   UNL     1       2.103 -11.976   4.013  1.00  0.00     0.135 A 
ATOM     94  C   UNL     1       0.477 -11.282   2.384  1.00  0.00     0.135 A 
ATOM     95  F   UNL     1       3.047 -11.702   4.927  1.00  0.00    -0.206 F 
ATOM     96  C   UNL     1       1.810 -13.311   3.748  1.00  0.00     0.059 A 
ATOM     97  C   UNL     1       0.146 -12.608   2.125  1.00  0.00     0.059 A 
ATOM     98  F   UNL     1      -0.184 -10.326   1.712  1.00  0.00    -0.206 F 
ATOM     99  C   UNL     1       0.826 -13.617   2.805  1.00  0.00     0.060 A 
BRANCH  99 100
ATOM    100  S   UNL     1       0.429 -15.351   2.499  1.00  0.00     0.124 S 
ATOM    101  O   UNL     1       1.607 -15.799   1.764  1.00  0.00    -0.237 OA
ATOM    102  O   UNL     1       0.285 -15.881   3.851  1.00  0.00    -0.237 OA
ATOM    103  O   UNL     1      -0.807 -15.286   1.724  1.00  0.00    -0.744 OA
ENDBRANCH  99 100
ENDBRANCH  67  92
ENDBRANCH  41  42
ENDBRANCH  34  36
ENDBRANCH  33  34
ENDBRANCH  32  33
ENDBRANCH  31  32
ENDBRANCH  30  31
ENDBRANCH  29  30
ENDBRANCH   1  29
TORSDOF 24
