REMARK SMILES CSCC[C@H](NC(=O)Nc1cccc(-c2nc3ccccc3o2)c1)C(=O)OCCOCCOCCOC(=O)c1ccc(-c2c3nc(c(-c4c(F)cc(S(=O)(=O)[O-])cc4F)c4ccc([nH]4)c(-c4c(F)cc(S(=O)(=O)[O-])cc4F)c4nc(c(-c5c(F)cc(S(=O)(=O)[O-])cc5F)c5ccc2[nH]5)C=C4)C=C3)cc1
REMARK SMILES IDX 31 1 30 2 29 3 28 4 27 5 25 6 26 7 5 8 4 9 3 10 2 11 1 12
REMARK SMILES IDX 6 13 7 14 8 16 9 17 10 19 11 20 24 21 12 22 14 23 13 24
REMARK SMILES IDX 15 25 16 26 23 27 17 28 22 29 18 30 21 31 19 32 20 33 32 34
REMARK SMILES IDX 33 35 34 36 35 37 36 38 37 39 38 40 39 41 40 42 104 43 41 44
REMARK SMILES IDX 103 45 42 46 43 47 44 48 97 49 45 50 102 51 96 52 98 53
REMARK SMILES IDX 46 54 101 55 95 56 94 57 47 59 81 60 60 61 80 62 61 63 64 64
REMARK SMILES IDX 79 65 99 66 62 67 63 68 78 70 100 71 65 72 48 73 49 74 58 75
REMARK SMILES IDX 50 76 51 77 57 78 59 79 52 80 53 81 54 82 55 83 56 84 82 85
REMARK SMILES IDX 83 86 92 87 84 88 85 89 91 90 93 91 86 92 87 93 88 94 89 95
REMARK SMILES IDX 90 96 66 97 67 98 76 99 68 100 69 101 75 102 77 103 70 104
REMARK SMILES IDX 71 105 72 106 73 107 74 108
REMARK H PARENT 6 15 9 18 98 58 64 69
REMARK Flexibility Score: inf
ROOT
ATOM      1  C   UNL     1      -1.733   4.194  -1.982  1.00  0.00     0.188 C 
ENDROOT
BRANCH   1   2
ATOM      2  O   UNL     1      -1.745   5.495  -2.554  1.00  0.00    -0.376 OA
BRANCH   2   3
ATOM      3  C   UNL     1      -0.499   6.184  -2.502  1.00  0.00     0.202 C 
BRANCH   3   4
ATOM      4  C   UNL     1       0.515   5.694  -3.546  1.00  0.00     0.261 C 
BRANCH   4   5
ATOM      5  O   UNL     1       1.002   4.362  -3.289  1.00  0.00    -0.462 OA
BRANCH   5   6
ATOM      6  C   UNL     1       1.837   4.259  -2.224  1.00  0.00     0.328 C 
ATOM      7  O   UNL     1       2.211   5.231  -1.577  1.00  0.00    -0.250 OA
BRANCH   6   8
ATOM      8  C   UNL     1       2.202   2.797  -1.881  1.00  0.00     0.194 C 
BRANCH   8   9
ATOM      9  C   UNL     1       3.722   2.634  -1.784  1.00  0.00     0.048 C 
BRANCH   9  10
ATOM     10  C   UNL     1       4.456   3.515  -0.766  1.00  0.00     0.072 C 
BRANCH  10  11
ATOM     11  S   UNL     1       4.099   3.159   0.985  1.00  0.00    -0.165 SA
ATOM     12  C   UNL     1       2.706   4.279   1.305  1.00  0.00     0.085 C 
ENDBRANCH  10  11
ENDBRANCH   9  10
ENDBRANCH   8   9
BRANCH   8  13
ATOM     13  N   UNL     1       1.633   1.815  -2.831  1.00  0.00    -0.324 N 
ATOM     14  C   UNL     1       1.597   0.459  -2.823  1.00  0.00     0.319 C 
ATOM     15  H   UNL     1       1.198   2.222  -3.615  1.00  0.00     0.166 HD
ATOM     16  O   UNL     1       1.381  -0.127  -3.884  1.00  0.00    -0.248 OA
ATOM     17  N   UNL     1       1.923  -0.254  -1.716  1.00  0.00    -0.308 N 
ATOM     18  H   UNL     1       2.402  -1.097  -1.887  1.00  0.00     0.171 HD
BRANCH  17  19
ATOM     19  C   UNL     1       1.680   0.031  -0.366  1.00  0.00     0.043 A 
ATOM     20  C   UNL     1       2.580  -0.425   0.594  1.00  0.00     0.026 A 
ATOM     21  C   UNL     1       0.572   0.777   0.028  1.00  0.00     0.040 A 
ATOM     22  C   UNL     1       2.445  -0.007   1.921  1.00  0.00     0.003 A 
ATOM     23  C   UNL     1       0.449   1.244   1.344  1.00  0.00     0.039 A 
ATOM     24  C   UNL     1       1.400   0.849   2.290  1.00  0.00     0.014 A 
BRANCH  23  25
ATOM     25  C   UNL     1      -0.619   2.192   1.625  1.00  0.00     0.227 A 
ATOM     26  N   UNL     1      -1.724   2.389   0.928  1.00  0.00    -0.209 NA
ATOM     27  O   UNL     1      -0.397   3.113   2.620  1.00  0.00    -0.436 OA
ATOM     28  C   UNL     1      -2.314   3.455   1.550  1.00  0.00     0.110 A 
ATOM     29  C   UNL     1      -1.495   3.926   2.561  1.00  0.00     0.155 A 
ATOM     30  C   UNL     1      -3.540   4.084   1.313  1.00  0.00     0.032 A 
ATOM     31  C   UNL     1      -1.782   5.036   3.344  1.00  0.00     0.049 A 
ATOM     32  C   UNL     1      -3.881   5.191   2.096  1.00  0.00     0.003 A 
ATOM     33  C   UNL     1      -3.009   5.665   3.083  1.00  0.00     0.004 A 
ENDBRANCH  23  25
ENDBRANCH  17  19
ENDBRANCH   8  13
ENDBRANCH   6   8
ENDBRANCH   5   6
ENDBRANCH   4   5
ENDBRANCH   3   4
ENDBRANCH   2   3
ENDBRANCH   1   2
BRANCH   1  34
ATOM     34  C   UNL     1      -1.637   3.023  -2.971  1.00  0.00     0.188 C 
BRANCH  34  35
ATOM     35  O   UNL     1      -1.676   3.233  -4.374  1.00  0.00    -0.376 OA
BRANCH  35  36
ATOM     36  C   UNL     1      -2.598   4.165  -4.915  1.00  0.00     0.202 C 
BRANCH  36  37
ATOM     37  C   UNL     1      -4.100   4.040  -4.623  1.00  0.00     0.261 C 
BRANCH  37  38
ATOM     38  O   UNL     1      -4.448   3.471  -3.356  1.00  0.00    -0.460 OA
BRANCH  38  39
ATOM     39  C   UNL     1      -4.782   2.156  -3.404  1.00  0.00     0.338 C 
ATOM     40  O   UNL     1      -4.843   1.446  -4.391  1.00  0.00    -0.246 OA
BRANCH  39  41
ATOM     41  C   UNL     1      -4.927   1.647  -2.026  1.00  0.00     0.060 A 
ATOM     42  C   UNL     1      -4.120   0.574  -1.627  1.00  0.00     0.016 A 
ATOM     43  C   UNL     1      -5.878   2.183  -1.155  1.00  0.00     0.016 A 
ATOM     44  C   UNL     1      -4.279   0.011  -0.362  1.00  0.00     0.010 A 
ATOM     45  C   UNL     1      -6.050   1.604   0.107  1.00  0.00     0.010 A 
ATOM     46  C   UNL     1      -5.276   0.492   0.495  1.00  0.00    -0.014 A 
BRANCH  46  47
ATOM     47  C   UNL     1      -5.686  -0.323   1.667  1.00  0.00     0.031 A 
ATOM     48  C   UNL     1      -6.890  -1.209   1.510  1.00  0.00     0.074 A 
ATOM     49  C   UNL     1      -5.006  -0.309   2.828  1.00  0.00     0.049 A 
ATOM     50  N   UNL     1      -7.465  -1.990   2.384  1.00  0.00    -0.248 NA
ATOM     51  C   UNL     1      -7.536  -1.206   0.185  1.00  0.00     0.031 C 
ATOM     52  C   UNL     1      -3.805   0.472   3.086  1.00  0.00     0.029 A 
ATOM     53  N   UNL     1      -5.234  -0.963   4.013  1.00  0.00    -0.354 N 
ATOM     54  C   UNL     1      -8.536  -2.571   1.718  1.00  0.00     0.074 A 
ATOM     55  C   UNL     1      -8.565  -2.013   0.384  1.00  0.00     0.031 C 
ATOM     56  C   UNL     1      -3.414   0.289   4.359  1.00  0.00     0.029 A 
ATOM     57  C   UNL     1      -4.343  -0.632   5.008  1.00  0.00     0.049 A 
ATOM     58  H   UNL     1      -5.967  -1.608   4.139  1.00  0.00     0.167 HD
ATOM     59  C   UNL     1      -9.402  -3.508   2.167  1.00  0.00     0.037 A 
ATOM     60  C   UNL     1      -4.287  -1.028   6.295  1.00  0.00     0.037 A 
ATOM     61  C   UNL     1      -9.361  -4.071   3.488  1.00  0.00     0.049 A 
ATOM     62  C   UNL     1      -5.284  -2.046   6.784  1.00  0.00     0.074 A 
ATOM     63  C   UNL     1     -10.188  -5.030   4.043  1.00  0.00     0.029 A 
ATOM     64  N   UNL     1      -8.435  -3.726   4.462  1.00  0.00    -0.354 N 
ATOM     65  N   UNL     1      -6.277  -2.606   6.133  1.00  0.00    -0.248 NA
ATOM     66  C   UNL     1      -5.137  -2.509   8.170  1.00  0.00     0.031 C 
ATOM     67  C   UNL     1      -9.778  -5.247   5.363  1.00  0.00     0.029 A 
ATOM     68  C   UNL     1      -8.671  -4.451   5.616  1.00  0.00     0.049 A 
ATOM     69  H   UNL     1      -7.716  -3.063   4.348  1.00  0.00     0.167 HD
ATOM     70  C   UNL     1      -6.840  -3.523   7.014  1.00  0.00     0.074 A 
ATOM     71  C   UNL     1      -6.079  -3.439   8.244  1.00  0.00     0.031 C 
ATOM     72  C   UNL     1      -7.883  -4.368   6.820  1.00  0.00     0.037 A 
BRANCH  59  73
ATOM     73  C   UNL     1     -10.464  -3.963   1.209  1.00  0.00     0.058 A 
ATOM     74  C   UNL     1     -10.157  -4.773   0.103  1.00  0.00     0.135 A 
ATOM     75  C   UNL     1     -11.798  -3.567   1.384  1.00  0.00     0.135 A 
ATOM     76  F   UNL     1      -8.889  -5.154  -0.124  1.00  0.00    -0.206 F 
ATOM     77  C   UNL     1     -11.131  -5.147  -0.816  1.00  0.00     0.059 A 
ATOM     78  C   UNL     1     -12.794  -3.951   0.491  1.00  0.00     0.059 A 
ATOM     79  F   UNL     1     -12.142  -2.784   2.419  1.00  0.00    -0.206 F 
ATOM     80  C   UNL     1     -12.447  -4.726  -0.615  1.00  0.00     0.060 A 
BRANCH  80  81
ATOM     81  S   UNL     1     -13.701  -5.210  -1.818  1.00  0.00     0.124 S 
ATOM     82  O   UNL     1     -13.398  -4.315  -2.930  1.00  0.00    -0.237 OA
ATOM     83  O   UNL     1     -13.398  -6.621  -2.039  1.00  0.00    -0.237 OA
ATOM     84  O   UNL     1     -14.957  -4.945  -1.123  1.00  0.00    -0.744 OA
ENDBRANCH  80  81
ENDBRANCH  59  73
BRANCH  60  85
ATOM     85  C   UNL     1      -3.244  -0.488   7.208  1.00  0.00     0.058 A 
ATOM     86  C   UNL     1      -2.188  -1.291   7.664  1.00  0.00     0.135 A 
ATOM     87  C   UNL     1      -3.299   0.838   7.667  1.00  0.00     0.135 A 
ATOM     88  F   UNL     1      -2.094  -2.567   7.260  1.00  0.00    -0.206 F 
ATOM     89  C   UNL     1      -1.241  -0.812   8.565  1.00  0.00     0.059 A 
ATOM     90  C   UNL     1      -2.351   1.347   8.551  1.00  0.00     0.059 A 
ATOM     91  F   UNL     1      -4.280   1.653   7.252  1.00  0.00    -0.206 F 
ATOM     92  C   UNL     1      -1.334   0.509   9.007  1.00  0.00     0.060 A 
BRANCH  92  93
ATOM     93  S   UNL     1      -0.090   1.128  10.161  1.00  0.00     0.124 S 
ATOM     94  O   UNL     1      -0.489   0.475  11.402  1.00  0.00    -0.237 OA
ATOM     95  O   UNL     1       1.151   0.653   9.558  1.00  0.00    -0.237 OA
ATOM     96  O   UNL     1      -0.284   2.575  10.117  1.00  0.00    -0.744 OA
ENDBRANCH  92  93
ENDBRANCH  60  85
BRANCH  72  97
ATOM     97  C   UNL     1      -8.217  -5.315   7.937  1.00  0.00     0.058 A 
ATOM     98  C   UNL     1      -8.841  -4.882   9.116  1.00  0.00     0.135 A 
ATOM     99  C   UNL     1      -7.931  -6.683   7.807  1.00  0.00     0.135 A 
ATOM    100  F   UNL     1      -9.133  -3.583   9.290  1.00  0.00    -0.206 F 
ATOM    101  C   UNL     1      -9.139  -5.769  10.145  1.00  0.00     0.059 A 
ATOM    102  C   UNL     1      -8.243  -7.592   8.812  1.00  0.00     0.059 A 
ATOM    103  F   UNL     1      -7.346  -7.149   6.692  1.00  0.00    -0.206 F 
ATOM    104  C   UNL     1      -8.831  -7.122   9.985  1.00  0.00     0.060 A 
BRANCH 104 105
ATOM    105  S   UNL     1      -9.228  -8.270  11.321  1.00  0.00     0.124 S 
ATOM    106  O   UNL     1      -8.141  -8.014  12.259  1.00  0.00    -0.237 OA
ATOM    107  O   UNL     1     -10.550  -7.816  11.744  1.00  0.00    -0.237 OA
ATOM    108  O   UNL     1      -9.201  -9.574  10.665  1.00  0.00    -0.744 OA
ENDBRANCH 104 105
ENDBRANCH  72  97
ENDBRANCH  46  47
ENDBRANCH  39  41
ENDBRANCH  38  39
ENDBRANCH  37  38
ENDBRANCH  36  37
ENDBRANCH  35  36
ENDBRANCH  34  35
ENDBRANCH   1  34
TORSDOF 26
