REMARK SMILES C[C@@H](C(=O)OCCOCCOCCOC(=O)c1ccc(-c2c3nc(c(-c4c(F)cc(S(=O)(=O)[O-])cc4F)c4ccc([nH]4)c(-c4c(F)cc(S(=O)(=O)[O-])cc4F)c4nc(c(-c5c(F)cc(S(=O)(=O)[O-])cc5F)c5ccc2[nH]5)C=C4)C=C3)cc1)c1cccc(C(=O)c2ccccc2)c1
REMARK SMILES IDX 9 1 8 2 7 3 6 4 5 5 3 6 4 7 2 8 1 9 83 10 84 11 96 12 85 13
REMARK SMILES IDX 87 14 86 15 88 16 89 17 90 18 91 19 95 20 92 21 94 22 93 23
REMARK SMILES IDX 10 24 11 25 12 26 13 27 14 28 15 29 16 30 17 31 18 32 82 33
REMARK SMILES IDX 19 34 81 35 20 36 21 37 22 38 75 39 23 40 80 41 74 42 76 43
REMARK SMILES IDX 24 44 79 45 73 46 72 47 25 49 59 50 38 51 58 52 39 53 42 54
REMARK SMILES IDX 57 55 77 56 40 57 41 58 56 60 78 61 43 62 26 63 27 64 36 65
REMARK SMILES IDX 28 66 29 67 35 68 37 69 30 70 31 71 32 72 33 73 34 74 60 75
REMARK SMILES IDX 61 76 70 77 62 78 63 79 69 80 71 81 64 82 65 83 66 84 67 85
REMARK SMILES IDX 68 86 44 87 45 88 54 89 46 90 47 91 53 92 55 93 48 94 49 95
REMARK SMILES IDX 50 96 51 97 52 98
REMARK H PARENT 76 48 42 59
REMARK Flexibility Score: inf
ROOT
ATOM      1  C   UNL     1       0.757   3.543   2.127  1.00  0.00     0.188 C 
ENDROOT
BRANCH   1   2
ATOM      2  O   UNL     1       1.755   4.186   2.886  1.00  0.00    -0.376 OA
BRANCH   2   3
ATOM      3  C   UNL     1       2.814   3.404   3.421  1.00  0.00     0.202 C 
BRANCH   3   4
ATOM      4  C   UNL     1       2.651   1.913   3.774  1.00  0.00     0.261 C 
BRANCH   4   5
ATOM      5  O   UNL     1       2.166   1.061   2.716  1.00  0.00    -0.463 OA
BRANCH   5   6
ATOM      6  C   UNL     1       1.190   0.177   3.069  1.00  0.00     0.313 C 
ATOM      7  O   UNL     1       0.770   0.062   4.218  1.00  0.00    -0.252 OA
BRANCH   6   8
ATOM      8  C   UNL     1       0.641  -0.688   1.919  1.00  0.00     0.126 C 
ATOM      9  C   UNL     1       1.303  -0.616   0.540  1.00  0.00     0.025 C 
BRANCH   8  10
ATOM     10  C   UNL     1      -0.882  -0.619   1.810  1.00  0.00    -0.033 A 
ATOM     11  C   UNL     1      -1.611   0.568   1.930  1.00  0.00     0.004 A 
ATOM     12  C   UNL     1      -1.605  -1.802   1.624  1.00  0.00     0.016 A 
ATOM     13  C   UNL     1      -3.006   0.563   1.950  1.00  0.00     0.001 A 
ATOM     14  C   UNL     1      -3.010  -1.822   1.702  1.00  0.00     0.023 A 
ATOM     15  C   UNL     1      -3.711  -0.628   1.853  1.00  0.00     0.012 A 
BRANCH  14  16
ATOM     16  C   UNL     1      -3.776  -3.096   1.640  1.00  0.00     0.193 C 
ATOM     17  O   UNL     1      -4.971  -3.101   1.372  1.00  0.00    -0.289 OA
BRANCH  16  18
ATOM     18  C   UNL     1      -3.078  -4.384   1.840  1.00  0.00     0.022 A 
ATOM     19  C   UNL     1      -3.264  -5.381   0.882  1.00  0.00     0.012 A 
ATOM     20  C   UNL     1      -2.186  -4.572   2.903  1.00  0.00     0.012 A 
ATOM     21  C   UNL     1      -2.501  -6.545   0.949  1.00  0.00     0.001 A 
ATOM     22  C   UNL     1      -1.414  -5.730   2.955  1.00  0.00     0.001 A 
ATOM     23  C   UNL     1      -1.565  -6.709   1.972  1.00  0.00     0.000 A 
ENDBRANCH  16  18
ENDBRANCH  14  16
ENDBRANCH   8  10
ENDBRANCH   6   8
ENDBRANCH   5   6
ENDBRANCH   4   5
ENDBRANCH   3   4
ENDBRANCH   2   3
ENDBRANCH   1   2
BRANCH   1  24
ATOM     24  C   UNL     1       1.164   2.888   0.802  1.00  0.00     0.188 C 
BRANCH  24  25
ATOM     25  O   UNL     1       2.469   3.010   0.289  1.00  0.00    -0.376 OA
BRANCH  25  26
ATOM     26  C   UNL     1       3.019   4.292   0.062  1.00  0.00     0.202 C 
BRANCH  26  27
ATOM     27  C   UNL     1       2.196   5.490  -0.447  1.00  0.00     0.261 C 
BRANCH  27  28
ATOM     28  O   UNL     1       0.773   5.428  -0.320  1.00  0.00    -0.460 OA
BRANCH  28  29
ATOM     29  C   UNL     1       0.108   4.958  -1.406  1.00  0.00     0.338 C 
ATOM     30  O   UNL     1       0.600   4.578  -2.457  1.00  0.00    -0.246 OA
BRANCH  29  31
ATOM     31  C   UNL     1      -1.316   4.781  -1.042  1.00  0.00     0.060 A 
ATOM     32  C   UNL     1      -1.890   3.507  -1.155  1.00  0.00     0.016 A 
ATOM     33  C   UNL     1      -2.081   5.860  -0.595  1.00  0.00     0.016 A 
ATOM     34  C   UNL     1      -3.237   3.314  -0.841  1.00  0.00     0.010 A 
ATOM     35  C   UNL     1      -3.438   5.671  -0.310  1.00  0.00     0.010 A 
ATOM     36  C   UNL     1      -4.029   4.405  -0.456  1.00  0.00    -0.014 A 
BRANCH  36  37
ATOM     37  C   UNL     1      -5.506   4.258  -0.390  1.00  0.00     0.031 A 
ATOM     38  C   UNL     1      -6.315   4.619  -1.604  1.00  0.00     0.074 A 
ATOM     39  C   UNL     1      -6.122   3.804   0.716  1.00  0.00     0.049 A 
ATOM     40  N   UNL     1      -7.613   4.634  -1.759  1.00  0.00    -0.248 NA
ATOM     41  C   UNL     1      -5.558   5.044  -2.792  1.00  0.00     0.031 C 
ATOM     42  C   UNL     1      -5.449   3.433   1.955  1.00  0.00     0.029 A 
ATOM     43  N   UNL     1      -7.451   3.573   0.976  1.00  0.00    -0.354 N 
ATOM     44  C   UNL     1      -7.831   5.090  -3.053  1.00  0.00     0.074 A 
ATOM     45  C   UNL     1      -6.532   5.356  -3.634  1.00  0.00     0.031 C 
ATOM     46  C   UNL     1      -6.359   2.971   2.829  1.00  0.00     0.029 A 
ATOM     47  C   UNL     1      -7.693   3.095   2.244  1.00  0.00     0.049 A 
ATOM     48  H   UNL     1      -8.164   3.734   0.317  1.00  0.00     0.167 HD
ATOM     49  C   UNL     1      -9.008   5.276  -3.696  1.00  0.00     0.037 A 
ATOM     50  C   UNL     1      -8.858   2.828   2.872  1.00  0.00     0.037 A 
ATOM     51  C   UNL     1     -10.298   5.022  -3.107  1.00  0.00     0.049 A 
ATOM     52  C   UNL     1     -10.158   3.082   2.147  1.00  0.00     0.074 A 
ATOM     53  C   UNL     1     -11.548   5.186  -3.677  1.00  0.00     0.029 A 
ATOM     54  N   UNL     1     -10.506   4.557  -1.817  1.00  0.00    -0.354 N 
ATOM     55  N   UNL     1     -10.352   3.516   0.923  1.00  0.00    -0.248 NA
ATOM     56  C   UNL     1     -11.399   2.834   2.896  1.00  0.00     0.031 C 
ATOM     57  C   UNL     1     -12.513   4.872  -2.714  1.00  0.00     0.029 A 
ATOM     58  C   UNL     1     -11.864   4.449  -1.565  1.00  0.00     0.049 A 
ATOM     59  H   UNL     1      -9.793   4.337  -1.174  1.00  0.00     0.167 HD
ATOM     60  C   UNL     1     -11.732   3.576   0.752  1.00  0.00     0.074 A 
ATOM     61  C   UNL     1     -12.326   3.115   1.989  1.00  0.00     0.031 C 
ATOM     62  C   UNL     1     -12.444   3.981  -0.330  1.00  0.00     0.037 A 
BRANCH  49  63
ATOM     63  C   UNL     1      -8.954   5.821  -5.096  1.00  0.00     0.058 A 
ATOM     64  C   UNL     1      -8.478   5.054  -6.172  1.00  0.00     0.135 A 
ATOM     65  C   UNL     1      -9.408   7.121  -5.370  1.00  0.00     0.135 A 
ATOM     66  F   UNL     1      -8.010   3.813  -5.963  1.00  0.00    -0.206 F 
ATOM     67  C   UNL     1      -8.430   5.567  -7.464  1.00  0.00     0.059 A 
ATOM     68  C   UNL     1      -9.399   7.643  -6.659  1.00  0.00     0.059 A 
ATOM     69  F   UNL     1      -9.868   7.900  -4.377  1.00  0.00    -0.206 F 
ATOM     70  C   UNL     1      -8.895   6.862  -7.698  1.00  0.00     0.060 A 
BRANCH  70  71
ATOM     71  S   UNL     1      -8.831   7.509  -9.381  1.00  0.00     0.124 S 
ATOM     72  O   UNL     1      -7.395   7.698  -9.566  1.00  0.00    -0.237 OA
ATOM     73  O   UNL     1      -9.432   6.426 -10.153  1.00  0.00    -0.237 OA
ATOM     74  O   UNL     1      -9.619   8.735  -9.306  1.00  0.00    -0.744 OA
ENDBRANCH  70  71
ENDBRANCH  49  63
BRANCH  50  75
ATOM     75  C   UNL     1      -8.860   2.338   4.280  1.00  0.00     0.058 A 
ATOM     76  C   UNL     1      -9.337   1.060   4.609  1.00  0.00     0.135 A 
ATOM     77  C   UNL     1      -8.402   3.148   5.332  1.00  0.00     0.135 A 
ATOM     78  F   UNL     1      -9.809   0.252   3.647  1.00  0.00    -0.206 F 
ATOM     79  C   UNL     1      -9.374   0.607   5.926  1.00  0.00     0.059 A 
ATOM     80  C   UNL     1      -8.396   2.706   6.652  1.00  0.00     0.059 A 
ATOM     81  F   UNL     1      -7.932   4.379   5.079  1.00  0.00    -0.206 F 
ATOM     82  C   UNL     1      -8.896   1.438   6.941  1.00  0.00     0.060 A 
BRANCH  82  83
ATOM     83  S   UNL     1      -8.907   0.831   8.642  1.00  0.00     0.124 S 
ATOM     84  O   UNL     1     -10.330   0.870   8.960  1.00  0.00    -0.237 OA
ATOM     85  O   UNL     1      -8.319  -0.497   8.500  1.00  0.00    -0.237 OA
ATOM     86  O   UNL     1      -8.077   1.802   9.350  1.00  0.00    -0.744 OA
ENDBRANCH  82  83
ENDBRANCH  50  75
BRANCH  62  87
ATOM     87  C   UNL     1     -13.947   3.909  -0.247  1.00  0.00     0.058 A 
ATOM     88  C   UNL     1     -14.692   4.792   0.550  1.00  0.00     0.135 A 
ATOM     89  C   UNL     1     -14.655   2.980  -1.028  1.00  0.00     0.135 A 
ATOM     90  F   UNL     1     -14.068   5.697   1.320  1.00  0.00    -0.206 F 
ATOM     91  C   UNL     1     -16.083   4.741   0.589  1.00  0.00     0.059 A 
ATOM     92  C   UNL     1     -16.046   2.932  -1.029  1.00  0.00     0.059 A 
ATOM     93  F   UNL     1     -13.996   2.120  -1.820  1.00  0.00    -0.206 F 
ATOM     94  C   UNL     1     -16.752   3.809  -0.207  1.00  0.00     0.060 A 
BRANCH  94  95
ATOM     95  S   UNL     1     -18.557   3.779  -0.175  1.00  0.00     0.124 S 
ATOM     96  O   UNL     1     -18.819   3.207   1.141  1.00  0.00    -0.237 OA
ATOM     97  O   UNL     1     -18.895   5.190  -0.332  1.00  0.00    -0.237 OA
ATOM     98  O   UNL     1     -18.904   2.928  -1.309  1.00  0.00    -0.744 OA
ENDBRANCH  94  95
ENDBRANCH  62  87
ENDBRANCH  36  37
ENDBRANCH  29  31
ENDBRANCH  28  29
ENDBRANCH  27  28
ENDBRANCH  26  27
ENDBRANCH  25  26
ENDBRANCH  24  25
ENDBRANCH   1  24
TORSDOF 23
