REMARK SMILES O=C(Nc1ccc(O)cc1C(=O)OCCOCCOCCOC(=O)c1ccc(-c2c3nc(c(-c4c(F)cc(S(=O)(=O)[O-])cc4F)c4ccc([nH]4)c(-c4c(F)cc(S(=O)(=O)[O-])cc4F)c4nc(c(-c5c(F)cc(S(=O)(=O)[O-])cc5F)c5ccc2[nH]5)C=C4)C=C3)cc1)c1ccc(Br)nc1
REMARK SMILES IDX 18 1 17 2 16 3 15 4 14 5 13 6 11 7 12 8 10 9 4 10 5 11 6 12
REMARK SMILES IDX 9 13 7 14 3 15 1 16 2 17 91 19 92 20 97 21 93 22 96 23 94 24
REMARK SMILES IDX 95 25 8 26 19 28 20 29 21 30 22 31 23 32 24 33 25 34 26 35
REMARK SMILES IDX 90 36 27 37 89 38 28 39 29 40 30 41 83 42 31 43 88 44 82 45
REMARK SMILES IDX 84 46 32 47 87 48 81 49 80 50 33 52 67 53 46 54 66 55 47 56
REMARK SMILES IDX 50 57 65 58 85 59 48 60 49 61 64 63 86 64 51 65 34 66 35 67
REMARK SMILES IDX 44 68 36 69 37 70 43 71 45 72 38 73 39 74 40 75 41 76 42 77
REMARK SMILES IDX 68 78 69 79 78 80 70 81 71 82 77 83 79 84 72 85 73 86 74 87
REMARK SMILES IDX 75 88 76 89 52 90 53 91 62 92 54 93 55 94 61 95 63 96 56 97
REMARK SMILES IDX 57 98 58 99 59 100 60 101
REMARK H PARENT 3 18 8 27 84 51 50 62
REMARK Flexibility Score: inf
ROOT
ATOM      1  C   UNL     1       4.079   3.067  -2.380  1.00  0.00     0.188 C 
ENDROOT
BRANCH   1   2
ATOM      2  C   UNL     1       4.606   3.074  -3.828  1.00  0.00     0.188 C 
BRANCH   2   3
ATOM      3  O   UNL     1       3.685   3.337  -4.882  1.00  0.00    -0.376 OA
BRANCH   3   4
ATOM      4  C   UNL     1       2.498   2.551  -4.979  1.00  0.00     0.202 C 
BRANCH   4   5
ATOM      5  C   UNL     1       2.639   1.025  -4.949  1.00  0.00     0.261 C 
BRANCH   5   6
ATOM      6  O   UNL     1       3.170   0.547  -3.698  1.00  0.00    -0.460 OA
BRANCH   6   7
ATOM      7  C   UNL     1       4.130  -0.402  -3.812  1.00  0.00     0.340 C 
ATOM      8  O   UNL     1       4.443  -0.990  -4.837  1.00  0.00    -0.246 OA
BRANCH   7   9
ATOM      9  C   UNL     1       4.885  -0.559  -2.546  1.00  0.00     0.087 A 
ATOM     10  C   UNL     1       4.308  -0.647  -1.261  1.00  0.00     0.056 A 
ATOM     11  C   UNL     1       5.157  -0.965  -0.190  1.00  0.00     0.031 A 
ATOM     12  C   UNL     1       6.547  -0.997  -0.341  1.00  0.00     0.048 A 
ATOM     13  C   UNL     1       6.283  -0.596  -2.695  1.00  0.00     0.064 A 
ATOM     14  C   UNL     1       7.099  -0.767  -1.587  1.00  0.00     0.116 A 
BRANCH  10  15
ATOM     15  N   UNL     1       2.922  -0.422  -1.074  1.00  0.00    -0.321 N 
ATOM     16  O   UNL     1       0.948  -0.211   0.020  1.00  0.00    -0.269 OA
ATOM     17  C   UNL     1       2.176  -0.146   0.055  1.00  0.00     0.257 C 
ATOM     18  H   UNL     1       2.393  -0.472  -1.902  1.00  0.00     0.170 HD
BRANCH  17  19
ATOM     19  C   UNL     1       2.803   0.273   1.321  1.00  0.00     0.058 A 
ATOM     20  C   UNL     1       2.487  -0.387   2.508  1.00  0.00     0.018 A 
ATOM     21  C   UNL     1       3.716   1.318   1.373  1.00  0.00     0.126 A 
ATOM     22  C   UNL     1       3.155  -0.035   3.681  1.00  0.00     0.037 A 
ATOM     23  N   UNL     1       4.389   1.668   2.496  1.00  0.00    -0.249 NA
ATOM     24  C   UNL     1       4.103   0.980   3.623  1.00  0.00     0.106 A 
ATOM     25  Br  UNL     1       5.077   1.410   5.192  1.00  0.00    -0.029 Br
ENDBRANCH  17  19
ENDBRANCH  10  15
BRANCH  14  26
ATOM     26  O   UNL     1       8.444  -0.716  -1.774  1.00  0.00    -0.508 OA
ATOM     27  H   UNL     1       9.023  -0.828  -1.045  1.00  0.00     0.293 HD
ENDBRANCH  14  26
ENDBRANCH   7   9
ENDBRANCH   6   7
ENDBRANCH   5   6
ENDBRANCH   4   5
ENDBRANCH   3   4
ENDBRANCH   2   3
ENDBRANCH   1   2
BRANCH   1  28
ATOM     28  O   UNL     1       2.694   3.283  -2.252  1.00  0.00    -0.376 OA
BRANCH  28  29
ATOM     29  C   UNL     1       2.197   4.586  -1.993  1.00  0.00     0.202 C 
BRANCH  29  30
ATOM     30  C   UNL     1       2.880   5.894  -2.438  1.00  0.00     0.261 C 
BRANCH  30  31
ATOM     31  O   UNL     1       4.287   5.875  -2.681  1.00  0.00    -0.460 OA
BRANCH  31  32
ATOM     32  C   UNL     1       5.093   6.089  -1.616  1.00  0.00     0.338 C 
ATOM     33  O   UNL     1       4.754   6.228  -0.456  1.00  0.00    -0.246 OA
BRANCH  32  34
ATOM     34  C   UNL     1       6.487   5.934  -2.080  1.00  0.00     0.060 A 
ATOM     35  C   UNL     1       7.277   4.924  -1.519  1.00  0.00     0.016 A 
ATOM     36  C   UNL     1       7.004   6.776  -3.069  1.00  0.00     0.016 A 
ATOM     37  C   UNL     1       8.602   4.770  -1.931  1.00  0.00     0.010 A 
ATOM     38  C   UNL     1       8.336   6.633  -3.464  1.00  0.00     0.010 A 
ATOM     39  C   UNL     1       9.148   5.647  -2.878  1.00  0.00    -0.014 A 
BRANCH  39  40
ATOM     40  C   UNL     1      10.608   5.646  -3.132  1.00  0.00     0.031 A 
ATOM     41  C   UNL     1      11.470   6.612  -2.367  1.00  0.00     0.074 A 
ATOM     42  C   UNL     1      11.160   4.804  -4.023  1.00  0.00     0.049 A 
ATOM     43  N   UNL     1      12.757   6.823  -2.452  1.00  0.00    -0.248 NA
ATOM     44  C   UNL     1      10.783   7.454  -1.374  1.00  0.00     0.031 C 
ATOM     45  C   UNL     1      10.433   3.808  -4.807  1.00  0.00     0.029 A 
ATOM     46  N   UNL     1      12.464   4.667  -4.427  1.00  0.00    -0.354 N 
ATOM     47  C   UNL     1      13.037   7.816  -1.521  1.00  0.00     0.074 A 
ATOM     48  C   UNL     1      11.781   8.189  -0.907  1.00  0.00     0.031 C 
ATOM     49  C   UNL     1      11.300   3.177  -5.619  1.00  0.00     0.029 A 
ATOM     50  C   UNL     1      12.636   3.740  -5.427  1.00  0.00     0.049 A 
ATOM     51  H   UNL     1      13.206   5.184  -4.038  1.00  0.00     0.167 HD
ATOM     52  C   UNL     1      14.234   8.361  -1.198  1.00  0.00     0.037 A 
ATOM     53  C   UNL     1      13.741   3.405  -6.123  1.00  0.00     0.037 A 
ATOM     54  C   UNL     1      15.478   8.006  -1.827  1.00  0.00     0.049 A 
ATOM     55  C   UNL     1      15.053   4.070  -5.796  1.00  0.00     0.074 A 
ATOM     56  C   UNL     1      16.744   8.504  -1.575  1.00  0.00     0.029 A 
ATOM     57  N   UNL     1      15.610   7.071  -2.844  1.00  0.00    -0.354 N 
ATOM     58  N   UNL     1      15.310   4.990  -4.896  1.00  0.00    -0.248 NA
ATOM     59  C   UNL     1      16.226   3.648  -6.575  1.00  0.00     0.031 C 
ATOM     60  C   UNL     1      17.637   7.897  -2.466  1.00  0.00     0.029 A 
ATOM     61  C   UNL     1      16.934   6.989  -3.243  1.00  0.00     0.049 A 
ATOM     62  H   UNL     1      14.872   6.544  -3.225  1.00  0.00     0.167 HD
ATOM     63  C   UNL     1      16.675   5.242  -4.987  1.00  0.00     0.074 A 
ATOM     64  C   UNL     1      17.192   4.370  -6.022  1.00  0.00     0.031 C 
ATOM     65  C   UNL     1      17.433   6.114  -4.275  1.00  0.00     0.037 A 
BRANCH  52  66
ATOM     66  C   UNL     1      14.237   9.418  -0.131  1.00  0.00     0.058 A 
ATOM     67  C   UNL     1      14.027   9.098   1.220  1.00  0.00     0.135 A 
ATOM     68  C   UNL     1      14.443  10.767  -0.461  1.00  0.00     0.135 A 
ATOM     69  F   UNL     1      13.805   7.825   1.586  1.00  0.00    -0.206 F 
ATOM     70  C   UNL     1      13.985  10.081   2.202  1.00  0.00     0.059 A 
ATOM     71  C   UNL     1      14.429  11.765   0.508  1.00  0.00     0.059 A 
ATOM     72  F   UNL     1      14.644  11.128  -1.738  1.00  0.00    -0.206 F 
ATOM     73  C   UNL     1      14.180  11.414   1.835  1.00  0.00     0.060 A 
BRANCH  73  74
ATOM     74  S   UNL     1      14.100  12.684   3.115  1.00  0.00     0.124 S 
ATOM     75  O   UNL     1      12.661  12.769   3.349  1.00  0.00    -0.237 OA
ATOM     76  O   UNL     1      14.883  12.092   4.195  1.00  0.00    -0.237 OA
ATOM     77  O   UNL     1      14.702  13.849   2.475  1.00  0.00    -0.744 OA
ENDBRANCH  73  74
ENDBRANCH  52  66
BRANCH  53  78
ATOM     78  C   UNL     1      13.647   2.397  -7.211  1.00  0.00     0.058 A 
ATOM     79  C   UNL     1      14.193   1.114  -7.064  1.00  0.00     0.135 A 
ATOM     80  C   UNL     1      12.991   2.695  -8.416  1.00  0.00     0.135 A 
ATOM     81  F   UNL     1      14.841   0.787  -5.936  1.00  0.00    -0.206 F 
ATOM     82  C   UNL     1      14.098   0.162  -8.075  1.00  0.00     0.059 A 
ATOM     83  C   UNL     1      12.863   1.754  -9.432  1.00  0.00     0.059 A 
ATOM     84  F   UNL     1      12.445   3.907  -8.602  1.00  0.00    -0.206 F 
ATOM     85  C   UNL     1      13.427   0.491  -9.255  1.00  0.00     0.060 A 
BRANCH  85  86
ATOM     86  S   UNL     1      13.254  -0.771 -10.536  1.00  0.00     0.124 S 
ATOM     87  O   UNL     1      14.598  -0.802 -11.100  1.00  0.00    -0.237 OA
ATOM     88  O   UNL     1      12.860  -1.944  -9.761  1.00  0.00    -0.237 OA
ATOM     89  O   UNL     1      12.216  -0.226 -11.405  1.00  0.00    -0.744 OA
ENDBRANCH  85  86
ENDBRANCH  53  78
BRANCH  65  90
ATOM     90  C   UNL     1      18.907   6.154  -4.568  1.00  0.00     0.058 A 
ATOM     91  C   UNL     1      19.413   6.760  -5.728  1.00  0.00     0.135 A 
ATOM     92  C   UNL     1      19.829   5.632  -3.646  1.00  0.00     0.135 A 
ATOM     93  F   UNL     1      18.574   7.270  -6.644  1.00  0.00    -0.206 F 
ATOM     94  C   UNL     1      20.780   6.833  -5.973  1.00  0.00     0.059 A 
ATOM     95  C   UNL     1      21.202   5.715  -3.859  1.00  0.00     0.059 A 
ATOM     96  F   UNL     1      19.399   5.051  -2.514  1.00  0.00    -0.206 F 
ATOM     97  C   UNL     1      21.668   6.308  -5.031  1.00  0.00     0.060 A 
BRANCH  97  98
ATOM     98  S   UNL     1      23.442   6.441  -5.340  1.00  0.00     0.124 S 
ATOM     99  O   UNL     1      23.644   5.404  -6.346  1.00  0.00    -0.237 OA
ATOM    100  O   UNL     1      23.577   7.816  -5.811  1.00  0.00    -0.237 OA
ATOM    101  O   UNL     1      24.035   6.173  -4.033  1.00  0.00    -0.744 OA
ENDBRANCH  97  98
ENDBRANCH  65  90
ENDBRANCH  39  40
ENDBRANCH  32  34
ENDBRANCH  31  32
ENDBRANCH  30  31
ENDBRANCH  29  30
ENDBRANCH  28  29
ENDBRANCH   1  28
TORSDOF 23
