REMARK SMILES O=C(OCCOCCOCCOC(=O)[C@H]1CC=CC[C@H]1C(=O)N[C@@H]1CCN(c2cccc(Cl)c2)C1)c1ccc(-c2c3nc(c(-c4c(F)cc(S(=O)(=O)[O-])cc4F)c4ccc([nH]4)c(-c4c(F)cc(S(=O)(=O)[O-])cc4F)c4nc(c(-c5c(F)cc(S(=O)(=O)[O-])cc5F)c5ccc2[nH]5)C=C4)C=C3)cc1
REMARK SMILES IDX 7 1 6 2 5 3 4 4 3 5 2 6 1 7 36 8 37 9 101 10 38 11 100 12
REMARK SMILES IDX 39 13 40 14 41 15 94 16 42 17 99 18 93 19 95 20 43 21 98 22
REMARK SMILES IDX 92 23 91 24 44 26 78 27 57 28 77 29 58 30 61 31 76 32 96 33
REMARK SMILES IDX 59 34 60 35 75 37 97 38 62 39 45 40 46 41 55 42 47 43 48 44
REMARK SMILES IDX 54 45 56 46 49 47 50 48 51 49 52 50 53 51 79 52 80 53 89 54
REMARK SMILES IDX 81 55 82 56 88 57 90 58 83 59 84 60 85 61 86 62 87 63 63 64
REMARK SMILES IDX 64 65 73 66 65 67 66 68 72 69 74 70 67 71 68 72 69 73 70 74
REMARK SMILES IDX 71 75 8 76 9 77 10 78 11 79 12 80 13 81 14 82 15 83 16 84
REMARK SMILES IDX 20 85 17 86 19 87 18 88 21 89 22 90 23 91 24 93 25 94 35 95
REMARK SMILES IDX 26 96 27 97 28 98 29 99 34 100 30 101 32 102 31 103 33 104
REMARK H PARENT 95 25 61 36 23 92
REMARK Flexibility Score: inf
ROOT
ATOM      1  C   UNL     1       1.464  -1.543   3.396  1.00  0.00     0.188 C 
ENDROOT
BRANCH   1   2
ATOM      2  O   UNL     1       2.742  -1.194   2.924  1.00  0.00    -0.376 OA
BRANCH   2   3
ATOM      3  C   UNL     1       2.943   0.193   2.856  1.00  0.00     0.202 C 
BRANCH   3   4
ATOM      4  C   UNL     1       2.140   0.953   1.741  1.00  0.00     0.261 C 
BRANCH   4   5
ATOM      5  O   UNL     1       1.710   0.498   0.217  1.00  0.00    -0.460 OA
BRANCH   5   6
ATOM      6  C   UNL     1       1.429   0.109  -1.077  1.00  0.00     0.338 C 
ATOM      7  O   UNL     1       0.209   0.083  -1.317  1.00  0.00    -0.246 OA
BRANCH   6   8
ATOM      8  C   UNL     1       2.258  -0.292  -2.423  1.00  0.00     0.060 A 
ATOM      9  C   UNL     1       3.595  -0.625  -2.563  1.00  0.00     0.016 A 
ATOM     10  C   UNL     1       1.626  -0.534  -3.661  1.00  0.00     0.016 A 
ATOM     11  C   UNL     1       4.295  -1.203  -3.636  1.00  0.00     0.010 A 
ATOM     12  C   UNL     1       2.287  -1.189  -4.798  1.00  0.00     0.010 A 
ATOM     13  C   UNL     1       3.632  -1.597  -4.758  1.00  0.00    -0.014 A 
BRANCH  13  14
ATOM     14  C   UNL     1       4.450  -2.451  -5.692  1.00  0.00     0.031 A 
ATOM     15  C   UNL     1       5.492  -1.817  -6.566  1.00  0.00     0.074 A 
ATOM     16  C   UNL     1       4.661  -3.770  -5.440  1.00  0.00     0.049 A 
ATOM     17  N   UNL     1       6.334  -2.390  -7.378  1.00  0.00    -0.248 NA
ATOM     18  C   UNL     1       5.699  -0.369  -6.413  1.00  0.00     0.031 C 
ATOM     19  C   UNL     1       4.285  -4.396  -4.192  1.00  0.00     0.029 A 
ATOM     20  N   UNL     1       5.294  -4.807  -6.084  1.00  0.00    -0.354 N 
ATOM     21  C   UNL     1       7.117  -1.369  -7.890  1.00  0.00     0.074 A 
ATOM     22  C   UNL     1       6.740  -0.154  -7.206  1.00  0.00     0.031 C 
ATOM     23  C   UNL     1       4.514  -5.712  -4.196  1.00  0.00     0.029 A 
ATOM     24  C   UNL     1       5.102  -6.040  -5.470  1.00  0.00     0.049 A 
ATOM     25  H   UNL     1       5.832  -4.688  -6.900  1.00  0.00     0.167 HD
ATOM     26  C   UNL     1       7.995  -1.455  -8.912  1.00  0.00     0.037 A 
ATOM     27  C   UNL     1       5.354  -7.300  -5.881  1.00  0.00     0.037 A 
ATOM     28  C   UNL     1       8.283  -2.700  -9.577  1.00  0.00     0.049 A 
ATOM     29  C   UNL     1       6.121  -7.389  -7.159  1.00  0.00     0.074 A 
ATOM     30  C   UNL     1       8.964  -2.910 -10.759  1.00  0.00     0.029 A 
ATOM     31  N   UNL     1       7.873  -3.950  -9.119  1.00  0.00    -0.354 N 
ATOM     32  N   UNL     1       6.695  -6.399  -7.801  1.00  0.00    -0.248 NA
ATOM     33  C   UNL     1       6.289  -8.703  -7.781  1.00  0.00     0.031 C 
ATOM     34  C   UNL     1       8.882  -4.273 -11.064  1.00  0.00     0.029 A 
ATOM     35  C   UNL     1       8.223  -4.928 -10.033  1.00  0.00     0.049 A 
ATOM     36  H   UNL     1       7.404  -4.114  -8.270  1.00  0.00     0.167 HD
ATOM     37  C   UNL     1       7.285  -6.961  -8.912  1.00  0.00     0.074 A 
ATOM     38  C   UNL     1       7.041  -8.392  -8.829  1.00  0.00     0.031 C 
ATOM     39  C   UNL     1       7.947  -6.341  -9.915  1.00  0.00     0.037 A 
BRANCH  26  40
ATOM     40  C   UNL     1       8.450  -0.158  -9.512  1.00  0.00     0.058 A 
ATOM     41  C   UNL     1       9.437   0.662  -8.949  1.00  0.00     0.135 A 
ATOM     42  C   UNL     1       7.814   0.292 -10.683  1.00  0.00     0.135 A 
ATOM     43  F   UNL     1      10.036   0.311  -7.800  1.00  0.00    -0.206 F 
ATOM     44  C   UNL     1       9.781   1.882  -9.531  1.00  0.00     0.059 A 
ATOM     45  C   UNL     1       8.154   1.493 -11.291  1.00  0.00     0.059 A 
ATOM     46  F   UNL     1       6.832  -0.436 -11.238  1.00  0.00    -0.206 F 
ATOM     47  C   UNL     1       9.138   2.284 -10.706  1.00  0.00     0.060 A 
BRANCH  47  48
ATOM     48  S   UNL     1       9.616   3.848 -11.473  1.00  0.00     0.124 S 
ATOM     49  O   UNL     1       9.082   4.818 -10.522  1.00  0.00    -0.237 OA
ATOM     50  O   UNL     1      11.070   3.737 -11.518  1.00  0.00    -0.237 OA
ATOM     51  O   UNL     1       8.947   3.810 -12.770  1.00  0.00    -0.744 OA
ENDBRANCH  47  48
ENDBRANCH  26  40
BRANCH  27  52
ATOM     52  C   UNL     1       4.802  -8.504  -5.174  1.00  0.00     0.058 A 
ATOM     53  C   UNL     1       5.603  -9.573  -4.742  1.00  0.00     0.135 A 
ATOM     54  C   UNL     1       3.412  -8.644  -4.979  1.00  0.00     0.135 A 
ATOM     55  F   UNL     1       6.935  -9.514  -4.891  1.00  0.00    -0.206 F 
ATOM     56  C   UNL     1       5.056 -10.737  -4.190  1.00  0.00     0.059 A 
ATOM     57  C   UNL     1       2.843  -9.781  -4.405  1.00  0.00     0.059 A 
ATOM     58  F   UNL     1       2.575  -7.666  -5.362  1.00  0.00    -0.206 F 
ATOM     59  C   UNL     1       3.672 -10.836  -4.037  1.00  0.00     0.060 A 
BRANCH  59  60
ATOM     60  S   UNL     1       2.964 -12.365  -3.374  1.00  0.00     0.124 S 
ATOM     61  O   UNL     1       3.222 -13.303  -4.460  1.00  0.00    -0.237 OA
ATOM     62  O   UNL     1       3.747 -12.565  -2.159  1.00  0.00    -0.237 OA
ATOM     63  O   UNL     1       1.561 -12.023  -3.160  1.00  0.00    -0.744 OA
ENDBRANCH  59  60
ENDBRANCH  27  52
BRANCH  39  64
ATOM     64  C   UNL     1       8.427  -7.220 -11.019  1.00  0.00     0.058 A 
ATOM     65  C   UNL     1       7.530  -7.760 -11.951  1.00  0.00     0.135 A 
ATOM     66  C   UNL     1       9.799  -7.450 -11.189  1.00  0.00     0.135 A 
ATOM     67  F   UNL     1       6.208  -7.576 -11.808  1.00  0.00    -0.206 F 
ATOM     68  C   UNL     1       7.983  -8.506 -13.027  1.00  0.00     0.059 A 
ATOM     69  C   UNL     1      10.275  -8.166 -12.276  1.00  0.00     0.059 A 
ATOM     70  F   UNL     1      10.684  -6.948 -10.314  1.00  0.00    -0.206 F 
ATOM     71  C   UNL     1       9.358  -8.689 -13.188  1.00  0.00     0.060 A 
BRANCH  71  72
ATOM     72  S   UNL     1       9.934  -9.580 -14.643  1.00  0.00     0.124 S 
ATOM     73  O   UNL     1       9.541 -10.948 -14.323  1.00  0.00    -0.237 OA
ATOM     74  O   UNL     1       9.183  -8.936 -15.716  1.00  0.00    -0.237 OA
ATOM     75  O   UNL     1      11.371  -9.323 -14.650  1.00  0.00    -0.744 OA
ENDBRANCH  71  72
ENDBRANCH  39  64
ENDBRANCH  13  14
ENDBRANCH   6   8
ENDBRANCH   5   6
ENDBRANCH   4   5
ENDBRANCH   3   4
ENDBRANCH   2   3
ENDBRANCH   1   2
BRANCH   1  76
ATOM     76  C   UNL     1       1.491  -3.009   3.808  1.00  0.00     0.188 C 
BRANCH  76  77
ATOM     77  O   UNL     1       2.481  -3.334   4.790  1.00  0.00    -0.376 OA
BRANCH  77  78
ATOM     78  C   UNL     1       3.834  -3.504   4.339  1.00  0.00     0.202 C 
BRANCH  78  79
ATOM     79  C   UNL     1       4.113  -4.756   3.502  1.00  0.00     0.261 C 
BRANCH  79  80
ATOM     80  O   UNL     1       3.678  -4.600   2.138  1.00  0.00    -0.463 OA
BRANCH  80  81
ATOM     81  C   UNL     1       2.745  -5.475   1.720  1.00  0.00     0.310 C 
ATOM     82  O   UNL     1       2.166  -6.257   2.471  1.00  0.00    -0.252 OA
BRANCH  81  83
ATOM     83  C   UNL     1       2.340  -5.353   0.264  1.00  0.00     0.115 C 
ATOM     84  C   UNL     1       0.809  -5.045   0.272  1.00  0.00     0.043 C 
ATOM     85  C   UNL     1       3.220  -4.638  -0.817  1.00  0.00     0.096 C 
ATOM     86  C   UNL     1       0.338  -3.807  -0.394  1.00  0.00    -0.030 C 
ATOM     87  C   UNL     1       2.390  -3.740  -1.746  1.00  0.00     0.041 C 
ATOM     88  C   UNL     1       1.062  -3.232  -1.343  1.00  0.00    -0.030 C 
BRANCH  85  89
ATOM     89  C   UNL     1       4.719  -4.195  -0.480  1.00  0.00     0.224 C 
ATOM     90  O   UNL     1       5.475  -4.980   0.100  1.00  0.00    -0.275 OA
ATOM     91  N   UNL     1       5.270  -2.996  -0.976  1.00  0.00    -0.351 N 
ATOM     92  H   UNL     1       5.168  -2.772  -1.929  1.00  0.00     0.163 HD
BRANCH  91  93
ATOM     93  C   UNL     1       6.022  -2.040  -0.054  1.00  0.00     0.103 C 
ATOM     94  C   UNL     1       5.101  -1.744   1.094  1.00  0.00     0.048 C 
ATOM     95  C   UNL     1       6.327  -0.496  -0.516  1.00  0.00     0.141 C 
ATOM     96  C   UNL     1       4.219  -0.744   0.390  1.00  0.00     0.119 C 
ATOM     97  N   UNL     1       5.110   0.343  -0.144  1.00  0.00    -0.369 N 
BRANCH  97  98
ATOM     98  C   UNL     1       4.687   1.503  -0.870  1.00  0.00     0.038 A 
ATOM     99  C   UNL     1       3.697   2.433  -0.484  1.00  0.00     0.026 A 
ATOM    100  C   UNL     1       5.120   1.806  -2.172  1.00  0.00     0.046 A 
ATOM    101  C   UNL     1       2.897   3.230  -1.347  1.00  0.00     0.004 A 
ATOM    102  C   UNL     1       4.396   2.667  -3.054  1.00  0.00     0.043 A 
ATOM    103  C   UNL     1       3.226   3.308  -2.674  1.00  0.00     0.020 A 
ATOM    104  Cl  UNL     1       4.940   2.902  -4.669  1.00  0.00    -0.084 Cl
ENDBRANCH  97  98
ENDBRANCH  91  93
ENDBRANCH  85  89
ENDBRANCH  81  83
ENDBRANCH  80  81
ENDBRANCH  79  80
ENDBRANCH  78  79
ENDBRANCH  77  78
ENDBRANCH  76  77
ENDBRANCH   1  76
TORSDOF 23
