REMARK SMILES Cc1nccn1CCC[NH+]1CCC2(CC1)[C@@H](C(=O)OCCOCCOCCOC(=O)c1ccc(-c3c4nc(c(-c5c(F)cc(S(=O)(=O)[O-])cc5F)c5ccc([nH]5)c(-c5c(F)cc(S(=O)(=O)[O-])cc5F)c5nc(c(-c6c(F)cc(S(=O)(=O)[O-])cc6F)c6ccc3[nH]6)C=C5)C=C4)cc1)CC(=O)N2C
REMARK SMILES IDX 23 1 22 2 21 3 20 4 19 5 17 6 18 7 16 8 10 9 11 10 15 11
REMARK SMILES IDX 12 13 14 14 13 15 100 16 97 17 98 18 101 19 99 20 9 21 8 22
REMARK SMILES IDX 7 23 6 24 1 25 2 26 3 27 4 28 5 29 24 30 25 31 26 32 27 33
REMARK SMILES IDX 28 34 29 35 30 36 31 37 32 38 96 39 33 40 95 41 34 42 35 43
REMARK SMILES IDX 36 44 89 45 37 46 94 47 88 48 90 49 38 50 93 51 87 52 86 53
REMARK SMILES IDX 39 55 73 56 52 57 72 58 53 59 56 60 71 61 91 62 54 63 55 64
REMARK SMILES IDX 70 66 92 67 57 68 40 69 41 70 50 71 42 72 43 73 49 74 51 75
REMARK SMILES IDX 44 76 45 77 46 78 47 79 48 80 74 81 75 82 84 83 76 84 77 85
REMARK SMILES IDX 83 86 85 87 78 88 79 89 80 90 81 91 82 92 58 93 59 94 68 95
REMARK SMILES IDX 60 96 61 97 67 98 69 99 62 100 63 101 64 102 65 103 66 104
REMARK H PARENT 10 12 90 54 56 65
REMARK Flexibility Score: inf
ROOT
ATOM      1  C   UNL     1      -3.044   3.541  -0.644  1.00  0.00     0.188 C 
ENDROOT
BRANCH   1   2
ATOM      2  O   UNL     1      -1.948   4.344  -1.051  1.00  0.00    -0.376 OA
BRANCH   2   3
ATOM      3  C   UNL     1      -0.962   3.768  -1.897  1.00  0.00     0.202 C 
BRANCH   3   4
ATOM      4  C   UNL     1      -0.354   2.402  -1.512  1.00  0.00     0.261 C 
BRANCH   4   5
ATOM      5  O   UNL     1      -1.267   1.280  -1.367  1.00  0.00    -0.463 OA
BRANCH   5   6
ATOM      6  C   UNL     1      -1.454   0.750  -0.136  1.00  0.00     0.311 C 
ATOM      7  O   UNL     1      -0.864   1.175   0.855  1.00  0.00    -0.252 OA
BRANCH   6   8
ATOM      8  C   UNL     1      -2.445  -0.427  -0.004  1.00  0.00     0.134 C 
ATOM      9  N   UNL     1      -2.710  -2.615  -3.662  1.00  0.00    -0.335 N 
ATOM     10  C   UNL     1      -2.998  -3.402  -2.484  1.00  0.00     0.264 C 
ATOM     11  C   UNL     1      -3.519  -1.425  -3.752  1.00  0.00     0.264 C 
ATOM     12  H   UNL     1      -3.050  -3.195  -4.429  1.00  0.00     0.348 HD
ATOM     13  C   UNL     1      -2.784  -2.644  -1.184  1.00  0.00     0.091 C 
ATOM     14  C   UNL     1      -3.373  -0.517  -2.534  1.00  0.00     0.091 C 
ATOM     15  C   UNL     1      -3.307  -1.173  -1.128  1.00  0.00     0.067 C 
ATOM     16  N   UNL     1      -4.661  -1.182  -0.515  1.00  0.00    -0.339 N 
ATOM     17  C   UNL     1      -3.423  -0.051   1.119  1.00  0.00     0.118 C 
ATOM     18  C   UNL     1      -4.734  -0.657   0.759  1.00  0.00     0.223 C 
ATOM     19  C   UNL     1      -5.861  -1.732  -1.118  1.00  0.00     0.147 C 
ATOM     20  O   UNL     1      -5.717  -0.649   1.482  1.00  0.00    -0.275 OA
BRANCH   9  21
ATOM     21  C   UNL     1      -1.383  -2.641  -4.251  1.00  0.00     0.264 C 
BRANCH  21  22
ATOM     22  C   UNL     1      -0.327  -1.552  -3.989  1.00  0.00     0.083 C 
BRANCH  22  23
ATOM     23  C   UNL     1       0.129  -1.221  -2.569  1.00  0.00     0.129 C 
BRANCH  23  24
ATOM     24  N   UNL     1       0.824  -2.156  -1.712  1.00  0.00    -0.335 N 
ATOM     25  C   UNL     1       1.782  -0.441  -0.057  1.00  0.00     0.087 C 
ATOM     26  C   UNL     1       1.472  -1.818  -0.530  1.00  0.00     0.105 A 
ATOM     27  N   UNL     1       1.755  -2.900   0.169  1.00  0.00    -0.242 NA
ATOM     28  C   UNL     1       1.292  -3.952  -0.560  1.00  0.00     0.131 A 
ATOM     29  C   UNL     1       0.747  -3.520  -1.743  1.00  0.00     0.107 A 
ENDBRANCH  23  24
ENDBRANCH  22  23
ENDBRANCH  21  22
ENDBRANCH   9  21
ENDBRANCH   6   8
ENDBRANCH   5   6
ENDBRANCH   4   5
ENDBRANCH   3   4
ENDBRANCH   2   3
ENDBRANCH   1   2
BRANCH   1  30
ATOM     30  C   UNL     1      -3.683   2.588  -1.667  1.00  0.00     0.188 C 
BRANCH  30  31
ATOM     31  O   UNL     1      -3.072   2.587  -2.949  1.00  0.00    -0.376 OA
BRANCH  31  32
ATOM     32  C   UNL     1      -3.839   2.727  -4.136  1.00  0.00     0.202 C 
BRANCH  32  33
ATOM     33  C   UNL     1      -4.477   4.092  -4.368  1.00  0.00     0.261 C 
BRANCH  33  34
ATOM     34  O   UNL     1      -5.101   4.592  -3.205  1.00  0.00    -0.460 OA
BRANCH  34  35
ATOM     35  C   UNL     1      -6.128   3.871  -2.726  1.00  0.00     0.338 C 
ATOM     36  O   UNL     1      -6.648   2.884  -3.242  1.00  0.00    -0.246 OA
BRANCH  35  37
ATOM     37  C   UNL     1      -6.458   4.426  -1.407  1.00  0.00     0.060 A 
ATOM     38  C   UNL     1      -7.597   3.914  -0.793  1.00  0.00     0.016 A 
ATOM     39  C   UNL     1      -5.920   5.679  -1.090  1.00  0.00     0.016 A 
ATOM     40  C   UNL     1      -8.461   4.837  -0.274  1.00  0.00     0.010 A 
ATOM     41  C   UNL     1      -6.793   6.604  -0.622  1.00  0.00     0.010 A 
ATOM     42  C   UNL     1      -8.094   6.178  -0.381  1.00  0.00    -0.014 A 
BRANCH  42  43
ATOM     43  C   UNL     1      -9.124   7.178  -0.349  1.00  0.00     0.031 A 
ATOM     44  C   UNL     1      -9.298   7.727   1.000  1.00  0.00     0.074 A 
ATOM     45  C   UNL     1      -9.692   7.620  -1.486  1.00  0.00     0.049 A 
ATOM     46  N   UNL     1     -10.179   7.380   1.878  1.00  0.00    -0.248 NA
ATOM     47  C   UNL     1      -8.177   8.513   1.545  1.00  0.00     0.031 C 
ATOM     48  C   UNL     1      -9.308   7.357  -2.879  1.00  0.00     0.029 A 
ATOM     49  N   UNL     1     -10.707   8.507  -1.614  1.00  0.00    -0.354 N 
ATOM     50  C   UNL     1      -9.849   8.131   2.996  1.00  0.00     0.074 A 
ATOM     51  C   UNL     1      -8.467   8.486   2.844  1.00  0.00     0.031 C 
ATOM     52  C   UNL     1      -9.936   8.245  -3.688  1.00  0.00     0.029 A 
ATOM     53  C   UNL     1     -10.852   9.040  -2.890  1.00  0.00     0.049 A 
ATOM     54  H   UNL     1     -11.295   8.755  -0.864  1.00  0.00     0.167 HD
ATOM     55  C   UNL     1     -10.808   8.723   3.756  1.00  0.00     0.037 A 
ATOM     56  C   UNL     1     -11.598  10.139  -3.175  1.00  0.00     0.037 A 
ATOM     57  C   UNL     1     -12.107   8.158   3.476  1.00  0.00     0.049 A 
ATOM     58  C   UNL     1     -12.529  10.329  -2.018  1.00  0.00     0.074 A 
ATOM     59  C   UNL     1     -12.642   6.887   3.565  1.00  0.00     0.029 A 
ATOM     60  N   UNL     1     -12.933   8.858   2.626  1.00  0.00    -0.354 N 
ATOM     61  N   UNL     1     -13.468   9.476  -1.692  1.00  0.00    -0.248 NA
ATOM     62  C   UNL     1     -12.081  11.193  -0.935  1.00  0.00     0.031 C 
ATOM     63  C   UNL     1     -13.489   6.756   2.426  1.00  0.00     0.029 A 
ATOM     64  C   UNL     1     -13.484   7.970   1.734  1.00  0.00     0.049 A 
ATOM     65  H   UNL     1     -13.100   9.828   2.653  1.00  0.00     0.167 HD
ATOM     66  C   UNL     1     -13.445   9.418  -0.302  1.00  0.00     0.074 A 
ATOM     67  C   UNL     1     -12.605  10.541   0.107  1.00  0.00     0.031 C 
ATOM     68  C   UNL     1     -13.863   8.305   0.374  1.00  0.00     0.037 A 
BRANCH  55  69
ATOM     69  C   UNL     1     -10.613  10.049   4.450  1.00  0.00     0.058 A 
ATOM     70  C   UNL     1     -11.571  10.468   5.390  1.00  0.00     0.135 A 
ATOM     71  C   UNL     1      -9.656  11.028   4.084  1.00  0.00     0.135 A 
ATOM     72  F   UNL     1     -12.536   9.630   5.800  1.00  0.00    -0.206 F 
ATOM     73  C   UNL     1     -11.608  11.772   5.885  1.00  0.00     0.059 A 
ATOM     74  C   UNL     1      -9.633  12.308   4.615  1.00  0.00     0.059 A 
ATOM     75  F   UNL     1      -8.749  10.842   3.119  1.00  0.00    -0.206 F 
ATOM     76  C   UNL     1     -10.638  12.687   5.482  1.00  0.00     0.060 A 
BRANCH  76  77
ATOM     77  S   UNL     1     -10.734  14.394   6.034  1.00  0.00     0.124 S 
ATOM     78  O   UNL     1     -11.924  14.858   5.331  1.00  0.00    -0.237 OA
ATOM     79  O   UNL     1     -10.861  14.236   7.479  1.00  0.00    -0.237 OA
ATOM     80  O   UNL     1      -9.469  14.966   5.581  1.00  0.00    -0.744 OA
ENDBRANCH  76  77
ENDBRANCH  55  69
BRANCH  56  81
ATOM     81  C   UNL     1     -11.240  11.245  -4.106  1.00  0.00     0.058 A 
ATOM     82  C   UNL     1     -12.191  12.199  -4.512  1.00  0.00     0.135 A 
ATOM     83  C   UNL     1      -9.895  11.550  -4.400  1.00  0.00     0.135 A 
ATOM     84  F   UNL     1     -13.492  12.006  -4.246  1.00  0.00    -0.206 F 
ATOM     85  C   UNL     1     -11.826  13.398  -5.141  1.00  0.00     0.059 A 
ATOM     86  C   UNL     1      -9.509  12.732  -5.032  1.00  0.00     0.059 A 
ATOM     87  F   UNL     1      -8.899  10.746  -3.999  1.00  0.00    -0.206 F 
ATOM     88  C   UNL     1     -10.478  13.662  -5.382  1.00  0.00     0.060 A 
BRANCH  88  89
ATOM     89  S   UNL     1      -9.986  15.269  -6.055  1.00  0.00     0.124 S 
ATOM     90  O   UNL     1     -10.512  15.200  -7.414  1.00  0.00    -0.237 OA
ATOM     91  O   UNL     1     -10.660  16.199  -5.156  1.00  0.00    -0.237 OA
ATOM     92  O   UNL     1      -8.529  15.249  -5.949  1.00  0.00    -0.744 OA
ENDBRANCH  88  89
ENDBRANCH  56  81
BRANCH  68  93
ATOM     93  C   UNL     1     -14.604   7.237  -0.398  1.00  0.00     0.058 A 
ATOM     94  C   UNL     1     -14.034   6.448  -1.416  1.00  0.00     0.135 A 
ATOM     95  C   UNL     1     -15.890   6.882   0.035  1.00  0.00     0.135 A 
ATOM     96  F   UNL     1     -12.774   6.655  -1.821  1.00  0.00    -0.206 F 
ATOM     97  C   UNL     1     -14.725   5.379  -1.996  1.00  0.00     0.059 A 
ATOM     98  C   UNL     1     -16.584   5.803  -0.506  1.00  0.00     0.059 A 
ATOM     99  F   UNL     1     -16.467   7.555   1.044  1.00  0.00    -0.206 F 
ATOM    100  C   UNL     1     -16.000   5.061  -1.530  1.00  0.00     0.060 A 
BRANCH 100 101
ATOM    101  S   UNL     1     -16.864   3.631  -2.220  1.00  0.00     0.124 S 
ATOM    102  O   UNL     1     -17.192   4.090  -3.566  1.00  0.00    -0.237 OA
ATOM    103  O   UNL     1     -15.854   2.579  -2.138  1.00  0.00    -0.237 OA
ATOM    104  O   UNL     1     -18.006   3.457  -1.325  1.00  0.00    -0.744 OA
ENDBRANCH 100 101
ENDBRANCH  68  93
ENDBRANCH  42  43
ENDBRANCH  35  37
ENDBRANCH  34  35
ENDBRANCH  33  34
ENDBRANCH  32  33
ENDBRANCH  31  32
ENDBRANCH  30  31
ENDBRANCH   1  30
TORSDOF 24
