REMARK SMILES O=C(COc1cc(-c2ccccc2)nc(Nc2ccccc2Br)n1)OCCOCCOCCOC(=O)c1ccc(-c2c3nc(c(-c4c(F)cc(S(=O)(=O)[O-])cc4F)c4ccc([nH]4)c(-c4c(F)cc(S(=O)(=O)[O-])cc4F)c4nc(c(-c5c(F)cc(S(=O)(=O)[O-])cc5F)c5ccc2[nH]5)C=C4)C=C3)cc1
REMARK SMILES IDX 29 1 28 2 27 3 26 4 25 5 2 6 1 7 3 8 4 9 5 10 6 11 24 12
REMARK SMILES IDX 7 13 15 14 14 15 8 16 9 17 13 18 10 19 12 20 11 21 16 22
REMARK SMILES IDX 17 24 18 25 22 26 19 27 21 28 23 29 20 30 30 31 31 32 32 33
REMARK SMILES IDX 33 34 34 35 35 36 36 37 37 38 38 39 102 40 39 41 101 42
REMARK SMILES IDX 40 43 41 44 42 45 95 46 43 47 100 48 94 49 96 50 44 51 99 52
REMARK SMILES IDX 93 53 92 54 45 56 79 57 58 58 78 59 59 60 62 61 77 62 97 63
REMARK SMILES IDX 60 64 61 65 76 67 98 68 63 69 46 70 47 71 56 72 48 73 49 74
REMARK SMILES IDX 55 75 57 76 50 77 51 78 52 79 53 80 54 81 80 82 81 83 90 84
REMARK SMILES IDX 82 85 83 86 89 87 91 88 84 89 85 90 86 91 87 92 88 93 64 94
REMARK SMILES IDX 65 95 74 96 66 97 67 98 73 99 75 100 68 101 69 102 70 103
REMARK SMILES IDX 71 104 72 105
REMARK H PARENT 16 23 96 55 62 66
REMARK Flexibility Score: inf
ROOT
ATOM      1  C   UNL     1       3.511   0.223   2.248  1.00  0.00     0.188 C 
ENDROOT
BRANCH   1   2
ATOM      2  O   UNL     1       4.802   0.579   1.788  1.00  0.00    -0.376 OA
BRANCH   2   3
ATOM      3  C   UNL     1       5.157   0.214   0.472  1.00  0.00     0.202 C 
BRANCH   3   4
ATOM      4  C   UNL     1       4.366   0.956  -0.602  1.00  0.00     0.261 C 
BRANCH   4   5
ATOM      5  O   UNL     1       2.931   0.751  -0.612  1.00  0.00    -0.461 OA
BRANCH   5   6
ATOM      6  C   UNL     1       2.257  -0.423  -0.634  1.00  0.00     0.344 C 
ATOM      7  O   UNL     1       1.036  -0.422  -0.497  1.00  0.00    -0.248 OA
BRANCH   6   8
ATOM      8  C   UNL     1       3.038  -1.716  -0.801  1.00  0.00     0.353 C 
BRANCH   8   9
ATOM      9  O   UNL     1       4.109  -1.590  -1.738  1.00  0.00    -0.466 OA
BRANCH   9  10
ATOM     10  C   UNL     1       3.598  -1.910  -2.964  1.00  0.00     0.219 A 
ATOM     11  C   UNL     1       2.776  -1.030  -3.603  1.00  0.00     0.097 A 
ATOM     12  N   UNL     1       3.760  -3.176  -3.305  1.00  0.00    -0.177 NA
ATOM     13  C   UNL     1       1.942  -1.591  -4.540  1.00  0.00     0.080 A 
ATOM     14  C   UNL     1       2.983  -3.640  -4.285  1.00  0.00     0.231 A 
ATOM     15  N   UNL     1       2.052  -2.892  -4.911  1.00  0.00    -0.212 NA
BRANCH  13  16
ATOM     16  C   UNL     1       0.768  -0.812  -4.985  1.00  0.00     0.000 A 
ATOM     17  C   UNL     1      -0.513  -1.387  -4.997  1.00  0.00     0.010 A 
ATOM     18  C   UNL     1       0.863   0.574  -5.232  1.00  0.00     0.010 A 
ATOM     19  C   UNL     1      -1.652  -0.603  -5.213  1.00  0.00     0.001 A 
ATOM     20  C   UNL     1      -0.274   1.358  -5.443  1.00  0.00     0.001 A 
ATOM     21  C   UNL     1      -1.532   0.768  -5.428  1.00  0.00     0.000 A 
ENDBRANCH  13  16
BRANCH  14  22
ATOM     22  N   UNL     1       3.171  -4.966  -4.663  1.00  0.00    -0.323 N 
ATOM     23  H   UNL     1       2.590  -5.322  -5.374  1.00  0.00     0.170 HD
BRANCH  22  24
ATOM     24  C   UNL     1       4.126  -5.838  -4.109  1.00  0.00     0.055 A 
ATOM     25  C   UNL     1       5.266  -6.151  -4.865  1.00  0.00     0.027 A 
ATOM     26  C   UNL     1       4.049  -6.336  -2.791  1.00  0.00     0.041 A 
ATOM     27  C   UNL     1       6.306  -6.913  -4.324  1.00  0.00     0.002 A 
ATOM     28  C   UNL     1       5.083  -7.115  -2.257  1.00  0.00     0.018 A 
ATOM     29  Br  UNL     1       2.539  -6.021  -1.675  1.00  0.00    -0.049 Br
ATOM     30  C   UNL     1       6.214  -7.396  -3.021  1.00  0.00     0.001 A 
ENDBRANCH  22  24
ENDBRANCH  14  22
ENDBRANCH   9  10
ENDBRANCH   8   9
ENDBRANCH   6   8
ENDBRANCH   5   6
ENDBRANCH   4   5
ENDBRANCH   3   4
ENDBRANCH   2   3
ENDBRANCH   1   2
BRANCH   1  31
ATOM     31  C   UNL     1       2.582   1.425   2.491  1.00  0.00     0.188 C 
BRANCH  31  32
ATOM     32  O   UNL     1       3.122   2.693   2.848  1.00  0.00    -0.376 OA
BRANCH  32  33
ATOM     33  C   UNL     1       4.390   2.775   3.479  1.00  0.00     0.202 C 
BRANCH  33  34
ATOM     34  C   UNL     1       4.526   2.203   4.897  1.00  0.00     0.261 C 
BRANCH  34  35
ATOM     35  O   UNL     1       4.198   0.808   5.041  1.00  0.00    -0.460 OA
BRANCH  35  36
ATOM     36  C   UNL     1       2.994   0.544   5.612  1.00  0.00     0.338 C 
ATOM     37  O   UNL     1       2.201   1.364   6.040  1.00  0.00    -0.246 OA
BRANCH  36  38
ATOM     38  C   UNL     1       2.661  -0.901   5.511  1.00  0.00     0.060 A 
ATOM     39  C   UNL     1       1.406  -1.249   4.989  1.00  0.00     0.016 A 
ATOM     40  C   UNL     1       3.513  -1.898   5.993  1.00  0.00     0.016 A 
ATOM     41  C   UNL     1       0.966  -2.575   5.020  1.00  0.00     0.010 A 
ATOM     42  C   UNL     1       3.062  -3.228   6.042  1.00  0.00     0.010 A 
ATOM     43  C   UNL     1       1.764  -3.563   5.609  1.00  0.00    -0.014 A 
BRANCH  43  44
ATOM     44  C   UNL     1       1.142  -4.854   6.019  1.00  0.00     0.031 A 
ATOM     45  C   UNL     1       0.649  -4.980   7.441  1.00  0.00     0.074 A 
ATOM     46  C   UNL     1       0.968  -5.879   5.165  1.00  0.00     0.049 A 
ATOM     47  N   UNL     1       0.089  -5.997   8.046  1.00  0.00    -0.248 NA
ATOM     48  C   UNL     1       0.816  -3.793   8.295  1.00  0.00     0.031 C 
ATOM     49  C   UNL     1       1.342  -5.881   3.753  1.00  0.00     0.029 A 
ATOM     50  N   UNL     1       0.427  -7.127   5.372  1.00  0.00    -0.354 N 
ATOM     51  C   UNL     1      -0.149  -5.578   9.350  1.00  0.00     0.074 A 
ATOM     52  C   UNL     1       0.355  -4.226   9.458  1.00  0.00     0.031 C 
ATOM     53  C   UNL     1       1.024  -7.075   3.220  1.00  0.00     0.029 A 
ATOM     54  C   UNL     1       0.449  -7.933   4.258  1.00  0.00     0.049 A 
ATOM     55  H   UNL     1       0.059  -7.416   6.237  1.00  0.00     0.167 HD
ATOM     56  C   UNL     1      -0.740  -6.248  10.369  1.00  0.00     0.037 A 
ATOM     57  C   UNL     1       0.059  -9.215   4.098  1.00  0.00     0.037 A 
ATOM     58  C   UNL     1      -1.246  -7.592  10.269  1.00  0.00     0.049 A 
ATOM     59  C   UNL     1      -0.538  -9.969   5.262  1.00  0.00     0.074 A 
ATOM     60  C   UNL     1      -1.875  -8.349  11.242  1.00  0.00     0.029 A 
ATOM     61  N   UNL     1      -1.172  -8.383   9.133  1.00  0.00    -0.354 N 
ATOM     62  N   UNL     1      -0.772  -9.555   6.485  1.00  0.00    -0.248 NA
ATOM     63  C   UNL     1      -0.931 -11.366   5.020  1.00  0.00     0.031 C 
ATOM     64  C   UNL     1      -2.135  -9.617  10.709  1.00  0.00     0.029 A 
ATOM     65  C   UNL     1      -1.723  -9.629   9.386  1.00  0.00     0.049 A 
ATOM     66  H   UNL     1      -0.786  -8.101   8.272  1.00  0.00     0.167 HD
ATOM     67  C   UNL     1      -1.377 -10.624   7.143  1.00  0.00     0.074 A 
ATOM     68  C   UNL     1      -1.470 -11.704   6.184  1.00  0.00     0.031 C 
ATOM     69  C   UNL     1      -1.826 -10.697   8.422  1.00  0.00     0.037 A 
BRANCH  56  70
ATOM     70  C   UNL     1      -0.828  -5.543  11.696  1.00  0.00     0.058 A 
ATOM     71  C   UNL     1      -1.681  -4.446  11.901  1.00  0.00     0.135 A 
ATOM     72  C   UNL     1      -0.037  -5.967  12.776  1.00  0.00     0.135 A 
ATOM     73  F   UNL     1      -2.446  -3.987  10.898  1.00  0.00    -0.206 F 
ATOM     74  C   UNL     1      -1.711  -3.766  13.115  1.00  0.00     0.059 A 
ATOM     75  C   UNL     1      -0.075  -5.322  14.008  1.00  0.00     0.059 A 
ATOM     76  F   UNL     1       0.794  -7.012  12.636  1.00  0.00    -0.206 F 
ATOM     77  C   UNL     1      -0.898  -4.207  14.160  1.00  0.00     0.060 A 
BRANCH  77  78
ATOM     78  S   UNL     1      -0.922  -3.298  15.720  1.00  0.00     0.124 S 
ATOM     79  O   UNL     1      -0.173  -2.096  15.366  1.00  0.00    -0.237 OA
ATOM     80  O   UNL     1      -2.350  -3.110  15.951  1.00  0.00    -0.237 OA
ATOM     81  O   UNL     1      -0.253  -4.202  16.650  1.00  0.00    -0.744 OA
ENDBRANCH  77  78
ENDBRANCH  56  70
BRANCH  57  82
ATOM     82  C   UNL     1       0.207  -9.875   2.771  1.00  0.00     0.058 A 
ATOM     83  C   UNL     1      -0.916 -10.194   1.992  1.00  0.00     0.135 A 
ATOM     84  C   UNL     1       1.471 -10.201   2.256  1.00  0.00     0.135 A 
ATOM     85  F   UNL     1      -2.148  -9.922   2.449  1.00  0.00    -0.206 F 
ATOM     86  C   UNL     1      -0.793 -10.817   0.753  1.00  0.00     0.059 A 
ATOM     87  C   UNL     1       1.621 -10.802   1.009  1.00  0.00     0.059 A 
ATOM     88  F   UNL     1       2.578  -9.917   2.960  1.00  0.00    -0.206 F 
ATOM     89  C   UNL     1       0.482 -11.112   0.268  1.00  0.00     0.060 A 
BRANCH  89  90
ATOM     90  S   UNL     1       0.634 -11.868  -1.366  1.00  0.00     0.124 S 
ATOM     91  O   UNL     1       0.156 -13.222  -1.111  1.00  0.00    -0.237 OA
ATOM     92  O   UNL     1      -0.240 -11.025  -2.177  1.00  0.00    -0.237 OA
ATOM     93  O   UNL     1       2.059 -11.748  -1.661  1.00  0.00    -0.744 OA
ENDBRANCH  89  90
ENDBRANCH  57  82
BRANCH  69  94
ATOM     94  C   UNL     1      -2.516 -11.966   8.854  1.00  0.00     0.058 A 
ATOM     95  C   UNL     1      -1.817 -13.165   9.060  1.00  0.00     0.135 A 
ATOM     96  C   UNL     1      -3.898 -11.963   9.113  1.00  0.00     0.135 A 
ATOM     97  F   UNL     1      -0.497 -13.226   8.828  1.00  0.00    -0.206 F 
ATOM     98  C   UNL     1      -2.467 -14.324   9.479  1.00  0.00     0.059 A 
ATOM     99  C   UNL     1      -4.563 -13.102   9.559  1.00  0.00     0.059 A 
ATOM    100  F   UNL     1      -4.615 -10.840   8.947  1.00  0.00    -0.206 F 
ATOM    101  C   UNL     1      -3.841 -14.282   9.724  1.00  0.00     0.060 A 
BRANCH 101 102
ATOM    102  S   UNL     1      -4.671 -15.786  10.285  1.00  0.00     0.124 S 
ATOM    103  O   UNL     1      -4.719 -16.571   9.056  1.00  0.00    -0.237 OA
ATOM    104  O   UNL     1      -3.764 -16.279  11.316  1.00  0.00    -0.237 OA
ATOM    105  O   UNL     1      -5.960 -15.302  10.772  1.00  0.00    -0.744 OA
ENDBRANCH 101 102
ENDBRANCH  69  94
ENDBRANCH  43  44
ENDBRANCH  36  38
ENDBRANCH  35  36
ENDBRANCH  34  35
ENDBRANCH  33  34
ENDBRANCH  32  33
ENDBRANCH  31  32
ENDBRANCH   1  31
TORSDOF 25
