REMARK SMILES NS(=O)(=O)c1ccc(-n2nc(C(=O)NCCCC(=O)OCCOCCOCCOC(=O)c3ccc(-c4c5nc(c(-c6c(F)cc(S(=O)(=O)[O-])cc6F)c6ccc([nH]6)c(-c6c(F)cc(S(=O)(=O)[O-])cc6F)c6nc(c(-c7c(F)cc(S(=O)(=O)[O-])cc7F)c7ccc4[nH]7)C=C6)C=C5)cc3)cc2-c2ccccc2)cc1
REMARK SMILES IDX 22 1 21 2 20 3 18 4 19 5 17 6 16 7 15 8 14 9 12 10 13 11
REMARK SMILES IDX 11 13 9 14 10 15 99 16 98 17 8 18 5 19 6 20 107 21 7 22
REMARK SMILES IDX 106 23 2 24 3 25 4 26 1 27 100 30 101 31 105 32 102 33
REMARK SMILES IDX 104 34 103 35 23 36 24 37 25 38 26 39 27 40 28 41 29 42
REMARK SMILES IDX 30 43 31 44 32 45 33 46 97 47 34 48 96 49 35 50 36 51 37 52
REMARK SMILES IDX 90 53 38 54 95 55 89 56 91 57 39 58 94 59 88 60 87 61 40 63
REMARK SMILES IDX 74 64 53 65 73 66 54 67 57 68 72 69 92 70 55 71 56 72 71 74
REMARK SMILES IDX 93 75 58 76 41 77 42 78 51 79 43 80 44 81 50 82 52 83 45 84
REMARK SMILES IDX 46 85 47 86 48 87 49 88 75 89 76 90 85 91 77 92 78 93 84 94
REMARK SMILES IDX 86 95 79 96 80 97 81 98 82 99 83 100 59 101 60 102 69 103
REMARK SMILES IDX 61 104 62 105 68 106 70 107 63 108 64 109 65 110 66 111
REMARK SMILES IDX 67 112
REMARK H PARENT 14 12 1 28 1 29 91 62 57 73
REMARK Flexibility Score: inf
ROOT
ATOM      1  C   UNL     1       3.012 -15.886   0.329  1.00  0.00     0.202 C 
ENDROOT
BRANCH   1   2
ATOM      2  C   UNL     1       3.559 -15.270   1.626  1.00  0.00     0.261 C 
BRANCH   2   3
ATOM      3  O   UNL     1       4.261 -14.028   1.426  1.00  0.00    -0.463 OA
BRANCH   3   4
ATOM      4  C   UNL     1       5.560 -13.976   1.799  1.00  0.00     0.305 C 
ATOM      5  O   UNL     1       6.151 -14.875   2.388  1.00  0.00    -0.252 OA
BRANCH   4   6
ATOM      6  C   UNL     1       6.277 -12.708   1.371  1.00  0.00     0.124 C 
BRANCH   6   7
ATOM      7  C   UNL     1       5.543 -11.602   0.620  1.00  0.00     0.033 C 
BRANCH   7   8
ATOM      8  C   UNL     1       4.234 -11.094   1.206  1.00  0.00     0.117 C 
BRANCH   8   9
ATOM      9  N   UNL     1       4.426 -10.308   2.402  1.00  0.00    -0.351 N 
ATOM     10  C   UNL     1       4.112  -9.007   2.723  1.00  0.00     0.271 C 
ATOM     11  O   UNL     1       4.498  -8.638   3.837  1.00  0.00    -0.267 OA
ATOM     12  H   UNL     1       4.869 -10.799   3.131  1.00  0.00     0.163 HD
BRANCH  10  13
ATOM     13  C   UNL     1       3.346  -8.111   1.823  1.00  0.00     0.151 A 
ATOM     14  N   UNL     1       2.392  -6.273   1.234  1.00  0.00    -0.232 N 
ATOM     15  N   UNL     1       3.304  -6.786   2.089  1.00  0.00    -0.162 NA
ATOM     16  C   UNL     1       2.053  -7.170   0.240  1.00  0.00     0.075 A 
ATOM     17  C   UNL     1       2.569  -8.376   0.666  1.00  0.00     0.065 A 
BRANCH  14  18
ATOM     18  C   UNL     1       1.889  -4.961   1.417  1.00  0.00     0.065 A 
ATOM     19  C   UNL     1       0.960  -2.351   1.558  1.00  0.00     0.082 A 
ATOM     20  C   UNL     1       0.070  -3.373   1.228  1.00  0.00     0.024 A 
ATOM     21  C   UNL     1       2.297  -2.631   1.873  1.00  0.00     0.024 A 
ATOM     22  C   UNL     1       0.540  -4.682   1.146  1.00  0.00     0.030 A 
ATOM     23  C   UNL     1       2.759  -3.946   1.827  1.00  0.00     0.030 A 
BRANCH  19  24
ATOM     24  S   UNL     1       0.411  -0.674   1.601  1.00  0.00     0.238 S 
ATOM     25  O   UNL     1       1.069   0.013   2.678  1.00  0.00    -0.207 OA
ATOM     26  O   UNL     1      -1.028  -0.632   1.417  1.00  0.00    -0.207 OA
BRANCH  24  27
ATOM     27  N   UNL     1       1.066  -0.067   0.180  1.00  0.00    -0.225 NA
ATOM     28  H   UNL     1       0.816   0.918   0.084  1.00  0.00     0.137 HD
ATOM     29  H   UNL     1       0.699  -0.590  -0.614  1.00  0.00     0.137 HD
ENDBRANCH  24  27
ENDBRANCH  19  24
ENDBRANCH  14  18
BRANCH  16  30
ATOM     30  C   UNL     1       1.351  -6.856  -1.003  1.00  0.00     0.000 A 
ATOM     31  C   UNL     1       1.770  -5.790  -1.814  1.00  0.00     0.010 A 
ATOM     32  C   UNL     1       0.269  -7.640  -1.417  1.00  0.00     0.010 A 
ATOM     33  C   UNL     1       1.099  -5.497  -3.001  1.00  0.00     0.001 A 
ATOM     34  C   UNL     1      -0.400  -7.347  -2.607  1.00  0.00     0.001 A 
ATOM     35  C   UNL     1       0.013  -6.274  -3.395  1.00  0.00     0.000 A 
ENDBRANCH  16  30
ENDBRANCH  10  13
ENDBRANCH   8   9
ENDBRANCH   7   8
ENDBRANCH   6   7
ENDBRANCH   4   6
ENDBRANCH   3   4
ENDBRANCH   2   3
ENDBRANCH   1   2
BRANCH   1  36
ATOM     36  O   UNL     1       3.926 -16.044  -0.750  1.00  0.00    -0.376 OA
BRANCH  36  37
ATOM     37  C   UNL     1       4.550 -14.866  -1.262  1.00  0.00     0.188 C 
BRANCH  37  38
ATOM     38  C   UNL     1       3.618 -13.730  -1.704  1.00  0.00     0.188 C 
BRANCH  38  39
ATOM     39  O   UNL     1       2.742 -13.229  -0.712  1.00  0.00    -0.376 OA
BRANCH  39  40
ATOM     40  C   UNL     1       1.337 -13.055  -0.904  1.00  0.00     0.202 C 
BRANCH  40  41
ATOM     41  C   UNL     1       0.483 -13.458  -2.119  1.00  0.00     0.261 C 
BRANCH  41  42
ATOM     42  O   UNL     1       1.145 -13.966  -3.248  1.00  0.00    -0.460 OA
BRANCH  42  43
ATOM     43  C   UNL     1       1.828 -13.060  -3.982  1.00  0.00     0.338 C 
ATOM     44  O   UNL     1       1.936 -11.870  -3.758  1.00  0.00    -0.246 OA
BRANCH  43  45
ATOM     45  C   UNL     1       2.459 -13.803  -5.085  1.00  0.00     0.060 A 
ATOM     46  C   UNL     1       3.170 -13.063  -6.024  1.00  0.00     0.016 A 
ATOM     47  C   UNL     1       2.153 -15.163  -5.284  1.00  0.00     0.016 A 
ATOM     48  C   UNL     1       3.271 -13.584  -7.291  1.00  0.00     0.010 A 
ATOM     49  C   UNL     1       2.250 -15.680  -6.547  1.00  0.00     0.010 A 
ATOM     50  C   UNL     1       2.677 -14.826  -7.552  1.00  0.00    -0.014 A 
BRANCH  50  51
ATOM     51  C   UNL     1       2.515 -15.232  -8.926  1.00  0.00     0.031 A 
ATOM     52  C   UNL     1       3.791 -15.643  -9.531  1.00  0.00     0.074 A 
ATOM     53  C   UNL     1       1.313 -15.252  -9.533  1.00  0.00     0.049 A 
ATOM     54  N   UNL     1       4.530 -14.932 -10.313  1.00  0.00    -0.248 NA
ATOM     55  C   UNL     1       4.441 -16.859  -9.023  1.00  0.00     0.031 C 
ATOM     56  C   UNL     1      -0.021 -15.076  -8.951  1.00  0.00     0.029 A 
ATOM     57  N   UNL     1       1.037 -15.504 -10.839  1.00  0.00    -0.354 N 
ATOM     58  C   UNL     1       5.615 -15.738 -10.613  1.00  0.00     0.074 A 
ATOM     59  C   UNL     1       5.629 -16.784  -9.624  1.00  0.00     0.031 C 
ATOM     60  C   UNL     1      -0.959 -15.455  -9.854  1.00  0.00     0.029 A 
ATOM     61  C   UNL     1      -0.304 -15.754 -11.116  1.00  0.00     0.049 A 
ATOM     62  H   UNL     1       1.732 -15.509 -11.537  1.00  0.00     0.167 HD
ATOM     63  C   UNL     1       6.228 -15.644 -11.822  1.00  0.00     0.037 A 
ATOM     64  C   UNL     1      -0.797 -16.225 -12.293  1.00  0.00     0.037 A 
ATOM     65  C   UNL     1       5.860 -14.427 -12.502  1.00  0.00     0.049 A 
ATOM     66  C   UNL     1       0.220 -15.905 -13.335  1.00  0.00     0.074 A 
ATOM     67  C   UNL     1       5.999 -13.081 -12.224  1.00  0.00     0.029 A 
ATOM     68  N   UNL     1       4.881 -14.516 -13.463  1.00  0.00    -0.354 N 
ATOM     69  N   UNL     1       0.511 -14.684 -13.700  1.00  0.00    -0.248 NA
ATOM     70  C   UNL     1       1.258 -16.894 -13.590  1.00  0.00     0.031 C 
ATOM     71  C   UNL     1       4.793 -12.478 -12.685  1.00  0.00     0.029 A 
ATOM     72  C   UNL     1       4.014 -13.467 -13.287  1.00  0.00     0.049 A 
ATOM     73  H   UNL     1       4.814 -15.211 -14.158  1.00  0.00     0.167 HD
ATOM     74  C   UNL     1       1.895 -14.668 -13.820  1.00  0.00     0.074 A 
ATOM     75  C   UNL     1       2.293 -16.075 -13.802  1.00  0.00     0.031 C 
ATOM     76  C   UNL     1       2.607 -13.518 -13.625  1.00  0.00     0.037 A 
BRANCH  63  77
ATOM     77  C   UNL     1       6.819 -16.824 -12.543  1.00  0.00     0.058 A 
ATOM     78  C   UNL     1       7.627 -16.602 -13.672  1.00  0.00     0.135 A 
ATOM     79  C   UNL     1       6.405 -18.160 -12.334  1.00  0.00     0.135 A 
ATOM     80  F   UNL     1       8.054 -15.365 -13.973  1.00  0.00    -0.206 F 
ATOM     81  C   UNL     1       7.956 -17.624 -14.561  1.00  0.00     0.059 A 
ATOM     82  C   UNL     1       6.770 -19.202 -13.173  1.00  0.00     0.059 A 
ATOM     83  F   UNL     1       5.546 -18.504 -11.367  1.00  0.00    -0.206 F 
ATOM     84  C   UNL     1       7.516 -18.920 -14.304  1.00  0.00     0.060 A 
BRANCH  84  85
ATOM     85  S   UNL     1       7.880 -20.226 -15.485  1.00  0.00     0.124 S 
ATOM     86  O   UNL     1       7.072 -19.818 -16.628  1.00  0.00    -0.237 OA
ATOM     87  O   UNL     1       9.325 -20.092 -15.640  1.00  0.00    -0.237 OA
ATOM     88  O   UNL     1       7.438 -21.434 -14.796  1.00  0.00    -0.744 OA
ENDBRANCH  84  85
ENDBRANCH  63  77
BRANCH  64  89
ATOM     89  C   UNL     1      -1.842 -17.269 -12.498  1.00  0.00     0.058 A 
ATOM     90  C   UNL     1      -2.365 -17.542 -13.777  1.00  0.00     0.135 A 
ATOM     91  C   UNL     1      -2.130 -18.223 -11.501  1.00  0.00     0.135 A 
ATOM     92  F   UNL     1      -2.125 -16.701 -14.795  1.00  0.00    -0.206 F 
ATOM     93  C   UNL     1      -3.081 -18.713 -14.063  1.00  0.00     0.059 A 
ATOM     94  C   UNL     1      -2.845 -19.393 -11.760  1.00  0.00     0.059 A 
ATOM     95  F   UNL     1      -1.642 -18.092 -10.258  1.00  0.00    -0.206 F 
ATOM     96  C   UNL     1      -3.296 -19.646 -13.050  1.00  0.00     0.060 A 
BRANCH  96  97
ATOM     97  S   UNL     1      -4.057 -21.240 -13.446  1.00  0.00     0.124 S 
ATOM     98  O   UNL     1      -5.433 -20.854 -13.739  1.00  0.00    -0.237 OA
ATOM     99  O   UNL     1      -3.264 -21.688 -14.586  1.00  0.00    -0.237 OA
ATOM    100  O   UNL     1      -3.875 -22.016 -12.222  1.00  0.00    -0.744 OA
ENDBRANCH  96  97
ENDBRANCH  64  89
BRANCH  76 101
ATOM    101  C   UNL     1       1.850 -12.213 -13.568  1.00  0.00     0.058 A 
ATOM    102  C   UNL     1       0.923 -11.863 -12.568  1.00  0.00     0.135 A 
ATOM    103  C   UNL     1       2.197 -11.217 -14.492  1.00  0.00     0.135 A 
ATOM    104  F   UNL     1       0.611 -12.721 -11.587  1.00  0.00    -0.206 F 
ATOM    105  C   UNL     1       0.341 -10.593 -12.518  1.00  0.00     0.059 A 
ATOM    106  C   UNL     1       1.654  -9.937 -14.443  1.00  0.00     0.059 A 
ATOM    107  F   UNL     1       3.122 -11.469 -15.434  1.00  0.00    -0.206 F 
ATOM    108  C   UNL     1       0.714  -9.635 -13.461  1.00  0.00     0.060 A 
BRANCH 108 109
ATOM    109  S   UNL     1       0.012  -7.973 -13.364  1.00  0.00     0.124 S 
ATOM    110  O   UNL     1      -1.374  -8.202 -13.758  1.00  0.00    -0.237 OA
ATOM    111  O   UNL     1       0.222  -7.621 -11.962  1.00  0.00    -0.237 OA
ATOM    112  O   UNL     1       0.813  -7.207 -14.315  1.00  0.00    -0.744 OA
ENDBRANCH 108 109
ENDBRANCH  76 101
ENDBRANCH  50  51
ENDBRANCH  43  45
ENDBRANCH  42  43
ENDBRANCH  41  42
ENDBRANCH  40  41
ENDBRANCH  39  40
ENDBRANCH  38  39
ENDBRANCH  37  38
ENDBRANCH  36  37
ENDBRANCH   1  36
TORSDOF 28
