REMARK SMILES COCC[C@@]1(C(=O)OCCOCCOCCOC(=O)c2ccc(-c3c4nc(c(-c5c(F)cc(S(=O)(=O)[O-])cc5F)c5ccc([nH]5)c(-c5c(F)cc(S(=O)(=O)[O-])cc5F)c5nc(c(-c6c(F)cc(S(=O)(=O)[O-])cc6F)c6ccc3[nH]6)C=C5)C=C4)cc2)CCC[N@@H+](Cc2cccc3c2OC(C)(C)C3)C1
REMARK SMILES IDX 12 1 11 2 10 3 9 4 8 5 6 6 7 7 5 8 86 9 102 10 87 11 89 12
REMARK SMILES IDX 88 13 4 15 3 16 2 17 1 18 90 19 91 20 92 21 96 22 93 23
REMARK SMILES IDX 95 24 97 25 94 26 101 27 98 28 99 29 100 30 13 31 14 32
REMARK SMILES IDX 15 33 16 34 17 35 18 36 19 37 20 38 21 39 85 40 22 41 84 42
REMARK SMILES IDX 23 43 24 44 25 45 78 46 26 47 83 48 77 49 79 50 27 51 82 52
REMARK SMILES IDX 76 53 75 54 28 56 62 57 41 58 61 59 42 60 45 61 60 62 80 63
REMARK SMILES IDX 43 64 44 65 59 67 81 68 46 69 29 70 30 71 39 72 31 73 32 74
REMARK SMILES IDX 38 75 40 76 33 77 34 78 35 79 36 80 37 81 63 82 64 83 73 84
REMARK SMILES IDX 65 85 66 86 72 87 74 88 67 89 68 90 69 91 70 92 71 93 47 94
REMARK SMILES IDX 48 95 57 96 49 97 50 98 56 99 58 100 51 101 52 102 53 103
REMARK SMILES IDX 54 104 55 105
REMARK H PARENT 89 14 79 55 45 66
REMARK Flexibility Score: inf
ROOT
ATOM      1  C   UNL     1       1.215   4.008   1.028  1.00  0.00     0.188 C 
ENDROOT
BRANCH   1   2
ATOM      2  O   UNL     1       0.013   4.377   0.368  1.00  0.00    -0.376 OA
BRANCH   2   3
ATOM      3  C   UNL     1      -1.163   4.409   1.167  1.00  0.00     0.202 C 
BRANCH   3   4
ATOM      4  C   UNL     1      -1.716   3.085   1.738  1.00  0.00     0.261 C 
BRANCH   4   5
ATOM      5  O   UNL     1      -0.801   2.199   2.429  1.00  0.00    -0.463 OA
BRANCH   5   6
ATOM      6  C   UNL     1      -0.341   1.172   1.656  1.00  0.00     0.318 C 
ATOM      7  O   UNL     1      -0.595   1.100   0.457  1.00  0.00    -0.251 OA
BRANCH   6   8
ATOM      8  C   UNL     1       0.600   0.172   2.385  1.00  0.00     0.119 C 
ATOM      9  C   UNL     1       1.108  -0.802   1.292  1.00  0.00     0.030 C 
ATOM     10  C   UNL     1      -0.134  -0.652   3.492  1.00  0.00     0.281 C 
ATOM     11  C   UNL     1       0.001  -1.740   0.810  1.00  0.00     0.063 C 
ATOM     12  N   UNL     1      -1.042  -1.744   3.099  1.00  0.00    -0.330 N 
ATOM     13  C   UNL     1      -0.537  -2.550   1.979  1.00  0.00     0.262 C 
ATOM     14  H   UNL     1      -1.883  -1.287   2.747  1.00  0.00     0.348 HD
BRANCH   8  15
ATOM     15  C   UNL     1       1.751   0.971   3.112  1.00  0.00     0.053 C 
BRANCH  15  16
ATOM     16  C   UNL     1       3.193   0.446   3.067  1.00  0.00     0.161 C 
BRANCH  16  17
ATOM     17  O   UNL     1       4.037   1.230   2.224  1.00  0.00    -0.385 OA
ATOM     18  C   UNL     1       3.921   0.944   0.838  1.00  0.00     0.194 C 
ENDBRANCH  16  17
ENDBRANCH  15  16
ENDBRANCH   8  15
BRANCH  12  19
ATOM     19  C   UNL     1      -1.472  -2.591   4.277  1.00  0.00     0.303 C 
BRANCH  19  20
ATOM     20  C   UNL     1      -0.450  -3.616   4.784  1.00  0.00     0.049 A 
ATOM     21  C   UNL     1      -0.253  -4.810   4.083  1.00  0.00     0.013 A 
ATOM     22  C   UNL     1       0.596  -3.244   5.603  1.00  0.00     0.132 A 
ATOM     23  C   UNL     1       1.041  -5.351   3.980  1.00  0.00     0.001 A 
ATOM     24  C   UNL     1       1.898  -3.568   5.301  1.00  0.00    -0.001 A 
ATOM     25  O   UNL     1       0.491  -2.763   6.885  1.00  0.00    -0.487 OA
ATOM     26  C   UNL     1       2.146  -4.656   4.495  1.00  0.00     0.008 A 
ATOM     27  C   UNL     1       2.763  -2.632   6.065  1.00  0.00     0.087 C 
ATOM     28  C   UNL     1       1.877  -2.542   7.323  1.00  0.00     0.108 C 
ATOM     29  C   UNL     1       2.447  -3.565   8.334  1.00  0.00     0.057 C 
ATOM     30  C   UNL     1       1.773  -1.180   8.000  1.00  0.00     0.057 C 
ENDBRANCH  19  20
ENDBRANCH  12  19
ENDBRANCH   6   8
ENDBRANCH   5   6
ENDBRANCH   4   5
ENDBRANCH   3   4
ENDBRANCH   2   3
ENDBRANCH   1   2
BRANCH   1  31
ATOM     31  C   UNL     1       1.543   4.776   2.309  1.00  0.00     0.188 C 
BRANCH  31  32
ATOM     32  O   UNL     1       0.537   4.760   3.311  1.00  0.00    -0.376 OA
BRANCH  32  33
ATOM     33  C   UNL     1       0.745   5.578   4.465  1.00  0.00     0.202 C 
BRANCH  33  34
ATOM     34  C   UNL     1       1.520   6.913   4.349  1.00  0.00     0.261 C 
BRANCH  34  35
ATOM     35  O   UNL     1       2.787   6.880   3.658  1.00  0.00    -0.460 OA
BRANCH  35  36
ATOM     36  C   UNL     1       3.743   6.035   4.127  1.00  0.00     0.338 C 
ATOM     37  O   UNL     1       3.718   5.457   5.187  1.00  0.00    -0.246 OA
BRANCH  36  38
ATOM     38  C   UNL     1       4.686   5.728   3.001  1.00  0.00     0.060 A 
ATOM     39  C   UNL     1       5.090   4.397   2.839  1.00  0.00     0.016 A 
ATOM     40  C   UNL     1       5.091   6.682   2.060  1.00  0.00     0.016 A 
ATOM     41  C   UNL     1       5.894   4.019   1.756  1.00  0.00     0.010 A 
ATOM     42  C   UNL     1       5.918   6.304   0.985  1.00  0.00     0.010 A 
ATOM     43  C   UNL     1       6.334   4.969   0.828  1.00  0.00    -0.014 A 
BRANCH  43  44
ATOM     44  C   UNL     1       7.339   4.590  -0.206  1.00  0.00     0.031 A 
ATOM     45  C   UNL     1       8.799   4.819   0.089  1.00  0.00     0.074 A 
ATOM     46  C   UNL     1       6.990   4.012  -1.373  1.00  0.00     0.049 A 
ATOM     47  N   UNL     1       9.844   4.635  -0.677  1.00  0.00    -0.248 NA
ATOM     48  C   UNL     1       9.119   5.317   1.436  1.00  0.00     0.031 C 
ATOM     49  C   UNL     1       5.630   3.654  -1.768  1.00  0.00     0.029 A 
ATOM     50  N   UNL     1       7.761   3.628  -2.448  1.00  0.00    -0.354 N 
ATOM     51  C   UNL     1      10.945   5.003   0.089  1.00  0.00     0.074 A 
ATOM     52  C   UNL     1      10.437   5.434   1.374  1.00  0.00     0.031 C 
ATOM     53  C   UNL     1       5.660   3.117  -3.002  1.00  0.00     0.029 A 
ATOM     54  C   UNL     1       7.034   3.135  -3.508  1.00  0.00     0.049 A 
ATOM     55  H   UNL     1       8.743   3.700  -2.457  1.00  0.00     0.167 HD
ATOM     56  C   UNL     1      12.258   4.985  -0.245  1.00  0.00     0.037 A 
ATOM     57  C   UNL     1       7.421   2.776  -4.751  1.00  0.00     0.037 A 
ATOM     58  C   UNL     1      12.769   4.564  -1.525  1.00  0.00     0.049 A 
ATOM     59  C   UNL     1       8.879   2.873  -5.141  1.00  0.00     0.074 A 
ATOM     60  C   UNL     1      14.086   4.514  -1.948  1.00  0.00     0.029 A 
ATOM     61  N   UNL     1      11.993   4.136  -2.592  1.00  0.00    -0.354 N 
ATOM     62  N   UNL     1       9.910   3.223  -4.409  1.00  0.00    -0.248 NA
ATOM     63  C   UNL     1       9.225   2.534  -6.532  1.00  0.00     0.031 C 
ATOM     64  C   UNL     1      14.103   4.116  -3.289  1.00  0.00     0.029 A 
ATOM     65  C   UNL     1      12.801   3.857  -3.683  1.00  0.00     0.049 A 
ATOM     66  H   UNL     1      11.013   4.045  -2.576  1.00  0.00     0.167 HD
ATOM     67  C   UNL     1      11.023   3.127  -5.242  1.00  0.00     0.074 A 
ATOM     68  C   UNL     1      10.544   2.667  -6.528  1.00  0.00     0.031 C 
ATOM     69  C   UNL     1      12.324   3.398  -4.965  1.00  0.00     0.037 A 
BRANCH  56  70
ATOM     70  C   UNL     1      13.241   5.483   0.779  1.00  0.00     0.058 A 
ATOM     71  C   UNL     1      13.543   4.752   1.938  1.00  0.00     0.135 A 
ATOM     72  C   UNL     1      13.916   6.698   0.576  1.00  0.00     0.135 A 
ATOM     73  F   UNL     1      12.914   3.593   2.191  1.00  0.00    -0.206 F 
ATOM     74  C   UNL     1      14.461   5.220   2.873  1.00  0.00     0.059 A 
ATOM     75  C   UNL     1      14.860   7.171   1.483  1.00  0.00     0.059 A 
ATOM     76  F   UNL     1      13.664   7.438  -0.515  1.00  0.00    -0.206 F 
ATOM     77  C   UNL     1      15.114   6.432   2.636  1.00  0.00     0.060 A 
BRANCH  77  78
ATOM     78  S   UNL     1      16.302   7.025   3.860  1.00  0.00     0.124 S 
ATOM     79  O   UNL     1      15.421   7.398   4.963  1.00  0.00    -0.237 OA
ATOM     80  O   UNL     1      17.132   5.846   4.084  1.00  0.00    -0.237 OA
ATOM     81  O   UNL     1      16.963   8.136   3.183  1.00  0.00    -0.744 OA
ENDBRANCH  77  78
ENDBRANCH  56  70
BRANCH  57  82
ATOM     82  C   UNL     1       6.410   2.334  -5.756  1.00  0.00     0.058 A 
ATOM     83  C   UNL     1       6.400   1.023  -6.256  1.00  0.00     0.135 A 
ATOM     84  C   UNL     1       5.452   3.228  -6.262  1.00  0.00     0.135 A 
ATOM     85  F   UNL     1       7.310   0.134  -5.828  1.00  0.00    -0.206 F 
ATOM     86  C   UNL     1       5.487   0.617  -7.226  1.00  0.00     0.059 A 
ATOM     87  C   UNL     1       4.510   2.838  -7.208  1.00  0.00     0.059 A 
ATOM     88  F   UNL     1       5.420   4.497  -5.825  1.00  0.00    -0.206 F 
ATOM     89  C   UNL     1       4.541   1.531  -7.692  1.00  0.00     0.060 A 
BRANCH  89  90
ATOM     90  S   UNL     1       3.329   0.979  -8.913  1.00  0.00     0.124 S 
ATOM     91  O   UNL     1       4.155   0.839 -10.106  1.00  0.00    -0.237 OA
ATOM     92  O   UNL     1       2.845  -0.265  -8.322  1.00  0.00    -0.237 OA
ATOM     93  O   UNL     1       2.360   2.070  -8.942  1.00  0.00    -0.744 OA
ENDBRANCH  89  90
ENDBRANCH  57  82
BRANCH  69  94
ATOM     94  C   UNL     1      13.339   3.185  -6.060  1.00  0.00     0.058 A 
ATOM     95  C   UNL     1      13.414   4.035  -7.175  1.00  0.00     0.135 A 
ATOM     96  C   UNL     1      14.291   2.156  -5.962  1.00  0.00     0.135 A 
ATOM     97  F   UNL     1      12.529   5.033  -7.325  1.00  0.00    -0.206 F 
ATOM     98  C   UNL     1      14.381   3.860  -8.163  1.00  0.00     0.059 A 
ATOM     99  C   UNL     1      15.285   1.981  -6.922  1.00  0.00     0.059 A 
ATOM    100  F   UNL     1      14.277   1.319  -4.913  1.00  0.00    -0.206 F 
ATOM    101  C   UNL     1      15.316   2.832  -8.025  1.00  0.00     0.060 A 
BRANCH 101 102
ATOM    102  S   UNL     1      16.587   2.642  -9.294  1.00  0.00     0.124 S 
ATOM    103  O   UNL     1      15.809   2.126 -10.416  1.00  0.00    -0.237 OA
ATOM    104  O   UNL     1      17.086   4.005  -9.443  1.00  0.00    -0.237 OA
ATOM    105  O   UNL     1      17.527   1.698  -8.697  1.00  0.00    -0.744 OA
ENDBRANCH 101 102
ENDBRANCH  69  94
ENDBRANCH  43  44
ENDBRANCH  36  38
ENDBRANCH  35  36
ENDBRANCH  34  35
ENDBRANCH  33  34
ENDBRANCH  32  33
ENDBRANCH  31  32
ENDBRANCH   1  31
TORSDOF 25
