REMARK SMILES COc1ccc(CSc2ncccc2C(=O)OCCOCCOCCOC(=O)c2ccc(-c3c4nc(c(-c5c(F)cc(S(=O)(=O)[O-])cc5F)c5ccc([nH]5)c(-c5c(F)cc(S(=O)(=O)[O-])cc5F)c5nc(c(-c6c(F)cc(S(=O)(=O)[O-])cc6F)c6ccc3[nH]6)C=C5)C=C4)cc2)cc1
REMARK SMILES IDX 21 1 20 2 19 3 18 4 17 5 15 6 16 7 14 8 9 9 10 10 11 11
REMARK SMILES IDX 13 12 12 13 8 14 7 15 6 16 3 17 4 18 96 19 5 20 95 21 2 22
REMARK SMILES IDX 1 23 22 24 23 25 24 26 25 27 26 28 27 29 28 30 29 31 30 32
REMARK SMILES IDX 94 33 31 34 93 35 32 36 33 37 34 38 87 39 35 40 92 41 86 42
REMARK SMILES IDX 88 43 36 44 91 45 85 46 84 47 37 49 71 50 50 51 70 52 51 53
REMARK SMILES IDX 54 54 69 55 89 56 52 57 53 58 68 60 90 61 55 62 38 63 39 64
REMARK SMILES IDX 48 65 40 66 41 67 47 68 49 69 42 70 43 71 44 72 45 73 46 74
REMARK SMILES IDX 72 75 73 76 82 77 74 78 75 79 81 80 83 81 76 82 77 83 78 84
REMARK SMILES IDX 79 85 80 86 56 87 57 88 66 89 58 90 59 91 65 92 67 93 60 94
REMARK SMILES IDX 61 95 62 96 63 97 64 98
REMARK H PARENT 88 48 54 59
REMARK Flexibility Score: inf
ROOT
ATOM      1  C   UNL     1       5.258  -2.972   8.599  1.00  0.00     0.188 C 
ENDROOT
BRANCH   1   2
ATOM      2  O   UNL     1       6.219  -3.869   8.056  1.00  0.00    -0.376 OA
BRANCH   2   3
ATOM      3  C   UNL     1       6.310  -3.882   6.635  1.00  0.00     0.202 C 
BRANCH   3   4
ATOM      4  C   UNL     1       7.045  -2.663   6.074  1.00  0.00     0.261 C 
BRANCH   4   5
ATOM      5  O   UNL     1       6.332  -1.432   6.285  1.00  0.00    -0.460 OA
BRANCH   5   6
ATOM      6  C   UNL     1       5.180  -1.288   5.580  1.00  0.00     0.340 C 
ATOM      7  O   UNL     1       4.789  -2.042   4.726  1.00  0.00    -0.246 OA
BRANCH   6   8
ATOM      8  C   UNL     1       4.516  -0.048   6.029  1.00  0.00     0.092 A 
ATOM      9  C   UNL     1       3.236   0.010   6.585  1.00  0.00     0.111 A 
ATOM     10  N   UNL     1       2.734   1.195   7.038  1.00  0.00    -0.249 NA
ATOM     11  C   UNL     1       3.489   2.310   6.961  1.00  0.00     0.112 A 
ATOM     12  C   UNL     1       5.284   1.130   5.969  1.00  0.00     0.020 A 
ATOM     13  C   UNL     1       4.769   2.326   6.452  1.00  0.00     0.021 A 
BRANCH   9  14
ATOM     14  S   UNL     1       2.203  -1.336   7.132  1.00  0.00    -0.101 SA
BRANCH  14  15
ATOM     15  C   UNL     1       1.865  -2.352   5.666  1.00  0.00     0.112 C 
BRANCH  15  16
ATOM     16  C   UNL     1       1.421  -1.618   4.433  1.00  0.00    -0.037 A 
ATOM     17  C   UNL     1       0.607  -0.305   2.077  1.00  0.00     0.118 A 
ATOM     18  C   UNL     1      -0.169  -0.233   3.236  1.00  0.00     0.047 A 
ATOM     19  C   UNL     1       1.784  -1.049   2.094  1.00  0.00     0.047 A 
ATOM     20  C   UNL     1       0.231  -0.883   4.407  1.00  0.00     0.008 A 
ATOM     21  C   UNL     1       2.171  -1.715   3.255  1.00  0.00     0.008 A 
BRANCH  17  22
ATOM     22  O   UNL     1       0.126   0.387   1.000  1.00  0.00    -0.497 OA
ATOM     23  C   UNL     1       0.749   0.108  -0.248  1.00  0.00     0.278 C 
ENDBRANCH  17  22
ENDBRANCH  15  16
ENDBRANCH  14  15
ENDBRANCH   9  14
ENDBRANCH   6   8
ENDBRANCH   5   6
ENDBRANCH   4   5
ENDBRANCH   3   4
ENDBRANCH   2   3
ENDBRANCH   1   2
BRANCH   1  24
ATOM     24  C   UNL     1       5.826  -1.663   9.189  1.00  0.00     0.188 C 
BRANCH  24  25
ATOM     25  O   UNL     1       7.193  -1.583   9.575  1.00  0.00    -0.376 OA
BRANCH  25  26
ATOM     26  C   UNL     1       7.807  -2.717  10.167  1.00  0.00     0.202 C 
BRANCH  26  27
ATOM     27  C   UNL     1       7.267  -3.216  11.512  1.00  0.00     0.261 C 
BRANCH  27  28
ATOM     28  O   UNL     1       5.848  -3.437  11.545  1.00  0.00    -0.460 OA
BRANCH  28  29
ATOM     29  C   UNL     1       5.141  -2.535  12.273  1.00  0.00     0.338 C 
ATOM     30  O   UNL     1       5.589  -1.601  12.917  1.00  0.00    -0.246 OA
BRANCH  29  31
ATOM     31  C   UNL     1       3.692  -2.729  12.054  1.00  0.00     0.060 A 
ATOM     32  C   UNL     1       2.936  -1.627  11.632  1.00  0.00     0.016 A 
ATOM     33  C   UNL     1       3.068  -3.947  12.332  1.00  0.00     0.016 A 
ATOM     34  C   UNL     1       1.550  -1.725  11.526  1.00  0.00     0.010 A 
ATOM     35  C   UNL     1       1.673  -4.037  12.249  1.00  0.00     0.010 A 
ATOM     36  C   UNL     1       0.906  -2.916  11.881  1.00  0.00    -0.014 A 
BRANCH  36  37
ATOM     37  C   UNL     1      -0.568  -2.930  12.050  1.00  0.00     0.031 A 
ATOM     38  C   UNL     1      -1.137  -2.693  13.424  1.00  0.00     0.074 A 
ATOM     39  C   UNL     1      -1.389  -3.132  11.006  1.00  0.00     0.049 A 
ATOM     40  N   UNL     1      -2.383  -2.702  13.820  1.00  0.00    -0.248 NA
ATOM     41  C   UNL     1      -0.166  -2.409  14.493  1.00  0.00     0.031 C 
ATOM     42  C   UNL     1      -0.965  -3.326   9.621  1.00  0.00     0.029 A 
ATOM     43  N   UNL     1      -2.759  -3.216  10.956  1.00  0.00    -0.354 N 
ATOM     44  C   UNL     1      -2.348  -2.427  15.182  1.00  0.00     0.074 A 
ATOM     45  C   UNL     1      -0.955  -2.284  15.549  1.00  0.00     0.031 C 
ATOM     46  C   UNL     1      -2.054  -3.531   8.858  1.00  0.00     0.029 A 
ATOM     47  C   UNL     1      -3.247  -3.505   9.705  1.00  0.00     0.049 A 
ATOM     48  H   UNL     1      -3.336  -3.082  11.742  1.00  0.00     0.167 HD
ATOM     49  C   UNL     1      -3.381  -2.299  16.049  1.00  0.00     0.037 A 
ATOM     50  C   UNL     1      -4.509  -3.744   9.296  1.00  0.00     0.037 A 
ATOM     51  C   UNL     1      -4.765  -2.452  15.686  1.00  0.00     0.049 A 
ATOM     52  C   UNL     1      -5.640  -3.668  10.290  1.00  0.00     0.074 A 
ATOM     53  C   UNL     1      -5.885  -2.330  16.489  1.00  0.00     0.029 A 
ATOM     54  N   UNL     1      -5.218  -2.773  14.414  1.00  0.00    -0.354 N 
ATOM     55  N   UNL     1      -5.597  -3.387  11.571  1.00  0.00    -0.248 NA
ATOM     56  C   UNL     1      -6.993  -3.940   9.782  1.00  0.00     0.031 C 
ATOM     57  C   UNL     1      -7.013  -2.622  15.713  1.00  0.00     0.029 A 
ATOM     58  C   UNL     1      -6.599  -2.879  14.415  1.00  0.00     0.049 A 
ATOM     59  H   UNL     1      -4.642  -2.906  13.627  1.00  0.00     0.167 HD
ATOM     60  C   UNL     1      -6.915  -3.424  12.016  1.00  0.00     0.074 A 
ATOM     61  C   UNL     1      -7.734  -3.749  10.866  1.00  0.00     0.031 C 
ATOM     62  C   UNL     1      -7.403  -3.204  13.262  1.00  0.00     0.037 A 
BRANCH  49  63
ATOM     63  C   UNL     1      -3.040  -2.011  17.484  1.00  0.00     0.058 A 
ATOM     64  C   UNL     1      -2.562  -0.755  17.892  1.00  0.00     0.135 A 
ATOM     65  C   UNL     1      -3.186  -3.007  18.462  1.00  0.00     0.135 A 
ATOM     66  F   UNL     1      -2.388   0.227  16.994  1.00  0.00    -0.206 F 
ATOM     67  C   UNL     1      -2.206  -0.508  19.214  1.00  0.00     0.059 A 
ATOM     68  C   UNL     1      -2.859  -2.774  19.795  1.00  0.00     0.059 A 
ATOM     69  F   UNL     1      -3.636  -4.225  18.125  1.00  0.00    -0.206 F 
ATOM     70  C   UNL     1      -2.350  -1.528  20.157  1.00  0.00     0.060 A 
BRANCH  70  71
ATOM     71  S   UNL     1      -1.859  -1.205  21.864  1.00  0.00     0.124 S 
ATOM     72  O   UNL     1      -0.404  -1.259  21.763  1.00  0.00    -0.237 OA
ATOM     73  O   UNL     1      -2.428   0.117  22.111  1.00  0.00    -0.237 OA
ATOM     74  O   UNL     1      -2.478  -2.298  22.608  1.00  0.00    -0.744 OA
ENDBRANCH  70  71
ENDBRANCH  49  63
BRANCH  50  75
ATOM     75  C   UNL     1      -4.767  -4.092   7.874  1.00  0.00     0.058 A 
ATOM     76  C   UNL     1      -5.397  -3.188   7.007  1.00  0.00     0.135 A 
ATOM     77  C   UNL     1      -4.372  -5.333   7.352  1.00  0.00     0.135 A 
ATOM     78  F   UNL     1      -5.806  -1.995   7.465  1.00  0.00    -0.206 F 
ATOM     79  C   UNL     1      -5.628  -3.501   5.671  1.00  0.00     0.059 A 
ATOM     80  C   UNL     1      -4.574  -5.662   6.015  1.00  0.00     0.059 A 
ATOM     81  F   UNL     1      -3.760  -6.231   8.140  1.00  0.00    -0.206 F 
ATOM     82  C   UNL     1      -5.208  -4.740   5.183  1.00  0.00     0.060 A 
BRANCH  82  83
ATOM     83  S   UNL     1      -5.455  -5.115   3.433  1.00  0.00     0.124 S 
ATOM     84  O   UNL     1      -6.888  -5.385   3.390  1.00  0.00    -0.237 OA
ATOM     85  O   UNL     1      -5.018  -3.881   2.789  1.00  0.00    -0.237 OA
ATOM     86  O   UNL     1      -4.588  -6.269   3.213  1.00  0.00    -0.744 OA
ENDBRANCH  82  83
ENDBRANCH  50  75
BRANCH  62  87
ATOM     87  C   UNL     1      -8.893  -3.278  13.451  1.00  0.00     0.058 A 
ATOM     88  C   UNL     1      -9.575  -4.505  13.469  1.00  0.00     0.135 A 
ATOM     89  C   UNL     1      -9.640  -2.110  13.679  1.00  0.00     0.135 A 
ATOM     90  F   UNL     1      -8.909  -5.650  13.252  1.00  0.00    -0.206 F 
ATOM     91  C   UNL     1     -10.948  -4.571  13.688  1.00  0.00     0.059 A 
ATOM     92  C   UNL     1     -11.010  -2.155  13.924  1.00  0.00     0.059 A 
ATOM     93  F   UNL     1      -9.036  -0.911  13.684  1.00  0.00    -0.206 F 
ATOM     94  C   UNL     1     -11.657  -3.389  13.916  1.00  0.00     0.060 A 
BRANCH  94  95
ATOM     95  S   UNL     1     -13.431  -3.490  14.239  1.00  0.00     0.124 S 
ATOM     96  O   UNL     1     -13.959  -3.741  12.902  1.00  0.00    -0.237 OA
ATOM     97  O   UNL     1     -13.518  -4.606  15.175  1.00  0.00    -0.237 OA
ATOM     98  O   UNL     1     -13.748  -2.181  14.803  1.00  0.00    -0.744 OA
ENDBRANCH  94  95
ENDBRANCH  62  87
ENDBRANCH  36  37
ENDBRANCH  29  31
ENDBRANCH  28  29
ENDBRANCH  27  28
ENDBRANCH  26  27
ENDBRANCH  25  26
ENDBRANCH  24  25
ENDBRANCH   1  24
TORSDOF 24
