REMARK SMILES O=C(CC[NH+]1CCC(n2nccc2NC(=O)c2ccccc2Cl)CC1)OCCOCCOCCOC(=O)c1ccc(-c2c3nc(c(-c4c(F)cc(S(=O)(=O)[O-])cc4F)c4ccc([nH]4)c(-c4c(F)cc(S(=O)(=O)[O-])cc4F)c4nc(c(-c5c(F)cc(S(=O)(=O)[O-])cc5F)c5ccc2[nH]5)C=C4)C=C3)cc1
REMARK SMILES IDX 30 1 29 2 28 3 27 4 26 5 2 6 1 7 3 8 4 9 5 10 6 11 25 12
REMARK SMILES IDX 7 14 24 15 8 16 9 17 10 18 13 19 11 20 12 21 14 22 15 23
REMARK SMILES IDX 16 25 17 26 18 27 22 28 19 29 21 30 23 31 20 32 31 33 32 34
REMARK SMILES IDX 33 35 34 36 35 37 36 38 37 39 38 40 39 41 103 42 40 43
REMARK SMILES IDX 102 44 41 45 42 46 43 47 96 48 44 49 101 50 95 51 97 52
REMARK SMILES IDX 45 53 100 54 94 55 93 56 46 58 80 59 59 60 79 61 60 62 63 63
REMARK SMILES IDX 78 64 98 65 61 66 62 67 77 69 99 70 64 71 47 72 48 73 57 74
REMARK SMILES IDX 49 75 50 76 56 77 58 78 51 79 52 80 53 81 54 82 55 83 81 84
REMARK SMILES IDX 82 85 91 86 83 87 84 88 90 89 92 90 85 91 86 92 87 93 88 94
REMARK SMILES IDX 89 95 65 96 66 97 75 98 67 99 68 100 74 101 76 102 69 103
REMARK SMILES IDX 70 104 71 105 72 106 73 107
REMARK H PARENT 5 13 14 24 97 57 63 68
REMARK Flexibility Score: inf
ROOT
ATOM      1  C   UNL     1       2.659   0.159   2.758  1.00  0.00     0.188 C 
ENDROOT
BRANCH   1   2
ATOM      2  O   UNL     1       4.062   0.269   2.844  1.00  0.00    -0.376 OA
BRANCH   2   3
ATOM      3  C   UNL     1       4.801   0.088   1.659  1.00  0.00     0.202 C 
BRANCH   3   4
ATOM      4  C   UNL     1       4.274   0.704   0.366  1.00  0.00     0.261 C 
BRANCH   4   5
ATOM      5  O   UNL     1       2.877   0.554   0.035  1.00  0.00    -0.463 OA
BRANCH   5   6
ATOM      6  C   UNL     1       2.249  -0.547  -0.432  1.00  0.00     0.311 C 
ATOM      7  O   UNL     1       1.069  -0.497  -0.771  1.00  0.00    -0.252 OA
BRANCH   6   8
ATOM      8  C   UNL     1       3.034  -1.811  -0.543  1.00  0.00     0.184 C 
BRANCH   8   9
ATOM      9  C   UNL     1       3.665  -2.010  -1.918  1.00  0.00     0.274 C 
BRANCH   9  10
ATOM     10  N   UNL     1       4.561  -0.914  -2.321  1.00  0.00    -0.334 N 
ATOM     11  C   UNL     1       5.674  -1.376  -3.147  1.00  0.00     0.264 C 
ATOM     12  C   UNL     1       3.868   0.193  -3.008  1.00  0.00     0.264 C 
ATOM     13  H   UNL     1       4.929  -0.552  -1.441  1.00  0.00     0.348 HD
ATOM     14  C   UNL     1       6.710  -0.259  -3.259  1.00  0.00     0.089 C 
ATOM     15  C   UNL     1       4.789   1.415  -3.007  1.00  0.00     0.089 C 
ATOM     16  C   UNL     1       6.109   1.091  -3.695  1.00  0.00     0.121 C 
BRANCH  16  17
ATOM     17  N   UNL     1       7.140   2.128  -3.655  1.00  0.00    -0.246 N 
ATOM     18  N   UNL     1       7.918   2.200  -4.763  1.00  0.00    -0.179 NA
ATOM     19  C   UNL     1       7.590   2.971  -2.644  1.00  0.00     0.131 A 
ATOM     20  C   UNL     1       8.970   2.914  -4.381  1.00  0.00     0.137 A 
ATOM     21  C   UNL     1       8.851   3.355  -3.058  1.00  0.00     0.069 A 
BRANCH  19  22
ATOM     22  N   UNL     1       6.971   3.334  -1.451  1.00  0.00    -0.307 N 
ATOM     23  C   UNL     1       7.286   4.435  -0.576  1.00  0.00     0.258 C 
ATOM     24  H   UNL     1       6.219   2.764  -1.169  1.00  0.00     0.171 HD
ATOM     25  O   UNL     1       6.698   4.442   0.491  1.00  0.00    -0.269 OA
BRANCH  23  26
ATOM     26  C   UNL     1       8.268   5.474  -0.919  1.00  0.00     0.058 A 
ATOM     27  C   UNL     1       9.408   5.588  -0.108  1.00  0.00     0.015 A 
ATOM     28  C   UNL     1       8.128   6.280  -2.054  1.00  0.00     0.053 A 
ATOM     29  C   UNL     1      10.454   6.424  -0.501  1.00  0.00     0.001 A 
ATOM     30  C   UNL     1       9.190   7.098  -2.451  1.00  0.00     0.021 A 
ATOM     31  Cl  UNL     1       6.691   6.290  -3.010  1.00  0.00    -0.083 Cl
ATOM     32  C   UNL     1      10.358   7.152  -1.688  1.00  0.00     0.002 A 
ENDBRANCH  23  26
ENDBRANCH  19  22
ENDBRANCH  16  17
ENDBRANCH   9  10
ENDBRANCH   8   9
ENDBRANCH   6   8
ENDBRANCH   5   6
ENDBRANCH   4   5
ENDBRANCH   3   4
ENDBRANCH   2   3
ENDBRANCH   1   2
BRANCH   1  33
ATOM     33  C   UNL     1       1.930   1.517   2.676  1.00  0.00     0.188 C 
BRANCH  33  34
ATOM     34  O   UNL     1       2.564   2.699   2.191  1.00  0.00    -0.376 OA
BRANCH  34  35
ATOM     35  C   UNL     1       3.815   3.221   2.632  1.00  0.00     0.202 C 
BRANCH  35  36
ATOM     36  C   UNL     1       4.232   3.368   4.089  1.00  0.00     0.261 C 
BRANCH  36  37
ATOM     37  O   UNL     1       4.261   2.115   4.730  1.00  0.00    -0.460 OA
BRANCH  37  38
ATOM     38  C   UNL     1       3.117   1.837   5.383  1.00  0.00     0.338 C 
ATOM     39  O   UNL     1       2.175   2.583   5.562  1.00  0.00    -0.246 OA
BRANCH  38  40
ATOM     40  C   UNL     1       3.198   0.467   5.914  1.00  0.00     0.060 A 
ATOM     41  C   UNL     1       2.178   0.196   6.816  1.00  0.00     0.016 A 
ATOM     42  C   UNL     1       4.467  -0.121   5.986  1.00  0.00     0.016 A 
ATOM     43  C   UNL     1       2.588  -0.196   8.053  1.00  0.00     0.010 A 
ATOM     44  C   UNL     1       4.881  -0.512   7.222  1.00  0.00     0.010 A 
ATOM     45  C   UNL     1       3.959  -0.403   8.255  1.00  0.00    -0.014 A 
BRANCH  45  46
ATOM     46  C   UNL     1       4.382  -0.655   9.600  1.00  0.00     0.031 A 
ATOM     47  C   UNL     1       3.968  -2.009   9.988  1.00  0.00     0.074 A 
ATOM     48  C   UNL     1       5.085   0.235  10.316  1.00  0.00     0.049 A 
ATOM     49  N   UNL     1       2.917  -2.325  10.666  1.00  0.00    -0.248 NA
ATOM     50  C   UNL     1       4.571  -3.132   9.250  1.00  0.00     0.031 C 
ATOM     51  C   UNL     1       5.712   1.481   9.868  1.00  0.00     0.029 A 
ATOM     52  N   UNL     1       5.471   0.146  11.611  1.00  0.00    -0.354 N 
ATOM     53  C   UNL     1       2.945  -3.709  10.705  1.00  0.00     0.074 A 
ATOM     54  C   UNL     1       3.738  -4.119   9.582  1.00  0.00     0.031 C 
ATOM     55  C   UNL     1       6.590   1.895  10.812  1.00  0.00     0.029 A 
ATOM     56  C   UNL     1       6.494   1.016  11.966  1.00  0.00     0.049 A 
ATOM     57  H   UNL     1       5.061  -0.483  12.247  1.00  0.00     0.167 HD
ATOM     58  C   UNL     1       2.692  -4.342  11.881  1.00  0.00     0.037 A 
ATOM     59  C   UNL     1       7.253   0.904  13.087  1.00  0.00     0.037 A 
ATOM     60  C   UNL     1       1.958  -3.469  12.777  1.00  0.00     0.049 A 
ATOM     61  C   UNL     1       6.478   0.059  14.045  1.00  0.00     0.074 A 
ATOM     62  C   UNL     1       0.778  -2.752  12.690  1.00  0.00     0.029 A 
ATOM     63  N   UNL     1       2.655  -2.916  13.828  1.00  0.00    -0.354 N 
ATOM     64  N   UNL     1       5.351   0.437  14.590  1.00  0.00    -0.248 NA
ATOM     65  C   UNL     1       6.691  -1.381  14.010  1.00  0.00     0.031 C 
ATOM     66  C   UNL     1       1.018  -1.538  13.400  1.00  0.00     0.029 A 
ATOM     67  C   UNL     1       2.301  -1.598  13.945  1.00  0.00     0.049 A 
ATOM     68  H   UNL     1       3.301  -3.390  14.400  1.00  0.00     0.167 HD
ATOM     69  C   UNL     1       4.541  -0.692  14.563  1.00  0.00     0.074 A 
ATOM     70  C   UNL     1       5.449  -1.800  14.273  1.00  0.00     0.031 C 
ATOM     71  C   UNL     1       3.181  -0.578  14.476  1.00  0.00     0.037 A 
BRANCH  58  72
ATOM     72  C   UNL     1       3.539  -5.497  12.385  1.00  0.00     0.058 A 
ATOM     73  C   UNL     1       3.188  -6.075  13.620  1.00  0.00     0.135 A 
ATOM     74  C   UNL     1       4.821  -5.852  11.898  1.00  0.00     0.135 A 
ATOM     75  F   UNL     1       1.984  -5.840  14.166  1.00  0.00    -0.206 F 
ATOM     76  C   UNL     1       4.087  -6.825  14.375  1.00  0.00     0.059 A 
ATOM     77  C   UNL     1       5.715  -6.632  12.613  1.00  0.00     0.059 A 
ATOM     78  F   UNL     1       5.327  -5.413  10.743  1.00  0.00    -0.206 F 
ATOM     79  C   UNL     1       5.359  -7.073  13.871  1.00  0.00     0.060 A 
BRANCH  79  80
ATOM     80  S   UNL     1       6.564  -7.944  14.877  1.00  0.00     0.124 S 
ATOM     81  O   UNL     1       6.815  -6.967  15.930  1.00  0.00    -0.237 OA
ATOM     82  O   UNL     1       5.816  -9.135  15.265  1.00  0.00    -0.237 OA
ATOM     83  O   UNL     1       7.667  -8.177  13.950  1.00  0.00    -0.744 OA
ENDBRANCH  79  80
ENDBRANCH  58  72
BRANCH  59  84
ATOM     84  C   UNL     1       8.720   1.127  13.213  1.00  0.00     0.058 A 
ATOM     85  C   UNL     1       9.351   1.105  14.471  1.00  0.00     0.135 A 
ATOM     86  C   UNL     1       9.578   1.091  12.095  1.00  0.00     0.135 A 
ATOM     87  F   UNL     1       8.616   1.117  15.594  1.00  0.00    -0.206 F 
ATOM     88  C   UNL     1      10.741   0.999  14.611  1.00  0.00     0.059 A 
ATOM     89  C   UNL     1      10.964   1.000  12.209  1.00  0.00     0.059 A 
ATOM     90  F   UNL     1       9.096   1.050  10.845  1.00  0.00    -0.206 F 
ATOM     91  C   UNL     1      11.539   0.927  13.470  1.00  0.00     0.060 A 
BRANCH  91  92
ATOM     92  S   UNL     1      13.314   0.619  13.631  1.00  0.00     0.124 S 
ATOM     93  O   UNL     1      13.789   1.877  14.195  1.00  0.00    -0.237 OA
ATOM     94  O   UNL     1      13.349  -0.536  14.521  1.00  0.00    -0.237 OA
ATOM     95  O   UNL     1      13.737   0.355  12.257  1.00  0.00    -0.744 OA
ENDBRANCH  91  92
ENDBRANCH  59  84
BRANCH  71  96
ATOM     96  C   UNL     1       2.563   0.763  14.774  1.00  0.00     0.058 A 
ATOM     97  C   UNL     1       2.778   1.936  14.028  1.00  0.00     0.135 A 
ATOM     98  C   UNL     1       1.609   0.825  15.801  1.00  0.00     0.135 A 
ATOM     99  F   UNL     1       3.592   1.935  12.962  1.00  0.00    -0.206 F 
ATOM    100  C   UNL     1       2.115   3.129  14.328  1.00  0.00     0.059 A 
ATOM    101  C   UNL     1       0.912   1.992  16.096  1.00  0.00     0.059 A 
ATOM    102  F   UNL     1       1.310  -0.278  16.509  1.00  0.00    -0.206 F 
ATOM    103  C   UNL     1       1.184   3.147  15.368  1.00  0.00     0.060 A 
BRANCH 103 104
ATOM    104  S   UNL     1       0.292   4.674  15.731  1.00  0.00     0.124 S 
ATOM    105  O   UNL     1       1.341   5.516  16.296  1.00  0.00    -0.237 OA
ATOM    106  O   UNL     1      -0.202   5.072  14.416  1.00  0.00    -0.237 OA
ATOM    107  O   UNL     1      -0.742   4.250  16.672  1.00  0.00    -0.744 OA
ENDBRANCH 103 104
ENDBRANCH  71  96
ENDBRANCH  45  46
ENDBRANCH  38  40
ENDBRANCH  37  38
ENDBRANCH  36  37
ENDBRANCH  35  36
ENDBRANCH  34  35
ENDBRANCH  33  34
ENDBRANCH   1  33
TORSDOF 25
