REMARK SMILES COc1cc(OC)cc(-c2ccc([C@@H](C)C(=O)OCCOCCOCCOC(=O)c3ccc(-c4c5nc(c(-c6c(F)cc(S(=O)(=O)[O-])cc6F)c6ccc([nH]6)c(-c6c(F)cc(S(=O)(=O)[O-])cc6F)c6nc(c(-c7c(F)cc(S(=O)(=O)[O-])cc7F)c7ccc4[nH]7)C=C6)C=C5)cc3)cc2F)c1
REMARK SMILES IDX 22 1 21 2 20 3 19 4 18 5 16 6 17 7 14 8 15 9 13 10 10 11
REMARK SMILES IDX 11 12 97 13 12 14 96 15 98 16 9 17 3 18 4 19 99 20 5 21 8 22
REMARK SMILES IDX 2 23 1 24 6 25 7 26 23 27 24 28 25 29 26 30 27 31 28 32
REMARK SMILES IDX 29 33 30 34 31 35 95 36 32 37 94 38 33 39 34 40 35 41 88 42
REMARK SMILES IDX 36 43 93 44 87 45 89 46 37 47 92 48 86 49 85 50 38 52 72 53
REMARK SMILES IDX 51 54 71 55 52 56 55 57 70 58 90 59 53 60 54 61 69 63 91 64
REMARK SMILES IDX 56 65 39 66 40 67 49 68 41 69 42 70 48 71 50 72 43 73 44 74
REMARK SMILES IDX 45 75 46 76 47 77 73 78 74 79 83 80 75 81 76 82 82 83 84 84
REMARK SMILES IDX 77 85 78 86 79 87 80 88 81 89 57 90 58 91 67 92 59 93 60 94
REMARK SMILES IDX 66 95 68 96 61 97 62 98 63 99 64 100 65 101
REMARK H PARENT 89 51 55 62
REMARK Flexibility Score: inf
ROOT
ATOM      1  C   UNL     1       8.686  -0.835   3.806  1.00  0.00     0.188 C 
ENDROOT
BRANCH   1   2
ATOM      2  O   UNL     1       9.231  -1.820   4.676  1.00  0.00    -0.376 OA
BRANCH   2   3
ATOM      3  C   UNL     1       8.822  -1.848   6.038  1.00  0.00     0.202 C 
BRANCH   3   4
ATOM      4  C   UNL     1       8.917  -0.555   6.868  1.00  0.00     0.261 C 
BRANCH   4   5
ATOM      5  O   UNL     1       8.198   0.583   6.336  1.00  0.00    -0.463 OA
BRANCH   5   6
ATOM      6  C   UNL     1       8.920   1.716   6.136  1.00  0.00     0.313 C 
ATOM      7  O   UNL     1      10.103   1.821   6.454  1.00  0.00    -0.252 OA
BRANCH   6   8
ATOM      8  C   UNL     1       8.188   2.880   5.456  1.00  0.00     0.126 C 
ATOM      9  C   UNL     1       8.312   4.115   6.348  1.00  0.00     0.025 C 
BRANCH   8  10
ATOM     10  C   UNL     1       6.750   2.735   4.956  1.00  0.00    -0.031 A 
ATOM     11  C   UNL     1       4.092   2.487   3.897  1.00  0.00     0.018 A 
ATOM     12  C   UNL     1       4.396   2.139   5.227  1.00  0.00     0.012 A 
ATOM     13  C   UNL     1       5.150   2.953   3.110  1.00  0.00     0.131 A 
ATOM     14  C   UNL     1       5.696   2.270   5.753  1.00  0.00     0.005 A 
ATOM     15  C   UNL     1       6.446   3.088   3.624  1.00  0.00     0.044 A 
ATOM     16  F   UNL     1       4.936   3.317   1.837  1.00  0.00    -0.206 F 
BRANCH  11  17
ATOM     17  C   UNL     1       2.698   2.477   3.404  1.00  0.00    -0.008 A 
ATOM     18  C   UNL     1       0.955   1.811   1.830  1.00  0.00     0.123 A 
ATOM     19  C   UNL     1       0.045   2.638   2.494  1.00  0.00     0.092 A 
ATOM     20  C   UNL     1       2.280   1.734   2.280  1.00  0.00     0.055 A 
ATOM     21  C   UNL     1       0.434   3.384   3.603  1.00  0.00     0.123 A 
ATOM     22  C   UNL     1       1.748   3.288   4.058  1.00  0.00     0.055 A 
BRANCH  18  23
ATOM     23  O   UNL     1       0.426   1.184   0.734  1.00  0.00    -0.497 OA
ATOM     24  C   UNL     1       1.111   0.041   0.240  1.00  0.00     0.278 C 
ENDBRANCH  18  23
BRANCH  21  25
ATOM     25  O   UNL     1      -0.545   4.164   4.156  1.00  0.00    -0.497 OA
ATOM     26  C   UNL     1      -0.108   5.160   5.074  1.00  0.00     0.278 C 
ENDBRANCH  21  25
ENDBRANCH  11  17
ENDBRANCH   8  10
ENDBRANCH   6   8
ENDBRANCH   5   6
ENDBRANCH   4   5
ENDBRANCH   3   4
ENDBRANCH   2   3
ENDBRANCH   1   2
BRANCH   1  27
ATOM     27  C   UNL     1       7.194  -0.494   3.921  1.00  0.00     0.188 C 
BRANCH  27  28
ATOM     28  O   UNL     1       6.475  -1.298   4.827  1.00  0.00    -0.376 OA
BRANCH  28  29
ATOM     29  C   UNL     1       5.385  -2.041   4.321  1.00  0.00     0.202 C 
BRANCH  29  30
ATOM     30  C   UNL     1       5.671  -3.037   3.187  1.00  0.00     0.261 C 
BRANCH  30  31
ATOM     31  O   UNL     1       6.492  -2.567   2.104  1.00  0.00    -0.460 OA
BRANCH  31  32
ATOM     32  C   UNL     1       5.937  -1.705   1.219  1.00  0.00     0.338 C 
ATOM     33  O   UNL     1       4.792  -1.276   1.236  1.00  0.00    -0.246 OA
BRANCH  32  34
ATOM     34  C   UNL     1       7.029  -1.194   0.356  1.00  0.00     0.060 A 
ATOM     35  C   UNL     1       7.330   0.177   0.354  1.00  0.00     0.016 A 
ATOM     36  C   UNL     1       7.776  -2.076  -0.427  1.00  0.00     0.016 A 
ATOM     37  C   UNL     1       8.366   0.669  -0.448  1.00  0.00     0.010 A 
ATOM     38  C   UNL     1       8.793  -1.579  -1.246  1.00  0.00     0.010 A 
ATOM     39  C   UNL     1       9.078  -0.201  -1.283  1.00  0.00    -0.014 A 
BRANCH  39  40
ATOM     40  C   UNL     1       9.988   0.323  -2.335  1.00  0.00     0.031 A 
ATOM     41  C   UNL     1       9.468   0.404  -3.746  1.00  0.00     0.074 A 
ATOM     42  C   UNL     1      11.255   0.686  -2.064  1.00  0.00     0.049 A 
ATOM     43  N   UNL     1      10.103   0.686  -4.853  1.00  0.00    -0.248 NA
ATOM     44  C   UNL     1       8.036   0.117  -3.929  1.00  0.00     0.031 C 
ATOM     45  C   UNL     1      11.869   0.697  -0.738  1.00  0.00     0.029 A 
ATOM     46  N   UNL     1      12.264   1.095  -2.904  1.00  0.00    -0.354 N 
ATOM     47  C   UNL     1       9.155   0.593  -5.866  1.00  0.00     0.074 A 
ATOM     48  C   UNL     1       7.908   0.203  -5.244  1.00  0.00     0.031 C 
ATOM     49  C   UNL     1      13.156   1.070  -0.856  1.00  0.00     0.029 A 
ATOM     50  C   UNL     1      13.470   1.281  -2.269  1.00  0.00     0.049 A 
ATOM     51  H   UNL     1      12.135   1.240  -3.869  1.00  0.00     0.167 HD
ATOM     52  C   UNL     1       9.309   0.814  -7.193  1.00  0.00     0.037 A 
ATOM     53  C   UNL     1      14.691   1.555  -2.774  1.00  0.00     0.037 A 
ATOM     54  C   UNL     1      10.553   1.201  -7.806  1.00  0.00     0.049 A 
ATOM     55  C   UNL     1      14.858   1.722  -4.266  1.00  0.00     0.074 A 
ATOM     56  C   UNL     1      10.806   1.467  -9.140  1.00  0.00     0.029 A 
ATOM     57  N   UNL     1      11.753   1.366  -7.131  1.00  0.00    -0.354 N 
ATOM     58  N   UNL     1      13.952   1.648  -5.213  1.00  0.00    -0.248 NA
ATOM     59  C   UNL     1      16.214   2.007  -4.760  1.00  0.00     0.031 C 
ATOM     60  C   UNL     1      12.171   1.734  -9.281  1.00  0.00     0.029 A 
ATOM     61  C   UNL     1      12.756   1.703  -8.025  1.00  0.00     0.049 A 
ATOM     62  H   UNL     1      11.875   1.260  -6.160  1.00  0.00     0.167 HD
ATOM     63  C   UNL     1      14.621   1.914  -6.405  1.00  0.00     0.074 A 
ATOM     64  C   UNL     1      16.006   2.156  -6.061  1.00  0.00     0.031 C 
ATOM     65  C   UNL     1      14.131   1.959  -7.670  1.00  0.00     0.037 A 
BRANCH  52  66
ATOM     66  C   UNL     1       8.110   0.612  -8.079  1.00  0.00     0.058 A 
ATOM     67  C   UNL     1       7.009   1.482  -8.049  1.00  0.00     0.135 A 
ATOM     68  C   UNL     1       8.078  -0.451  -8.997  1.00  0.00     0.135 A 
ATOM     69  F   UNL     1       6.976   2.503  -7.178  1.00  0.00    -0.206 F 
ATOM     70  C   UNL     1       5.909   1.292  -8.880  1.00  0.00     0.059 A 
ATOM     71  C   UNL     1       7.003  -0.641  -9.860  1.00  0.00     0.059 A 
ATOM     72  F   UNL     1       9.102  -1.316  -9.066  1.00  0.00    -0.206 F 
ATOM     73  C   UNL     1       5.917   0.228  -9.784  1.00  0.00     0.060 A 
BRANCH  73  74
ATOM     74  S   UNL     1       4.486   0.002 -10.860  1.00  0.00     0.124 S 
ATOM     75  O   UNL     1       3.475  -0.450  -9.909  1.00  0.00    -0.237 OA
ATOM     76  O   UNL     1       4.291   1.343 -11.403  1.00  0.00    -0.237 OA
ATOM     77  O   UNL     1       4.936  -1.001 -11.820  1.00  0.00    -0.744 OA
ENDBRANCH  73  74
ENDBRANCH  52  66
BRANCH  53  78
ATOM     78  C   UNL     1      15.868   1.669  -1.867  1.00  0.00     0.058 A 
ATOM     79  C   UNL     1      16.522   2.896  -1.679  1.00  0.00     0.135 A 
ATOM     80  C   UNL     1      16.372   0.552  -1.181  1.00  0.00     0.135 A 
ATOM     81  F   UNL     1      16.092   3.991  -2.325  1.00  0.00    -0.206 F 
ATOM     82  C   UNL     1      17.639   3.011  -0.857  1.00  0.00     0.059 A 
ATOM     83  C   UNL     1      17.469   0.647  -0.330  1.00  0.00     0.059 A 
ATOM     84  F   UNL     1      15.783  -0.645  -1.322  1.00  0.00    -0.206 F 
ATOM     85  C   UNL     1      18.103   1.880  -0.182  1.00  0.00     0.060 A 
BRANCH  85  86
ATOM     86  S   UNL     1      19.524   2.052   0.919  1.00  0.00     0.124 S 
ATOM     87  O   UNL     1      20.611   2.256  -0.032  1.00  0.00    -0.237 OA
ATOM     88  O   UNL     1      19.150   3.214   1.720  1.00  0.00    -0.237 OA
ATOM     89  O   UNL     1      19.547   0.783   1.640  1.00  0.00    -0.744 OA
ENDBRANCH  85  86
ENDBRANCH  53  78
BRANCH  65  90
ATOM     90  C   UNL     1      15.077   2.333  -8.781  1.00  0.00     0.058 A 
ATOM     91  C   UNL     1      16.080   1.461  -9.232  1.00  0.00     0.135 A 
ATOM     92  C   UNL     1      14.925   3.557  -9.457  1.00  0.00     0.135 A 
ATOM     93  F   UNL     1      16.275   0.281  -8.621  1.00  0.00    -0.206 F 
ATOM     94  C   UNL     1      16.910   1.796 -10.298  1.00  0.00     0.059 A 
ATOM     95  C   UNL     1      15.722   3.898 -10.545  1.00  0.00     0.059 A 
ATOM     96  F   UNL     1      13.973   4.425  -9.076  1.00  0.00    -0.206 F 
ATOM     97  C   UNL     1      16.719   3.014 -10.953  1.00  0.00     0.060 A 
BRANCH  97  98
ATOM     98  S   UNL     1      17.771   3.413 -12.365  1.00  0.00     0.124 S 
ATOM     99  O   UNL     1      19.051   3.674 -11.715  1.00  0.00    -0.237 OA
ATOM    100  O   UNL     1      17.701   2.192 -13.161  1.00  0.00    -0.237 OA
ATOM    101  O   UNL     1      17.120   4.579 -12.957  1.00  0.00    -0.744 OA
ENDBRANCH  97  98
ENDBRANCH  65  90
ENDBRANCH  39  40
ENDBRANCH  32  34
ENDBRANCH  31  32
ENDBRANCH  30  31
ENDBRANCH  29  30
ENDBRANCH  28  29
ENDBRANCH  27  28
ENDBRANCH   1  27
TORSDOF 24
