REMARK SMILES C[C@@]1(CN2C(=O)c3ccc(C(=O)OCCOCCOCCOC(=O)c4ccc(-c5c6nc(c(-c7c(F)cc(S(=O)(=O)[O-])cc7F)c7ccc([nH]7)c(-c7c(F)cc(S(=O)(=O)[O-])cc7F)c7nc(c(-c8c(F)cc(S(=O)(=O)[O-])cc8F)c8ccc5[nH]8)C=C7)C=C6)cc4)cc3C2=O)CCCO1
REMARK SMILES IDX 18 1 17 2 16 3 15 4 14 5 13 6 11 7 12 8 10 9 4 10 5 11 93 12
REMARK SMILES IDX 6 13 7 14 92 15 94 16 8 17 91 18 9 19 3 20 2 21 1 22 95 23
REMARK SMILES IDX 98 24 96 25 97 26 19 27 20 28 21 29 22 30 23 31 24 32 25 33
REMARK SMILES IDX 26 34 90 35 27 36 89 37 28 38 29 39 30 40 83 41 31 42 88 43
REMARK SMILES IDX 82 44 84 45 32 46 87 47 81 48 80 49 33 51 67 52 46 53 66 54
REMARK SMILES IDX 47 55 50 56 65 57 85 58 48 59 49 60 64 62 86 63 51 64 34 65
REMARK SMILES IDX 35 66 44 67 36 68 37 69 43 70 45 71 38 72 39 73 40 74 41 75
REMARK SMILES IDX 42 76 68 77 69 78 78 79 70 80 71 81 77 82 79 83 72 84 73 85
REMARK SMILES IDX 74 86 75 87 76 88 52 89 53 90 62 91 54 92 55 93 61 94 63 95
REMARK SMILES IDX 56 96 57 97 58 98 59 99 60 100
REMARK H PARENT 84 50 50 61
REMARK Flexibility Score: inf
ROOT
ATOM      1  C   UNL     1       5.643   6.918  -3.599  1.00  0.00     0.188 C 
ENDROOT
BRANCH   1   2
ATOM      2  C   UNL     1       4.725   7.586  -4.644  1.00  0.00     0.188 C 
BRANCH   2   3
ATOM      3  O   UNL     1       4.933   8.958  -4.873  1.00  0.00    -0.376 OA
BRANCH   3   4
ATOM      4  C   UNL     1       4.348   9.932  -4.028  1.00  0.00     0.202 C 
BRANCH   4   5
ATOM      5  C   UNL     1       3.467   9.657  -2.793  1.00  0.00     0.261 C 
BRANCH   5   6
ATOM      6  O   UNL     1       3.465   8.335  -2.248  1.00  0.00    -0.460 OA
BRANCH   6   7
ATOM      7  C   UNL     1       2.318   7.630  -2.423  1.00  0.00     0.338 C 
ATOM      8  O   UNL     1       1.303   8.010  -2.979  1.00  0.00    -0.246 OA
BRANCH   7   9
ATOM      9  C   UNL     1       2.521   6.229  -1.985  1.00  0.00     0.060 A 
ATOM     10  N   UNL     1       2.151   1.655  -2.095  1.00  0.00    -0.271 N 
ATOM     11  C   UNL     1       2.870   2.158  -1.043  1.00  0.00     0.261 C 
ATOM     12  C   UNL     1       1.812   2.636  -2.984  1.00  0.00     0.261 C 
ATOM     13  O   UNL     1       3.413   1.577  -0.128  1.00  0.00    -0.269 OA
ATOM     14  C   UNL     1       2.882   3.611  -1.207  1.00  0.00     0.053 A 
ATOM     15  C   UNL     1       2.225   3.905  -2.387  1.00  0.00     0.054 A 
ATOM     16  O   UNL     1       1.316   2.545  -4.093  1.00  0.00    -0.269 OA
ATOM     17  C   UNL     1       3.393   4.599  -0.384  1.00  0.00     0.015 A 
ATOM     18  C   UNL     1       2.030   5.205  -2.811  1.00  0.00     0.030 A 
ATOM     19  C   UNL     1       3.208   5.928  -0.784  1.00  0.00     0.016 A 
BRANCH  10  20
ATOM     20  C   UNL     1       1.814   0.246  -2.267  1.00  0.00     0.164 C 
BRANCH  20  21
ATOM     21  C   UNL     1       0.584  -0.212  -1.427  1.00  0.00     0.084 C 
ATOM     22  C   UNL     1       0.813  -0.065   0.079  1.00  0.00     0.044 C 
ATOM     23  C   UNL     1       0.190  -1.654  -1.765  1.00  0.00     0.039 C 
ATOM     24  O   UNL     1      -0.564   0.588  -1.781  1.00  0.00    -0.373 OA
ATOM     25  C   UNL     1      -0.750  -1.488  -2.933  1.00  0.00     0.031 C 
ATOM     26  C   UNL     1      -1.438  -0.176  -2.624  1.00  0.00     0.161 C 
ENDBRANCH  20  21
ENDBRANCH  10  20
ENDBRANCH   7   9
ENDBRANCH   6   7
ENDBRANCH   5   6
ENDBRANCH   4   5
ENDBRANCH   3   4
ENDBRANCH   2   3
ENDBRANCH   1   2
BRANCH   1  27
ATOM     27  O   UNL     1       6.485   7.705  -2.780  1.00  0.00    -0.376 OA
BRANCH  27  28
ATOM     28  C   UNL     1       7.439   8.569  -3.379  1.00  0.00     0.202 C 
BRANCH  28  29
ATOM     29  C   UNL     1       8.230   8.213  -4.653  1.00  0.00     0.261 C 
BRANCH  29  30
ATOM     30  O   UNL     1       7.532   7.499  -5.677  1.00  0.00    -0.460 OA
BRANCH  30  31
ATOM     31  C   UNL     1       7.870   6.191  -5.811  1.00  0.00     0.338 C 
ATOM     32  O   UNL     1       8.667   5.561  -5.139  1.00  0.00    -0.246 OA
BRANCH  31  33
ATOM     33  C   UNL     1       6.979   5.576  -6.812  1.00  0.00     0.060 A 
ATOM     34  C   UNL     1       6.035   4.622  -6.402  1.00  0.00     0.016 A 
ATOM     35  C   UNL     1       7.100   5.926  -8.155  1.00  0.00     0.016 A 
ATOM     36  C   UNL     1       5.204   4.011  -7.341  1.00  0.00     0.010 A 
ATOM     37  C   UNL     1       6.290   5.292  -9.096  1.00  0.00     0.010 A 
ATOM     38  C   UNL     1       5.355   4.317  -8.698  1.00  0.00    -0.014 A 
BRANCH  38  39
ATOM     39  C   UNL     1       4.689   3.507  -9.744  1.00  0.00     0.031 A 
ATOM     40  C   UNL     1       5.500   2.447 -10.434  1.00  0.00     0.074 A 
ATOM     41  C   UNL     1       3.422   3.753 -10.120  1.00  0.00     0.049 A 
ATOM     42  N   UNL     1       5.226   1.761 -11.511  1.00  0.00    -0.248 NA
ATOM     43  C   UNL     1       6.808   2.134  -9.834  1.00  0.00     0.031 C 
ATOM     44  C   UNL     1       2.522   4.714  -9.487  1.00  0.00     0.029 A 
ATOM     45  N   UNL     1       2.686   3.231 -11.156  1.00  0.00    -0.354 N 
ATOM     46  C   UNL     1       6.335   0.955 -11.734  1.00  0.00     0.074 A 
ATOM     47  C   UNL     1       7.293   1.250 -10.692  1.00  0.00     0.031 C 
ATOM     48  C   UNL     1       1.363   4.739 -10.170  1.00  0.00     0.029 A 
ATOM     49  C   UNL     1       1.461   3.834 -11.315  1.00  0.00     0.049 A 
ATOM     50  H   UNL     1       3.005   2.496 -11.728  1.00  0.00     0.167 HD
ATOM     51  C   UNL     1       6.534   0.053 -12.723  1.00  0.00     0.037 A 
ATOM     52  C   UNL     1       0.547   3.702 -12.299  1.00  0.00     0.037 A 
ATOM     53  C   UNL     1       5.571  -0.226 -13.755  1.00  0.00     0.049 A 
ATOM     54  C   UNL     1       0.822   2.751 -13.438  1.00  0.00     0.074 A 
ATOM     55  C   UNL     1       5.666  -1.132 -14.795  1.00  0.00     0.029 A 
ATOM     56  N   UNL     1       4.342   0.406 -13.883  1.00  0.00    -0.354 N 
ATOM     57  N   UNL     1       1.868   1.984 -13.639  1.00  0.00    -0.248 NA
ATOM     58  C   UNL     1      -0.203   2.648 -14.488  1.00  0.00     0.031 C 
ATOM     59  C   UNL     1       4.521  -1.006 -15.588  1.00  0.00     0.029 A 
ATOM     60  C   UNL     1       3.680  -0.073 -15.001  1.00  0.00     0.049 A 
ATOM     61  H   UNL     1       3.992   1.092 -13.270  1.00  0.00     0.167 HD
ATOM     62  C   UNL     1       1.607   1.279 -14.811  1.00  0.00     0.074 A 
ATOM     63  C   UNL     1       0.308   1.713 -15.279  1.00  0.00     0.031 C 
ATOM     64  C   UNL     1       2.371   0.349 -15.437  1.00  0.00     0.037 A 
BRANCH  51  65
ATOM     65  C   UNL     1       7.853  -0.667 -12.759  1.00  0.00     0.058 A 
ATOM     66  C   UNL     1       8.203  -1.627 -11.796  1.00  0.00     0.135 A 
ATOM     67  C   UNL     1       8.767  -0.419 -13.796  1.00  0.00     0.135 A 
ATOM     68  F   UNL     1       7.375  -1.890 -10.772  1.00  0.00    -0.206 F 
ATOM     69  C   UNL     1       9.422  -2.294 -11.844  1.00  0.00     0.059 A 
ATOM     70  C   UNL     1       9.979  -1.098 -13.883  1.00  0.00     0.059 A 
ATOM     71  F   UNL     1       8.487   0.492 -14.742  1.00  0.00    -0.206 F 
ATOM     72  C   UNL     1      10.303  -2.024 -12.893  1.00  0.00     0.060 A 
BRANCH  72  73
ATOM     73  S   UNL     1      11.876  -2.907 -12.945  1.00  0.00     0.124 S 
ATOM     74  O   UNL     1      12.586  -2.303 -11.822  1.00  0.00    -0.237 OA
ATOM     75  O   UNL     1      11.460  -4.293 -12.758  1.00  0.00    -0.237 OA
ATOM     76  O   UNL     1      12.405  -2.586 -14.267  1.00  0.00    -0.744 OA
ENDBRANCH  72  73
ENDBRANCH  51  65
BRANCH  52  77
ATOM     77  C   UNL     1      -0.706   4.507 -12.266  1.00  0.00     0.058 A 
ATOM     78  C   UNL     1      -1.953   3.896 -12.070  1.00  0.00     0.135 A 
ATOM     79  C   UNL     1      -0.684   5.902 -12.433  1.00  0.00     0.135 A 
ATOM     80  F   UNL     1      -2.031   2.565 -11.921  1.00  0.00    -0.206 F 
ATOM     81  C   UNL     1      -3.133   4.633 -12.055  1.00  0.00     0.059 A 
ATOM     82  C   UNL     1      -1.848   6.664 -12.393  1.00  0.00     0.059 A 
ATOM     83  F   UNL     1       0.483   6.539 -12.618  1.00  0.00    -0.206 F 
ATOM     84  C   UNL     1      -3.070   6.018 -12.213  1.00  0.00     0.060 A 
BRANCH  84  85
ATOM     85  S   UNL     1      -4.606   6.966 -12.150  1.00  0.00     0.124 S 
ATOM     86  O   UNL     1      -5.244   6.577 -13.402  1.00  0.00    -0.237 OA
ATOM     87  O   UNL     1      -5.228   6.459 -10.931  1.00  0.00    -0.237 OA
ATOM     88  O   UNL     1      -4.145   8.350 -12.081  1.00  0.00    -0.744 OA
ENDBRANCH  84  85
ENDBRANCH  52  77
BRANCH  64  89
ATOM     89  C   UNL     1       1.812  -0.327 -16.660  1.00  0.00     0.058 A 
ATOM     90  C   UNL     1       1.729   0.325 -17.899  1.00  0.00     0.135 A 
ATOM     91  C   UNL     1       1.469  -1.689 -16.612  1.00  0.00     0.135 A 
ATOM     92  F   UNL     1       2.037   1.628 -18.001  1.00  0.00    -0.206 F 
ATOM     93  C   UNL     1       1.329  -0.351 -19.049  1.00  0.00     0.059 A 
ATOM     94  C   UNL     1       1.095  -2.391 -17.753  1.00  0.00     0.059 A 
ATOM     95  F   UNL     1       1.539  -2.362 -15.452  1.00  0.00    -0.206 F 
ATOM     96  C   UNL     1       1.028  -1.712 -18.968  1.00  0.00     0.060 A 
BRANCH  96  97
ATOM     97  S   UNL     1       0.598  -2.596 -20.483  1.00  0.00     0.124 S 
ATOM     98  O   UNL     1      -0.725  -2.054 -20.776  1.00  0.00    -0.237 OA
ATOM     99  O   UNL     1       1.665  -2.190 -21.393  1.00  0.00    -0.237 OA
ATOM    100  O   UNL     1       0.626  -3.999 -20.081  1.00  0.00    -0.744 OA
ENDBRANCH  96  97
ENDBRANCH  64  89
ENDBRANCH  38  39
ENDBRANCH  31  33
ENDBRANCH  30  31
ENDBRANCH  29  30
ENDBRANCH  28  29
ENDBRANCH  27  28
ENDBRANCH   1  27
TORSDOF 22
