REMARK SMILES O=C(OCCOCCOCCOC(=O)[C@@H]1CCCN1C(=O)[C@@H]1CCCN1C(=O)OCC1c2ccccc2-c2ccccc21)c1ccc(-c2c3nc(c(-c4c(F)cc(S(=O)(=O)[O-])cc4F)c4ccc([nH]4)c(-c4c(F)cc(S(=O)(=O)[O-])cc4F)c4nc(c(-c5c(F)cc(S(=O)(=O)[O-])cc5F)c5ccc2[nH]5)C=C4)C=C3)cc1
REMARK SMILES IDX 9 1 8 2 7 3 6 4 5 5 4 6 3 7 2 8 1 9 44 10 45 11 109 12 46 13
REMARK SMILES IDX 108 14 47 15 48 16 49 17 102 18 50 19 107 20 101 21 103 22
REMARK SMILES IDX 51 23 106 24 100 25 99 26 52 28 86 29 65 30 85 31 66 32
REMARK SMILES IDX 69 33 84 34 104 35 67 36 68 37 83 39 105 40 70 41 53 42
REMARK SMILES IDX 54 43 63 44 55 45 56 46 62 47 64 48 57 49 58 50 59 51 60 52
REMARK SMILES IDX 61 53 87 54 88 55 97 56 89 57 90 58 96 59 98 60 91 61 92 62
REMARK SMILES IDX 93 63 94 64 95 65 71 66 72 67 81 68 73 69 74 70 80 71 82 72
REMARK SMILES IDX 75 73 76 74 77 75 78 76 79 77 10 78 11 79 12 80 13 81 14 82
REMARK SMILES IDX 15 83 16 84 19 85 17 86 18 87 20 88 21 89 22 90 23 91 26 92
REMARK SMILES IDX 24 93 25 94 27 95 28 96 29 97 30 98 31 99 32 100 43 101
REMARK SMILES IDX 33 102 37 103 38 104 42 105 34 106 36 107 39 108 41 109
REMARK SMILES IDX 35 110 40 111
REMARK H PARENT 103 27 69 38
REMARK Flexibility Score: inf
ROOT
ATOM      1  O   UNL     1       3.439   4.133  -2.836  1.00  0.00    -0.376 OA
ENDROOT
BRANCH   1   2
ATOM      2  C   UNL     1       2.356   3.801  -1.973  1.00  0.00     0.188 C 
BRANCH   2   3
ATOM      3  C   UNL     1       2.151   2.501  -0.878  1.00  0.00     0.188 C 
BRANCH   3   4
ATOM      4  O   UNL     1       3.067   0.719  -0.600  1.00  0.00    -0.376 OA
BRANCH   4   5
ATOM      5  C   UNL     1       4.415  -0.037  -0.750  1.00  0.00     0.202 C 
BRANCH   5   6
ATOM      6  C   UNL     1       4.307  -1.529  -1.099  1.00  0.00     0.261 C 
BRANCH   6   7
ATOM      7  O   UNL     1       3.301  -2.335  -0.472  1.00  0.00    -0.460 OA
BRANCH   7   8
ATOM      8  C   UNL     1       2.962  -2.483   0.823  1.00  0.00     0.338 C 
ATOM      9  O   UNL     1       2.007  -3.196   1.121  1.00  0.00    -0.246 OA
BRANCH   8  10
ATOM     10  C   UNL     1       3.684  -1.760   1.896  1.00  0.00     0.060 A 
ATOM     11  C   UNL     1       5.062  -1.512   1.890  1.00  0.00     0.016 A 
ATOM     12  C   UNL     1       2.916  -1.313   2.977  1.00  0.00     0.016 A 
ATOM     13  C   UNL     1       5.636  -0.662   2.843  1.00  0.00     0.010 A 
ATOM     14  C   UNL     1       3.508  -0.555   3.989  1.00  0.00     0.010 A 
ATOM     15  C   UNL     1       4.863  -0.187   3.907  1.00  0.00    -0.014 A 
BRANCH  15  16
ATOM     16  C   UNL     1       5.551   0.302   5.123  1.00  0.00     0.031 A 
ATOM     17  C   UNL     1       5.985  -0.786   6.054  1.00  0.00     0.074 A 
ATOM     18  C   UNL     1       5.853   1.589   5.386  1.00  0.00     0.049 A 
ATOM     19  N   UNL     1       6.720  -0.701   7.124  1.00  0.00    -0.248 NA
ATOM     20  C   UNL     1       5.623  -2.167   5.672  1.00  0.00     0.031 C 
ATOM     21  C   UNL     1       5.654   2.719   4.488  1.00  0.00     0.029 A 
ATOM     22  N   UNL     1       6.374   2.175   6.516  1.00  0.00    -0.354 N 
ATOM     23  C   UNL     1       6.998  -2.013   7.469  1.00  0.00     0.074 A 
ATOM     24  C   UNL     1       6.282  -2.877   6.566  1.00  0.00     0.031 C 
ATOM     25  C   UNL     1       5.904   3.869   5.145  1.00  0.00     0.029 A 
ATOM     26  C   UNL     1       6.326   3.553   6.501  1.00  0.00     0.049 A 
ATOM     27  H   UNL     1       6.747   1.658   7.267  1.00  0.00     0.167 HD
ATOM     28  C   UNL     1       7.830  -2.454   8.431  1.00  0.00     0.037 A 
ATOM     29  C   UNL     1       6.588   4.444   7.479  1.00  0.00     0.037 A 
ATOM     30  C   UNL     1       8.433  -1.583   9.392  1.00  0.00     0.049 A 
ATOM     31  C   UNL     1       7.250   3.915   8.725  1.00  0.00     0.074 A 
ATOM     32  C   UNL     1       9.227  -1.910  10.470  1.00  0.00     0.029 A 
ATOM     33  N   UNL     1       8.254  -0.205   9.415  1.00  0.00    -0.354 N 
ATOM     34  N   UNL     1       7.572   2.675   9.013  1.00  0.00    -0.248 NA
ATOM     35  C   UNL     1       7.666   4.896   9.735  1.00  0.00     0.031 C 
ATOM     36  C   UNL     1       9.462  -0.738  11.193  1.00  0.00     0.029 A 
ATOM     37  C   UNL     1       8.883   0.330  10.520  1.00  0.00     0.049 A 
ATOM     38  H   UNL     1       7.752   0.312   8.743  1.00  0.00     0.167 HD
ATOM     39  C   UNL     1       8.301   2.734  10.192  1.00  0.00     0.074 A 
ATOM     40  C   UNL     1       8.346   4.131  10.579  1.00  0.00     0.031 C 
ATOM     41  C   UNL     1       8.911   1.730  10.870  1.00  0.00     0.037 A 
BRANCH  28  42
ATOM     42  C   UNL     1       8.048  -3.931   8.484  1.00  0.00     0.058 A 
ATOM     43  C   UNL     1       8.780  -4.597   7.485  1.00  0.00     0.135 A 
ATOM     44  C   UNL     1       7.446  -4.700   9.488  1.00  0.00     0.135 A 
ATOM     45  F   UNL     1       9.325  -3.908   6.468  1.00  0.00    -0.206 F 
ATOM     46  C   UNL     1       8.894  -5.981   7.474  1.00  0.00     0.059 A 
ATOM     47  C   UNL     1       7.569  -6.083   9.510  1.00  0.00     0.059 A 
ATOM     48  F   UNL     1       6.702  -4.110  10.436  1.00  0.00    -0.206 F 
ATOM     49  C   UNL     1       8.287  -6.715   8.494  1.00  0.00     0.060 A 
BRANCH  49  50
ATOM     50  S   UNL     1       8.454  -8.510   8.474  1.00  0.00     0.124 S 
ATOM     51  O   UNL     1       7.623  -8.870   7.330  1.00  0.00    -0.237 OA
ATOM     52  O   UNL     1       9.892  -8.683   8.293  1.00  0.00    -0.237 OA
ATOM     53  O   UNL     1       7.936  -8.914   9.778  1.00  0.00    -0.744 OA
ENDBRANCH  49  50
ENDBRANCH  28  42
BRANCH  29  54
ATOM     54  C   UNL     1       6.278   5.897   7.330  1.00  0.00     0.058 A 
ATOM     55  C   UNL     1       7.286   6.864   7.189  1.00  0.00     0.135 A 
ATOM     56  C   UNL     1       4.952   6.360   7.390  1.00  0.00     0.135 A 
ATOM     57  F   UNL     1       8.572   6.485   7.143  1.00  0.00    -0.206 F 
ATOM     58  C   UNL     1       6.997   8.228   7.133  1.00  0.00     0.059 A 
ATOM     59  C   UNL     1       4.635   7.718   7.319  1.00  0.00     0.059 A 
ATOM     60  F   UNL     1       3.941   5.486   7.518  1.00  0.00    -0.206 F 
ATOM     61  C   UNL     1       5.667   8.646   7.199  1.00  0.00     0.060 A 
BRANCH  61  62
ATOM     62  S   UNL     1       5.308  10.416   7.095  1.00  0.00     0.124 S 
ATOM     63  O   UNL     1       5.882  10.912   8.340  1.00  0.00    -0.237 OA
ATOM     64  O   UNL     1       6.010  10.794   5.872  1.00  0.00    -0.237 OA
ATOM     65  O   UNL     1       3.851  10.461   7.010  1.00  0.00    -0.744 OA
ENDBRANCH  61  62
ENDBRANCH  29  54
BRANCH  41  66
ATOM     66  C   UNL     1       9.729   2.107  12.069  1.00  0.00     0.058 A 
ATOM     67  C   UNL     1       9.139   2.542  13.263  1.00  0.00     0.135 A 
ATOM     68  C   UNL     1      11.124   1.941  12.039  1.00  0.00     0.135 A 
ATOM     69  F   UNL     1       7.810   2.721  13.336  1.00  0.00    -0.206 F 
ATOM     70  C   UNL     1       9.907   2.821  14.385  1.00  0.00     0.059 A 
ATOM     71  C   UNL     1      11.906   2.175  13.161  1.00  0.00     0.059 A 
ATOM     72  F   UNL     1      11.733   1.514  10.921  1.00  0.00    -0.206 F 
ATOM     73  C   UNL     1      11.289   2.625  14.326  1.00  0.00     0.060 A 
BRANCH  73  74
ATOM     74  S   UNL     1      12.267   2.939  15.807  1.00  0.00     0.124 S 
ATOM     75  O   UNL     1      12.236   4.396  15.875  1.00  0.00    -0.237 OA
ATOM     76  O   UNL     1      11.504   2.239  16.837  1.00  0.00    -0.237 OA
ATOM     77  O   UNL     1      13.565   2.352  15.489  1.00  0.00    -0.744 OA
ENDBRANCH  73  74
ENDBRANCH  41  66
ENDBRANCH  15  16
ENDBRANCH   8  10
ENDBRANCH   7   8
ENDBRANCH   6   7
ENDBRANCH   5   6
ENDBRANCH   4   5
ENDBRANCH   3   4
ENDBRANCH   2   3
ENDBRANCH   1   2
BRANCH   1  78
ATOM     78  C   UNL     1       4.799   4.374  -2.491  1.00  0.00     0.202 C 
BRANCH  78  79
ATOM     79  C   UNL     1       5.193   5.409  -1.410  1.00  0.00     0.261 C 
BRANCH  79  80
ATOM     80  O   UNL     1       4.778   5.069  -0.067  1.00  0.00    -0.462 OA
BRANCH  80  81
ATOM     81  C   UNL     1       3.640   5.676   0.328  1.00  0.00     0.328 C 
ATOM     82  O   UNL     1       3.120   6.607  -0.287  1.00  0.00    -0.250 OA
BRANCH  81  83
ATOM     83  C   UNL     1       2.996   5.145   1.613  1.00  0.00     0.195 C 
ATOM     84  C   UNL     1       3.302   6.302   2.594  1.00  0.00     0.039 C 
ATOM     85  N   UNL     1       3.155   3.960   2.472  1.00  0.00    -0.327 N 
ATOM     86  C   UNL     1       2.903   5.843   3.973  1.00  0.00     0.024 C 
ATOM     87  C   UNL     1       2.749   4.354   3.840  1.00  0.00     0.120 C 
BRANCH  85  88
ATOM     88  C   UNL     1       2.988   2.604   2.277  1.00  0.00     0.246 C 
ATOM     89  O   UNL     1       2.722   1.941   3.299  1.00  0.00    -0.272 OA
BRANCH  88  90
ATOM     90  C   UNL     1       3.061   1.747   0.977  1.00  0.00     0.178 C 
ATOM     91  C   UNL     1       4.104   2.243  -0.664  1.00  0.00     0.037 C 
ATOM     92  N   UNL     1       1.453   0.938   0.365  1.00  0.00    -0.296 N 
ATOM     93  C   UNL     1       3.115   1.397  -2.276  1.00  0.00     0.024 C 
ATOM     94  C   UNL     1       1.477   0.505  -1.490  1.00  0.00     0.124 C 
BRANCH  92  95
ATOM     95  C   UNL     1       0.299   0.925   1.105  1.00  0.00     0.410 C 
ATOM     96  O   UNL     1      -0.739   0.358   0.791  1.00  0.00    -0.224 OA
BRANCH  95  97
ATOM     97  O   UNL     1       0.417   1.768   2.151  1.00  0.00    -0.448 OA
BRANCH  97  98
ATOM     98  C   UNL     1      -0.527   1.720   3.227  1.00  0.00     0.248 C 
BRANCH  98  99
ATOM     99  C   UNL     1      -1.653   2.761   3.113  1.00  0.00     0.088 C 
ATOM    100  C   UNL     1      -2.503   2.713   4.383  1.00  0.00    -0.029 A 
ATOM    101  C   UNL     1      -1.217   4.228   3.117  1.00  0.00    -0.029 A 
ATOM    102  C   UNL     1      -3.230   1.646   4.886  1.00  0.00     0.005 A 
ATOM    103  C   UNL     1      -2.450   3.949   5.064  1.00  0.00    -0.014 A 
ATOM    104  C   UNL     1      -1.658   4.877   4.292  1.00  0.00    -0.014 A 
ATOM    105  C   UNL     1      -0.575   4.945   2.122  1.00  0.00     0.005 A 
ATOM    106  C   UNL     1      -3.917   1.827   6.088  1.00  0.00     0.000 A 
ATOM    107  C   UNL     1      -3.135   4.129   6.254  1.00  0.00     0.009 A 
ATOM    108  C   UNL     1      -1.371   6.214   4.524  1.00  0.00     0.009 A 
ATOM    109  C   UNL     1      -0.317   6.305   2.338  1.00  0.00     0.000 A 
ATOM    110  C   UNL     1      -3.872   3.058   6.765  1.00  0.00     0.001 A 
ATOM    111  C   UNL     1      -0.689   6.929   3.539  1.00  0.00     0.001 A 
ENDBRANCH  98  99
ENDBRANCH  97  98
ENDBRANCH  95  97
ENDBRANCH  92  95
ENDBRANCH  88  90
ENDBRANCH  85  88
ENDBRANCH  81  83
ENDBRANCH  80  81
ENDBRANCH  79  80
ENDBRANCH  78  79
ENDBRANCH   1  78
TORSDOF 26
