REMARK SMILES CCCN1C(=O)/C(=C\c2ccc(OC)c(OC)c2C(=O)OCCOCCOCCOC(=O)c2ccc(-c3c4nc(c(-c5c(F)cc(S(=O)(=O)[O-])cc5F)c5ccc([nH]5)c(-c5c(F)cc(S(=O)(=O)[O-])cc5F)c5nc(c(-c6c(F)cc(S(=O)(=O)[O-])cc6F)c6ccc3[nH]6)C=C5)C=C4)cc2)S/C1=[NH+]\c1nccs1
REMARK SMILES IDX 25 1 24 2 23 3 22 4 21 5 19 6 20 7 18 8 9 9 10 10 11 11
REMARK SMILES IDX 15 12 12 13 8 14 4 15 5 16 100 17 6 18 7 19 99 20 101 21
REMARK SMILES IDX 3 23 2 24 1 25 102 26 103 27 106 28 104 29 105 30 16 31
REMARK SMILES IDX 17 32 13 33 14 34 26 35 27 36 28 37 29 38 30 39 31 40 32 41
REMARK SMILES IDX 33 42 34 43 98 44 35 45 97 46 36 47 37 48 38 49 91 50 39 51
REMARK SMILES IDX 96 52 90 53 92 54 40 55 95 56 89 57 88 58 41 60 75 61 54 62
REMARK SMILES IDX 74 63 55 64 58 65 73 66 93 67 56 68 57 69 72 71 94 72 59 73
REMARK SMILES IDX 42 74 43 75 52 76 44 77 45 78 51 79 53 80 46 81 47 82 48 83
REMARK SMILES IDX 49 84 50 85 76 86 77 87 86 88 78 89 79 90 85 91 87 92 80 93
REMARK SMILES IDX 81 94 82 95 83 96 84 97 60 98 61 99 70 100 62 101 63 102
REMARK SMILES IDX 69 103 71 104 64 105 65 106 66 107 67 108 68 109
REMARK H PARENT 101 22 92 59 58 70
REMARK Flexibility Score: inf
ROOT
ATOM      1  C   UNL     1       5.096   4.765  -2.067  1.00  0.00     0.188 C 
ENDROOT
BRANCH   1   2
ATOM      2  O   UNL     1       4.721   3.520  -2.644  1.00  0.00    -0.376 OA
BRANCH   2   3
ATOM      3  C   UNL     1       4.276   2.533  -1.723  1.00  0.00     0.202 C 
BRANCH   3   4
ATOM      4  C   UNL     1       2.861   2.797  -1.224  1.00  0.00     0.261 C 
BRANCH   4   5
ATOM      5  O   UNL     1       2.719   4.094  -0.626  1.00  0.00    -0.460 OA
BRANCH   5   6
ATOM      6  C   UNL     1       3.012   4.241   0.693  1.00  0.00     0.342 C 
ATOM      7  O   UNL     1       3.438   3.363   1.401  1.00  0.00    -0.246 OA
BRANCH   6   8
ATOM      8  C   UNL     1       2.751   5.677   1.056  1.00  0.00     0.113 A 
ATOM      9  C   UNL     1       1.602   6.360   0.553  1.00  0.00    -0.006 A 
ATOM     10  C   UNL     1       1.437   7.716   0.854  1.00  0.00     0.013 A 
ATOM     11  C   UNL     1       2.353   8.372   1.674  1.00  0.00     0.051 A 
ATOM     12  C   UNL     1       3.665   6.350   1.906  1.00  0.00     0.175 A 
ATOM     13  C   UNL     1       3.458   7.705   2.218  1.00  0.00     0.161 A 
BRANCH   9  14
ATOM     14  C   UNL     1       0.542   5.765  -0.299  1.00  0.00     0.032 C 
ATOM     15  N   UNL     1      -0.121   2.468   0.856  1.00  0.00    -0.219 N 
ATOM     16  C   UNL     1       0.067   3.797   1.177  1.00  0.00     0.321 C 
ATOM     17  C   UNL     1      -0.827   2.240  -0.301  1.00  0.00     0.271 C 
ATOM     18  O   UNL     1       0.344   4.245   2.279  1.00  0.00    -0.250 OA
ATOM     19  C   UNL     1      -0.123   4.631  -0.032  1.00  0.00     0.100 C 
ATOM     20  S   UNL     1      -1.095   3.761  -1.154  1.00  0.00    -0.012 SA
ATOM     21  N   UNL     1      -1.219   1.061  -0.633  1.00  0.00    -0.228 N 
ATOM     22  H   UNL     1      -1.068   0.309  -0.016  1.00  0.00     0.268 HD
BRANCH  15  23
ATOM     23  C   UNL     1       0.401   1.490   1.813  1.00  0.00     0.206 C 
BRANCH  23  24
ATOM     24  C   UNL     1       0.388  -0.002   1.479  1.00  0.00     0.035 C 
ATOM     25  C   UNL     1       1.337  -0.412   0.360  1.00  0.00     0.007 C 
ENDBRANCH  23  24
ENDBRANCH  15  23
BRANCH  21  26
ATOM     26  C   UNL     1      -1.832   0.837  -1.813  1.00  0.00     0.319 A 
ATOM     27  N   UNL     1      -1.389   1.123  -3.019  1.00  0.00    -0.101 NA
ATOM     28  S   UNL     1      -3.289  -0.100  -1.790  1.00  0.00    -0.070 S 
ATOM     29  C   UNL     1      -2.220   0.578  -3.978  1.00  0.00     0.219 A 
ATOM     30  C   UNL     1      -3.298  -0.129  -3.499  1.00  0.00     0.110 A 
ENDBRANCH  21  26
ENDBRANCH   9  14
BRANCH  12  31
ATOM     31  O   UNL     1       4.666   5.665   2.544  1.00  0.00    -0.492 OA
ATOM     32  C   UNL     1       5.789   5.374   1.716  1.00  0.00     0.278 C 
ENDBRANCH  12  31
BRANCH  13  33
ATOM     33  O   UNL     1       4.187   8.533   3.029  1.00  0.00    -0.493 OA
ATOM     34  C   UNL     1       5.449   8.112   3.522  1.00  0.00     0.278 C 
ENDBRANCH  13  33
ENDBRANCH   6   8
ENDBRANCH   5   6
ENDBRANCH   4   5
ENDBRANCH   3   4
ENDBRANCH   2   3
ENDBRANCH   1   2
BRANCH   1  35
ATOM     35  C   UNL     1       4.178   5.939  -2.467  1.00  0.00     0.188 C 
BRANCH  35  36
ATOM     36  O   UNL     1       3.497   5.929  -3.715  1.00  0.00    -0.376 OA
BRANCH  36  37
ATOM     37  C   UNL     1       4.126   5.324  -4.833  1.00  0.00     0.202 C 
BRANCH  37  38
ATOM     38  C   UNL     1       5.402   5.984  -5.370  1.00  0.00     0.261 C 
BRANCH  38  39
ATOM     39  O   UNL     1       6.429   6.202  -4.386  1.00  0.00    -0.460 OA
BRANCH  39  40
ATOM     40  C   UNL     1       6.609   7.491  -4.002  1.00  0.00     0.338 C 
ATOM     41  O   UNL     1       6.019   8.472  -4.423  1.00  0.00    -0.246 OA
BRANCH  40  42
ATOM     42  C   UNL     1       7.528   7.548  -2.843  1.00  0.00     0.060 A 
ATOM     43  C   UNL     1       7.085   8.174  -1.669  1.00  0.00     0.016 A 
ATOM     44  C   UNL     1       8.830   7.050  -2.922  1.00  0.00     0.016 A 
ATOM     45  C   UNL     1       7.944   8.318  -0.577  1.00  0.00     0.010 A 
ATOM     46  C   UNL     1       9.699   7.220  -1.837  1.00  0.00     0.010 A 
ATOM     47  C   UNL     1       9.269   7.873  -0.667  1.00  0.00    -0.014 A 
BRANCH  47  48
ATOM     48  C   UNL     1      10.245   8.205   0.402  1.00  0.00     0.031 A 
ATOM     49  C   UNL     1      11.127   9.411   0.237  1.00  0.00     0.074 A 
ATOM     50  C   UNL     1      10.359   7.439   1.501  1.00  0.00     0.049 A 
ATOM     51  N   UNL     1      12.110   9.827   0.992  1.00  0.00    -0.248 NA
ATOM     52  C   UNL     1      10.870  10.252  -0.942  1.00  0.00     0.031 C 
ATOM     53  C   UNL     1       9.549   6.259   1.789  1.00  0.00     0.029 A 
ATOM     54  N   UNL     1      11.217   7.527   2.570  1.00  0.00    -0.354 N 
ATOM     55  C   UNL     1      12.604  10.968   0.372  1.00  0.00     0.074 A 
ATOM     56  C   UNL     1      11.818  11.171  -0.827  1.00  0.00     0.031 C 
ATOM     57  C   UNL     1       9.954   5.723   2.953  1.00  0.00     0.029 A 
ATOM     58  C   UNL     1      11.089   6.491   3.466  1.00  0.00     0.049 A 
ATOM     59  H   UNL     1      11.862   8.261   2.684  1.00  0.00     0.167 HD
ATOM     60  C   UNL     1      13.624  11.769   0.763  1.00  0.00     0.037 A 
ATOM     61  C   UNL     1      11.828   6.173   4.548  1.00  0.00     0.037 A 
ATOM     62  C   UNL     1      14.410  11.560   1.952  1.00  0.00     0.049 A 
ATOM     63  C   UNL     1      13.000   7.041   4.931  1.00  0.00     0.074 A 
ATOM     64  C   UNL     1      15.444  12.336   2.446  1.00  0.00     0.029 A 
ATOM     65  N   UNL     1      14.262  10.491   2.823  1.00  0.00    -0.354 N 
ATOM     66  N   UNL     1      13.439   8.134   4.353  1.00  0.00    -0.248 NA
ATOM     67  C   UNL     1      13.784   6.628   6.105  1.00  0.00     0.031 C 
ATOM     68  C   UNL     1      15.957  11.708   3.586  1.00  0.00     0.029 A 
ATOM     69  C   UNL     1      15.208  10.569   3.833  1.00  0.00     0.049 A 
ATOM     70  H   UNL     1      13.585   9.781   2.737  1.00  0.00     0.167 HD
ATOM     71  C   UNL     1      14.540   8.545   5.099  1.00  0.00     0.074 A 
ATOM     72  C   UNL     1      14.691   7.593   6.180  1.00  0.00     0.031 C 
ATOM     73  C   UNL     1      15.353   9.614   4.904  1.00  0.00     0.037 A 
BRANCH  60  74
ATOM     74  C   UNL     1      13.976  12.925  -0.130  1.00  0.00     0.058 A 
ATOM     75  C   UNL     1      13.153  14.057  -0.237  1.00  0.00     0.135 A 
ATOM     76  C   UNL     1      15.164  12.904  -0.879  1.00  0.00     0.135 A 
ATOM     77  F   UNL     1      11.998  14.120   0.444  1.00  0.00    -0.206 F 
ATOM     78  C   UNL     1      13.480  15.114  -1.080  1.00  0.00     0.059 A 
ATOM     79  C   UNL     1      15.524  13.961  -1.708  1.00  0.00     0.059 A 
ATOM     80  F   UNL     1      15.985  11.844  -0.814  1.00  0.00    -0.206 F 
ATOM     81  C   UNL     1      14.666  15.055  -1.815  1.00  0.00     0.060 A 
BRANCH  81  82
ATOM     82  S   UNL     1      15.070  16.427  -2.915  1.00  0.00     0.124 S 
ATOM     83  O   UNL     1      14.123  16.212  -4.005  1.00  0.00    -0.237 OA
ATOM     84  O   UNL     1      14.812  17.590  -2.073  1.00  0.00    -0.237 OA
ATOM     85  O   UNL     1      16.472  16.196  -3.248  1.00  0.00    -0.744 OA
ENDBRANCH  81  82
ENDBRANCH  60  74
BRANCH  61  86
ATOM     86  C   UNL     1      11.511   4.943   5.324  1.00  0.00     0.058 A 
ATOM     87  C   UNL     1      10.989   5.016   6.623  1.00  0.00     0.135 A 
ATOM     88  C   UNL     1      11.721   3.668   4.775  1.00  0.00     0.135 A 
ATOM     89  F   UNL     1      10.787   6.212   7.198  1.00  0.00    -0.206 F 
ATOM     90  C   UNL     1      10.689   3.870   7.354  1.00  0.00     0.059 A 
ATOM     91  C   UNL     1      11.405   2.508   5.475  1.00  0.00     0.059 A 
ATOM     92  F   UNL     1      12.213   3.543   3.533  1.00  0.00    -0.206 F 
ATOM     93  C   UNL     1      10.895   2.620   6.768  1.00  0.00     0.060 A 
BRANCH  93  94
ATOM     94  S   UNL     1      10.445   1.138   7.698  1.00  0.00     0.124 S 
ATOM     95  O   UNL     1      11.518   1.073   8.683  1.00  0.00    -0.237 OA
ATOM     96  O   UNL     1       9.125   1.490   8.213  1.00  0.00    -0.237 OA
ATOM     97  O   UNL     1      10.453   0.090   6.682  1.00  0.00    -0.744 OA
ENDBRANCH  93  94
ENDBRANCH  61  86
BRANCH  73  98
ATOM     98  C   UNL     1      16.473   9.832   5.886  1.00  0.00     0.058 A 
ATOM     99  C   UNL     1      17.623   9.027   5.881  1.00  0.00     0.135 A 
ATOM    100  C   UNL     1      16.429  10.904   6.792  1.00  0.00     0.135 A 
ATOM    101  F   UNL     1      17.715   7.984   5.041  1.00  0.00    -0.206 F 
ATOM    102  C   UNL     1      18.686   9.273   6.747  1.00  0.00     0.059 A 
ATOM    103  C   UNL     1      17.490  11.183   7.649  1.00  0.00     0.059 A 
ATOM    104  F   UNL     1      15.356  11.710   6.832  1.00  0.00    -0.206 F 
ATOM    105  C   UNL     1      18.612  10.357   7.623  1.00  0.00     0.060 A 
BRANCH 105 106
ATOM    106  S   UNL     1      20.019  10.696   8.704  1.00  0.00     0.124 S 
ATOM    107  O   UNL     1      19.900   9.625   9.688  1.00  0.00    -0.237 OA
ATOM    108  O   UNL     1      21.150  10.591   7.787  1.00  0.00    -0.237 OA
ATOM    109  O   UNL     1      19.749  12.040   9.203  1.00  0.00    -0.744 OA
ENDBRANCH 105 106
ENDBRANCH  73  98
ENDBRANCH  47  48
ENDBRANCH  40  42
ENDBRANCH  39  40
ENDBRANCH  38  39
ENDBRANCH  37  38
ENDBRANCH  36  37
ENDBRANCH  35  36
ENDBRANCH   1  35
TORSDOF 26
