REMARK SMILES O=C(CN(CC(F)(F)F)S(=O)(=O)c1cccc(F)c1)OCCOCCOCCOC(=O)c1ccc(-c2c3nc(c(-c4c(F)cc(S(=O)(=O)[O-])cc4F)c4ccc([nH]4)c(-c4c(F)cc(S(=O)(=O)[O-])cc4F)c4nc(c(-c5c(F)cc(S(=O)(=O)[O-])cc5F)c5ccc2[nH]5)C=C4)C=C3)cc1
REMARK SMILES IDX 24 1 23 2 22 3 21 4 20 5 2 6 1 7 3 8 4 9 5 10 6 11 7 12 8 13
REMARK SMILES IDX 9 14 10 15 11 16 12 17 13 18 14 19 19 20 15 21 17 22 16 23
REMARK SMILES IDX 18 24 25 25 26 26 27 27 28 28 29 29 30 30 31 31 32 32 33 33
REMARK SMILES IDX 97 34 34 35 96 36 35 37 36 38 37 39 90 40 38 41 95 42 89 43
REMARK SMILES IDX 91 44 39 45 94 46 88 47 87 48 40 50 74 51 53 52 73 53 54 54
REMARK SMILES IDX 57 55 72 56 92 57 55 58 56 59 71 61 93 62 58 63 41 64 42 65
REMARK SMILES IDX 51 66 43 67 44 68 50 69 52 70 45 71 46 72 47 73 48 74 49 75
REMARK SMILES IDX 75 76 76 77 85 78 77 79 78 80 84 81 86 82 79 83 80 84 81 85
REMARK SMILES IDX 82 86 83 87 59 88 60 89 69 90 61 91 62 92 68 93 70 94 63 95
REMARK SMILES IDX 64 96 65 97 66 98 67 99
REMARK H PARENT 91 49 57 60
REMARK Flexibility Score: inf
ROOT
ATOM      1  C   UNL     1       3.097  -0.765   1.794  1.00  0.00     0.188 C 
ENDROOT
BRANCH   1   2
ATOM      2  O   UNL     1       4.407  -0.248   1.711  1.00  0.00    -0.376 OA
BRANCH   2   3
ATOM      3  C   UNL     1       4.995  -0.001   0.457  1.00  0.00     0.202 C 
BRANCH   3   4
ATOM      4  C   UNL     1       4.444   1.216  -0.291  1.00  0.00     0.261 C 
BRANCH   4   5
ATOM      5  O   UNL     1       3.012   1.385  -0.359  1.00  0.00    -0.462 OA
BRANCH   5   6
ATOM      6  C   UNL     1       2.095   0.577  -0.941  1.00  0.00     0.321 C 
ATOM      7  O   UNL     1       0.898   0.834  -0.818  1.00  0.00    -0.251 OA
BRANCH   6   8
ATOM      8  C   UNL     1       2.558  -0.730  -1.557  1.00  0.00     0.225 C 
BRANCH   8   9
ATOM      9  N   UNL     1       3.522  -0.596  -2.680  1.00  0.00    -0.178 NA
BRANCH   9  10
ATOM     10  C   UNL     1       4.399  -1.833  -2.829  1.00  0.00     0.218 C 
BRANCH  10  11
ATOM     11  C   UNL     1       3.742  -3.208  -3.014  1.00  0.00     0.402 C 
ATOM     12  F   UNL     1       3.170  -3.359  -4.214  1.00  0.00    -0.170 F 
ATOM     13  F   UNL     1       4.692  -4.166  -2.889  1.00  0.00    -0.170 F 
ATOM     14  F   UNL     1       2.823  -3.442  -2.050  1.00  0.00    -0.170 F 
ENDBRANCH  10  11
ENDBRANCH   9  10
BRANCH   9  15
ATOM     15  S   UNL     1       2.694  -0.021  -4.064  1.00  0.00     0.244 S 
ATOM     16  O   UNL     1       1.966  -1.130  -4.636  1.00  0.00    -0.207 OA
ATOM     17  O   UNL     1       2.016   1.189  -3.670  1.00  0.00    -0.207 OA
BRANCH  15  18
ATOM     18  C   UNL     1       3.986   0.454  -5.163  1.00  0.00     0.085 A 
ATOM     19  C   UNL     1       4.293   1.814  -5.303  1.00  0.00     0.022 A 
ATOM     20  C   UNL     1       4.620  -0.511  -5.943  1.00  0.00     0.061 A 
ATOM     21  C   UNL     1       5.258   2.210  -6.225  1.00  0.00     0.004 A 
ATOM     22  C   UNL     1       5.604  -0.101  -6.827  1.00  0.00     0.124 A 
ATOM     23  C   UNL     1       5.922   1.246  -6.981  1.00  0.00     0.039 A 
ATOM     24  F   UNL     1       6.263  -1.017  -7.546  1.00  0.00    -0.207 F 
ENDBRANCH  15  18
ENDBRANCH   9  15
ENDBRANCH   8   9
ENDBRANCH   6   8
ENDBRANCH   5   6
ENDBRANCH   4   5
ENDBRANCH   3   4
ENDBRANCH   2   3
ENDBRANCH   1   2
BRANCH   1  25
ATOM     25  C   UNL     1       2.342  -0.272   3.034  1.00  0.00     0.188 C 
BRANCH  25  26
ATOM     26  O   UNL     1       3.035   0.545   3.965  1.00  0.00    -0.376 OA
BRANCH  26  27
ATOM     27  C   UNL     1       4.355   0.172   4.340  1.00  0.00     0.202 C 
BRANCH  27  28
ATOM     28  C   UNL     1       4.601  -1.263   4.839  1.00  0.00     0.261 C 
BRANCH  28  29
ATOM     29  O   UNL     1       4.235  -2.336   3.941  1.00  0.00    -0.460 OA
BRANCH  29  30
ATOM     30  C   UNL     1       3.169  -3.088   4.322  1.00  0.00     0.338 C 
ATOM     31  O   UNL     1       2.463  -2.911   5.301  1.00  0.00    -0.246 OA
BRANCH  30  32
ATOM     32  C   UNL     1       2.871  -4.139   3.322  1.00  0.00     0.060 A 
ATOM     33  C   UNL     1       1.676  -4.083   2.585  1.00  0.00     0.016 A 
ATOM     34  C   UNL     1       3.697  -5.258   3.228  1.00  0.00     0.016 A 
ATOM     35  C   UNL     1       1.291  -5.161   1.777  1.00  0.00     0.010 A 
ATOM     36  C   UNL     1       3.299  -6.342   2.438  1.00  0.00     0.010 A 
ATOM     37  C   UNL     1       2.077  -6.319   1.738  1.00  0.00    -0.014 A 
BRANCH  37  38
ATOM     38  C   UNL     1       1.565  -7.589   1.153  1.00  0.00     0.031 A 
ATOM     39  C   UNL     1       1.025  -8.638   2.089  1.00  0.00     0.074 A 
ATOM     40  C   UNL     1       1.626  -7.842  -0.167  1.00  0.00     0.049 A 
ATOM     41  N   UNL     1       0.714  -9.886   1.852  1.00  0.00    -0.248 NA
ATOM     42  C   UNL     1       0.824  -8.222   3.487  1.00  0.00     0.031 C 
ATOM     43  C   UNL     1       2.061  -6.896  -1.190  1.00  0.00     0.029 A 
ATOM     44  N   UNL     1       1.346  -8.992  -0.868  1.00  0.00    -0.354 N 
ATOM     45  C   UNL     1       0.304 -10.411   3.073  1.00  0.00     0.074 A 
ATOM     46  C   UNL     1       0.427  -9.353   4.051  1.00  0.00     0.031 C 
ATOM     47  C   UNL     1       2.044  -7.510  -2.386  1.00  0.00     0.029 A 
ATOM     48  C   UNL     1       1.645  -8.908  -2.207  1.00  0.00     0.049 A 
ATOM     49  H   UNL     1       0.966  -9.799  -0.450  1.00  0.00     0.167 HD
ATOM     50  C   UNL     1      -0.137 -11.661   3.352  1.00  0.00     0.037 A 
ATOM     51  C   UNL     1       1.636  -9.854  -3.171  1.00  0.00     0.037 A 
ATOM     52  C   UNL     1      -0.258 -12.709   2.372  1.00  0.00     0.049 A 
ATOM     53  C   UNL     1       1.228 -11.266  -2.828  1.00  0.00     0.074 A 
ATOM     54  C   UNL     1      -0.708 -14.005   2.555  1.00  0.00     0.029 A 
ATOM     55  N   UNL     1       0.079 -12.588   1.032  1.00  0.00    -0.354 N 
ATOM     56  N   UNL     1       0.849 -11.756  -1.671  1.00  0.00    -0.248 NA
ATOM     57  C   UNL     1       1.252 -12.257  -3.915  1.00  0.00     0.031 C 
ATOM     58  C   UNL     1      -0.582 -14.685   1.341  1.00  0.00     0.029 A 
ATOM     59  C   UNL     1      -0.124 -13.794   0.383  1.00  0.00     0.049 A 
ATOM     60  H   UNL     1       0.412 -11.765   0.605  1.00  0.00     0.167 HD
ATOM     61  C   UNL     1       0.558 -13.099  -1.898  1.00  0.00     0.074 A 
ATOM     62  C   UNL     1       0.810 -13.348  -3.302  1.00  0.00     0.031 C 
ATOM     63  C   UNL     1       0.115 -14.034  -1.021  1.00  0.00     0.037 A 
BRANCH  50  64
ATOM     64  C   UNL     1      -0.490 -11.979   4.781  1.00  0.00     0.058 A 
ATOM     65  C   UNL     1       0.289 -12.885   5.519  1.00  0.00     0.135 A 
ATOM     66  C   UNL     1      -1.616 -11.424   5.410  1.00  0.00     0.135 A 
ATOM     67  F   UNL     1       1.379 -13.445   4.972  1.00  0.00    -0.206 F 
ATOM     68  C   UNL     1      -0.039 -13.235   6.825  1.00  0.00     0.059 A 
ATOM     69  C   UNL     1      -1.945 -11.734   6.727  1.00  0.00     0.059 A 
ATOM     70  F   UNL     1      -2.385 -10.537   4.758  1.00  0.00    -0.206 F 
ATOM     71  C   UNL     1      -1.155 -12.649   7.423  1.00  0.00     0.060 A 
BRANCH  71  72
ATOM     72  S   UNL     1      -1.530 -13.069   9.138  1.00  0.00     0.124 S 
ATOM     73  O   UNL     1      -1.950 -14.461   9.023  1.00  0.00    -0.237 OA
ATOM     74  O   UNL     1      -0.246 -12.843   9.794  1.00  0.00    -0.237 OA
ATOM     75  O   UNL     1      -2.582 -12.122   9.496  1.00  0.00    -0.744 OA
ENDBRANCH  71  72
ENDBRANCH  50  64
BRANCH  51  76
ATOM     76  C   UNL     1       2.032  -9.485  -4.558  1.00  0.00     0.058 A 
ATOM     77  C   UNL     1       3.355  -9.134  -4.871  1.00  0.00     0.135 A 
ATOM     78  C   UNL     1       1.080  -9.418  -5.586  1.00  0.00     0.135 A 
ATOM     79  F   UNL     1       4.308  -9.184  -3.927  1.00  0.00    -0.206 F 
ATOM     80  C   UNL     1       3.710  -8.683  -6.138  1.00  0.00     0.059 A 
ATOM     81  C   UNL     1       1.416  -8.993  -6.870  1.00  0.00     0.059 A 
ATOM     82  F   UNL     1      -0.192  -9.768  -5.343  1.00  0.00    -0.206 F 
ATOM     83  C   UNL     1       2.729  -8.604  -7.128  1.00  0.00     0.060 A 
BRANCH  83  84
ATOM     84  S   UNL     1       3.201  -7.956  -8.747  1.00  0.00     0.124 S 
ATOM     85  O   UNL     1       3.547  -6.577  -8.420  1.00  0.00    -0.237 OA
ATOM     86  O   UNL     1       4.319  -8.822  -9.106  1.00  0.00    -0.237 OA
ATOM     87  O   UNL     1       1.993  -8.128  -9.547  1.00  0.00    -0.744 OA
ENDBRANCH  83  84
ENDBRANCH  51  76
BRANCH  63  88
ATOM     88  C   UNL     1      -0.174 -15.423  -1.530  1.00  0.00     0.058 A 
ATOM     89  C   UNL     1      -1.497 -15.899  -1.563  1.00  0.00     0.135 A 
ATOM     90  C   UNL     1       0.853 -16.326  -1.841  1.00  0.00     0.135 A 
ATOM     91  F   UNL     1      -2.518 -15.080  -1.269  1.00  0.00    -0.206 F 
ATOM     92  C   UNL     1      -1.786 -17.230  -1.845  1.00  0.00     0.059 A 
ATOM     93  C   UNL     1       0.584 -17.658  -2.154  1.00  0.00     0.059 A 
ATOM     94  F   UNL     1       2.133 -15.922  -1.835  1.00  0.00    -0.206 F 
ATOM     95  C   UNL     1      -0.738 -18.105  -2.129  1.00  0.00     0.060 A 
BRANCH  95  96
ATOM     96  S   UNL     1      -1.131 -19.839  -2.449  1.00  0.00     0.124 S 
ATOM     97  O   UNL     1      -1.616 -20.283  -1.147  1.00  0.00    -0.237 OA
ATOM     98  O   UNL     1      -2.139 -19.735  -3.500  1.00  0.00    -0.237 OA
ATOM     99  O   UNL     1       0.147 -20.406  -2.869  1.00  0.00    -0.744 OA
ENDBRANCH  95  96
ENDBRANCH  63  88
ENDBRANCH  37  38
ENDBRANCH  30  32
ENDBRANCH  29  30
ENDBRANCH  28  29
ENDBRANCH  27  28
ENDBRANCH  26  27
ENDBRANCH  25  26
ENDBRANCH   1  25
TORSDOF 25
