REMARK SMILES Cn1cc(C(=O)OCCOCCOCCOC(=O)c2ccc(-c3c4nc(c(-c5c(F)cc(S(=O)(=O)[O-])cc5F)c5ccc([nH]5)c(-c5c(F)cc(S(=O)(=O)[O-])cc5F)c5nc(c(-c6c(F)cc(S(=O)(=O)[O-])cc6F)c6ccc3[nH]6)C=C5)C=C4)cc2)c(C(=O)Nc2ccc(-c3nc4cc(Cl)ccc4o3)cc2)n1
REMARK SMILES IDX 11 1 10 2 9 3 8 4 7 5 5 6 6 7 4 8 1 9 2 10 3 11 105 12 85 13
REMARK SMILES IDX 86 14 87 15 88 16 89 18 90 19 104 20 91 21 103 22 92 23
REMARK SMILES IDX 93 24 94 25 102 26 95 27 101 28 96 29 100 30 97 31 99 32
REMARK SMILES IDX 98 33 12 34 13 35 14 36 15 37 16 38 17 39 18 40 19 41 20 42
REMARK SMILES IDX 84 43 21 44 83 45 22 46 23 47 24 48 77 49 25 50 82 51 76 52
REMARK SMILES IDX 78 53 26 54 81 55 75 56 74 57 27 59 61 60 40 61 60 62 41 63
REMARK SMILES IDX 44 64 59 65 79 66 42 67 43 68 58 70 80 71 45 72 28 73 29 74
REMARK SMILES IDX 38 75 30 76 31 77 37 78 39 79 32 80 33 81 34 82 35 83 36 84
REMARK SMILES IDX 62 85 63 86 72 87 64 88 65 89 71 90 73 91 66 92 67 93 68 94
REMARK SMILES IDX 69 95 70 96 46 97 47 98 56 99 48 100 49 101 55 102 57 103
REMARK SMILES IDX 50 104 51 105 52 106 53 107 54 108
REMARK H PARENT 88 17 78 58 44 69
REMARK Flexibility Score: inf
ROOT
ATOM      1  C   UNL     1       3.607  -1.954  -2.719  1.00  0.00     0.188 C 
ENDROOT
BRANCH   1   2
ATOM      2  O   UNL     1       4.080  -3.300  -2.774  1.00  0.00    -0.376 OA
BRANCH   2   3
ATOM      3  C   UNL     1       3.796  -4.121  -1.646  1.00  0.00     0.202 C 
BRANCH   3   4
ATOM      4  C   UNL     1       2.366  -4.115  -1.111  1.00  0.00     0.261 C 
BRANCH   4   5
ATOM      5  O   UNL     1       2.090  -2.801  -0.594  1.00  0.00    -0.460 OA
BRANCH   5   6
ATOM      6  C   UNL     1       1.256  -2.694   0.455  1.00  0.00     0.342 C 
ATOM      7  O   UNL     1       0.847  -3.643   1.116  1.00  0.00    -0.246 OA
BRANCH   6   8
ATOM      8  C   UNL     1       0.746  -1.348   0.601  1.00  0.00     0.111 A 
ATOM      9  C   UNL     1      -2.067   0.842   0.137  1.00  0.00     0.173 C 
ATOM     10  N   UNL     1      -0.839   0.157   0.455  1.00  0.00    -0.274 N 
ATOM     11  C   UNL     1      -0.628  -1.171   0.491  1.00  0.00     0.125 A 
ATOM     12  N   UNL     1       0.260   0.862   0.679  1.00  0.00    -0.167 NA
ATOM     13  C   UNL     1       1.297  -0.017   0.748  1.00  0.00     0.165 A 
BRANCH  13  14
ATOM     14  C   UNL     1       2.620   0.674   0.898  1.00  0.00     0.277 C 
ATOM     15  O   UNL     1       2.692   1.883   0.614  1.00  0.00    -0.267 OA
ATOM     16  N   UNL     1       3.855   0.220   1.303  1.00  0.00    -0.321 N 
ATOM     17  H   UNL     1       4.494   0.968   1.350  1.00  0.00     0.170 HD
BRANCH  16  18
ATOM     18  C   UNL     1       4.477  -0.967   1.665  1.00  0.00     0.041 A 
ATOM     19  C   UNL     1       5.885  -1.005   1.637  1.00  0.00     0.027 A 
ATOM     20  C   UNL     1       3.794  -2.115   1.975  1.00  0.00     0.027 A 
ATOM     21  C   UNL     1       6.574  -2.227   1.653  1.00  0.00     0.016 A 
ATOM     22  C   UNL     1       4.459  -3.334   1.948  1.00  0.00     0.016 A 
ATOM     23  C   UNL     1       5.845  -3.410   1.718  1.00  0.00     0.037 A 
BRANCH  23  24
ATOM     24  C   UNL     1       6.384  -4.716   1.342  1.00  0.00     0.227 A 
ATOM     25  N   UNL     1       6.806  -5.063   0.134  1.00  0.00    -0.209 NA
ATOM     26  O   UNL     1       5.845  -5.755   2.064  1.00  0.00    -0.436 OA
ATOM     27  C   UNL     1       6.245  -6.304  -0.050  1.00  0.00     0.111 A 
ATOM     28  C   UNL     1       5.660  -6.727   1.131  1.00  0.00     0.155 A 
ATOM     29  C   UNL     1       6.079  -7.081  -1.205  1.00  0.00     0.053 A 
ATOM     30  C   UNL     1       4.899  -7.877   1.284  1.00  0.00     0.051 A 
ATOM     31  C   UNL     1       5.261  -8.216  -1.104  1.00  0.00     0.043 A 
ATOM     32  C   UNL     1       4.684  -8.608   0.112  1.00  0.00     0.024 A 
ATOM     33  Cl  UNL     1       4.896  -9.119  -2.526  1.00  0.00    -0.084 Cl
ENDBRANCH  23  24
ENDBRANCH  16  18
ENDBRANCH  13  14
ENDBRANCH   6   8
ENDBRANCH   5   6
ENDBRANCH   4   5
ENDBRANCH   3   4
ENDBRANCH   2   3
ENDBRANCH   1   2
BRANCH   1  34
ATOM     34  C   UNL     1       2.209  -1.824  -3.356  1.00  0.00     0.188 C 
BRANCH  34  35
ATOM     35  O   UNL     1       1.832  -3.000  -4.074  1.00  0.00    -0.376 OA
BRANCH  35  36
ATOM     36  C   UNL     1       2.129  -3.006  -5.470  1.00  0.00     0.202 C 
BRANCH  36  37
ATOM     37  C   UNL     1       3.595  -2.784  -5.885  1.00  0.00     0.261 C 
BRANCH  37  38
ATOM     38  O   UNL     1       4.123  -1.472  -5.607  1.00  0.00    -0.460 OA
BRANCH  38  39
ATOM     39  C   UNL     1       3.465  -0.412  -6.123  1.00  0.00     0.338 C 
ATOM     40  O   UNL     1       2.526  -0.435  -6.897  1.00  0.00    -0.246 OA
BRANCH  39  41
ATOM     41  C   UNL     1       3.941   0.803  -5.431  1.00  0.00     0.060 A 
ATOM     42  C   UNL     1       2.999   1.624  -4.797  1.00  0.00     0.016 A 
ATOM     43  C   UNL     1       5.293   1.152  -5.445  1.00  0.00     0.016 A 
ATOM     44  C   UNL     1       3.399   2.834  -4.232  1.00  0.00     0.010 A 
ATOM     45  C   UNL     1       5.689   2.378  -4.905  1.00  0.00     0.010 A 
ATOM     46  C   UNL     1       4.734   3.244  -4.346  1.00  0.00    -0.014 A 
BRANCH  46  47
ATOM     47  C   UNL     1       5.062   4.678  -4.158  1.00  0.00     0.031 A 
ATOM     48  C   UNL     1       4.926   5.583  -5.356  1.00  0.00     0.074 A 
ATOM     49  C   UNL     1       5.444   5.175  -2.970  1.00  0.00     0.049 A 
ATOM     50  N   UNL     1       5.147   6.867  -5.458  1.00  0.00    -0.248 NA
ATOM     51  C   UNL     1       4.474   4.949  -6.608  1.00  0.00     0.031 C 
ATOM     52  C   UNL     1       5.572   4.412  -1.730  1.00  0.00     0.029 A 
ATOM     53  N   UNL     1       5.798   6.453  -2.619  1.00  0.00    -0.354 N 
ATOM     54  C   UNL     1       4.847   7.195  -6.775  1.00  0.00     0.074 A 
ATOM     55  C   UNL     1       4.460   5.974  -7.444  1.00  0.00     0.031 C 
ATOM     56  C   UNL     1       5.995   5.237  -0.754  1.00  0.00     0.029 A 
ATOM     57  C   UNL     1       6.179   6.580  -1.305  1.00  0.00     0.049 A 
ATOM     58  H   UNL     1       5.781   7.209  -3.249  1.00  0.00     0.167 HD
ATOM     59  C   UNL     1       4.880   8.407  -7.375  1.00  0.00     0.037 A 
ATOM     60  C   UNL     1       6.632   7.657  -0.633  1.00  0.00     0.037 A 
ATOM     61  C   UNL     1       5.286   9.618  -6.720  1.00  0.00     0.049 A 
ATOM     62  C   UNL     1       6.740   8.983  -1.343  1.00  0.00     0.074 A 
ATOM     63  C   UNL     1       5.359  10.897  -7.242  1.00  0.00     0.029 A 
ATOM     64  N   UNL     1       5.700   9.697  -5.399  1.00  0.00    -0.354 N 
ATOM     65  N   UNL     1       6.426   9.286  -2.581  1.00  0.00    -0.248 NA
ATOM     66  C   UNL     1       7.264  10.116  -0.565  1.00  0.00     0.031 C 
ATOM     67  C   UNL     1       5.853  11.745  -6.244  1.00  0.00     0.029 A 
ATOM     68  C   UNL     1       6.053  10.999  -5.093  1.00  0.00     0.049 A 
ATOM     69  H   UNL     1       5.738   8.938  -4.773  1.00  0.00     0.167 HD
ATOM     70  C   UNL     1       6.692  10.644  -2.721  1.00  0.00     0.074 A 
ATOM     71  C   UNL     1       7.187  11.108  -1.442  1.00  0.00     0.031 C 
ATOM     72  C   UNL     1       6.539  11.439  -3.810  1.00  0.00     0.037 A 
BRANCH  59  73
ATOM     73  C   UNL     1       4.485   8.463  -8.820  1.00  0.00     0.058 A 
ATOM     74  C   UNL     1       3.140   8.372  -9.214  1.00  0.00     0.135 A 
ATOM     75  C   UNL     1       5.458   8.598  -9.821  1.00  0.00     0.135 A 
ATOM     76  F   UNL     1       2.175   8.214  -8.294  1.00  0.00    -0.206 F 
ATOM     77  C   UNL     1       2.776   8.390 -10.556  1.00  0.00     0.059 A 
ATOM     78  C   UNL     1       5.114   8.638 -11.169  1.00  0.00     0.059 A 
ATOM     79  F   UNL     1       6.757   8.676  -9.495  1.00  0.00    -0.206 F 
ATOM     80  C   UNL     1       3.771   8.518 -11.526  1.00  0.00     0.060 A 
BRANCH  80  81
ATOM     81  S   UNL     1       3.288   8.532 -13.265  1.00  0.00     0.124 S 
ATOM     82  O   UNL     1       3.021   7.117 -13.504  1.00  0.00    -0.237 OA
ATOM     83  O   UNL     1       2.117   9.405 -13.261  1.00  0.00    -0.237 OA
ATOM     84  O   UNL     1       4.464   9.073 -13.939  1.00  0.00    -0.744 OA
ENDBRANCH  80  81
ENDBRANCH  59  73
BRANCH  60  85
ATOM     85  C   UNL     1       7.038   7.532   0.792  1.00  0.00     0.058 A 
ATOM     86  C   UNL     1       6.273   8.103   1.819  1.00  0.00     0.135 A 
ATOM     87  C   UNL     1       8.215   6.857   1.150  1.00  0.00     0.135 A 
ATOM     88  F   UNL     1       5.148   8.772   1.524  1.00  0.00    -0.206 F 
ATOM     89  C   UNL     1       6.666   8.023   3.152  1.00  0.00     0.059 A 
ATOM     90  C   UNL     1       8.620   6.748   2.477  1.00  0.00     0.059 A 
ATOM     91  F   UNL     1       8.979   6.289   0.205  1.00  0.00    -0.206 F 
ATOM     92  C   UNL     1       7.845   7.345   3.470  1.00  0.00     0.060 A 
BRANCH  92  93
ATOM     93  S   UNL     1       8.336   7.211   5.204  1.00  0.00     0.124 S 
ATOM     94  O   UNL     1       8.896   8.534   5.453  1.00  0.00    -0.237 OA
ATOM     95  O   UNL     1       7.068   6.919   5.865  1.00  0.00    -0.237 OA
ATOM     96  O   UNL     1       9.295   6.110   5.193  1.00  0.00    -0.744 OA
ENDBRANCH  92  93
ENDBRANCH  60  85
BRANCH  72  97
ATOM     97  C   UNL     1       6.888  12.892  -3.665  1.00  0.00     0.058 A 
ATOM     98  C   UNL     1       8.221  13.327  -3.655  1.00  0.00     0.135 A 
ATOM     99  C   UNL     1       5.877  13.865  -3.611  1.00  0.00     0.135 A 
ATOM    100  F   UNL     1       9.223  12.435  -3.702  1.00  0.00    -0.206 F 
ATOM    101  C   UNL     1       8.542  14.679  -3.584  1.00  0.00     0.059 A 
ATOM    102  C   UNL     1       6.175  15.223  -3.560  1.00  0.00     0.059 A 
ATOM    103  F   UNL     1       4.585  13.499  -3.630  1.00  0.00    -0.206 F 
ATOM    104  C   UNL     1       7.511  15.620  -3.538  1.00  0.00     0.060 A 
BRANCH 104 105
ATOM    105  S   UNL     1       7.936  17.375  -3.496  1.00  0.00     0.124 S 
ATOM    106  O   UNL     1       8.309  17.552  -2.096  1.00  0.00    -0.237 OA
ATOM    107  O   UNL     1       9.030  17.459  -4.459  1.00  0.00    -0.237 OA
ATOM    108  O   UNL     1       6.699  18.032  -3.905  1.00  0.00    -0.744 OA
ENDBRANCH 104 105
ENDBRANCH  72  97
ENDBRANCH  46  47
ENDBRANCH  39  41
ENDBRANCH  38  39
ENDBRANCH  37  38
ENDBRANCH  36  37
ENDBRANCH  35  36
ENDBRANCH  34  35
ENDBRANCH   1  34
TORSDOF 23
