REMARK SMILES CC1=NN(c2ccc(Cl)c(C(=O)OCCOCCOCCOC(=O)c3ccc(-c4c5nc(c(-c6c(F)cc(S(=O)(=O)[O-])cc6F)c6ccc([nH]6)c(-c6c(F)cc(S(=O)(=O)[O-])cc6F)c6nc(c(-c7c(F)cc(S(=O)(=O)[O-])cc7F)c7ccc4[nH]7)C=C6)C=C5)cc3)c2)C(=O)/C1=C\c1ccccc1Cl
REMARK SMILES IDX 18 1 17 2 16 3 15 4 14 5 13 6 11 7 12 8 10 9 5 10 6 11 91 12
REMARK SMILES IDX 7 13 8 14 9 15 4 16 1 17 2 18 3 19 94 20 92 21 95 22 93 23
REMARK SMILES IDX 96 24 97 25 101 26 98 27 100 28 102 29 99 30 19 31 20 32
REMARK SMILES IDX 21 33 22 34 23 35 24 36 25 37 26 38 90 39 27 40 89 41 28 42
REMARK SMILES IDX 29 43 30 44 83 45 31 46 88 47 82 48 84 49 32 50 87 51 81 52
REMARK SMILES IDX 80 53 33 55 67 56 46 57 66 58 47 59 50 60 65 61 85 62 48 63
REMARK SMILES IDX 49 64 64 66 86 67 51 68 34 69 35 70 44 71 36 72 37 73 43 74
REMARK SMILES IDX 45 75 38 76 39 77 40 78 41 79 42 80 68 81 69 82 78 83 70 84
REMARK SMILES IDX 71 85 77 86 79 87 72 88 73 89 74 90 75 91 76 92 52 93 53 94
REMARK SMILES IDX 62 95 54 96 55 97 61 98 63 99 56 100 57 101 58 102 59 103
REMARK SMILES IDX 60 104
REMARK H PARENT 84 54 50 65
REMARK Flexibility Score: inf
ROOT
ATOM      1  C   UNL     1      -0.020   7.040   1.210  1.00  0.00     0.188 C 
ENDROOT
BRANCH   1   2
ATOM      2  C   UNL     1      -0.283   6.575   2.659  1.00  0.00     0.188 C 
BRANCH   2   3
ATOM      3  O   UNL     1      -0.049   7.456   3.744  1.00  0.00    -0.376 OA
BRANCH   3   4
ATOM      4  C   UNL     1       1.255   7.983   3.950  1.00  0.00     0.202 C 
BRANCH   4   5
ATOM      5  C   UNL     1       2.474   7.066   3.858  1.00  0.00     0.261 C 
BRANCH   5   6
ATOM      6  O   UNL     1       2.560   6.412   2.586  1.00  0.00    -0.460 OA
BRANCH   6   7
ATOM      7  C   UNL     1       2.808   5.082   2.631  1.00  0.00     0.339 C 
ATOM      8  O   UNL     1       3.037   4.413   3.624  1.00  0.00    -0.246 OA
BRANCH   7   9
ATOM      9  C   UNL     1       2.586   4.484   1.303  1.00  0.00     0.080 A 
ATOM     10  C   UNL     1       1.527   2.711   0.035  1.00  0.00     0.070 A 
ATOM     11  C   UNL     1       2.260   3.099  -1.091  1.00  0.00     0.030 A 
ATOM     12  C   UNL     1       1.669   3.419   1.229  1.00  0.00     0.045 A 
ATOM     13  C   UNL     1       3.111   4.204  -1.037  1.00  0.00     0.023 A 
ATOM     14  C   UNL     1       3.294   4.890   0.166  1.00  0.00     0.055 A 
ATOM     15  Cl  UNL     1       4.447   6.175   0.180  1.00  0.00    -0.083 Cl
BRANCH  10  16
ATOM     16  N   UNL     1       0.791   1.520   0.005  1.00  0.00    -0.196 N 
ATOM     17  C   UNL     1      -2.341  -0.229   0.332  1.00  0.00     0.069 C 
ATOM     18  C   UNL     1      -0.935   0.257   0.201  1.00  0.00     0.071 C 
ATOM     19  N   UNL     1      -0.559   1.509   0.330  1.00  0.00    -0.169 NA
ATOM     20  C   UNL     1       0.205  -0.634  -0.092  1.00  0.00     0.065 C 
ATOM     21  C   UNL     1       1.331   0.286  -0.359  1.00  0.00     0.280 C 
ATOM     22  C   UNL     1       0.256  -1.966   0.054  1.00  0.00     0.025 C 
ATOM     23  O   UNL     1       2.442   0.009  -0.775  1.00  0.00    -0.267 OA
BRANCH  22  24
ATOM     24  C   UNL     1       1.543  -2.683   0.086  1.00  0.00    -0.006 A 
ATOM     25  C   UNL     1       1.936  -3.433  -1.028  1.00  0.00     0.009 A 
ATOM     26  C   UNL     1       2.428  -2.575   1.180  1.00  0.00     0.048 A 
ATOM     27  C   UNL     1       3.197  -4.037  -1.063  1.00  0.00     0.001 A 
ATOM     28  C   UNL     1       3.688  -3.175   1.137  1.00  0.00     0.021 A 
ATOM     29  Cl  UNL     1       2.015  -1.688   2.610  1.00  0.00    -0.084 Cl
ATOM     30  C   UNL     1       4.075  -3.900   0.012  1.00  0.00     0.002 A 
ENDBRANCH  22  24
ENDBRANCH  10  16
ENDBRANCH   7   9
ENDBRANCH   6   7
ENDBRANCH   5   6
ENDBRANCH   4   5
ENDBRANCH   3   4
ENDBRANCH   2   3
ENDBRANCH   1   2
BRANCH   1  31
ATOM     31  O   UNL     1       0.434   8.347   0.925  1.00  0.00    -0.376 OA
BRANCH  31  32
ATOM     32  C   UNL     1      -0.330   9.476   1.308  1.00  0.00     0.202 C 
BRANCH  32  33
ATOM     33  C   UNL     1      -1.861   9.524   1.230  1.00  0.00     0.261 C 
BRANCH  33  34
ATOM     34  O   UNL     1      -2.549   8.334   1.620  1.00  0.00    -0.460 OA
BRANCH  34  35
ATOM     35  C   UNL     1      -3.186   7.691   0.609  1.00  0.00     0.338 C 
ATOM     36  O   UNL     1      -3.220   8.011  -0.566  1.00  0.00    -0.246 OA
BRANCH  35  37
ATOM     37  C   UNL     1      -3.716   6.412   1.109  1.00  0.00     0.060 A 
ATOM     38  C   UNL     1      -3.226   5.224   0.551  1.00  0.00     0.016 A 
ATOM     39  C   UNL     1      -4.723   6.387   2.075  1.00  0.00     0.016 A 
ATOM     40  C   UNL     1      -3.767   4.001   0.938  1.00  0.00     0.010 A 
ATOM     41  C   UNL     1      -5.279   5.160   2.444  1.00  0.00     0.010 A 
ATOM     42  C   UNL     1      -4.826   3.966   1.853  1.00  0.00    -0.014 A 
BRANCH  42  43
ATOM     43  C   UNL     1      -5.585   2.709   2.055  1.00  0.00     0.031 A 
ATOM     44  C   UNL     1      -6.860   2.512   1.281  1.00  0.00     0.074 A 
ATOM     45  C   UNL     1      -5.148   1.760   2.901  1.00  0.00     0.049 A 
ATOM     46  N   UNL     1      -7.726   1.534   1.345  1.00  0.00    -0.248 NA
ATOM     47  C   UNL     1      -7.203   3.559   0.304  1.00  0.00     0.031 C 
ATOM     48  C   UNL     1      -3.909   1.818   3.674  1.00  0.00     0.029 A 
ATOM     49  N   UNL     1      -5.716   0.564   3.263  1.00  0.00    -0.354 N 
ATOM     50  C   UNL     1      -8.716   1.848   0.421  1.00  0.00     0.074 A 
ATOM     51  C   UNL     1      -8.360   3.119  -0.170  1.00  0.00     0.031 C 
ATOM     52  C   UNL     1      -3.822   0.717   4.441  1.00  0.00     0.029 A 
ATOM     53  C   UNL     1      -5.013  -0.107   4.235  1.00  0.00     0.049 A 
ATOM     54  H   UNL     1      -6.547   0.219   2.865  1.00  0.00     0.167 HD
ATOM     55  C   UNL     1      -9.819   1.137   0.089  1.00  0.00     0.037 A 
ATOM     56  C   UNL     1      -5.314  -1.240   4.901  1.00  0.00     0.037 A 
ATOM     57  C   UNL     1     -10.176  -0.123   0.686  1.00  0.00     0.049 A 
ATOM     58  C   UNL     1      -6.592  -1.973   4.573  1.00  0.00     0.074 A 
ATOM     59  C   UNL     1     -11.270  -0.925   0.414  1.00  0.00     0.029 A 
ATOM     60  N   UNL     1      -9.450  -0.761   1.681  1.00  0.00    -0.354 N 
ATOM     61  N   UNL     1      -7.508  -1.679   3.681  1.00  0.00    -0.248 NA
ATOM     62  C   UNL     1      -6.874  -3.195   5.341  1.00  0.00     0.031 C 
ATOM     63  C   UNL     1     -11.228  -2.027   1.274  1.00  0.00     0.029 A 
ATOM     64  C   UNL     1     -10.080  -1.938   2.045  1.00  0.00     0.049 A 
ATOM     65  H   UNL     1      -8.610  -0.426   2.070  1.00  0.00     0.167 HD
ATOM     66  C   UNL     1      -8.456  -2.697   3.758  1.00  0.00     0.074 A 
ATOM     67  C   UNL     1      -7.998  -3.617   4.777  1.00  0.00     0.031 C 
ATOM     68  C   UNL     1      -9.599  -2.857   3.046  1.00  0.00     0.037 A 
BRANCH  55  69
ATOM     69  C   UNL     1     -10.729   1.713  -0.958  1.00  0.00     0.058 A 
ATOM     70  C   UNL     1     -10.366   1.736  -2.314  1.00  0.00     0.135 A 
ATOM     71  C   UNL     1     -11.995   2.210  -0.609  1.00  0.00     0.135 A 
ATOM     72  F   UNL     1      -9.159   1.292  -2.699  1.00  0.00    -0.206 F 
ATOM     73  C   UNL     1     -11.219   2.249  -3.285  1.00  0.00     0.059 A 
ATOM     74  C   UNL     1     -12.874   2.705  -1.567  1.00  0.00     0.059 A 
ATOM     75  F   UNL     1     -12.388   2.215   0.674  1.00  0.00    -0.206 F 
ATOM     76  C   UNL     1     -12.473   2.730  -2.902  1.00  0.00     0.060 A 
BRANCH  76  77
ATOM     77  S   UNL     1     -13.575   3.374  -4.178  1.00  0.00     0.124 S 
ATOM     78  O   UNL     1     -12.930   4.641  -4.507  1.00  0.00    -0.237 OA
ATOM     79  O   UNL     1     -13.502   2.340  -5.205  1.00  0.00    -0.237 OA
ATOM     80  O   UNL     1     -14.860   3.484  -3.494  1.00  0.00    -0.744 OA
ENDBRANCH  76  77
ENDBRANCH  55  69
BRANCH  56  81
ATOM     81  C   UNL     1      -4.404  -1.754   5.959  1.00  0.00     0.058 A 
ATOM     82  C   UNL     1      -3.683  -2.943   5.777  1.00  0.00     0.135 A 
ATOM     83  C   UNL     1      -4.263  -1.084   7.184  1.00  0.00     0.135 A 
ATOM     84  F   UNL     1      -3.792  -3.623   4.626  1.00  0.00    -0.206 F 
ATOM     85  C   UNL     1      -2.876  -3.466   6.782  1.00  0.00     0.059 A 
ATOM     86  C   UNL     1      -3.441  -1.573   8.195  1.00  0.00     0.059 A 
ATOM     87  F   UNL     1      -4.924   0.063   7.404  1.00  0.00    -0.206 F 
ATOM     88  C   UNL     1      -2.764  -2.775   7.990  1.00  0.00     0.060 A 
BRANCH  88  89
ATOM     89  S   UNL     1      -1.703  -3.456   9.283  1.00  0.00     0.124 S 
ATOM     90  O   UNL     1      -2.511  -4.569   9.767  1.00  0.00    -0.237 OA
ATOM     91  O   UNL     1      -0.502  -3.815   8.537  1.00  0.00    -0.237 OA
ATOM     92  O   UNL     1      -1.547  -2.339  10.210  1.00  0.00    -0.744 OA
ENDBRANCH  88  89
ENDBRANCH  56  81
BRANCH  68  93
ATOM     93  C   UNL     1     -10.411  -4.098   3.298  1.00  0.00     0.058 A 
ATOM     94  C   UNL     1     -11.173  -4.263   4.465  1.00  0.00     0.135 A 
ATOM     95  C   UNL     1     -10.474  -5.110   2.326  1.00  0.00     0.135 A 
ATOM     96  F   UNL     1     -11.145  -3.327   5.428  1.00  0.00    -0.206 F 
ATOM     97  C   UNL     1     -11.952  -5.398   4.670  1.00  0.00     0.059 A 
ATOM     98  C   UNL     1     -11.267  -6.240   2.497  1.00  0.00     0.059 A 
ATOM     99  F   UNL     1      -9.774  -4.997   1.186  1.00  0.00    -0.206 F 
ATOM    100  C   UNL     1     -11.994  -6.381   3.678  1.00  0.00     0.060 A 
BRANCH 100 101
ATOM    101  S   UNL     1     -13.036  -7.832   3.939  1.00  0.00     0.124 S 
ATOM    102  O   UNL     1     -12.254  -8.584   4.915  1.00  0.00    -0.237 OA
ATOM    103  O   UNL     1     -14.275  -7.243   4.436  1.00  0.00    -0.237 OA
ATOM    104  O   UNL     1     -13.123  -8.430   2.610  1.00  0.00    -0.744 OA
ENDBRANCH 100 101
ENDBRANCH  68  93
ENDBRANCH  42  43
ENDBRANCH  35  37
ENDBRANCH  34  35
ENDBRANCH  33  34
ENDBRANCH  32  33
ENDBRANCH  31  32
ENDBRANCH   1  31
TORSDOF 22
