REMARK SMILES C[C@H](CNC(=O)c1ccc(Br)nc1)C(=O)OCCOCCOCCOC(=O)c1ccc(-c2c3nc(c(-c4c(F)cc(S(=O)(=O)[O-])cc4F)c4ccc([nH]4)c(-c4c(F)cc(S(=O)(=O)[O-])cc4F)c4nc(c(-c5c(F)cc(S(=O)(=O)[O-])cc5F)c5ccc2[nH]5)C=C4)C=C3)cc1
REMARK SMILES IDX 20 1 19 2 18 3 17 4 16 5 14 6 15 7 2 8 1 9 3 10 4 11 5 12
REMARK SMILES IDX 6 14 7 15 8 16 13 17 9 18 12 19 10 20 11 21 21 22 22 23
REMARK SMILES IDX 23 24 24 25 25 26 26 27 27 28 28 29 29 30 93 31 30 32 92 33
REMARK SMILES IDX 31 34 32 35 33 36 86 37 34 38 91 39 85 40 87 41 35 42 90 43
REMARK SMILES IDX 84 44 83 45 36 47 70 48 49 49 69 50 50 51 53 52 68 53 88 54
REMARK SMILES IDX 51 55 52 56 67 58 89 59 54 60 37 61 38 62 47 63 39 64 40 65
REMARK SMILES IDX 46 66 48 67 41 68 42 69 43 70 44 71 45 72 71 73 72 74 81 75
REMARK SMILES IDX 73 76 74 77 80 78 82 79 75 80 76 81 77 82 78 83 79 84 55 85
REMARK SMILES IDX 56 86 65 87 57 88 58 89 64 90 66 91 59 92 60 93 61 94 62 95
REMARK SMILES IDX 63 96
REMARK H PARENT 4 13 87 46 53 57
REMARK Flexibility Score: inf
ROOT
ATOM      1  C   UNL     1      -2.279   0.385   2.091  1.00  0.00     0.188 C 
ENDROOT
BRANCH   1   2
ATOM      2  O   UNL     1      -3.617   0.800   1.838  1.00  0.00    -0.376 OA
BRANCH   2   3
ATOM      3  C   UNL     1      -3.967   1.071   0.480  1.00  0.00     0.202 C 
BRANCH   3   4
ATOM      4  C   UNL     1      -3.074   2.061  -0.293  1.00  0.00     0.261 C 
BRANCH   4   5
ATOM      5  O   UNL     1      -1.677   1.680  -0.371  1.00  0.00    -0.463 OA
BRANCH   5   6
ATOM      6  C   UNL     1      -0.785   2.623   0.035  1.00  0.00     0.310 C 
ATOM      7  O   UNL     1      -1.103   3.771   0.332  1.00  0.00    -0.252 OA
BRANCH   6   8
ATOM      8  C   UNL     1       0.637   2.100   0.257  1.00  0.00     0.115 C 
ATOM      9  C   UNL     1       1.639   3.203  -0.090  1.00  0.00     0.022 C 
BRANCH   8  10
ATOM     10  C   UNL     1       1.025   0.732  -0.332  1.00  0.00     0.131 C 
BRANCH  10  11
ATOM     11  N   UNL     1       1.621   0.757  -1.661  1.00  0.00    -0.351 N 
ATOM     12  C   UNL     1       2.864   0.367  -2.098  1.00  0.00     0.252 C 
ATOM     13  H   UNL     1       1.033   1.113  -2.366  1.00  0.00     0.163 HD
ATOM     14  O   UNL     1       3.179   0.566  -3.269  1.00  0.00    -0.269 OA
BRANCH  12  15
ATOM     15  C   UNL     1       3.854  -0.266  -1.205  1.00  0.00     0.058 A 
ATOM     16  C   UNL     1       3.590  -1.391  -0.423  1.00  0.00     0.018 A 
ATOM     17  C   UNL     1       5.161   0.206  -1.239  1.00  0.00     0.126 A 
ATOM     18  C   UNL     1       4.625  -1.959   0.327  1.00  0.00     0.037 A 
ATOM     19  N   UNL     1       6.182  -0.323  -0.519  1.00  0.00    -0.249 NA
ATOM     20  C   UNL     1       5.892  -1.393   0.252  1.00  0.00     0.106 A 
ATOM     21  Br  UNL     1       7.307  -2.163   1.253  1.00  0.00    -0.029 Br
ENDBRANCH  12  15
ENDBRANCH  10  11
ENDBRANCH   8  10
ENDBRANCH   6   8
ENDBRANCH   5   6
ENDBRANCH   4   5
ENDBRANCH   3   4
ENDBRANCH   2   3
ENDBRANCH   1   2
BRANCH   1  22
ATOM     22  C   UNL     1      -1.837  -0.900   1.383  1.00  0.00     0.188 C 
BRANCH  22  23
ATOM     23  O   UNL     1      -2.324  -1.036   0.062  1.00  0.00    -0.376 OA
BRANCH  23  24
ATOM     24  C   UNL     1      -2.552  -2.340  -0.467  1.00  0.00     0.202 C 
BRANCH  24  25
ATOM     25  C   UNL     1      -3.363  -3.371   0.355  1.00  0.00     0.261 C 
BRANCH  25  26
ATOM     26  O   UNL     1      -2.915  -3.666   1.693  1.00  0.00    -0.460 OA
BRANCH  26  27
ATOM     27  C   UNL     1      -1.613  -4.016   1.859  1.00  0.00     0.338 C 
ATOM     28  O   UNL     1      -0.832  -4.310   0.981  1.00  0.00    -0.246 OA
BRANCH  27  29
ATOM     29  C   UNL     1      -1.219  -3.673   3.259  1.00  0.00     0.060 A 
ATOM     30  C   UNL     1      -0.010  -2.984   3.445  1.00  0.00     0.016 A 
ATOM     31  C   UNL     1      -2.044  -3.928   4.359  1.00  0.00     0.016 A 
ATOM     32  C   UNL     1       0.397  -2.592   4.724  1.00  0.00     0.010 A 
ATOM     33  C   UNL     1      -1.626  -3.552   5.644  1.00  0.00     0.010 A 
ATOM     34  C   UNL     1      -0.387  -2.913   5.840  1.00  0.00    -0.014 A 
BRANCH  34  35
ATOM     35  C   UNL     1       0.180  -2.784   7.210  1.00  0.00     0.031 A 
ATOM     36  C   UNL     1       0.743  -4.023   7.860  1.00  0.00     0.074 A 
ATOM     37  C   UNL     1       0.220  -1.611   7.869  1.00  0.00     0.049 A 
ATOM     38  N   UNL     1       1.227  -4.188   9.064  1.00  0.00    -0.248 NA
ATOM     39  C   UNL     1       0.758  -5.242   7.035  1.00  0.00     0.031 C 
ATOM     40  C   UNL     1      -0.243  -0.327   7.346  1.00  0.00     0.029 A 
ATOM     41  N   UNL     1       0.665  -1.314   9.137  1.00  0.00    -0.354 N 
ATOM     42  C   UNL     1       1.588  -5.528   9.146  1.00  0.00     0.074 A 
ATOM     43  C   UNL     1       1.244  -6.137   7.880  1.00  0.00     0.031 C 
ATOM     44  C   UNL     1      -0.075   0.616   8.291  1.00  0.00     0.029 A 
ATOM     45  C   UNL     1       0.473  -0.001   9.500  1.00  0.00     0.049 A 
ATOM     46  H   UNL     1       1.082  -1.980   9.729  1.00  0.00     0.167 HD
ATOM     47  C   UNL     1       2.159  -6.192  10.178  1.00  0.00     0.037 A 
ATOM     48  C   UNL     1       0.686   0.624  10.678  1.00  0.00     0.037 A 
ATOM     49  C   UNL     1       2.502  -5.587  11.438  1.00  0.00     0.049 A 
ATOM     50  C   UNL     1       1.255  -0.153  11.842  1.00  0.00     0.074 A 
ATOM     51  C   UNL     1       3.102  -6.176  12.538  1.00  0.00     0.029 A 
ATOM     52  N   UNL     1       2.266  -4.263  11.774  1.00  0.00    -0.354 N 
ATOM     53  N   UNL     1       1.611  -1.415  11.899  1.00  0.00    -0.248 NA
ATOM     54  C   UNL     1       1.454   0.580  13.102  1.00  0.00     0.031 C 
ATOM     55  C   UNL     1       3.172  -5.224  13.560  1.00  0.00     0.029 A 
ATOM     56  C   UNL     1       2.681  -4.023  13.074  1.00  0.00     0.049 A 
ATOM     57  H   UNL     1       1.863  -3.591  11.177  1.00  0.00     0.167 HD
ATOM     58  C   UNL     1       2.103  -1.616  13.187  1.00  0.00     0.074 A 
ATOM     59  C   UNL     1       2.009  -0.345  13.873  1.00  0.00     0.031 C 
ATOM     60  C   UNL     1       2.593  -2.751  13.748  1.00  0.00     0.037 A 
BRANCH  47  61
ATOM     61  C   UNL     1       2.418  -7.664  10.002  1.00  0.00     0.058 A 
ATOM     62  C   UNL     1       3.411  -8.146   9.133  1.00  0.00     0.135 A 
ATOM     63  C   UNL     1       1.682  -8.605  10.740  1.00  0.00     0.135 A 
ATOM     64  F   UNL     1       4.129  -7.293   8.386  1.00  0.00    -0.206 F 
ATOM     65  C   UNL     1       3.646  -9.509   8.984  1.00  0.00     0.059 A 
ATOM     66  C   UNL     1       1.922  -9.971  10.630  1.00  0.00     0.059 A 
ATOM     67  F   UNL     1       0.718  -8.200  11.581  1.00  0.00    -0.206 F 
ATOM     68  C   UNL     1       2.897 -10.414   9.739  1.00  0.00     0.060 A 
BRANCH  68  69
ATOM     69  S   UNL     1       3.220 -12.178   9.537  1.00  0.00     0.124 S 
ATOM     70  O   UNL     1       2.683 -12.420   8.201  1.00  0.00    -0.237 OA
ATOM     71  O   UNL     1       4.673 -12.243   9.657  1.00  0.00    -0.237 OA
ATOM     72  O   UNL     1       2.474 -12.789  10.632  1.00  0.00    -0.744 OA
ENDBRANCH  68  69
ENDBRANCH  47  61
BRANCH  48  73
ATOM     73  C   UNL     1       0.341   2.066  10.832  1.00  0.00     0.058 A 
ATOM     74  C   UNL     1       1.336   3.038  11.019  1.00  0.00     0.135 A 
ATOM     75  C   UNL     1      -0.994   2.499  10.810  1.00  0.00     0.135 A 
ATOM     76  F   UNL     1       2.627   2.675  11.069  1.00  0.00    -0.206 F 
ATOM     77  C   UNL     1       1.021   4.383  11.187  1.00  0.00     0.059 A 
ATOM     78  C   UNL     1      -1.333   3.842  10.947  1.00  0.00     0.059 A 
ATOM     79  F   UNL     1      -1.986   1.612  10.634  1.00  0.00    -0.206 F 
ATOM     80  C   UNL     1      -0.318   4.777  11.143  1.00  0.00     0.060 A 
BRANCH  80  81
ATOM     81  S   UNL     1      -0.710   6.533  11.302  1.00  0.00     0.124 S 
ATOM     82  O   UNL     1      -0.416   6.775  12.709  1.00  0.00    -0.237 OA
ATOM     83  O   UNL     1       0.209   7.137  10.343  1.00  0.00    -0.237 OA
ATOM     84  O   UNL     1      -2.121   6.596  10.932  1.00  0.00    -0.744 OA
ENDBRANCH  80  81
ENDBRANCH  48  73
BRANCH  60  85
ATOM     85  C   UNL     1       3.112  -2.672  15.161  1.00  0.00     0.058 A 
ATOM     86  C   UNL     1       2.256  -2.517  16.262  1.00  0.00     0.135 A 
ATOM     87  C   UNL     1       4.486  -2.821  15.420  1.00  0.00     0.135 A 
ATOM     88  F   UNL     1       0.935  -2.367  16.076  1.00  0.00    -0.206 F 
ATOM     89  C   UNL     1       2.745  -2.486  17.566  1.00  0.00     0.059 A 
ATOM     90  C   UNL     1       4.993  -2.826  16.716  1.00  0.00     0.059 A 
ATOM     91  F   UNL     1       5.351  -2.987  14.406  1.00  0.00    -0.206 F 
ATOM     92  C   UNL     1       4.115  -2.645  17.783  1.00  0.00     0.060 A 
BRANCH  92  93
ATOM     93  S   UNL     1       4.730  -2.637  19.481  1.00  0.00     0.124 S 
ATOM     94  O   UNL     1       4.584  -1.231  19.841  1.00  0.00    -0.237 OA
ATOM     95  O   UNL     1       3.816  -3.560  20.147  1.00  0.00    -0.237 OA
ATOM     96  O   UNL     1       6.104  -3.112  19.348  1.00  0.00    -0.744 OA
ENDBRANCH  92  93
ENDBRANCH  60  85
ENDBRANCH  34  35
ENDBRANCH  27  29
ENDBRANCH  26  27
ENDBRANCH  25  26
ENDBRANCH  24  25
ENDBRANCH  23  24
ENDBRANCH  22  23
ENDBRANCH   1  22
TORSDOF 23
