REMARK SMILES COc1ccc(C(=O)/C=C(\Nc2cccc(C(F)(F)F)c2)C(=O)OCCOCCOCCOC(=O)c2ccc(-c3c4nc(c(-c5c(F)cc(S(=O)(=O)[O-])cc5F)c5ccc([nH]5)c(-c5c(F)cc(S(=O)(=O)[O-])cc5F)c5nc(c(-c6c(F)cc(S(=O)(=O)[O-])cc6F)c6ccc3[nH]6)C=C5)C=C4)cc2)cc1
REMARK SMILES IDX 28 1 27 2 26 3 25 4 24 5 22 6 23 7 10 8 9 9 7 10 8 11 6 12
REMARK SMILES IDX 3 13 4 14 103 15 5 16 102 17 2 18 1 19 11 20 12 22 13 23
REMARK SMILES IDX 21 24 14 25 16 26 15 27 17 28 18 29 19 30 20 31 29 32 30 33
REMARK SMILES IDX 31 34 32 35 33 36 34 37 35 38 36 39 37 40 101 41 38 42
REMARK SMILES IDX 100 43 39 44 40 45 41 46 94 47 42 48 99 49 93 50 95 51 43 52
REMARK SMILES IDX 98 53 92 54 91 55 44 57 78 58 57 59 77 60 58 61 61 62 76 63
REMARK SMILES IDX 96 64 59 65 60 66 75 68 97 69 62 70 45 71 46 72 55 73 47 74
REMARK SMILES IDX 48 75 54 76 56 77 49 78 50 79 51 80 52 81 53 82 79 83 80 84
REMARK SMILES IDX 89 85 81 86 82 87 88 88 90 89 83 90 84 91 85 92 86 93 87 94
REMARK SMILES IDX 63 95 64 96 73 97 65 98 66 99 72 100 74 101 67 102 68 103
REMARK SMILES IDX 69 104 70 105 71 106
REMARK H PARENT 11 21 95 56 61 67
REMARK Flexibility Score: inf
ROOT
ATOM      1  C   UNL     1       6.816   7.587  -1.351  1.00  0.00     0.188 C 
ENDROOT
BRANCH   1   2
ATOM      2  O   UNL     1       8.041   7.766  -0.660  1.00  0.00    -0.376 OA
BRANCH   2   3
ATOM      3  C   UNL     1       8.352   6.884   0.414  1.00  0.00     0.202 C 
BRANCH   3   4
ATOM      4  C   UNL     1       7.281   6.677   1.479  1.00  0.00     0.261 C 
BRANCH   4   5
ATOM      5  O   UNL     1       6.185   5.930   0.927  1.00  0.00    -0.459 OA
BRANCH   5   6
ATOM      6  C   UNL     1       4.949   6.274   1.361  1.00  0.00     0.354 C 
ATOM      7  O   UNL     1       4.693   7.135   2.190  1.00  0.00    -0.244 OA
BRANCH   6   8
ATOM      8  C   UNL     1       3.897   5.506   0.605  1.00  0.00     0.129 C 
ATOM      9  C   UNL     1       3.105   6.353  -0.089  1.00  0.00     0.086 C 
BRANCH   9  10
ATOM     10  C   UNL     1       1.961   6.139  -1.025  1.00  0.00     0.188 C 
ATOM     11  O   UNL     1       1.451   7.098  -1.594  1.00  0.00    -0.289 OA
BRANCH  10  12
ATOM     12  C   UNL     1       1.390   4.804  -1.246  1.00  0.00     0.022 A 
ATOM     13  C   UNL     1       0.393   2.222  -1.312  1.00  0.00     0.118 A 
ATOM     14  C   UNL     1      -0.416   3.255  -0.842  1.00  0.00     0.047 A 
ATOM     15  C   UNL     1       1.639   2.492  -1.877  1.00  0.00     0.047 A 
ATOM     16  C   UNL     1       0.088   4.555  -0.801  1.00  0.00     0.016 A 
ATOM     17  C   UNL     1       2.134   3.796  -1.867  1.00  0.00     0.016 A 
BRANCH  13  18
ATOM     18  O   UNL     1      -0.073   0.937  -1.236  1.00  0.00    -0.497 OA
ATOM     19  C   UNL     1       0.599   0.238  -0.183  1.00  0.00     0.278 C 
ENDBRANCH  13  18
ENDBRANCH  10  12
ENDBRANCH   9  10
BRANCH   8  20
ATOM     20  N   UNL     1       3.842   4.122   0.669  1.00  0.00    -0.349 N 
ATOM     21  H   UNL     1       2.942   3.728   0.608  1.00  0.00     0.167 HD
BRANCH  20  22
ATOM     22  C   UNL     1       4.899   3.206   0.810  1.00  0.00     0.039 A 
ATOM     23  C   UNL     1       5.138   2.288  -0.224  1.00  0.00     0.026 A 
ATOM     24  C   UNL     1       5.764   3.205   1.906  1.00  0.00     0.039 A 
ATOM     25  C   UNL     1       6.203   1.389  -0.168  1.00  0.00     0.003 A 
ATOM     26  C   UNL     1       6.857   2.322   1.969  1.00  0.00     0.058 A 
ATOM     27  C   UNL     1       7.059   1.403   0.928  1.00  0.00     0.013 A 
BRANCH  26  28
ATOM     28  C   UNL     1       7.796   2.345   3.145  1.00  0.00     0.416 C 
ATOM     29  F   UNL     1       7.510   1.373   4.055  1.00  0.00    -0.166 F 
ATOM     30  F   UNL     1       9.097   2.144   2.786  1.00  0.00    -0.166 F 
ATOM     31  F   UNL     1       7.782   3.521   3.831  1.00  0.00    -0.166 F 
ENDBRANCH  26  28
ENDBRANCH  20  22
ENDBRANCH   8  20
ENDBRANCH   6   8
ENDBRANCH   5   6
ENDBRANCH   4   5
ENDBRANCH   3   4
ENDBRANCH   2   3
ENDBRANCH   1   2
BRANCH   1  32
ATOM     32  C   UNL     1       6.540   6.255  -2.083  1.00  0.00     0.188 C 
BRANCH  32  33
ATOM     33  O   UNL     1       7.543   5.268  -2.243  1.00  0.00    -0.376 OA
BRANCH  33  34
ATOM     34  C   UNL     1       8.825   5.620  -2.739  1.00  0.00     0.202 C 
BRANCH  34  35
ATOM     35  C   UNL     1       8.975   6.417  -4.037  1.00  0.00     0.261 C 
BRANCH  35  36
ATOM     36  O   UNL     1       8.182   7.607  -4.101  1.00  0.00    -0.460 OA
BRANCH  36  37
ATOM     37  C   UNL     1       7.193   7.585  -5.030  1.00  0.00     0.338 C 
ATOM     38  O   UNL     1       6.921   6.678  -5.796  1.00  0.00    -0.246 OA
BRANCH  37  39
ATOM     39  C   UNL     1       6.347   8.779  -4.859  1.00  0.00     0.060 A 
ATOM     40  C   UNL     1       4.977   8.591  -4.634  1.00  0.00     0.016 A 
ATOM     41  C   UNL     1       6.887  10.064  -4.945  1.00  0.00     0.016 A 
ATOM     42  C   UNL     1       4.133   9.694  -4.519  1.00  0.00     0.010 A 
ATOM     43  C   UNL     1       6.036  11.167  -4.852  1.00  0.00     0.010 A 
ATOM     44  C   UNL     1       4.654  10.986  -4.666  1.00  0.00    -0.014 A 
BRANCH  44  45
ATOM     45  C   UNL     1       3.735  12.140  -4.793  1.00  0.00     0.031 A 
ATOM     46  C   UNL     1       3.348  12.602  -6.170  1.00  0.00     0.074 A 
ATOM     47  C   UNL     1       3.253  12.765  -3.706  1.00  0.00     0.049 A 
ATOM     48  N   UNL     1       2.595  13.609  -6.527  1.00  0.00    -0.248 NA
ATOM     49  C   UNL     1       3.889  11.822  -7.296  1.00  0.00     0.031 C 
ATOM     50  C   UNL     1       3.527  12.386  -2.321  1.00  0.00     0.029 A 
ATOM     51  N   UNL     1       2.434  13.861  -3.601  1.00  0.00    -0.354 N 
ATOM     52  C   UNL     1       2.572  13.587  -7.916  1.00  0.00     0.074 A 
ATOM     53  C   UNL     1       3.410  12.486  -8.338  1.00  0.00     0.031 C 
ATOM     54  C   UNL     1       2.895  13.245  -1.503  1.00  0.00     0.029 A 
ATOM     55  C   UNL     1       2.196  14.248  -2.305  1.00  0.00     0.049 A 
ATOM     56  H   UNL     1       2.054  14.326  -4.381  1.00  0.00     0.167 HD
ATOM     57  C   UNL     1       1.906  14.407  -8.763  1.00  0.00     0.037 A 
ATOM     58  C   UNL     1       1.508  15.303  -1.825  1.00  0.00     0.037 A 
ATOM     59  C   UNL     1       1.084  15.509  -8.339  1.00  0.00     0.049 A 
ATOM     60  C   UNL     1       0.837  16.249  -2.788  1.00  0.00     0.074 A 
ATOM     61  C   UNL     1       0.351  16.387  -9.118  1.00  0.00     0.029 A 
ATOM     62  N   UNL     1       0.897  15.894  -7.019  1.00  0.00    -0.354 N 
ATOM     63  N   UNL     1       0.796  16.202  -4.099  1.00  0.00    -0.248 NA
ATOM     64  C   UNL     1       0.120  17.392  -2.206  1.00  0.00     0.031 C 
ATOM     65  C   UNL     1      -0.239  17.333  -8.272  1.00  0.00     0.029 A 
ATOM     66  C   UNL     1       0.086  17.015  -6.962  1.00  0.00     0.049 A 
ATOM     67  H   UNL     1       1.284  15.437  -6.238  1.00  0.00     0.167 HD
ATOM     68  C   UNL     1       0.030  17.294  -4.497  1.00  0.00     0.074 A 
ATOM     69  C   UNL     1      -0.378  17.979  -3.287  1.00  0.00     0.031 C 
ATOM     70  C   UNL     1      -0.310  17.689  -5.749  1.00  0.00     0.037 A 
BRANCH  57  71
ATOM     71  C   UNL     1       2.076  14.155 -10.235  1.00  0.00     0.058 A 
ATOM     72  C   UNL     1       1.501  13.040 -10.866  1.00  0.00     0.135 A 
ATOM     73  C   UNL     1       2.834  15.036 -11.023  1.00  0.00     0.135 A 
ATOM     74  F   UNL     1       0.783  12.157 -10.155  1.00  0.00    -0.206 F 
ATOM     75  C   UNL     1       1.704  12.786 -12.218  1.00  0.00     0.059 A 
ATOM     76  C   UNL     1       3.029  14.815 -12.383  1.00  0.00     0.059 A 
ATOM     77  F   UNL     1       3.408  16.116 -10.470  1.00  0.00    -0.206 F 
ATOM     78  C   UNL     1       2.477  13.676 -12.967  1.00  0.00     0.060 A 
BRANCH  78  79
ATOM     79  S   UNL     1       2.757  13.319 -14.714  1.00  0.00     0.124 S 
ATOM     80  O   UNL     1       3.733  12.237 -14.637  1.00  0.00    -0.237 OA
ATOM     81  O   UNL     1       1.425  12.939 -15.175  1.00  0.00    -0.237 OA
ATOM     82  O   UNL     1       3.262  14.583 -15.242  1.00  0.00    -0.744 OA
ENDBRANCH  78  79
ENDBRANCH  57  71
BRANCH  58  83
ATOM     83  C   UNL     1       1.419  15.520  -0.357  1.00  0.00     0.058 A 
ATOM     84  C   UNL     1       0.217  15.309   0.333  1.00  0.00     0.135 A 
ATOM     85  C   UNL     1       2.539  15.924   0.386  1.00  0.00     0.135 A 
ATOM     86  F   UNL     1      -0.884  14.937  -0.337  1.00  0.00    -0.206 F 
ATOM     87  C   UNL     1       0.126  15.493   1.709  1.00  0.00     0.059 A 
ATOM     88  C   UNL     1       2.478  16.094   1.766  1.00  0.00     0.059 A 
ATOM     89  F   UNL     1       3.714  16.134  -0.228  1.00  0.00    -0.206 F 
ATOM     90  C   UNL     1       1.264  15.881   2.418  1.00  0.00     0.060 A 
BRANCH  90  91
ATOM     91  S   UNL     1       1.150  16.055   4.212  1.00  0.00     0.124 S 
ATOM     92  O   UNL     1       0.390  17.293   4.340  1.00  0.00    -0.237 OA
ATOM     93  O   UNL     1       0.448  14.833   4.595  1.00  0.00    -0.237 OA
ATOM     94  O   UNL     1       2.546  16.124   4.633  1.00  0.00    -0.744 OA
ENDBRANCH  90  91
ENDBRANCH  58  83
BRANCH  70  95
ATOM     95  C   UNL     1      -1.185  18.905  -5.881  1.00  0.00     0.058 A 
ATOM     96  C   UNL     1      -0.688  20.199  -5.664  1.00  0.00     0.135 A 
ATOM     97  C   UNL     1      -2.524  18.778  -6.289  1.00  0.00     0.135 A 
ATOM     98  F   UNL     1       0.583  20.377  -5.268  1.00  0.00    -0.206 F 
ATOM     99  C   UNL     1      -1.491  21.324  -5.828  1.00  0.00     0.059 A 
ATOM    100  C   UNL     1      -3.338  19.890  -6.483  1.00  0.00     0.059 A 
ATOM    101  F   UNL     1      -3.047  17.564  -6.521  1.00  0.00    -0.206 F 
ATOM    102  C   UNL     1      -2.815  21.159  -6.240  1.00  0.00     0.060 A 
BRANCH 102 103
ATOM    103  S   UNL     1      -3.837  22.628  -6.487  1.00  0.00     0.124 S 
ATOM    104  O   UNL     1      -4.127  23.019  -5.112  1.00  0.00    -0.237 OA
ATOM    105  O   UNL     1      -2.940  23.514  -7.222  1.00  0.00    -0.237 OA
ATOM    106  O   UNL     1      -4.974  22.125  -7.251  1.00  0.00    -0.744 OA
ENDBRANCH 102 103
ENDBRANCH  70  95
ENDBRANCH  44  45
ENDBRANCH  37  39
ENDBRANCH  36  37
ENDBRANCH  35  36
ENDBRANCH  34  35
ENDBRANCH  33  34
ENDBRANCH  32  33
ENDBRANCH   1  32
TORSDOF 26
