REMARK SMILES CS(=O)(=O)c1ccc(N2N=C(C(=O)OCCOCCOCCOC(=O)c3ccc(-c4c5nc(c(-c6c(F)cc(S(=O)(=O)[O-])cc6F)c6ccc([nH]6)c(-c6c(F)cc(S(=O)(=O)[O-])cc6F)c6nc(c(-c7c(F)cc(S(=O)(=O)[O-])cc7F)c7ccc4[nH]7)C=C6)C=C5)cc3)C[C@H]2c2cccs2)cc1
REMARK SMILES IDX 19 1 18 2 17 3 16 4 15 5 14 6 12 7 13 8 11 9 9 10 10 11
REMARK SMILES IDX 93 12 92 13 8 14 5 15 6 16 100 17 7 18 99 19 2 20 1 21 3 22
REMARK SMILES IDX 4 23 94 24 95 25 98 26 96 27 97 28 20 29 21 30 22 31 23 32
REMARK SMILES IDX 24 33 25 34 26 35 27 36 91 37 28 38 90 39 29 40 30 41 31 42
REMARK SMILES IDX 84 43 32 44 89 45 83 46 85 47 33 48 88 49 82 50 81 51 34 53
REMARK SMILES IDX 68 54 47 55 67 56 48 57 51 58 66 59 86 60 49 61 50 62 65 64
REMARK SMILES IDX 87 65 52 66 35 67 36 68 45 69 37 70 38 71 44 72 46 73 39 74
REMARK SMILES IDX 40 75 41 76 42 77 43 78 69 79 70 80 79 81 71 82 72 83 78 84
REMARK SMILES IDX 80 85 73 86 74 87 75 88 76 89 77 90 53 91 54 92 63 93 55 94
REMARK SMILES IDX 56 95 62 96 64 97 57 98 58 99 59 100 60 101 61 102
REMARK H PARENT 85 52 51 63
REMARK Flexibility Score: inf
ROOT
ATOM      1  C   UNL     1       3.528   4.591  -9.815  1.00  0.00     0.188 C 
ENDROOT
BRANCH   1   2
ATOM      2  C   UNL     1       2.208   4.121 -10.458  1.00  0.00     0.188 C 
BRANCH   2   3
ATOM      3  O   UNL     1       1.748   4.770 -11.638  1.00  0.00    -0.376 OA
BRANCH   3   4
ATOM      4  C   UNL     1       1.618   6.188 -11.658  1.00  0.00     0.202 C 
BRANCH   4   5
ATOM      5  C   UNL     1       0.966   6.917 -10.473  1.00  0.00     0.261 C 
BRANCH   5   6
ATOM      6  O   UNL     1       1.539   6.570  -9.204  1.00  0.00    -0.459 OA
BRANCH   6   7
ATOM      7  C   UNL     1       0.648   6.276  -8.232  1.00  0.00     0.354 C 
ATOM      8  O   UNL     1      -0.545   6.454  -8.239  1.00  0.00    -0.245 OA
BRANCH   7   9
ATOM      9  C   UNL     1       1.358   5.576  -7.095  1.00  0.00     0.148 C 
ATOM     10  N   UNL     1       1.798   4.165  -5.575  1.00  0.00    -0.256 N 
ATOM     11  N   UNL     1       0.979   4.420  -6.642  1.00  0.00    -0.169 NA
ATOM     12  C   UNL     1       2.487   5.394  -5.123  1.00  0.00     0.154 C 
ATOM     13  C   UNL     1       2.576   6.163  -6.451  1.00  0.00     0.099 C 
BRANCH  10  14
ATOM     14  C   UNL     1       1.466   3.113  -4.726  1.00  0.00     0.060 A 
ATOM     15  C   UNL     1       0.824   0.974  -3.014  1.00  0.00     0.067 A 
ATOM     16  C   UNL     1       1.879   0.843  -3.919  1.00  0.00     0.022 A 
ATOM     17  C   UNL     1       0.059   2.140  -2.986  1.00  0.00     0.022 A 
ATOM     18  C   UNL     1       2.199   1.917  -4.762  1.00  0.00     0.029 A 
ATOM     19  C   UNL     1       0.375   3.192  -3.850  1.00  0.00     0.029 A 
BRANCH  15  20
ATOM     20  S   UNL     1       0.395  -0.366  -1.926  1.00  0.00     0.175 S 
ATOM     21  C   UNL     1       1.066   0.138  -0.365  1.00  0.00     0.163 C 
ATOM     22  O   UNL     1       1.128  -1.542  -2.350  1.00  0.00    -0.224 OA
ATOM     23  O   UNL     1      -1.049  -0.376  -1.796  1.00  0.00    -0.224 OA
ENDBRANCH  15  20
ENDBRANCH  10  14
BRANCH  12  24
ATOM     24  C   UNL     1       1.818   6.193  -4.004  1.00  0.00     0.030 A 
ATOM     25  C   UNL     1       1.847   5.909  -2.648  1.00  0.00     0.017 A 
ATOM     26  S   UNL     1       0.874   7.603  -4.297  1.00  0.00    -0.147 S 
ATOM     27  C   UNL     1       1.090   6.832  -1.870  1.00  0.00     0.012 A 
ATOM     28  C   UNL     1       0.535   7.823  -2.644  1.00  0.00     0.065 A 
ENDBRANCH  12  24
ENDBRANCH   7   9
ENDBRANCH   6   7
ENDBRANCH   5   6
ENDBRANCH   4   5
ENDBRANCH   3   4
ENDBRANCH   2   3
ENDBRANCH   1   2
BRANCH   1  29
ATOM     29  O   UNL     1       4.071   5.771 -10.361  1.00  0.00    -0.376 OA
BRANCH  29  30
ATOM     30  C   UNL     1       5.101   5.676 -11.333  1.00  0.00     0.202 C 
BRANCH  30  31
ATOM     31  C   UNL     1       5.324   4.474 -12.278  1.00  0.00     0.261 C 
BRANCH  31  32
ATOM     32  O   UNL     1       4.711   3.224 -11.954  1.00  0.00    -0.460 OA
BRANCH  32  33
ATOM     33  C   UNL     1       5.434   2.375 -11.185  1.00  0.00     0.338 C 
ATOM     34  O   UNL     1       6.531   2.583 -10.697  1.00  0.00    -0.246 OA
BRANCH  33  35
ATOM     35  C   UNL     1       4.573   1.220 -10.854  1.00  0.00     0.060 A 
ATOM     36  C   UNL     1       4.187   1.022  -9.521  1.00  0.00     0.016 A 
ATOM     37  C   UNL     1       4.158   0.337 -11.851  1.00  0.00     0.016 A 
ATOM     38  C   UNL     1       3.405  -0.081  -9.177  1.00  0.00     0.010 A 
ATOM     39  C   UNL     1       3.395  -0.780 -11.501  1.00  0.00     0.010 A 
ATOM     40  C   UNL     1       3.044  -1.012 -10.158  1.00  0.00    -0.014 A 
BRANCH  40  41
ATOM     41  C   UNL     1       2.480  -2.324  -9.758  1.00  0.00     0.031 A 
ATOM     42  C   UNL     1       3.414  -3.501  -9.668  1.00  0.00     0.074 A 
ATOM     43  C   UNL     1       1.174  -2.470  -9.471  1.00  0.00     0.049 A 
ATOM     44  N   UNL     1       3.151  -4.755  -9.412  1.00  0.00    -0.248 NA
ATOM     45  C   UNL     1       4.841  -3.222  -9.905  1.00  0.00     0.031 C 
ATOM     46  C   UNL     1       0.181  -1.397  -9.476  1.00  0.00     0.029 A 
ATOM     47  N   UNL     1       0.459  -3.590  -9.129  1.00  0.00    -0.354 N 
ATOM     48  C   UNL     1       4.373  -5.416  -9.465  1.00  0.00     0.074 A 
ATOM     49  C   UNL     1       5.374  -4.430  -9.809  1.00  0.00     0.031 C 
ATOM     50  C   UNL     1      -1.021  -1.916  -9.168  1.00  0.00     0.029 A 
ATOM     51  C   UNL     1      -0.888  -3.360  -8.977  1.00  0.00     0.049 A 
ATOM     52  H   UNL     1       0.871  -4.475  -9.003  1.00  0.00     0.167 HD
ATOM     53  C   UNL     1       4.638  -6.724  -9.241  1.00  0.00     0.037 A 
ATOM     54  C   UNL     1      -1.897  -4.221  -8.735  1.00  0.00     0.037 A 
ATOM     55  C   UNL     1       3.635  -7.700  -8.900  1.00  0.00     0.049 A 
ATOM     56  C   UNL     1      -1.588  -5.687  -8.555  1.00  0.00     0.074 A 
ATOM     57  C   UNL     1       3.800  -9.049  -8.644  1.00  0.00     0.029 A 
ATOM     58  N   UNL     1       2.280  -7.432  -8.774  1.00  0.00    -0.354 N 
ATOM     59  N   UNL     1      -0.428  -6.300  -8.600  1.00  0.00    -0.248 NA
ATOM     60  C   UNL     1      -2.725  -6.580  -8.288  1.00  0.00     0.031 C 
ATOM     61  C   UNL     1       2.539  -9.608  -8.416  1.00  0.00     0.029 A 
ATOM     62  C   UNL     1       1.594  -8.595  -8.468  1.00  0.00     0.049 A 
ATOM     63  H   UNL     1       1.866  -6.545  -8.886  1.00  0.00     0.167 HD
ATOM     64  C   UNL     1      -0.692  -7.640  -8.328  1.00  0.00     0.074 A 
ATOM     65  C   UNL     1      -2.121  -7.748  -8.118  1.00  0.00     0.031 C 
ATOM     66  C   UNL     1       0.170  -8.685  -8.251  1.00  0.00     0.037 A 
BRANCH  53  67
ATOM     67  C   UNL     1       6.063  -7.181  -9.387  1.00  0.00     0.058 A 
ATOM     68  C   UNL     1       7.058  -6.816  -8.466  1.00  0.00     0.135 A 
ATOM     69  C   UNL     1       6.435  -8.015 -10.454  1.00  0.00     0.135 A 
ATOM     70  F   UNL     1       6.764  -6.002  -7.439  1.00  0.00    -0.206 F 
ATOM     71  C   UNL     1       8.375  -7.241  -8.611  1.00  0.00     0.059 A 
ATOM     72  C   UNL     1       7.740  -8.476 -10.602  1.00  0.00     0.059 A 
ATOM     73  F   UNL     1       5.526  -8.390 -11.368  1.00  0.00    -0.206 F 
ATOM     74  C   UNL     1       8.706  -8.071  -9.682  1.00  0.00     0.060 A 
BRANCH  74  75
ATOM     75  S   UNL     1      10.418  -8.616  -9.854  1.00  0.00     0.124 S 
ATOM     76  O   UNL     1      11.076  -7.384 -10.278  1.00  0.00    -0.237 OA
ATOM     77  O   UNL     1      10.738  -9.072  -8.505  1.00  0.00    -0.237 OA
ATOM     78  O   UNL     1      10.343  -9.666 -10.866  1.00  0.00    -0.744 OA
ENDBRANCH  74  75
ENDBRANCH  53  67
BRANCH  54  79
ATOM     79  C   UNL     1      -3.300  -3.725  -8.662  1.00  0.00     0.058 A 
ATOM     80  C   UNL     1      -4.014  -3.735  -7.455  1.00  0.00     0.135 A 
ATOM     81  C   UNL     1      -3.959  -3.242  -9.804  1.00  0.00     0.135 A 
ATOM     82  F   UNL     1      -3.437  -4.204  -6.339  1.00  0.00    -0.206 F 
ATOM     83  C   UNL     1      -5.335  -3.299  -7.384  1.00  0.00     0.059 A 
ATOM     84  C   UNL     1      -5.269  -2.777  -9.753  1.00  0.00     0.059 A 
ATOM     85  F   UNL     1      -3.321  -3.207 -10.985  1.00  0.00    -0.206 F 
ATOM     86  C   UNL     1      -5.954  -2.820  -8.540  1.00  0.00     0.060 A 
BRANCH  86  87
ATOM     87  S   UNL     1      -7.658  -2.230  -8.432  1.00  0.00     0.124 S 
ATOM     88  O   UNL     1      -8.392  -3.478  -8.262  1.00  0.00    -0.237 OA
ATOM     89  O   UNL     1      -7.608  -1.355  -7.265  1.00  0.00    -0.237 OA
ATOM     90  O   UNL     1      -7.860  -1.550  -9.708  1.00  0.00    -0.744 OA
ENDBRANCH  86  87
ENDBRANCH  54  79
BRANCH  66  91
ATOM     91  C   UNL     1      -0.393 -10.031  -7.877  1.00  0.00     0.058 A 
ATOM     92  C   UNL     1      -1.184 -10.779  -8.762  1.00  0.00     0.135 A 
ATOM     93  C   UNL     1      -0.086 -10.604  -6.631  1.00  0.00     0.135 A 
ATOM     94  F   UNL     1      -1.510 -10.280  -9.965  1.00  0.00    -0.206 F 
ATOM     95  C   UNL     1      -1.673 -12.036  -8.416  1.00  0.00     0.059 A 
ATOM     96  C   UNL     1      -0.538 -11.871  -6.276  1.00  0.00     0.059 A 
ATOM     97  F   UNL     1       0.680  -9.940  -5.751  1.00  0.00    -0.206 F 
ATOM     98  C   UNL     1      -1.342 -12.575  -7.170  1.00  0.00     0.060 A 
BRANCH  98  99
ATOM     99  S   UNL     1      -1.955 -14.219  -6.747  1.00  0.00     0.124 S 
ATOM    100  O   UNL     1      -3.369 -13.953  -6.500  1.00  0.00    -0.237 OA
ATOM    101  O   UNL     1      -1.656 -14.985  -7.953  1.00  0.00    -0.237 OA
ATOM    102  O   UNL     1      -1.171 -14.584  -5.571  1.00  0.00    -0.744 OA
ENDBRANCH  98  99
ENDBRANCH  66  91
ENDBRANCH  40  41
ENDBRANCH  33  35
ENDBRANCH  32  33
ENDBRANCH  31  32
ENDBRANCH  30  31
ENDBRANCH  29  30
ENDBRANCH   1  29
TORSDOF 23
