REMARK SMILES C[C@@H]1[C@H](C(=O)OCCOCCOCCOC(=O)c2ccc(-c3c4nc(c(-c5c(F)cc(S(=O)(=O)[O-])cc5F)c5ccc([nH]5)c(-c5c(F)cc(S(=O)(=O)[O-])cc5F)c5nc(c(-c6c(F)cc(S(=O)(=O)[O-])cc6F)c6ccc3[nH]6)C=C5)C=C4)cc2)CCN1S(=O)(=O)c1cc(F)cc(F)c1
REMARK SMILES IDX 11 1 10 2 9 3 8 4 7 5 6 6 4 7 5 8 3 9 1 10 2 11 86 12 84 13
REMARK SMILES IDX 85 14 87 15 88 16 89 17 90 18 91 19 97 20 92 21 95 22 93 23
REMARK SMILES IDX 94 24 96 25 12 26 13 27 14 28 15 29 16 30 17 31 18 32 19 33
REMARK SMILES IDX 83 34 20 35 82 36 21 37 22 38 23 39 76 40 24 41 81 42 75 43
REMARK SMILES IDX 77 44 25 45 80 46 74 47 73 48 26 50 60 51 39 52 59 53 40 54
REMARK SMILES IDX 43 55 58 56 78 57 41 58 42 59 57 61 79 62 44 63 27 64 28 65
REMARK SMILES IDX 37 66 29 67 30 68 36 69 38 70 31 71 32 72 33 73 34 74 35 75
REMARK SMILES IDX 61 76 62 77 71 78 63 79 64 80 70 81 72 82 65 83 66 84 67 85
REMARK SMILES IDX 68 86 69 87 45 88 46 89 55 90 47 91 48 92 54 93 56 94 49 95
REMARK SMILES IDX 50 96 51 97 52 98 53 99
REMARK H PARENT 77 49 43 60
REMARK Flexibility Score: inf
ROOT
ATOM      1  C   UNL     1       2.668   2.525  -1.515  1.00  0.00     0.188 C 
ENDROOT
BRANCH   1   2
ATOM      2  C   UNL     1       2.137   3.962  -1.480  1.00  0.00     0.188 C 
BRANCH   2   3
ATOM      3  O   UNL     1       2.800   4.900  -0.655  1.00  0.00    -0.376 OA
BRANCH   3   4
ATOM      4  C   UNL     1       2.560   4.827   0.751  1.00  0.00     0.202 C 
BRANCH   4   5
ATOM      5  C   UNL     1       1.168   4.401   1.221  1.00  0.00     0.261 C 
BRANCH   5   6
ATOM      6  O   UNL     1       0.983   3.004   0.921  1.00  0.00    -0.463 OA
BRANCH   6   7
ATOM      7  C   UNL     1      -0.295   2.561   0.965  1.00  0.00     0.310 C 
ATOM      8  O   UNL     1      -1.243   3.238   1.340  1.00  0.00    -0.252 OA
BRANCH   7   9
ATOM      9  C   UNL     1      -0.427   1.180   0.361  1.00  0.00     0.118 C 
ATOM     10  C   UNL     1       1.245   0.212   2.076  1.00  0.00     0.027 C 
ATOM     11  C   UNL     1       0.656   0.127   0.673  1.00  0.00     0.084 C 
ATOM     12  N   UNL     1      -0.035  -1.181   0.378  1.00  0.00    -0.194 NA
ATOM     13  C   UNL     1      -1.697   0.501   0.838  1.00  0.00     0.034 C 
ATOM     14  C   UNL     1      -1.513  -0.936   0.398  1.00  0.00     0.104 C 
BRANCH  12  15
ATOM     15  S   UNL     1       0.401  -2.693   1.008  1.00  0.00     0.243 S 
ATOM     16  O   UNL     1       0.542  -2.581   2.443  1.00  0.00    -0.207 OA
ATOM     17  O   UNL     1      -0.548  -3.639   0.451  1.00  0.00    -0.207 OA
BRANCH  15  18
ATOM     18  C   UNL     1       1.981  -3.184   0.363  1.00  0.00     0.088 A 
ATOM     19  C   UNL     1       2.204  -4.565   0.233  1.00  0.00     0.061 A 
ATOM     20  C   UNL     1       2.997  -2.291   0.036  1.00  0.00     0.061 A 
ATOM     21  C   UNL     1       3.441  -5.030  -0.200  1.00  0.00     0.127 A 
ATOM     22  C   UNL     1       4.227  -2.786  -0.394  1.00  0.00     0.127 A 
ATOM     23  F   UNL     1       3.654  -6.349  -0.289  1.00  0.00    -0.207 F 
ATOM     24  C   UNL     1       4.463  -4.149  -0.514  1.00  0.00     0.078 A 
ATOM     25  F   UNL     1       5.217  -1.927  -0.667  1.00  0.00    -0.207 F 
ENDBRANCH  15  18
ENDBRANCH  12  15
ENDBRANCH   7   9
ENDBRANCH   6   7
ENDBRANCH   5   6
ENDBRANCH   4   5
ENDBRANCH   3   4
ENDBRANCH   2   3
ENDBRANCH   1   2
BRANCH   1  26
ATOM     26  O   UNL     1       3.461   1.975  -0.481  1.00  0.00    -0.376 OA
BRANCH  26  27
ATOM     27  C   UNL     1       4.819   2.362  -0.305  1.00  0.00     0.202 C 
BRANCH  27  28
ATOM     28  C   UNL     1       5.835   2.574  -1.447  1.00  0.00     0.261 C 
BRANCH  28  29
ATOM     29  O   UNL     1       5.318   2.694  -2.766  1.00  0.00    -0.460 OA
BRANCH  29  30
ATOM     30  C   UNL     1       5.172   1.521  -3.435  1.00  0.00     0.338 C 
ATOM     31  O   UNL     1       5.496   0.413  -3.057  1.00  0.00    -0.246 OA
BRANCH  30  32
ATOM     32  C   UNL     1       4.302   1.797  -4.600  1.00  0.00     0.060 A 
ATOM     33  C   UNL     1       3.161   1.000  -4.767  1.00  0.00     0.016 A 
ATOM     34  C   UNL     1       4.540   2.887  -5.442  1.00  0.00     0.016 A 
ATOM     35  C   UNL     1       2.263   1.279  -5.795  1.00  0.00     0.010 A 
ATOM     36  C   UNL     1       3.653   3.151  -6.486  1.00  0.00     0.010 A 
ATOM     37  C   UNL     1       2.527   2.333  -6.681  1.00  0.00    -0.014 A 
BRANCH  37  38
ATOM     38  C   UNL     1       1.761   2.441  -7.943  1.00  0.00     0.031 A 
ATOM     39  C   UNL     1       2.324   1.754  -9.156  1.00  0.00     0.074 A 
ATOM     40  C   UNL     1       0.605   3.123  -8.016  1.00  0.00     0.049 A 
ATOM     41  N   UNL     1       1.892   1.759 -10.388  1.00  0.00    -0.248 NA
ATOM     42  C   UNL     1       3.545   0.956  -8.947  1.00  0.00     0.031 C 
ATOM     43  C   UNL     1      -0.061   3.791  -6.899  1.00  0.00     0.029 A 
ATOM     44  N   UNL     1      -0.210   3.371  -9.092  1.00  0.00    -0.354 N 
ATOM     45  C   UNL     1       2.783   0.966 -11.100  1.00  0.00     0.074 A 
ATOM     46  C   UNL     1       3.797   0.520 -10.171  1.00  0.00     0.031 C 
ATOM     47  C   UNL     1      -1.179   4.388  -7.354  1.00  0.00     0.029 A 
ATOM     48  C   UNL     1      -1.289   4.170  -8.796  1.00  0.00     0.049 A 
ATOM     49  H   UNL     1      -0.038   3.012  -9.992  1.00  0.00     0.167 HD
ATOM     50  C   UNL     1       2.755   0.631 -12.410  1.00  0.00     0.037 A 
ATOM     51  C   UNL     1      -2.238   4.681  -9.605  1.00  0.00     0.037 A 
ATOM     52  C   UNL     1       1.757   1.089 -13.335  1.00  0.00     0.049 A 
ATOM     53  C   UNL     1      -2.198   4.366 -11.081  1.00  0.00     0.074 A 
ATOM     54  C   UNL     1       1.647   0.820 -14.687  1.00  0.00     0.029 A 
ATOM     55  N   UNL     1       0.697   1.920 -13.003  1.00  0.00    -0.354 N 
ATOM     56  N   UNL     1      -1.353   3.610 -11.742  1.00  0.00    -0.248 NA
ATOM     57  C   UNL     1      -3.239   4.978 -11.921  1.00  0.00     0.031 C 
ATOM     58  C   UNL     1       0.541   1.518 -15.182  1.00  0.00     0.029 A 
ATOM     59  C   UNL     1      -0.064   2.186 -14.128  1.00  0.00     0.049 A 
ATOM     60  H   UNL     1       0.512   2.268 -12.101  1.00  0.00     0.167 HD
ATOM     61  C   UNL     1      -1.780   3.631 -13.067  1.00  0.00     0.074 A 
ATOM     62  C   UNL     1      -2.959   4.469 -13.114  1.00  0.00     0.031 C 
ATOM     63  C   UNL     1      -1.246   3.010 -14.149  1.00  0.00     0.037 A 
BRANCH  50  64
ATOM     64  C   UNL     1       3.855  -0.256 -12.915  1.00  0.00     0.058 A 
ATOM     65  C   UNL     1       3.901  -1.621 -12.592  1.00  0.00     0.135 A 
ATOM     66  C   UNL     1       4.868   0.262 -13.736  1.00  0.00     0.135 A 
ATOM     67  F   UNL     1       2.971  -2.158 -11.787  1.00  0.00    -0.206 F 
ATOM     68  C   UNL     1       4.927  -2.440 -13.052  1.00  0.00     0.059 A 
ATOM     69  C   UNL     1       5.891  -0.544 -14.226  1.00  0.00     0.059 A 
ATOM     70  F   UNL     1       4.875   1.564 -14.062  1.00  0.00    -0.206 F 
ATOM     71  C   UNL     1       5.918  -1.891 -13.867  1.00  0.00     0.060 A 
BRANCH  71  72
ATOM     72  S   UNL     1       7.240  -2.967 -14.460  1.00  0.00     0.124 S 
ATOM     73  O   UNL     1       8.038  -3.140 -13.249  1.00  0.00    -0.237 OA
ATOM     74  O   UNL     1       6.507  -4.146 -14.909  1.00  0.00    -0.237 OA
ATOM     75  O   UNL     1       7.868  -2.182 -15.518  1.00  0.00    -0.744 OA
ENDBRANCH  71  72
ENDBRANCH  50  64
BRANCH  51  76
ATOM     76  C   UNL     1      -3.304   5.561  -9.054  1.00  0.00     0.058 A 
ATOM     77  C   UNL     1      -4.640   5.136  -9.005  1.00  0.00     0.135 A 
ATOM     78  C   UNL     1      -3.014   6.856  -8.598  1.00  0.00     0.135 A 
ATOM     79  F   UNL     1      -4.970   3.911  -9.443  1.00  0.00    -0.206 F 
ATOM     80  C   UNL     1      -5.654   5.969  -8.544  1.00  0.00     0.059 A 
ATOM     81  C   UNL     1      -4.007   7.699  -8.109  1.00  0.00     0.059 A 
ATOM     82  F   UNL     1      -1.751   7.309  -8.616  1.00  0.00    -0.206 F 
ATOM     83  C   UNL     1      -5.328   7.251  -8.099  1.00  0.00     0.060 A 
BRANCH  83  84
ATOM     84  S   UNL     1      -6.646   8.316  -7.473  1.00  0.00     0.124 S 
ATOM     85  O   UNL     1      -7.309   8.718  -8.708  1.00  0.00    -0.237 OA
ATOM     86  O   UNL     1      -7.395   7.404  -6.613  1.00  0.00    -0.237 OA
ATOM     87  O   UNL     1      -5.918   9.370  -6.772  1.00  0.00    -0.744 OA
ENDBRANCH  83  84
ENDBRANCH  51  76
BRANCH  63  88
ATOM     88  C   UNL     1      -1.951   3.173 -15.466  1.00  0.00     0.058 A 
ATOM     89  C   UNL     1      -1.879   4.367 -16.200  1.00  0.00     0.135 A 
ATOM     90  C   UNL     1      -2.652   2.095 -16.032  1.00  0.00     0.135 A 
ATOM     91  F   UNL     1      -1.225   5.428 -15.701  1.00  0.00    -0.206 F 
ATOM     92  C   UNL     1      -2.493   4.493 -17.442  1.00  0.00     0.059 A 
ATOM     93  C   UNL     1      -3.252   2.191 -17.283  1.00  0.00     0.059 A 
ATOM     94  F   UNL     1      -2.739   0.927 -15.376  1.00  0.00    -0.206 F 
ATOM     95  C   UNL     1      -3.175   3.398 -17.977  1.00  0.00     0.060 A 
BRANCH  95  96
ATOM     96  S   UNL     1      -3.931   3.558 -19.609  1.00  0.00     0.124 S 
ATOM     97  O   UNL     1      -5.112   4.360 -19.307  1.00  0.00    -0.237 OA
ATOM     98  O   UNL     1      -2.886   4.232 -20.374  1.00  0.00    -0.237 OA
ATOM     99  O   UNL     1      -4.193   2.176 -19.999  1.00  0.00    -0.744 OA
ENDBRANCH  95  96
ENDBRANCH  63  88
ENDBRANCH  37  38
ENDBRANCH  30  32
ENDBRANCH  29  30
ENDBRANCH  28  29
ENDBRANCH  27  28
ENDBRANCH  26  27
ENDBRANCH   1  26
TORSDOF 22
