REMARK SMILES Cc1cc(NC(=O)[C@H]2[C@@H](C(=O)OCCOCCOCCOC(=O)c3ccc(-c4c5nc(c(-c6c(F)cc(S(=O)(=O)[O-])cc6F)c6ccc([nH]6)c(-c6c(F)cc(S(=O)(=O)[O-])cc6F)c6nc(c(-c7c(F)cc(S(=O)(=O)[O-])cc7F)c7ccc4[nH]7)C=C6)C=C5)cc3)C2(C)C)n(-c2ccc(F)cc2)n1
REMARK SMILES IDX 16 1 15 2 14 3 13 4 12 5 10 6 11 7 9 8 8 9 90 10 91 11 92 12
REMARK SMILES IDX 6 13 5 14 7 16 4 17 1 18 2 19 3 20 101 21 93 22 94 23 95 24
REMARK SMILES IDX 100 25 96 26 99 27 97 28 98 29 17 30 18 31 19 32 20 33 21 34
REMARK SMILES IDX 22 35 23 36 24 37 25 38 89 39 26 40 88 41 27 42 28 43 29 44
REMARK SMILES IDX 82 45 30 46 87 47 81 48 83 49 31 50 86 51 80 52 79 53 32 55
REMARK SMILES IDX 66 56 45 57 65 58 46 59 49 60 64 61 84 62 47 63 48 64 63 66
REMARK SMILES IDX 85 67 50 68 33 69 34 70 43 71 35 72 36 73 42 74 44 75 37 76
REMARK SMILES IDX 38 77 39 78 40 79 41 80 67 81 68 82 77 83 69 84 70 85 76 86
REMARK SMILES IDX 78 87 71 88 72 89 73 90 74 91 75 92 51 93 52 94 61 95 53 96
REMARK SMILES IDX 54 97 60 98 62 99 55 100 56 101 57 102 58 103 59 104
REMARK H PARENT 5 15 83 54 49 65
REMARK Flexibility Score: inf
ROOT
ATOM      1  C   UNL     1       0.064  -4.635   9.793  1.00  0.00     0.188 C 
ENDROOT
BRANCH   1   2
ATOM      2  O   UNL     1       0.502  -5.754  10.534  1.00  0.00    -0.376 OA
BRANCH   2   3
ATOM      3  C   UNL     1       1.222  -6.780   9.861  1.00  0.00     0.202 C 
BRANCH   3   4
ATOM      4  C   UNL     1       0.889  -7.089   8.386  1.00  0.00     0.261 C 
BRANCH   4   5
ATOM      5  O   UNL     1       1.200  -5.981   7.519  1.00  0.00    -0.463 OA
BRANCH   5   6
ATOM      6  C   UNL     1       0.248  -5.636   6.616  1.00  0.00     0.310 C 
ATOM      7  O   UNL     1      -0.681  -6.338   6.245  1.00  0.00    -0.252 OA
BRANCH   6   8
ATOM      8  C   UNL     1       0.216  -4.173   6.369  1.00  0.00     0.118 C 
ATOM      9  C   UNL     1       0.017  -3.620   4.989  1.00  0.00     0.100 C 
ATOM     10  C   UNL     1       1.286  -3.272   5.776  1.00  0.00    -0.009 C 
ATOM     11  C   UNL     1       2.610  -3.844   5.333  1.00  0.00     0.013 C 
ATOM     12  C   UNL     1       1.427  -1.867   6.326  1.00  0.00     0.013 C 
BRANCH   9  13
ATOM     13  C   UNL     1       0.100  -4.397   3.754  1.00  0.00     0.230 C 
ATOM     14  N   UNL     1      -0.021  -3.778   2.481  1.00  0.00    -0.310 N 
ATOM     15  H   UNL     1       0.027  -4.405   1.724  1.00  0.00     0.171 HD
ATOM     16  O   UNL     1       0.438  -5.567   3.713  1.00  0.00    -0.274 OA
BRANCH  14  17
ATOM     17  C   UNL     1      -0.195  -2.450   2.107  1.00  0.00     0.136 A 
ATOM     18  C   UNL     1       0.737   0.324  -0.112  1.00  0.00     0.069 C 
ATOM     19  C   UNL     1       0.173  -0.643   0.860  1.00  0.00     0.062 A 
ATOM     20  C   UNL     1       0.507  -1.998   1.007  1.00  0.00     0.072 A 
ATOM     21  N   UNL     1      -0.748  -0.266   1.746  1.00  0.00    -0.171 NA
ATOM     22  N   UNL     1      -0.953  -1.351   2.532  1.00  0.00    -0.217 N 
BRANCH  22  23
ATOM     23  C   UNL     1      -1.845  -1.201   3.610  1.00  0.00     0.067 A 
ATOM     24  C   UNL     1      -1.344  -0.691   4.813  1.00  0.00     0.031 A 
ATOM     25  C   UNL     1      -3.215  -1.429   3.458  1.00  0.00     0.031 A 
ATOM     26  C   UNL     1      -2.167  -0.624   5.936  1.00  0.00     0.041 A 
ATOM     27  C   UNL     1      -4.052  -1.286   4.572  1.00  0.00     0.041 A 
ATOM     28  C   UNL     1      -3.514  -0.935   5.808  1.00  0.00     0.123 A 
ATOM     29  F   UNL     1      -4.305  -0.886   6.887  1.00  0.00    -0.207 F 
ENDBRANCH  22  23
ENDBRANCH  14  17
ENDBRANCH   9  13
ENDBRANCH   6   8
ENDBRANCH   5   6
ENDBRANCH   4   5
ENDBRANCH   3   4
ENDBRANCH   2   3
ENDBRANCH   1   2
BRANCH   1  30
ATOM     30  C   UNL     1       1.095  -3.550   9.472  1.00  0.00     0.188 C 
BRANCH  30  31
ATOM     31  O   UNL     1       2.216  -3.765   8.632  1.00  0.00    -0.376 OA
BRANCH  31  32
ATOM     32  C   UNL     1       3.433  -4.402   8.996  1.00  0.00     0.202 C 
BRANCH  32  33
ATOM     33  C   UNL     1       4.190  -4.100  10.289  1.00  0.00     0.261 C 
BRANCH  33  34
ATOM     34  O   UNL     1       3.445  -3.382  11.234  1.00  0.00    -0.460 OA
BRANCH  34  35
ATOM     35  C   UNL     1       3.296  -2.073  10.940  1.00  0.00     0.338 C 
ATOM     36  O   UNL     1       3.737  -1.470   9.974  1.00  0.00    -0.246 OA
BRANCH  35  37
ATOM     37  C   UNL     1       2.457  -1.502  11.998  1.00  0.00     0.060 A 
ATOM     38  C   UNL     1       2.191  -0.138  11.925  1.00  0.00     0.016 A 
ATOM     39  C   UNL     1       2.122  -2.281  13.121  1.00  0.00     0.016 A 
ATOM     40  C   UNL     1       1.884   0.504  13.095  1.00  0.00     0.010 A 
ATOM     41  C   UNL     1       1.836  -1.639  14.291  1.00  0.00     0.010 A 
ATOM     42  C   UNL     1       1.849  -0.252  14.271  1.00  0.00    -0.014 A 
BRANCH  42  43
ATOM     43  C   UNL     1       1.875   0.464  15.519  1.00  0.00     0.031 A 
ATOM     44  C   UNL     1       0.546   0.955  15.899  1.00  0.00     0.074 A 
ATOM     45  C   UNL     1       3.013   0.556  16.233  1.00  0.00     0.049 A 
ATOM     46  N   UNL     1       0.101   2.162  15.817  1.00  0.00    -0.248 NA
ATOM     47  C   UNL     1      -0.488  -0.054  16.187  1.00  0.00     0.031 C 
ATOM     48  C   UNL     1       4.245  -0.219  16.027  1.00  0.00     0.029 A 
ATOM     49  N   UNL     1       3.281   1.264  17.362  1.00  0.00    -0.354 N 
ATOM     50  C   UNL     1      -1.169   2.090  16.373  1.00  0.00     0.074 A 
ATOM     51  C   UNL     1      -1.573   0.713  16.296  1.00  0.00     0.031 C 
ATOM     52  C   UNL     1       5.022  -0.117  17.127  1.00  0.00     0.029 A 
ATOM     53  C   UNL     1       4.418   0.839  18.038  1.00  0.00     0.049 A 
ATOM     54  H   UNL     1       2.720   2.011  17.673  1.00  0.00     0.167 HD
ATOM     55  C   UNL     1      -1.586   3.064  17.224  1.00  0.00     0.037 A 
ATOM     56  C   UNL     1       4.787   1.200  19.291  1.00  0.00     0.037 A 
ATOM     57  C   UNL     1      -0.754   4.235  17.122  1.00  0.00     0.049 A 
ATOM     58  C   UNL     1       4.088   2.469  19.617  1.00  0.00     0.074 A 
ATOM     59  C   UNL     1      -0.609   5.287  16.246  1.00  0.00     0.029 A 
ATOM     60  N   UNL     1       0.373   4.191  17.902  1.00  0.00    -0.354 N 
ATOM     61  N   UNL     1       4.301   3.594  18.988  1.00  0.00    -0.248 NA
ATOM     62  C   UNL     1       2.865   2.425  20.415  1.00  0.00     0.031 C 
ATOM     63  C   UNL     1       0.695   5.819  16.465  1.00  0.00     0.029 A 
ATOM     64  C   UNL     1       1.310   5.098  17.484  1.00  0.00     0.049 A 
ATOM     65  H   UNL     1       0.493   3.583  18.666  1.00  0.00     0.167 HD
ATOM     66  C   UNL     1       3.074   4.226  18.983  1.00  0.00     0.074 A 
ATOM     67  C   UNL     1       2.280   3.552  20.000  1.00  0.00     0.031 C 
ATOM     68  C   UNL     1       2.683   5.002  17.933  1.00  0.00     0.037 A 
BRANCH  55  69
ATOM     69  C   UNL     1      -2.391   2.795  18.476  1.00  0.00     0.058 A 
ATOM     70  C   UNL     1      -2.948   3.885  19.171  1.00  0.00     0.135 A 
ATOM     71  C   UNL     1      -2.398   1.562  19.170  1.00  0.00     0.135 A 
ATOM     72  F   UNL     1      -2.969   5.108  18.615  1.00  0.00    -0.206 F 
ATOM     73  C   UNL     1      -3.436   3.768  20.473  1.00  0.00     0.059 A 
ATOM     74  C   UNL     1      -2.933   1.410  20.441  1.00  0.00     0.059 A 
ATOM     75  F   UNL     1      -1.797   0.464  18.700  1.00  0.00    -0.206 F 
ATOM     76  C   UNL     1      -3.417   2.525  21.100  1.00  0.00     0.060 A 
BRANCH  76  77
ATOM     77  S   UNL     1      -3.981   2.375  22.802  1.00  0.00     0.124 S 
ATOM     78  O   UNL     1      -2.917   3.065  23.521  1.00  0.00    -0.237 OA
ATOM     79  O   UNL     1      -5.271   3.054  22.752  1.00  0.00    -0.237 OA
ATOM     80  O   UNL     1      -4.049   0.930  23.004  1.00  0.00    -0.744 OA
ENDBRANCH  76  77
ENDBRANCH  55  69
BRANCH  56  81
ATOM     81  C   UNL     1       5.445   0.360  20.323  1.00  0.00     0.058 A 
ATOM     82  C   UNL     1       6.035   0.940  21.458  1.00  0.00     0.135 A 
ATOM     83  C   UNL     1       5.262  -1.038  20.358  1.00  0.00     0.135 A 
ATOM     84  F   UNL     1       6.230   2.266  21.513  1.00  0.00    -0.206 F 
ATOM     85  C   UNL     1       6.374   0.187  22.587  1.00  0.00     0.059 A 
ATOM     86  C   UNL     1       5.601  -1.810  21.467  1.00  0.00     0.059 A 
ATOM     87  F   UNL     1       4.660  -1.683  19.348  1.00  0.00    -0.206 F 
ATOM     88  C   UNL     1       6.132  -1.186  22.589  1.00  0.00     0.060 A 
BRANCH  88  89
ATOM     89  S   UNL     1       6.402  -2.130  24.107  1.00  0.00     0.124 S 
ATOM     90  O   UNL     1       7.856  -2.108  24.219  1.00  0.00    -0.237 OA
ATOM     91  O   UNL     1       5.674  -1.339  25.093  1.00  0.00    -0.237 OA
ATOM     92  O   UNL     1       5.819  -3.434  23.803  1.00  0.00    -0.744 OA
ENDBRANCH  88  89
ENDBRANCH  56  81
BRANCH  68  93
ATOM     93  C   UNL     1       3.744   5.686  17.129  1.00  0.00     0.058 A 
ATOM     94  C   UNL     1       4.630   5.048  16.248  1.00  0.00     0.135 A 
ATOM     95  C   UNL     1       3.784   7.088  17.189  1.00  0.00     0.135 A 
ATOM     96  F   UNL     1       4.604   3.716  16.090  1.00  0.00    -0.206 F 
ATOM     97  C   UNL     1       5.527   5.780  15.465  1.00  0.00     0.059 A 
ATOM     98  C   UNL     1       4.647   7.837  16.400  1.00  0.00     0.059 A 
ATOM     99  F   UNL     1       2.931   7.751  17.988  1.00  0.00    -0.206 F 
ATOM    100  C   UNL     1       5.522   7.175  15.543  1.00  0.00     0.060 A 
BRANCH 100 101
ATOM    101  S   UNL     1       6.605   8.128  14.457  1.00  0.00     0.124 S 
ATOM    102  O   UNL     1       7.919   7.881  15.040  1.00  0.00    -0.237 OA
ATOM    103  O   UNL     1       6.363   7.515  13.153  1.00  0.00    -0.237 OA
ATOM    104  O   UNL     1       6.108   9.495  14.592  1.00  0.00    -0.744 OA
ENDBRANCH 100 101
ENDBRANCH  68  93
ENDBRANCH  42  43
ENDBRANCH  35  37
ENDBRANCH  34  35
ENDBRANCH  33  34
ENDBRANCH  32  33
ENDBRANCH  31  32
ENDBRANCH  30  31
ENDBRANCH   1  30
TORSDOF 23
