REMARK SMILES Cc1c(C[C@@H](C)O)c(=O)oc2cc(OCC(=O)OCCOCCOCCOC(=O)c3ccc(-c4c5nc(c(-c6c(F)cc(S(=O)(=O)[O-])cc6F)c6ccc([nH]6)c(-c6c(F)cc(S(=O)(=O)[O-])cc6F)c6nc(c(-c7c(F)cc(S(=O)(=O)[O-])cc7F)c7ccc4[nH]7)C=C6)C=C5)cc3)ccc12
REMARK SMILES IDX 22 1 21 2 20 3 19 4 18 5 16 6 17 7 15 8 14 9 13 10 1 11 2 12
REMARK SMILES IDX 3 13 98 14 8 15 11 16 97 17 9 18 10 19 12 20 96 21 4 22 5 23
REMARK SMILES IDX 6 24 7 25 23 27 24 28 25 29 26 30 27 31 28 32 29 33 30 34
REMARK SMILES IDX 31 35 95 36 32 37 94 38 33 39 34 40 35 41 88 42 36 43 93 44
REMARK SMILES IDX 87 45 89 46 37 47 92 48 86 49 85 50 38 52 72 53 51 54 71 55
REMARK SMILES IDX 52 56 55 57 70 58 90 59 53 60 54 61 69 63 91 64 56 65 39 66
REMARK SMILES IDX 40 67 49 68 41 69 42 70 48 71 50 72 43 73 44 74 45 75 46 76
REMARK SMILES IDX 47 77 73 78 74 79 83 80 75 81 76 82 82 83 84 84 77 85 78 86
REMARK SMILES IDX 79 87 80 88 81 89 57 90 58 91 67 92 59 93 60 94 66 95 68 96
REMARK SMILES IDX 61 97 62 98 63 99 64 100 65 101
REMARK H PARENT 7 26 89 51 55 62
REMARK Flexibility Score: inf
ROOT
ATOM      1  C   UNL     1       0.938   3.517  -2.361  1.00  0.00     0.188 C 
ENDROOT
BRANCH   1   2
ATOM      2  O   UNL     1       1.209   4.328  -3.495  1.00  0.00    -0.376 OA
BRANCH   2   3
ATOM      3  C   UNL     1       2.526   4.294  -4.032  1.00  0.00     0.202 C 
BRANCH   3   4
ATOM      4  C   UNL     1       3.644   4.682  -3.058  1.00  0.00     0.261 C 
BRANCH   4   5
ATOM      5  O   UNL     1       3.818   3.658  -2.054  1.00  0.00    -0.461 OA
BRANCH   5   6
ATOM      6  C   UNL     1       4.134   4.079  -0.799  1.00  0.00     0.344 C 
ATOM      7  O   UNL     1       4.488   5.223  -0.533  1.00  0.00    -0.248 OA
BRANCH   6   8
ATOM      8  C   UNL     1       3.826   3.018   0.281  1.00  0.00     0.351 C 
BRANCH   8   9
ATOM      9  O   UNL     1       4.079   1.656  -0.046  1.00  0.00    -0.482 OA
BRANCH   9  10
ATOM     10  C   UNL     1       3.203   0.660   0.306  1.00  0.00     0.123 A 
ATOM     11  C   UNL     1       0.837  -4.064   0.308  1.00  0.00     0.046 C 
ATOM     12  C   UNL     1       0.400  -2.646   0.522  1.00  0.00    -0.030 A 
ATOM     13  C   UNL     1      -0.893  -2.278   0.630  1.00  0.00     0.044 A 
ATOM     14  C   UNL     1       1.435  -1.585   0.533  1.00  0.00     0.021 A 
ATOM     15  C   UNL     1      -1.224  -0.896   1.050  1.00  0.00     0.339 A 
ATOM     16  C   UNL     1       1.105  -0.322   1.011  1.00  0.00     0.142 A 
ATOM     17  C   UNL     1       2.715  -1.728  -0.004  1.00  0.00     0.016 A 
ATOM     18  O   UNL     1      -2.380  -0.527   1.086  1.00  0.00    -0.246 OA
ATOM     19  O   UNL     1      -0.187  -0.086   1.496  1.00  0.00    -0.422 OA
ATOM     20  C   UNL     1       1.978   0.786   0.953  1.00  0.00     0.094 A 
ATOM     21  C   UNL     1       3.574  -0.617  -0.132  1.00  0.00     0.047 A 
BRANCH  13  22
ATOM     22  C   UNL     1      -2.132  -3.139   0.411  1.00  0.00     0.075 C 
BRANCH  22  23
ATOM     23  C   UNL     1      -2.660  -3.141  -1.044  1.00  0.00     0.116 C 
ATOM     24  C   UNL     1      -1.767  -3.921  -1.999  1.00  0.00     0.038 C 
BRANCH  23  25
ATOM     25  O   UNL     1      -3.967  -3.726  -1.112  1.00  0.00    -0.393 OA
ATOM     26  H   UNL     1      -3.920  -4.656  -0.838  1.00  0.00     0.210 HD
ENDBRANCH  23  25
ENDBRANCH  22  23
ENDBRANCH  13  22
ENDBRANCH   9  10
ENDBRANCH   8   9
ENDBRANCH   6   8
ENDBRANCH   5   6
ENDBRANCH   4   5
ENDBRANCH   3   4
ENDBRANCH   2   3
ENDBRANCH   1   2
BRANCH   1  27
ATOM     27  C   UNL     1       1.367   2.034  -2.393  1.00  0.00     0.188 C 
BRANCH  27  28
ATOM     28  O   UNL     1       1.481   1.363  -3.635  1.00  0.00    -0.376 OA
BRANCH  28  29
ATOM     29  C   UNL     1       0.377   1.431  -4.523  1.00  0.00     0.202 C 
BRANCH  29  30
ATOM     30  C   UNL     1      -0.964   0.940  -3.979  1.00  0.00     0.261 C 
BRANCH  30  31
ATOM     31  O   UNL     1      -1.513   1.793  -2.945  1.00  0.00    -0.460 OA
BRANCH  31  32
ATOM     32  C   UNL     1      -1.827   1.127  -1.808  1.00  0.00     0.338 C 
ATOM     33  O   UNL     1      -1.659  -0.071  -1.639  1.00  0.00    -0.246 OA
BRANCH  32  34
ATOM     34  C   UNL     1      -2.276   1.986  -0.687  1.00  0.00     0.060 A 
ATOM     35  C   UNL     1      -1.321   2.384   0.253  1.00  0.00     0.016 A 
ATOM     36  C   UNL     1      -3.627   1.984  -0.331  1.00  0.00     0.016 A 
ATOM     37  C   UNL     1      -1.694   2.618   1.581  1.00  0.00     0.010 A 
ATOM     38  C   UNL     1      -4.004   2.280   0.992  1.00  0.00     0.010 A 
ATOM     39  C   UNL     1      -3.037   2.529   1.979  1.00  0.00    -0.014 A 
BRANCH  39  40
ATOM     40  C   UNL     1      -3.417   2.704   3.413  1.00  0.00     0.031 A 
ATOM     41  C   UNL     1      -4.019   1.586   4.239  1.00  0.00     0.074 A 
ATOM     42  C   UNL     1      -3.197   3.899   3.993  1.00  0.00     0.049 A 
ATOM     43  N   UNL     1      -4.544   1.617   5.441  1.00  0.00    -0.248 NA
ATOM     44  C   UNL     1      -4.006   0.244   3.653  1.00  0.00     0.031 C 
ATOM     45  C   UNL     1      -2.539   5.040   3.354  1.00  0.00     0.029 A 
ATOM     46  N   UNL     1      -3.531   4.360   5.241  1.00  0.00    -0.354 N 
ATOM     47  C   UNL     1      -4.923   0.305   5.737  1.00  0.00     0.074 A 
ATOM     48  C   UNL     1      -4.547  -0.504   4.604  1.00  0.00     0.031 C 
ATOM     49  C   UNL     1      -2.545   6.078   4.199  1.00  0.00     0.029 A 
ATOM     50  C   UNL     1      -3.289   5.702   5.395  1.00  0.00     0.049 A 
ATOM     51  H   UNL     1      -3.905   3.789   5.950  1.00  0.00     0.167 HD
ATOM     52  C   UNL     1      -5.553  -0.176   6.838  1.00  0.00     0.037 A 
ATOM     53  C   UNL     1      -3.698   6.563   6.345  1.00  0.00     0.037 A 
ATOM     54  C   UNL     1      -5.963   0.651   7.945  1.00  0.00     0.049 A 
ATOM     55  C   UNL     1      -4.520   6.052   7.489  1.00  0.00     0.074 A 
ATOM     56  C   UNL     1      -6.631   0.283   9.100  1.00  0.00     0.029 A 
ATOM     57  N   UNL     1      -5.756   2.020   8.022  1.00  0.00    -0.354 N 
ATOM     58  N   UNL     1      -4.924   4.828   7.730  1.00  0.00    -0.248 NA
ATOM     59  C   UNL     1      -4.950   7.041   8.483  1.00  0.00     0.031 C 
ATOM     60  C   UNL     1      -6.876   1.440   9.849  1.00  0.00     0.029 A 
ATOM     61  C   UNL     1      -6.309   2.518   9.188  1.00  0.00     0.049 A 
ATOM     62  H   UNL     1      -5.284   2.558   7.346  1.00  0.00     0.167 HD
ATOM     63  C   UNL     1      -5.646   4.895   8.915  1.00  0.00     0.074 A 
ATOM     64  C   UNL     1      -5.609   6.279   9.345  1.00  0.00     0.031 C 
ATOM     65  C   UNL     1      -6.277   3.901   9.589  1.00  0.00     0.037 A 
BRANCH  52  66
ATOM     66  C   UNL     1      -5.909  -1.642   6.884  1.00  0.00     0.058 A 
ATOM     67  C   UNL     1      -4.951  -2.640   7.119  1.00  0.00     0.135 A 
ATOM     68  C   UNL     1      -7.250  -2.049   6.764  1.00  0.00     0.135 A 
ATOM     69  F   UNL     1      -3.652  -2.318   7.231  1.00  0.00    -0.206 F 
ATOM     70  C   UNL     1      -5.306  -3.985   7.226  1.00  0.00     0.059 A 
ATOM     71  C   UNL     1      -7.631  -3.384   6.888  1.00  0.00     0.059 A 
ATOM     72  F   UNL     1      -8.212  -1.140   6.538  1.00  0.00    -0.206 F 
ATOM     73  C   UNL     1      -6.650  -4.347   7.111  1.00  0.00     0.060 A 
BRANCH  73  74
ATOM     74  S   UNL     1      -7.098  -6.091   7.273  1.00  0.00     0.124 S 
ATOM     75  O   UNL     1      -6.583  -6.643   6.024  1.00  0.00    -0.237 OA
ATOM     76  O   UNL     1      -6.383  -6.488   8.482  1.00  0.00    -0.237 OA
ATOM     77  O   UNL     1      -8.553  -6.062   7.391  1.00  0.00    -0.744 OA
ENDBRANCH  73  74
ENDBRANCH  52  66
BRANCH  53  78
ATOM     78  C   UNL     1      -3.391   8.006   6.182  1.00  0.00     0.058 A 
ATOM     79  C   UNL     1      -2.448   8.644   6.995  1.00  0.00     0.135 A 
ATOM     80  C   UNL     1      -3.981   8.751   5.146  1.00  0.00     0.135 A 
ATOM     81  F   UNL     1      -1.866   7.974   8.001  1.00  0.00    -0.206 F 
ATOM     82  C   UNL     1      -2.088   9.970   6.782  1.00  0.00     0.059 A 
ATOM     83  C   UNL     1      -3.616  10.067   4.894  1.00  0.00     0.059 A 
ATOM     84  F   UNL     1      -4.879   8.177   4.330  1.00  0.00    -0.206 F 
ATOM     85  C   UNL     1      -2.669  10.669   5.721  1.00  0.00     0.060 A 
BRANCH  85  86
ATOM     86  S   UNL     1      -2.123  12.358   5.391  1.00  0.00     0.124 S 
ATOM     87  O   UNL     1      -2.790  13.095   6.457  1.00  0.00    -0.237 OA
ATOM     88  O   UNL     1      -0.672  12.239   5.506  1.00  0.00    -0.237 OA
ATOM     89  O   UNL     1      -2.616  12.611   4.040  1.00  0.00    -0.744 OA
ENDBRANCH  85  86
ENDBRANCH  53  78
BRANCH  65  90
ATOM     90  C   UNL     1      -6.953   4.280  10.874  1.00  0.00     0.058 A 
ATOM     91  C   UNL     1      -8.147   5.018  10.889  1.00  0.00     0.135 A 
ATOM     92  C   UNL     1      -6.398   3.898  12.105  1.00  0.00     0.135 A 
ATOM     93  F   UNL     1      -8.712   5.413   9.736  1.00  0.00    -0.206 F 
ATOM     94  C   UNL     1      -8.745   5.402  12.083  1.00  0.00     0.059 A 
ATOM     95  C   UNL     1      -6.995   4.247  13.312  1.00  0.00     0.059 A 
ATOM     96  F   UNL     1      -5.264   3.180  12.144  1.00  0.00    -0.206 F 
ATOM     97  C   UNL     1      -8.157   5.017  13.290  1.00  0.00     0.060 A 
BRANCH  97  98
ATOM     98  S   UNL     1      -8.934   5.531  14.835  1.00  0.00     0.124 S 
ATOM     99  O   UNL     1      -8.558   6.939  14.897  1.00  0.00    -0.237 OA
ATOM    100  O   UNL     1     -10.346   5.262  14.581  1.00  0.00    -0.237 OA
ATOM    101  O   UNL     1      -8.308   4.669  15.833  1.00  0.00    -0.744 OA
ENDBRANCH  97  98
ENDBRANCH  65  90
ENDBRANCH  39  40
ENDBRANCH  32  34
ENDBRANCH  31  32
ENDBRANCH  30  31
ENDBRANCH  29  30
ENDBRANCH  28  29
ENDBRANCH  27  28
ENDBRANCH   1  27
TORSDOF 25
