REMARK SMILES Cc1ccnc(C(=O)c2[nH]c3cc(F)ccc3c2CC(=O)OCCOCCOCCOC(=O)c2ccc(-c3c4nc(c(-c5c(F)cc(S(=O)(=O)[O-])cc5F)c5ccc([nH]5)c(-c5c(F)cc(S(=O)(=O)[O-])cc5F)c5nc(c(-c6c(F)cc(S(=O)(=O)[O-])cc6F)c6ccc3[nH]6)C=C5)C=C4)cc2)c1
REMARK SMILES IDX 26 1 25 2 24 3 23 4 22 5 20 6 21 7 19 8 18 9 9 10 10 11
REMARK SMILES IDX 11 12 17 14 12 15 16 16 13 17 15 18 14 19 7 20 8 21 6 22
REMARK SMILES IDX 1 23 2 24 3 25 100 26 4 27 5 28 27 29 28 30 29 31 30 32
REMARK SMILES IDX 31 33 32 34 33 35 34 36 35 37 99 38 36 39 98 40 37 41 38 42
REMARK SMILES IDX 39 43 92 44 40 45 97 46 91 47 93 48 41 49 96 50 90 51 89 52
REMARK SMILES IDX 42 54 76 55 55 56 75 57 56 58 59 59 74 60 94 61 57 62 58 63
REMARK SMILES IDX 73 65 95 66 60 67 43 68 44 69 53 70 45 71 46 72 52 73 54 74
REMARK SMILES IDX 47 75 48 76 49 77 50 78 51 79 77 80 78 81 87 82 79 83 80 84
REMARK SMILES IDX 86 85 88 86 81 87 82 88 83 89 84 90 85 91 61 92 62 93 71 94
REMARK SMILES IDX 63 95 64 96 70 97 72 98 65 99 66 100 67 101 68 102 69 103
REMARK H PARENT 10 13 93 53 59 64
REMARK Flexibility Score: inf
ROOT
ATOM      1  C   UNL     1       4.777  -3.221   0.543  1.00  0.00     0.188 C 
ENDROOT
BRANCH   1   2
ATOM      2  O   UNL     1       6.012  -3.919   0.655  1.00  0.00    -0.376 OA
BRANCH   2   3
ATOM      3  C   UNL     1       5.984  -5.335   0.542  1.00  0.00     0.202 C 
BRANCH   3   4
ATOM      4  C   UNL     1       5.132  -6.072   1.577  1.00  0.00     0.261 C 
BRANCH   4   5
ATOM      5  O   UNL     1       3.720  -5.787   1.437  1.00  0.00    -0.463 OA
BRANCH   5   6
ATOM      6  C   UNL     1       3.024  -5.734   2.601  1.00  0.00     0.310 C 
ATOM      7  O   UNL     1       3.521  -6.024   3.689  1.00  0.00    -0.252 OA
BRANCH   6   8
ATOM      8  C   UNL     1       1.597  -5.227   2.517  1.00  0.00     0.161 C 
BRANCH   8   9
ATOM      9  C   UNL     1       0.845  -5.213   1.202  1.00  0.00     0.000 A 
ATOM     10  C   UNL     1       0.441  -4.093   0.461  1.00  0.00     0.093 A 
ATOM     11  N   UNL     1      -0.214  -4.558  -0.656  1.00  0.00    -0.351 N 
ATOM     12  C   UNL     1      -0.531  -5.883  -0.500  1.00  0.00     0.049 A 
ATOM     13  H   UNL     1      -0.424  -4.019  -1.452  1.00  0.00     0.167 HD
ATOM     14  C   UNL     1       0.145  -6.333   0.635  1.00  0.00     0.004 A 
ATOM     15  C   UNL     1      -1.383  -6.697  -1.255  1.00  0.00     0.066 A 
ATOM     16  C   UNL     1      -0.044  -7.672   1.040  1.00  0.00     0.013 A 
ATOM     17  C   UNL     1      -1.584  -7.996  -0.797  1.00  0.00     0.125 A 
ATOM     18  C   UNL     1      -0.932  -8.486   0.327  1.00  0.00     0.040 A 
ATOM     19  F   UNL     1      -2.450  -8.787  -1.446  1.00  0.00    -0.207 F 
BRANCH  10  20
ATOM     20  C   UNL     1       0.643  -2.685   0.757  1.00  0.00     0.227 C 
ATOM     21  O   UNL     1       1.429  -2.298   1.619  1.00  0.00    -0.285 OA
BRANCH  20  22
ATOM     22  C   UNL     1      -0.142  -1.651   0.021  1.00  0.00     0.113 A 
ATOM     23  C   UNL     1      -3.475   0.123   0.229  1.00  0.00     0.044 C 
ATOM     24  C   UNL     1      -2.075  -0.252  -0.156  1.00  0.00    -0.047 A 
ATOM     25  C   UNL     1      -1.322   0.599  -0.971  1.00  0.00     0.023 A 
ATOM     26  C   UNL     1      -1.462  -1.394   0.372  1.00  0.00     0.036 A 
ATOM     27  C   UNL     1      -0.032   0.226  -1.307  1.00  0.00     0.112 A 
ATOM     28  N   UNL     1       0.562  -0.903  -0.861  1.00  0.00    -0.253 NA
ENDBRANCH  20  22
ENDBRANCH  10  20
ENDBRANCH   8   9
ENDBRANCH   6   8
ENDBRANCH   5   6
ENDBRANCH   4   5
ENDBRANCH   3   4
ENDBRANCH   2   3
ENDBRANCH   1   2
BRANCH   1  29
ATOM     29  C   UNL     1       3.803  -3.612  -0.590  1.00  0.00     0.188 C 
BRANCH  29  30
ATOM     30  O   UNL     1       4.314  -4.217  -1.772  1.00  0.00    -0.376 OA
BRANCH  30  31
ATOM     31  C   UNL     1       5.357  -3.528  -2.448  1.00  0.00     0.202 C 
BRANCH  31  32
ATOM     32  C   UNL     1       4.994  -2.120  -2.912  1.00  0.00     0.261 C 
BRANCH  32  33
ATOM     33  O   UNL     1       4.842  -1.227  -1.792  1.00  0.00    -0.460 OA
BRANCH  33  34
ATOM     34  C   UNL     1       4.069  -0.148  -2.058  1.00  0.00     0.338 C 
ATOM     35  O   UNL     1       3.616   0.161  -3.149  1.00  0.00    -0.246 OA
BRANCH  34  36
ATOM     36  C   UNL     1       3.801   0.658  -0.847  1.00  0.00     0.060 A 
ATOM     37  C   UNL     1       3.132   0.107   0.239  1.00  0.00     0.016 A 
ATOM     38  C   UNL     1       3.967   2.040  -0.915  1.00  0.00     0.016 A 
ATOM     39  C   UNL     1       2.474   0.934   1.153  1.00  0.00     0.010 A 
ATOM     40  C   UNL     1       3.396   2.865   0.064  1.00  0.00     0.010 A 
ATOM     41  C   UNL     1       2.569   2.329   1.066  1.00  0.00    -0.014 A 
BRANCH  41  42
ATOM     42  C   UNL     1       1.730   3.213   1.937  1.00  0.00     0.031 A 
ATOM     43  C   UNL     1       0.788   4.227   1.316  1.00  0.00     0.074 A 
ATOM     44  C   UNL     1       1.751   3.087   3.281  1.00  0.00     0.049 A 
ATOM     45  N   UNL     1       0.097   5.181   1.891  1.00  0.00    -0.248 NA
ATOM     46  C   UNL     1       0.591   4.156  -0.143  1.00  0.00     0.031 C 
ATOM     47  C   UNL     1       2.536   2.105   4.030  1.00  0.00     0.029 A 
ATOM     48  N   UNL     1       1.085   3.788   4.260  1.00  0.00    -0.354 N 
ATOM     49  C   UNL     1      -0.583   5.840   0.869  1.00  0.00     0.074 A 
ATOM     50  C   UNL     1      -0.216   5.185  -0.367  1.00  0.00     0.031 C 
ATOM     51  C   UNL     1       2.284   2.241   5.340  1.00  0.00     0.029 A 
ATOM     52  C   UNL     1       1.405   3.387   5.538  1.00  0.00     0.049 A 
ATOM     53  H   UNL     1       0.441   4.507   4.066  1.00  0.00     0.167 HD
ATOM     54  C   UNL     1      -1.432   6.894   0.951  1.00  0.00     0.037 A 
ATOM     55  C   UNL     1       1.085   3.913   6.738  1.00  0.00     0.037 A 
ATOM     56  C   UNL     1      -1.806   7.545   2.182  1.00  0.00     0.049 A 
ATOM     57  C   UNL     1       0.233   5.151   6.794  1.00  0.00     0.074 A 
ATOM     58  C   UNL     1      -2.623   8.650   2.360  1.00  0.00     0.029 A 
ATOM     59  N   UNL     1      -1.396   7.150   3.446  1.00  0.00    -0.354 N 
ATOM     60  N   UNL     1      -0.334   5.810   5.811  1.00  0.00    -0.248 NA
ATOM     61  C   UNL     1      -0.004   5.731   8.123  1.00  0.00     0.031 C 
ATOM     62  C   UNL     1      -2.669   8.950   3.725  1.00  0.00     0.029 A 
ATOM     63  C   UNL     1      -1.926   8.000   4.404  1.00  0.00     0.049 A 
ATOM     64  H   UNL     1      -0.815   6.378   3.635  1.00  0.00     0.167 HD
ATOM     65  C   UNL     1      -1.001   6.876   6.406  1.00  0.00     0.074 A 
ATOM     66  C   UNL     1      -0.796   6.753   7.834  1.00  0.00     0.031 C 
ATOM     67  C   UNL     1      -1.710   7.874   5.823  1.00  0.00     0.037 A 
BRANCH  54  68
ATOM     68  C   UNL     1      -1.999   7.449  -0.330  1.00  0.00     0.058 A 
ATOM     69  C   UNL     1      -3.019   6.794  -1.036  1.00  0.00     0.135 A 
ATOM     70  C   UNL     1      -1.569   8.698  -0.811  1.00  0.00     0.135 A 
ATOM     71  F   UNL     1      -3.452   5.588  -0.636  1.00  0.00    -0.206 F 
ATOM     72  C   UNL     1      -3.593   7.357  -2.174  1.00  0.00     0.059 A 
ATOM     73  C   UNL     1      -2.143   9.289  -1.933  1.00  0.00     0.059 A 
ATOM     74  F   UNL     1      -0.593   9.366  -0.176  1.00  0.00    -0.206 F 
ATOM     75  C   UNL     1      -3.153   8.608  -2.611  1.00  0.00     0.060 A 
BRANCH  75  76
ATOM     76  S   UNL     1      -3.932   9.337  -4.068  1.00  0.00     0.124 S 
ATOM     77  O   UNL     1      -3.432   8.469  -5.130  1.00  0.00    -0.237 OA
ATOM     78  O   UNL     1      -5.352   9.206  -3.758  1.00  0.00    -0.237 OA
ATOM     79  O   UNL     1      -3.419  10.704  -4.082  1.00  0.00    -0.744 OA
ENDBRANCH  75  76
ENDBRANCH  54  68
BRANCH  55  80
ATOM     80  C   UNL     1       1.647   3.327   7.988  1.00  0.00     0.058 A 
ATOM     81  C   UNL     1       0.820   2.750   8.963  1.00  0.00     0.135 A 
ATOM     82  C   UNL     1       3.028   3.364   8.245  1.00  0.00     0.135 A 
ATOM     83  F   UNL     1      -0.508   2.705   8.775  1.00  0.00    -0.206 F 
ATOM     84  C   UNL     1       1.337   2.254  10.156  1.00  0.00     0.059 A 
ATOM     85  C   UNL     1       3.572   2.840   9.412  1.00  0.00     0.059 A 
ATOM     86  F   UNL     1       3.867   3.902   7.346  1.00  0.00    -0.206 F 
ATOM     87  C   UNL     1       2.716   2.305  10.371  1.00  0.00     0.060 A 
BRANCH  87  88
ATOM     88  S   UNL     1       3.386   1.644  11.912  1.00  0.00     0.124 S 
ATOM     89  O   UNL     1       3.052   2.705  12.854  1.00  0.00    -0.237 OA
ATOM     90  O   UNL     1       2.642   0.397  12.064  1.00  0.00    -0.237 OA
ATOM     91  O   UNL     1       4.807   1.484  11.617  1.00  0.00    -0.744 OA
ENDBRANCH  87  88
ENDBRANCH  55  80
BRANCH  67  92
ATOM     92  C   UNL     1      -2.338   8.887   6.740  1.00  0.00     0.058 A 
ATOM     93  C   UNL     1      -1.565   9.824   7.445  1.00  0.00     0.135 A 
ATOM     94  C   UNL     1      -3.729   8.909   6.933  1.00  0.00     0.135 A 
ATOM     95  F   UNL     1      -0.230   9.844   7.299  1.00  0.00    -0.206 F 
ATOM     96  C   UNL     1      -2.141  10.707   8.352  1.00  0.00     0.059 A 
ATOM     97  C   UNL     1      -4.330   9.805   7.811  1.00  0.00     0.059 A 
ATOM     98  F   UNL     1      -4.518   8.047   6.272  1.00  0.00    -0.206 F 
ATOM     99  C   UNL     1      -3.525  10.682   8.536  1.00  0.00     0.060 A 
BRANCH  99 100
ATOM    100  S   UNL     1      -4.261  11.810   9.738  1.00  0.00     0.124 S 
ATOM    101  O   UNL     1      -3.911  11.164  10.998  1.00  0.00    -0.237 OA
ATOM    102  O   UNL     1      -3.571  13.065   9.456  1.00  0.00    -0.237 OA
ATOM    103  O   UNL     1      -5.680  11.792   9.394  1.00  0.00    -0.744 OA
ENDBRANCH  99 100
ENDBRANCH  67  92
ENDBRANCH  41  42
ENDBRANCH  34  36
ENDBRANCH  33  34
ENDBRANCH  32  33
ENDBRANCH  31  32
ENDBRANCH  30  31
ENDBRANCH  29  30
ENDBRANCH   1  29
TORSDOF 23
