REMARK SMILES CS(=O)(=O)N(Cc1ccc(Cl)cc1)c1ccc(C(=O)Nc2ccccc2C(=O)OCCOCCOCCOC(=O)c2ccc(-c3c4nc(c(-c5c(F)cc(S(=O)(=O)[O-])cc5F)c5ccc([nH]5)c(-c5c(F)cc(S(=O)(=O)[O-])cc5F)c5nc(c(-c6c(F)cc(S(=O)(=O)[O-])cc6F)c6ccc3[nH]6)C=C5)C=C4)cc2)cc1
REMARK SMILES IDX 33 1 32 2 31 3 30 4 29 5 27 6 28 7 26 8 21 9 22 10 23 11
REMARK SMILES IDX 25 12 24 13 20 14 18 15 19 16 17 18 14 19 15 20 108 21 16 22
REMARK SMILES IDX 107 23 5 24 2 25 1 26 3 27 4 28 6 29 7 30 8 31 13 32 9 33
REMARK SMILES IDX 12 34 10 35 11 36 34 37 35 38 36 39 37 40 38 41 39 42 40 43
REMARK SMILES IDX 41 44 42 45 106 46 43 47 105 48 44 49 45 50 46 51 99 52
REMARK SMILES IDX 47 53 104 54 98 55 100 56 48 57 103 58 97 59 96 60 49 62
REMARK SMILES IDX 83 63 62 64 82 65 63 66 66 67 81 68 101 69 64 70 65 71 80 73
REMARK SMILES IDX 102 74 67 75 50 76 51 77 60 78 52 79 53 80 59 81 61 82 54 83
REMARK SMILES IDX 55 84 56 85 57 86 58 87 84 88 85 89 94 90 86 91 87 92 93 93
REMARK SMILES IDX 95 94 88 95 89 96 90 97 91 98 92 99 68 100 69 101 78 102
REMARK SMILES IDX 70 103 71 104 77 105 79 106 72 107 73 108 74 109 75 110
REMARK SMILES IDX 76 111
REMARK H PARENT 20 17 100 61 66 72
REMARK Flexibility Score: inf
ROOT
ATOM      1  C   UNL     1      -2.173   7.213  -4.045  1.00  0.00     0.188 C 
ENDROOT
BRANCH   1   2
ATOM      2  O   UNL     1      -0.952   7.827  -3.699  1.00  0.00    -0.376 OA
BRANCH   2   3
ATOM      3  C   UNL     1       0.274   7.174  -3.962  1.00  0.00     0.202 C 
BRANCH   3   4
ATOM      4  C   UNL     1       0.411   5.719  -4.424  1.00  0.00     0.261 C 
BRANCH   4   5
ATOM      5  O   UNL     1      -0.625   5.167  -5.243  1.00  0.00    -0.460 OA
BRANCH   5   6
ATOM      6  C   UNL     1      -1.374   4.202  -4.643  1.00  0.00     0.340 C 
ATOM      7  O   UNL     1      -1.291   3.888  -3.465  1.00  0.00    -0.246 OA
BRANCH   6   8
ATOM      8  C   UNL     1      -2.438   3.665  -5.539  1.00  0.00     0.083 A 
ATOM      9  C   UNL     1      -2.359   3.494  -6.936  1.00  0.00     0.056 A 
ATOM     10  C   UNL     1      -3.529   3.132  -7.632  1.00  0.00     0.027 A 
ATOM     11  C   UNL     1      -4.721   2.850  -6.962  1.00  0.00     0.002 A 
ATOM     12  C   UNL     1      -3.653   3.382  -4.877  1.00  0.00     0.018 A 
ATOM     13  C   UNL     1      -4.781   2.965  -5.580  1.00  0.00     0.001 A 
BRANCH   9  14
ATOM     14  N   UNL     1      -1.219   3.598  -7.765  1.00  0.00    -0.321 N 
ATOM     15  C   UNL     1       0.114   3.321  -7.559  1.00  0.00     0.255 C 
ATOM     16  O   UNL     1       0.941   3.655  -8.408  1.00  0.00    -0.269 OA
ATOM     17  H   UNL     1      -1.417   3.934  -8.669  1.00  0.00     0.170 HD
BRANCH  15  18
ATOM     18  C   UNL     1       0.577   2.588  -6.361  1.00  0.00     0.040 A 
ATOM     19  C   UNL     1       1.239   1.717  -3.751  1.00  0.00     0.052 A 
ATOM     20  C   UNL     1       2.094   2.550  -4.492  1.00  0.00     0.028 A 
ATOM     21  C   UNL     1       0.131   1.197  -4.434  1.00  0.00     0.028 A 
ATOM     22  C   UNL     1       1.770   2.994  -5.776  1.00  0.00     0.016 A 
ATOM     23  C   UNL     1      -0.176   1.593  -5.743  1.00  0.00     0.016 A 
BRANCH  19  24
ATOM     24  N   UNL     1       1.524   1.435  -2.328  1.00  0.00    -0.266 N 
BRANCH  24  25
ATOM     25  S   UNL     1       0.532   0.262  -1.575  1.00  0.00     0.232 S 
ATOM     26  C   UNL     1       1.299  -0.039   0.006  1.00  0.00     0.183 C 
ATOM     27  O   UNL     1       0.660  -0.966  -2.338  1.00  0.00    -0.207 OA
ATOM     28  O   UNL     1      -0.766   0.853  -1.333  1.00  0.00    -0.207 OA
ENDBRANCH  24  25
BRANCH  24  29
ATOM     29  C   UNL     1       1.857   2.634  -1.478  1.00  0.00     0.170 C 
BRANCH  29  30
ATOM     30  C   UNL     1       3.306   3.072  -1.669  1.00  0.00    -0.027 A 
ATOM     31  C   UNL     1       4.309   2.107  -1.880  1.00  0.00     0.007 A 
ATOM     32  C   UNL     1       3.631   4.431  -1.799  1.00  0.00     0.007 A 
ATOM     33  C   UNL     1       5.565   2.484  -2.357  1.00  0.00     0.021 A 
ATOM     34  C   UNL     1       4.896   4.807  -2.261  1.00  0.00     0.021 A 
ATOM     35  C   UNL     1       5.844   3.830  -2.570  1.00  0.00     0.041 A 
ATOM     36  Cl  UNL     1       7.349   4.286  -3.269  1.00  0.00    -0.084 Cl
ENDBRANCH  29  30
ENDBRANCH  24  29
ENDBRANCH  19  24
ENDBRANCH  15  18
ENDBRANCH   9  14
ENDBRANCH   6   8
ENDBRANCH   5   6
ENDBRANCH   4   5
ENDBRANCH   3   4
ENDBRANCH   2   3
ENDBRANCH   1   2
BRANCH   1  37
ATOM     37  C   UNL     1      -2.586   7.221  -5.534  1.00  0.00     0.188 C 
BRANCH  37  38
ATOM     38  O   UNL     1      -1.735   7.770  -6.520  1.00  0.00    -0.376 OA
BRANCH  38  39
ATOM     39  C   UNL     1      -1.256   9.094  -6.361  1.00  0.00     0.202 C 
BRANCH  39  40
ATOM     40  C   UNL     1      -2.139  10.240  -5.832  1.00  0.00     0.261 C 
BRANCH  40  41
ATOM     41  O   UNL     1      -3.045   9.922  -4.765  1.00  0.00    -0.460 OA
BRANCH  41  42
ATOM     42  C   UNL     1      -4.357   9.841  -5.109  1.00  0.00     0.338 C 
ATOM     43  O   UNL     1      -4.839  10.052  -6.211  1.00  0.00    -0.246 OA
BRANCH  42  44
ATOM     44  C   UNL     1      -5.116   9.216  -4.000  1.00  0.00     0.060 A 
ATOM     45  C   UNL     1      -5.787   8.005  -4.242  1.00  0.00     0.016 A 
ATOM     46  C   UNL     1      -5.166   9.803  -2.736  1.00  0.00     0.016 A 
ATOM     47  C   UNL     1      -6.527   7.392  -3.231  1.00  0.00     0.010 A 
ATOM     48  C   UNL     1      -5.940   9.207  -1.733  1.00  0.00     0.010 A 
ATOM     49  C   UNL     1      -6.650   8.017  -1.985  1.00  0.00    -0.014 A 
BRANCH  49  50
ATOM     50  C   UNL     1      -7.709   7.572  -1.043  1.00  0.00     0.031 A 
ATOM     51  C   UNL     1      -9.024   8.309  -1.070  1.00  0.00     0.074 A 
ATOM     52  C   UNL     1      -7.536   6.534  -0.204  1.00  0.00     0.049 A 
ATOM     53  N   UNL     1     -10.073   8.172  -0.302  1.00  0.00    -0.248 NA
ATOM     54  C   UNL     1      -9.171   9.343  -2.110  1.00  0.00     0.031 C 
ATOM     55  C   UNL     1      -6.340   5.697  -0.123  1.00  0.00     0.029 A 
ATOM     56  N   UNL     1      -8.376   6.013   0.751  1.00  0.00    -0.354 N 
ATOM     57  C   UNL     1     -11.000   9.101  -0.761  1.00  0.00     0.074 A 
ATOM     58  C   UNL     1     -10.378   9.821  -1.850  1.00  0.00     0.031 C 
ATOM     59  C   UNL     1      -6.517   4.777   0.844  1.00  0.00     0.029 A 
ATOM     60  C   UNL     1      -7.822   4.981   1.473  1.00  0.00     0.049 A 
ATOM     61  H   UNL     1      -9.289   6.347   0.904  1.00  0.00     0.167 HD
ATOM     62  C   UNL     1     -12.262   9.327  -0.326  1.00  0.00     0.037 A 
ATOM     63  C   UNL     1      -8.306   4.302   2.534  1.00  0.00     0.037 A 
ATOM     64  C   UNL     1     -12.877   8.617   0.764  1.00  0.00     0.049 A 
ATOM     65  C   UNL     1      -9.677   4.645   3.071  1.00  0.00     0.074 A 
ATOM     66  C   UNL     1     -14.144   8.784   1.293  1.00  0.00     0.029 A 
ATOM     67  N   UNL     1     -12.269   7.607   1.495  1.00  0.00    -0.354 N 
ATOM     68  N   UNL     1     -10.543   5.527   2.631  1.00  0.00    -0.248 NA
ATOM     69  C   UNL     1     -10.136   3.897   4.252  1.00  0.00     0.031 C 
ATOM     70  C   UNL     1     -14.286   7.909   2.374  1.00  0.00     0.029 A 
ATOM     71  C   UNL     1     -13.129   7.154   2.481  1.00  0.00     0.049 A 
ATOM     72  H   UNL     1     -11.360   7.263   1.336  1.00  0.00     0.167 HD
ATOM     73  C   UNL     1     -11.662   5.408   3.453  1.00  0.00     0.074 A 
ATOM     74  C   UNL     1     -11.366   4.366   4.412  1.00  0.00     0.031 C 
ATOM     75  C   UNL     1     -12.830   6.097   3.416  1.00  0.00     0.037 A 
BRANCH  62  76
ATOM     76  C   UNL     1     -13.055  10.400  -1.019  1.00  0.00     0.058 A 
ATOM     77  C   UNL     1     -13.529  10.234  -2.331  1.00  0.00     0.135 A 
ATOM     78  C   UNL     1     -13.375  11.594  -0.354  1.00  0.00     0.135 A 
ATOM     79  F   UNL     1     -13.232   9.123  -3.022  1.00  0.00    -0.206 F 
ATOM     80  C   UNL     1     -14.275  11.222  -2.965  1.00  0.00     0.059 A 
ATOM     81  C   UNL     1     -14.146  12.583  -0.957  1.00  0.00     0.059 A 
ATOM     82  F   UNL     1     -12.942  11.807   0.899  1.00  0.00    -0.206 F 
ATOM     83  C   UNL     1     -14.582  12.392  -2.268  1.00  0.00     0.060 A 
BRANCH  83  84
ATOM     84  S   UNL     1     -15.567  13.655  -3.099  1.00  0.00     0.124 S 
ATOM     85  O   UNL     1     -14.619  14.161  -4.087  1.00  0.00    -0.237 OA
ATOM     86  O   UNL     1     -16.682  12.878  -3.631  1.00  0.00    -0.237 OA
ATOM     87  O   UNL     1     -15.909  14.583  -2.026  1.00  0.00    -0.744 OA
ENDBRANCH  83  84
ENDBRANCH  62  76
BRANCH  63  88
ATOM     88  C   UNL     1      -7.492   3.236   3.188  1.00  0.00     0.058 A 
ATOM     89  C   UNL     1      -7.902   1.894   3.164  1.00  0.00     0.135 A 
ATOM     90  C   UNL     1      -6.317   3.544   3.891  1.00  0.00     0.135 A 
ATOM     91  F   UNL     1      -9.027   1.548   2.521  1.00  0.00    -0.206 F 
ATOM     92  C   UNL     1      -7.194   0.901   3.836  1.00  0.00     0.059 A 
ATOM     93  C   UNL     1      -5.576   2.564   4.545  1.00  0.00     0.059 A 
ATOM     94  F   UNL     1      -5.876   4.810   3.944  1.00  0.00    -0.206 F 
ATOM     95  C   UNL     1      -6.031   1.247   4.526  1.00  0.00     0.060 A 
BRANCH  95  96
ATOM     96  S   UNL     1      -5.110  -0.050   5.381  1.00  0.00     0.124 S 
ATOM     97  O   UNL     1      -5.981  -0.330   6.517  1.00  0.00    -0.237 OA
ATOM     98  O   UNL     1      -5.032  -1.094   4.364  1.00  0.00    -0.237 OA
ATOM     99  O   UNL     1      -3.841   0.596   5.704  1.00  0.00    -0.744 OA
ENDBRANCH  95  96
ENDBRANCH  63  88
BRANCH  75 100
ATOM    100  C   UNL     1     -13.906   5.711   4.397  1.00  0.00     0.058 A 
ATOM    101  C   UNL     1     -13.801   5.993   5.768  1.00  0.00     0.135 A 
ATOM    102  C   UNL     1     -15.087   5.097   3.946  1.00  0.00     0.135 A 
ATOM    103  F   UNL     1     -12.694   6.576   6.255  1.00  0.00    -0.206 F 
ATOM    104  C   UNL     1     -14.814   5.655   6.661  1.00  0.00     0.059 A 
ATOM    105  C   UNL     1     -16.127   4.780   4.816  1.00  0.00     0.059 A 
ATOM    106  F   UNL     1     -15.249   4.816   2.643  1.00  0.00    -0.206 F 
ATOM    107  C   UNL     1     -15.975   5.051   6.174  1.00  0.00     0.060 A 
BRANCH 107 108
ATOM    108  S   UNL     1     -17.294   4.646   7.339  1.00  0.00     0.124 S 
ATOM    109  O   UNL     1     -16.718   3.512   8.054  1.00  0.00    -0.237 OA
ATOM    110  O   UNL     1     -17.422   5.881   8.106  1.00  0.00    -0.237 OA
ATOM    111  O   UNL     1     -18.428   4.332   6.474  1.00  0.00    -0.744 OA
ENDBRANCH 107 108
ENDBRANCH  75 100
ENDBRANCH  49  50
ENDBRANCH  42  44
ENDBRANCH  41  42
ENDBRANCH  40  41
ENDBRANCH  39  40
ENDBRANCH  38  39
ENDBRANCH  37  38
ENDBRANCH   1  37
TORSDOF 26
