REMARK SMILES COc1ccc(C(=O)N[C@H](C(=O)OCCOCCOCCOC(=O)c2ccc(-c3c4nc(c(-c5c(F)cc(S(=O)(=O)[O-])cc5F)c5ccc([nH]5)c(-c5c(F)cc(S(=O)(=O)[O-])cc5F)c5nc(c(-c6c(F)cc(S(=O)(=O)[O-])cc6F)c6ccc3[nH]6)C=C5)C=C4)cc2)C2=C(C)N=N[C@H]2C)c(F)c1F
REMARK SMILES IDX 17 1 16 2 15 3 14 4 13 5 11 6 12 7 10 8 9 9 7 10 8 11 6 13
REMARK SMILES IDX 3 14 4 15 100 16 5 17 98 18 101 19 99 20 2 21 1 22 91 23
REMARK SMILES IDX 92 24 96 25 93 26 94 27 95 28 97 29 18 30 19 31 20 32 21 33
REMARK SMILES IDX 22 34 23 35 24 36 25 37 26 38 90 39 27 40 89 41 28 42 29 43
REMARK SMILES IDX 30 44 83 45 31 46 88 47 82 48 84 49 32 50 87 51 81 52 80 53
REMARK SMILES IDX 33 55 67 56 46 57 66 58 47 59 50 60 65 61 85 62 48 63 49 64
REMARK SMILES IDX 64 66 86 67 51 68 34 69 35 70 44 71 36 72 37 73 43 74 45 75
REMARK SMILES IDX 38 76 39 77 40 78 41 79 42 80 68 81 69 82 78 83 70 84 71 85
REMARK SMILES IDX 77 86 79 87 72 88 73 89 74 90 75 91 76 92 52 93 53 94 62 95
REMARK SMILES IDX 54 96 55 97 61 98 63 99 56 100 57 101 58 102 59 103 60 104
REMARK H PARENT 9 12 84 54 50 65
REMARK Flexibility Score: inf
ROOT
ATOM      1  C   UNL     1       1.453   2.326   9.160  1.00  0.00     0.188 C 
ENDROOT
BRANCH   1   2
ATOM      2  O   UNL     1       2.830   2.541   9.352  1.00  0.00    -0.376 OA
BRANCH   2   3
ATOM      3  C   UNL     1       3.685   2.783   8.248  1.00  0.00     0.202 C 
BRANCH   3   4
ATOM      4  C   UNL     1       3.226   3.045   6.803  1.00  0.00     0.261 C 
BRANCH   4   5
ATOM      5  O   UNL     1       1.886   3.505   6.608  1.00  0.00    -0.461 OA
BRANCH   5   6
ATOM      6  C   UNL     1       1.060   2.655   5.951  1.00  0.00     0.333 C 
ATOM      7  O   UNL     1       1.388   1.523   5.604  1.00  0.00    -0.249 OA
BRANCH   6   8
ATOM      8  C   UNL     1      -0.359   3.220   5.675  1.00  0.00     0.223 C 
BRANCH   8   9
ATOM      9  N   UNL     1      -1.306   2.203   6.131  1.00  0.00    -0.335 N 
ATOM     10  C   UNL     1      -2.482   1.704   5.650  1.00  0.00     0.255 C 
ATOM     11  O   UNL     1      -3.069   0.917   6.397  1.00  0.00    -0.269 OA
ATOM     12  H   UNL     1      -1.034   1.781   6.978  1.00  0.00     0.165 HD
BRANCH  10  13
ATOM     13  C   UNL     1      -3.078   1.999   4.321  1.00  0.00     0.078 A 
ATOM     14  C   UNL     1      -4.241   2.218   1.768  1.00  0.00     0.157 A 
ATOM     15  C   UNL     1      -4.636   1.189   2.611  1.00  0.00     0.050 A 
ATOM     16  C   UNL     1      -3.301   3.142   2.198  1.00  0.00     0.201 A 
ATOM     17  C   UNL     1      -4.056   1.082   3.878  1.00  0.00     0.021 A 
ATOM     18  C   UNL     1      -2.768   3.063   3.477  1.00  0.00     0.175 A 
ATOM     19  F   UNL     1      -2.920   4.145   1.391  1.00  0.00    -0.200 F 
ATOM     20  F   UNL     1      -2.007   4.094   3.846  1.00  0.00    -0.203 F 
BRANCH  14  21
ATOM     21  O   UNL     1      -4.762   2.295   0.509  1.00  0.00    -0.494 OA
ATOM     22  C   UNL     1      -5.815   3.258   0.478  1.00  0.00     0.278 C 
ENDBRANCH  14  21
ENDBRANCH  10  13
ENDBRANCH   8   9
BRANCH   8  23
ATOM     23  C   UNL     1      -0.823   4.583   6.153  1.00  0.00     0.012 C 
ATOM     24  C   UNL     1      -1.931   4.991   6.807  1.00  0.00     0.064 C 
ATOM     25  C   UNL     1      -0.233   5.855   5.614  1.00  0.00     0.156 C 
ATOM     26  C   UNL     1      -2.996   4.249   7.552  1.00  0.00     0.069 C 
ATOM     27  N   UNL     1      -2.173   6.335   6.631  1.00  0.00    -0.160 NA
ATOM     28  N   UNL     1      -1.326   6.836   5.849  1.00  0.00    -0.181 NA
ATOM     29  C   UNL     1       0.971   6.435   6.357  1.00  0.00     0.040 C 
ENDBRANCH   8  23
ENDBRANCH   6   8
ENDBRANCH   5   6
ENDBRANCH   4   5
ENDBRANCH   3   4
ENDBRANCH   2   3
ENDBRANCH   1   2
BRANCH   1  30
ATOM     30  C   UNL     1       0.584   3.595   9.174  1.00  0.00     0.188 C 
BRANCH  30  31
ATOM     31  O   UNL     1       1.168   4.881   9.230  1.00  0.00    -0.376 OA
BRANCH  31  32
ATOM     32  C   UNL     1       2.089   5.165  10.271  1.00  0.00     0.202 C 
BRANCH  32  33
ATOM     33  C   UNL     1       1.786   4.795  11.736  1.00  0.00     0.261 C 
BRANCH  33  34
ATOM     34  O   UNL     1       1.126   3.538  11.951  1.00  0.00    -0.460 OA
BRANCH  34  35
ATOM     35  C   UNL     1      -0.183   3.619  12.304  1.00  0.00     0.338 C 
ATOM     36  O   UNL     1      -0.832   4.637  12.496  1.00  0.00    -0.246 OA
BRANCH  35  37
ATOM     37  C   UNL     1      -0.796   2.278  12.201  1.00  0.00     0.060 A 
ATOM     38  C   UNL     1      -1.825   2.078  11.266  1.00  0.00     0.016 A 
ATOM     39  C   UNL     1      -0.372   1.232  13.019  1.00  0.00     0.016 A 
ATOM     40  C   UNL     1      -2.435   0.831  11.146  1.00  0.00     0.010 A 
ATOM     41  C   UNL     1      -1.014  -0.006  12.928  1.00  0.00     0.010 A 
ATOM     42  C   UNL     1      -2.063  -0.205  12.009  1.00  0.00    -0.014 A 
BRANCH  42  43
ATOM     43  C   UNL     1      -2.896  -1.428  12.095  1.00  0.00     0.031 A 
ATOM     44  C   UNL     1      -3.922  -1.511  13.192  1.00  0.00     0.074 A 
ATOM     45  C   UNL     1      -2.748  -2.440  11.223  1.00  0.00     0.049 A 
ATOM     46  N   UNL     1      -4.696  -2.507  13.533  1.00  0.00    -0.248 NA
ATOM     47  C   UNL     1      -4.092  -0.304  14.019  1.00  0.00     0.031 C 
ATOM     48  C   UNL     1      -1.831  -2.450  10.085  1.00  0.00     0.029 A 
ATOM     49  N   UNL     1      -3.364  -3.666  11.171  1.00  0.00    -0.354 N 
ATOM     50  C   UNL     1      -5.434  -2.055  14.620  1.00  0.00     0.074 A 
ATOM     51  C   UNL     1      -4.996  -0.705  14.899  1.00  0.00     0.031 C 
ATOM     52  C   UNL     1      -1.926  -3.636   9.460  1.00  0.00     0.029 A 
ATOM     53  C   UNL     1      -2.882  -4.482  10.175  1.00  0.00     0.049 A 
ATOM     54  H   UNL     1      -4.081  -3.936  11.789  1.00  0.00     0.167 HD
ATOM     55  C   UNL     1      -6.392  -2.707  15.320  1.00  0.00     0.037 A 
ATOM     56  C   UNL     1      -3.160  -5.771   9.894  1.00  0.00     0.037 A 
ATOM     57  C   UNL     1      -6.816  -4.054  15.036  1.00  0.00     0.049 A 
ATOM     58  C   UNL     1      -4.174  -6.506  10.736  1.00  0.00     0.074 A 
ATOM     59  C   UNL     1      -7.787  -4.802  15.677  1.00  0.00     0.029 A 
ATOM     60  N   UNL     1      -6.286  -4.857  14.036  1.00  0.00    -0.354 N 
ATOM     61  N   UNL     1      -4.876  -6.067  11.755  1.00  0.00    -0.248 NA
ATOM     62  C   UNL     1      -4.435  -7.910  10.391  1.00  0.00     0.031 C 
ATOM     63  C   UNL     1      -7.802  -6.078  15.104  1.00  0.00     0.029 A 
ATOM     64  C   UNL     1      -6.890  -6.104  14.061  1.00  0.00     0.049 A 
ATOM     65  H   UNL     1      -5.585  -4.582  13.402  1.00  0.00     0.167 HD
ATOM     66  C   UNL     1      -5.684  -7.130  12.149  1.00  0.00     0.074 A 
ATOM     67  C   UNL     1      -5.390  -8.229  11.254  1.00  0.00     0.031 C 
ATOM     68  C   UNL     1      -6.591  -7.189  13.157  1.00  0.00     0.037 A 
BRANCH  55  69
ATOM     69  C   UNL     1      -7.016  -1.988  16.485  1.00  0.00     0.058 A 
ATOM     70  C   UNL     1      -7.871  -0.887  16.309  1.00  0.00     0.135 A 
ATOM     71  C   UNL     1      -6.773  -2.422  17.798  1.00  0.00     0.135 A 
ATOM     72  F   UNL     1      -8.123  -0.416  15.078  1.00  0.00    -0.206 F 
ATOM     73  C   UNL     1      -8.439  -0.227  17.394  1.00  0.00     0.059 A 
ATOM     74  C   UNL     1      -7.356  -1.797  18.896  1.00  0.00     0.059 A 
ATOM     75  F   UNL     1      -5.960  -3.466  18.026  1.00  0.00    -0.206 F 
ATOM     76  C   UNL     1      -8.177  -0.691  18.684  1.00  0.00     0.060 A 
BRANCH  76  77
ATOM     77  S   UNL     1      -8.926   0.174  20.080  1.00  0.00     0.124 S 
ATOM     78  O   UNL     1      -8.179   1.428  20.083  1.00  0.00    -0.237 OA
ATOM     79  O   UNL     1     -10.324   0.271  19.672  1.00  0.00    -0.237 OA
ATOM     80  O   UNL     1      -8.666  -0.712  21.210  1.00  0.00    -0.744 OA
ENDBRANCH  76  77
ENDBRANCH  55  69
BRANCH  56  81
ATOM     81  C   UNL     1      -2.458  -6.458   8.775  1.00  0.00     0.058 A 
ATOM     82  C   UNL     1      -3.146  -6.854   7.619  1.00  0.00     0.135 A 
ATOM     83  C   UNL     1      -1.082  -6.732   8.840  1.00  0.00     0.135 A 
ATOM     84  F   UNL     1      -4.464  -6.631   7.513  1.00  0.00    -0.206 F 
ATOM     85  C   UNL     1      -2.500  -7.507   6.573  1.00  0.00     0.059 A 
ATOM     86  C   UNL     1      -0.408  -7.358   7.796  1.00  0.00     0.059 A 
ATOM     87  F   UNL     1      -0.374  -6.371   9.922  1.00  0.00    -0.206 F 
ATOM     88  C   UNL     1      -1.128  -7.749   6.668  1.00  0.00     0.060 A 
BRANCH  88  89
ATOM     89  S   UNL     1      -0.292  -8.549   5.282  1.00  0.00     0.124 S 
ATOM     90  O   UNL     1      -0.808  -9.910   5.370  1.00  0.00    -0.237 OA
ATOM     91  O   UNL     1      -0.762  -7.761   4.146  1.00  0.00    -0.237 OA
ATOM     92  O   UNL     1       1.123  -8.389   5.604  1.00  0.00    -0.744 OA
ENDBRANCH  88  89
ENDBRANCH  56  81
BRANCH  68  93
ATOM     93  C   UNL     1      -7.370  -8.467  13.325  1.00  0.00     0.058 A 
ATOM     94  C   UNL     1      -6.775  -9.643  13.808  1.00  0.00     0.135 A 
ATOM     95  C   UNL     1      -8.749  -8.497  13.055  1.00  0.00     0.135 A 
ATOM     96  F   UNL     1      -5.461  -9.674  14.079  1.00  0.00    -0.206 F 
ATOM     97  C   UNL     1      -7.513 -10.809  13.994  1.00  0.00     0.059 A 
ATOM     98  C   UNL     1      -9.512  -9.641  13.264  1.00  0.00     0.059 A 
ATOM     99  F   UNL     1      -9.373  -7.397  12.602  1.00  0.00    -0.206 F 
ATOM    100  C   UNL     1      -8.883 -10.796  13.722  1.00  0.00     0.060 A 
BRANCH 100 101
ATOM    101  S   UNL     1      -9.834 -12.305  14.001  1.00  0.00     0.124 S 
ATOM    102  O   UNL     1      -9.372 -13.152  12.906  1.00  0.00    -0.237 OA
ATOM    103  O   UNL     1      -9.402 -12.704  15.337  1.00  0.00    -0.237 OA
ATOM    104  O   UNL     1     -11.221 -11.857  13.905  1.00  0.00    -0.744 OA
ENDBRANCH 100 101
ENDBRANCH  68  93
ENDBRANCH  42  43
ENDBRANCH  35  37
ENDBRANCH  34  35
ENDBRANCH  33  34
ENDBRANCH  32  33
ENDBRANCH  31  32
ENDBRANCH  30  31
ENDBRANCH   1  30
TORSDOF 24
