REMARK SMILES COc1cccc(NC(=O)COc2csc(C(=O)OCCOCCOCCOC(=O)c3ccc(-c4c5nc(c(-c6c(F)cc(S(=O)(=O)[O-])cc6F)c6ccc([nH]6)c(-c6c(F)cc(S(=O)(=O)[O-])cc6F)c6nc(c(-c7c(F)cc(S(=O)(=O)[O-])cc7F)c7ccc4[nH]7)C=C6)C=C5)cc3)c2)c1
REMARK SMILES IDX 23 1 22 2 21 3 20 4 19 5 17 6 18 7 16 8 13 9 14 10 97 11
REMARK SMILES IDX 15 12 12 13 11 14 9 15 8 16 10 18 7 19 3 20 4 21 98 22 5 23
REMARK SMILES IDX 6 24 2 25 1 26 24 27 25 28 26 29 27 30 28 31 29 32 30 33
REMARK SMILES IDX 31 34 32 35 96 36 33 37 95 38 34 39 35 40 36 41 89 42 37 43
REMARK SMILES IDX 94 44 88 45 90 46 38 47 93 48 87 49 86 50 39 52 73 53 52 54
REMARK SMILES IDX 72 55 53 56 56 57 71 58 91 59 54 60 55 61 70 63 92 64 57 65
REMARK SMILES IDX 40 66 41 67 50 68 42 69 43 70 49 71 51 72 44 73 45 74 46 75
REMARK SMILES IDX 47 76 48 77 74 78 75 79 84 80 76 81 77 82 83 83 85 84 78 85
REMARK SMILES IDX 79 86 80 87 81 88 82 89 58 90 59 91 68 92 60 93 61 94 67 95
REMARK SMILES IDX 69 96 62 97 63 98 64 99 65 100 66 101
REMARK H PARENT 8 17 90 51 56 62
REMARK Flexibility Score: inf
ROOT
ATOM      1  C   UNL     1       4.942 -11.626  -3.184  1.00  0.00     0.188 C 
ENDROOT
BRANCH   1   2
ATOM      2  O   UNL     1       4.533 -12.841  -2.563  1.00  0.00    -0.376 OA
BRANCH   2   3
ATOM      3  C   UNL     1       3.147 -13.117  -2.406  1.00  0.00     0.202 C 
BRANCH   3   4
ATOM      4  C   UNL     1       2.333 -12.147  -1.546  1.00  0.00     0.261 C 
BRANCH   4   5
ATOM      5  O   UNL     1       2.337 -10.808  -2.068  1.00  0.00    -0.459 OA
BRANCH   5   6
ATOM      6  C   UNL     1       2.720  -9.837  -1.185  1.00  0.00     0.348 C 
ATOM      7  O   UNL     1       2.856 -10.009   0.019  1.00  0.00    -0.245 OA
BRANCH   6   8
ATOM      8  C   UNL     1       3.034  -8.621  -1.906  1.00  0.00     0.116 A 
ATOM      9  C   UNL     1       3.060  -6.843  -3.426  1.00  0.00     0.131 A 
ATOM     10  C   UNL     1       4.215  -6.611  -2.716  1.00  0.00     0.112 A 
ATOM     11  C   UNL     1       2.393  -8.023  -2.975  1.00  0.00     0.074 A 
ATOM     12  S   UNL     1       4.433  -7.745  -1.452  1.00  0.00    -0.133 S 
BRANCH   9  13
ATOM     13  O   UNL     1       2.525  -6.075  -4.407  1.00  0.00    -0.483 OA
BRANCH  13  14
ATOM     14  C   UNL     1       3.380  -5.167  -5.071  1.00  0.00     0.329 C 
BRANCH  14  15
ATOM     15  C   UNL     1       4.062  -3.983  -4.374  1.00  0.00     0.262 C 
ATOM     16  N   UNL     1       3.469  -3.193  -3.440  1.00  0.00    -0.323 N 
ATOM     17  H   UNL     1       4.095  -2.550  -3.035  1.00  0.00     0.170 HD
ATOM     18  O   UNL     1       5.238  -3.716  -4.656  1.00  0.00    -0.271 OA
BRANCH  16  19
ATOM     19  C   UNL     1       2.170  -3.081  -2.921  1.00  0.00     0.044 A 
ATOM     20  C   UNL     1       0.784  -2.123  -1.161  1.00  0.00     0.120 A 
ATOM     21  C   UNL     1      -0.332  -2.766  -1.685  1.00  0.00     0.046 A 
ATOM     22  C   UNL     1       2.032  -2.295  -1.765  1.00  0.00     0.072 A 
ATOM     23  C   UNL     1      -0.212  -3.518  -2.850  1.00  0.00     0.006 A 
ATOM     24  C   UNL     1       1.031  -3.657  -3.477  1.00  0.00     0.026 A 
BRANCH  20  25
ATOM     25  O   UNL     1       0.584  -1.391  -0.022  1.00  0.00    -0.497 OA
ATOM     26  C   UNL     1       1.214  -0.112  -0.050  1.00  0.00     0.278 C 
ENDBRANCH  20  25
ENDBRANCH  16  19
ENDBRANCH  14  15
ENDBRANCH  13  14
ENDBRANCH   9  13
ENDBRANCH   6   8
ENDBRANCH   5   6
ENDBRANCH   4   5
ENDBRANCH   3   4
ENDBRANCH   2   3
ENDBRANCH   1   2
BRANCH   1  27
ATOM     27  C   UNL     1       4.225 -11.152  -4.463  1.00  0.00     0.188 C 
BRANCH  27  28
ATOM     28  O   UNL     1       3.429 -12.148  -5.088  1.00  0.00    -0.376 OA
BRANCH  28  29
ATOM     29  C   UNL     1       3.882 -12.602  -6.356  1.00  0.00     0.202 C 
BRANCH  29  30
ATOM     30  C   UNL     1       5.092 -13.540  -6.290  1.00  0.00     0.261 C 
BRANCH  30  31
ATOM     31  O   UNL     1       6.280 -12.962  -5.726  1.00  0.00    -0.460 OA
BRANCH  31  32
ATOM     32  C   UNL     1       6.858 -11.954  -6.418  1.00  0.00     0.338 C 
ATOM     33  O   UNL     1       6.470 -11.466  -7.464  1.00  0.00    -0.246 OA
BRANCH  32  34
ATOM     34  C   UNL     1       7.972 -11.427  -5.604  1.00  0.00     0.060 A 
ATOM     35  C   UNL     1       7.998 -10.064  -5.288  1.00  0.00     0.016 A 
ATOM     36  C   UNL     1       8.989 -12.278  -5.163  1.00  0.00     0.016 A 
ATOM     37  C   UNL     1       9.063  -9.543  -4.549  1.00  0.00     0.010 A 
ATOM     38  C   UNL     1      10.061 -11.752  -4.437  1.00  0.00     0.010 A 
ATOM     39  C   UNL     1      10.117 -10.378  -4.149  1.00  0.00    -0.014 A 
BRANCH  39  40
ATOM     40  C   UNL     1      11.354  -9.797  -3.573  1.00  0.00     0.031 A 
ATOM     41  C   UNL     1      12.505  -9.497  -4.495  1.00  0.00     0.074 A 
ATOM     42  C   UNL     1      11.461  -9.546  -2.256  1.00  0.00     0.049 A 
ATOM     43  N   UNL     1      13.692  -9.025  -4.215  1.00  0.00    -0.248 NA
ATOM     44  C   UNL     1      12.287  -9.771  -5.925  1.00  0.00     0.031 C 
ATOM     45  C   UNL     1      10.414  -9.775  -1.262  1.00  0.00     0.029 A 
ATOM     46  N   UNL     1      12.514  -9.050  -1.527  1.00  0.00    -0.354 N 
ATOM     47  C   UNL     1      14.361  -8.941  -5.430  1.00  0.00     0.074 A 
ATOM     48  C   UNL     1      13.459  -9.438  -6.446  1.00  0.00     0.031 C 
ATOM     49  C   UNL     1      10.883  -9.432  -0.048  1.00  0.00     0.029 A 
ATOM     50  C   UNL     1      12.268  -8.981  -0.177  1.00  0.00     0.049 A 
ATOM     51  H   UNL     1      13.366  -8.770  -1.934  1.00  0.00     0.167 HD
ATOM     52  C   UNL     1      15.611  -8.485  -5.680  1.00  0.00     0.037 A 
ATOM     53  C   UNL     1      13.075  -8.612   0.839  1.00  0.00     0.037 A 
ATOM     54  C   UNL     1      16.514  -8.002  -4.670  1.00  0.00     0.049 A 
ATOM     55  C   UNL     1      14.482  -8.160   0.544  1.00  0.00     0.074 A 
ATOM     56  C   UNL     1      17.798  -7.509  -4.827  1.00  0.00     0.029 A 
ATOM     57  N   UNL     1      16.232  -7.959  -3.313  1.00  0.00    -0.354 N 
ATOM     58  N   UNL     1      15.091  -8.056  -0.614  1.00  0.00    -0.248 NA
ATOM     59  C   UNL     1      15.313  -7.772   1.694  1.00  0.00     0.031 C 
ATOM     60  C   UNL     1      18.306  -7.201  -3.559  1.00  0.00     0.029 A 
ATOM     61  C   UNL     1      17.324  -7.465  -2.618  1.00  0.00     0.049 A 
ATOM     62  H   UNL     1      15.382  -8.239  -2.904  1.00  0.00     0.167 HD
ATOM     63  C   UNL     1      16.363  -7.566  -0.334  1.00  0.00     0.074 A 
ATOM     64  C   UNL     1      16.437  -7.390   1.101  1.00  0.00     0.031 C 
ATOM     65  C   UNL     1      17.378  -7.285  -1.189  1.00  0.00     0.037 A 
BRANCH  52  66
ATOM     66  C   UNL     1      16.078  -8.507  -7.106  1.00  0.00     0.058 A 
ATOM     67  C   UNL     1      15.599  -7.584  -8.049  1.00  0.00     0.135 A 
ATOM     68  C   UNL     1      17.024  -9.451  -7.533  1.00  0.00     0.135 A 
ATOM     69  F   UNL     1      14.678  -6.673  -7.696  1.00  0.00    -0.206 F 
ATOM     70  C   UNL     1      16.022  -7.613  -9.374  1.00  0.00     0.059 A 
ATOM     71  C   UNL     1      17.478  -9.485  -8.848  1.00  0.00     0.059 A 
ATOM     72  F   UNL     1      17.510 -10.359  -6.672  1.00  0.00    -0.206 F 
ATOM     73  C   UNL     1      16.959  -8.571  -9.765  1.00  0.00     0.060 A 
BRANCH  73  74
ATOM     74  S   UNL     1      17.496  -8.603 -11.488  1.00  0.00     0.124 S 
ATOM     75  O   UNL     1      16.343  -9.217 -12.139  1.00  0.00    -0.237 OA
ATOM     76  O   UNL     1      17.709  -7.189 -11.779  1.00  0.00    -0.237 OA
ATOM     77  O   UNL     1      18.705  -9.421 -11.452  1.00  0.00    -0.744 OA
ENDBRANCH  73  74
ENDBRANCH  52  66
BRANCH  53  78
ATOM     78  C   UNL     1      12.577  -8.658   2.239  1.00  0.00     0.058 A 
ATOM     79  C   UNL     1      12.310  -7.480   2.952  1.00  0.00     0.135 A 
ATOM     80  C   UNL     1      12.368  -9.881   2.894  1.00  0.00     0.135 A 
ATOM     81  F   UNL     1      12.509  -6.287   2.373  1.00  0.00    -0.206 F 
ATOM     82  C   UNL     1      11.868  -7.511   4.271  1.00  0.00     0.059 A 
ATOM     83  C   UNL     1      11.906  -9.939   4.205  1.00  0.00     0.059 A 
ATOM     84  F   UNL     1      12.603 -11.036   2.253  1.00  0.00    -0.206 F 
ATOM     85  C   UNL     1      11.668  -8.747   4.890  1.00  0.00     0.060 A 
BRANCH  85  86
ATOM     86  S   UNL     1      11.055  -8.780   6.588  1.00  0.00     0.124 S 
ATOM     87  O   UNL     1      12.254  -8.428   7.340  1.00  0.00    -0.237 OA
ATOM     88  O   UNL     1      10.002  -7.770   6.557  1.00  0.00    -0.237 OA
ATOM     89  O   UNL     1      10.589 -10.155   6.748  1.00  0.00    -0.744 OA
ENDBRANCH  85  86
ENDBRANCH  53  78
BRANCH  65  90
ATOM     90  C   UNL     1      18.644  -6.723  -0.606  1.00  0.00     0.058 A 
ATOM     91  C   UNL     1      19.559  -7.530   0.087  1.00  0.00     0.135 A 
ATOM     92  C   UNL     1      18.974  -5.371  -0.795  1.00  0.00     0.135 A 
ATOM     93  F   UNL     1      19.289  -8.828   0.298  1.00  0.00    -0.206 F 
ATOM     94  C   UNL     1      20.750  -7.013   0.588  1.00  0.00     0.059 A 
ATOM     95  C   UNL     1      20.169  -4.838  -0.322  1.00  0.00     0.059 A 
ATOM     96  F   UNL     1      18.138  -4.558  -1.461  1.00  0.00    -0.206 F 
ATOM     97  C   UNL     1      21.046  -5.665   0.378  1.00  0.00     0.060 A 
BRANCH  97  98
ATOM     98  S   UNL     1      22.612  -5.011   0.997  1.00  0.00     0.124 S 
ATOM     99  O   UNL     1      22.325  -4.858   2.419  1.00  0.00    -0.237 OA
ATOM    100  O   UNL     1      23.556  -6.069   0.650  1.00  0.00    -0.237 OA
ATOM    101  O   UNL     1      22.777  -3.766   0.252  1.00  0.00    -0.744 OA
ENDBRANCH  97  98
ENDBRANCH  65  90
ENDBRANCH  39  40
ENDBRANCH  32  34
ENDBRANCH  31  32
ENDBRANCH  30  31
ENDBRANCH  29  30
ENDBRANCH  28  29
ENDBRANCH  27  28
ENDBRANCH   1  27
TORSDOF 25
