REMARK SMILES COc1ccc(F)cc1[C@@H](C(=O)OCCOCCOCCOC(=O)c1ccc(-c2c3nc(c(-c4c(F)cc(S(=O)(=O)[O-])cc4F)c4ccc([nH]4)c(-c4c(F)cc(S(=O)(=O)[O-])cc4F)c4nc(c(-c5c(F)cc(S(=O)(=O)[O-])cc5F)c5ccc2[nH]5)C=C4)C=C3)cc1)[N@@H+](C)CCn1ccnc1C
REMARK SMILES IDX 17 1 16 2 15 3 14 4 13 5 11 6 12 7 10 8 9 9 3 10 4 11 5 12
REMARK SMILES IDX 8 13 6 14 7 15 2 16 1 17 91 18 92 19 93 21 94 22 95 23 96 24
REMARK SMILES IDX 99 25 97 26 98 27 100 28 18 29 19 30 20 31 21 32 22 33 23 34
REMARK SMILES IDX 24 35 25 36 26 37 90 38 27 39 89 40 28 41 29 42 30 43 83 44
REMARK SMILES IDX 31 45 88 46 82 47 84 48 32 49 87 50 81 51 80 52 33 54 67 55
REMARK SMILES IDX 46 56 66 57 47 58 50 59 65 60 85 61 48 62 49 63 64 65 86 66
REMARK SMILES IDX 51 67 34 68 35 69 44 70 36 71 37 72 43 73 45 74 38 75 39 76
REMARK SMILES IDX 40 77 41 78 42 79 68 80 69 81 78 82 70 83 71 84 77 85 79 86
REMARK SMILES IDX 72 87 73 88 74 89 75 90 76 91 52 92 53 93 62 94 54 95 55 96
REMARK SMILES IDX 61 97 63 98 56 99 57 100 58 101 59 102 60 103
REMARK H PARENT 91 20 84 53 50 64
REMARK Flexibility Score: inf
ROOT
ATOM      1  C   UNL     1      -4.444  -2.931   6.007  1.00  0.00     0.188 C 
ENDROOT
BRANCH   1   2
ATOM      2  O   UNL     1      -5.243  -2.977   4.782  1.00  0.00    -0.376 OA
BRANCH   2   3
ATOM      3  C   UNL     1      -5.071  -2.872   3.341  1.00  0.00     0.202 C 
BRANCH   3   4
ATOM      4  C   UNL     1      -4.626  -1.671   2.357  1.00  0.00     0.261 C 
BRANCH   4   5
ATOM      5  O   UNL     1      -3.260  -1.185   2.451  1.00  0.00    -0.459 OA
BRANCH   5   6
ATOM      6  C   UNL     1      -2.754  -0.092   1.782  1.00  0.00     0.370 C 
ATOM      7  O   UNL     1      -3.362   0.436   0.854  1.00  0.00    -0.245 OA
BRANCH   6   8
ATOM      8  C   UNL     1      -1.545   0.622   2.571  1.00  0.00     0.330 C 
BRANCH   8   9
ATOM      9  C   UNL     1      -0.055   0.153   2.658  1.00  0.00     0.066 A 
ATOM     10  C   UNL     1       0.807   0.154   1.548  1.00  0.00     0.128 A 
ATOM     11  C   UNL     1       2.133  -0.342   1.660  1.00  0.00     0.050 A 
ATOM     12  C   UNL     1       2.616  -0.892   2.848  1.00  0.00     0.043 A 
ATOM     13  C   UNL     1       0.541  -0.290   3.881  1.00  0.00     0.053 A 
ATOM     14  C   UNL     1       1.810  -0.858   3.957  1.00  0.00     0.124 A 
ATOM     15  F   UNL     1       2.228  -1.392   5.113  1.00  0.00    -0.207 F 
BRANCH  10  16
ATOM     16  O   UNL     1       0.302   0.666   0.385  1.00  0.00    -0.496 OA
ATOM     17  C   UNL     1       0.858   0.107  -0.799  1.00  0.00     0.278 C 
ENDBRANCH  10  16
ENDBRANCH   8   9
BRANCH   8  18
ATOM     18  N   UNL     1      -2.034   0.874   3.928  1.00  0.00    -0.320 N 
ATOM     19  C   UNL     1      -3.098   1.888   3.962  1.00  0.00     0.333 C 
ATOM     20  H   UNL     1      -1.243   1.282   4.426  1.00  0.00     0.348 HD
BRANCH  18  21
ATOM     21  C   UNL     1      -2.332  -0.340   4.710  1.00  0.00     0.285 C 
BRANCH  21  22
ATOM     22  C   UNL     1      -2.051  -1.970   4.420  1.00  0.00     0.184 C 
BRANCH  22  23
ATOM     23  N   UNL     1      -1.743  -2.990   3.390  1.00  0.00    -0.330 N 
ATOM     24  C   UNL     1      -0.830  -2.854   2.384  1.00  0.00     0.107 A 
ATOM     25  C   UNL     1      -2.232  -4.331   3.178  1.00  0.00     0.105 A 
ATOM     26  C   UNL     1      -0.835  -3.969   1.607  1.00  0.00     0.131 A 
ATOM     27  N   UNL     1      -1.689  -4.870   2.100  1.00  0.00    -0.242 NA
ATOM     28  C   UNL     1      -3.192  -5.250   3.888  1.00  0.00     0.087 C 
ENDBRANCH  22  23
ENDBRANCH  21  22
ENDBRANCH  18  21
ENDBRANCH   8  18
ENDBRANCH   6   8
ENDBRANCH   5   6
ENDBRANCH   4   5
ENDBRANCH   3   4
ENDBRANCH   2   3
ENDBRANCH   1   2
BRANCH   1  29
ATOM     29  C   UNL     1      -3.313  -3.990   6.631  1.00  0.00     0.188 C 
BRANCH  29  30
ATOM     30  O   UNL     1      -1.976  -3.876   6.149  1.00  0.00    -0.376 OA
BRANCH  30  31
ATOM     31  C   UNL     1      -0.955  -4.877   6.001  1.00  0.00     0.202 C 
BRANCH  31  32
ATOM     32  C   UNL     1      -0.648  -5.827   7.149  1.00  0.00     0.261 C 
BRANCH  32  33
ATOM     33  O   UNL     1      -0.572  -5.129   8.381  1.00  0.00    -0.460 OA
BRANCH  33  34
ATOM     34  C   UNL     1       0.294  -4.077   8.333  1.00  0.00     0.338 C 
ATOM     35  O   UNL     1       1.352  -4.038   7.762  1.00  0.00    -0.246 OA
BRANCH  34  36
ATOM     36  C   UNL     1      -0.448  -2.912   8.866  1.00  0.00     0.060 A 
ATOM     37  C   UNL     1      -0.105  -1.639   8.400  1.00  0.00     0.016 A 
ATOM     38  C   UNL     1      -1.496  -3.088   9.780  1.00  0.00     0.016 A 
ATOM     39  C   UNL     1      -0.724  -0.525   8.956  1.00  0.00     0.010 A 
ATOM     40  C   UNL     1      -2.138  -1.980  10.311  1.00  0.00     0.010 A 
ATOM     41  C   UNL     1      -1.677  -0.701   9.970  1.00  0.00    -0.014 A 
BRANCH  41  42
ATOM     42  C   UNL     1      -1.894   0.390  10.938  1.00  0.00     0.031 A 
ATOM     43  C   UNL     1      -1.055   0.363  12.190  1.00  0.00     0.074 A 
ATOM     44  C   UNL     1      -2.762   1.384  10.701  1.00  0.00     0.049 A 
ATOM     45  N   UNL     1      -1.036   1.195  13.195  1.00  0.00    -0.248 NA
ATOM     46  C   UNL     1      -0.107  -0.761  12.326  1.00  0.00     0.031 C 
ATOM     47  C   UNL     1      -3.586   1.525   9.503  1.00  0.00     0.029 A 
ATOM     48  N   UNL     1      -3.080   2.473  11.467  1.00  0.00    -0.354 N 
ATOM     49  C   UNL     1      -0.070   0.705  14.065  1.00  0.00     0.074 A 
ATOM     50  C   UNL     1       0.428  -0.530  13.511  1.00  0.00     0.031 C 
ATOM     51  C   UNL     1      -4.310   2.653   9.610  1.00  0.00     0.029 A 
ATOM     52  C   UNL     1      -4.018   3.293  10.893  1.00  0.00     0.049 A 
ATOM     53  H   UNL     1      -2.674   2.651  12.346  1.00  0.00     0.167 HD
ATOM     54  C   UNL     1       0.389   1.252  15.212  1.00  0.00     0.037 A 
ATOM     55  C   UNL     1      -4.570   4.430  11.361  1.00  0.00     0.037 A 
ATOM     56  C   UNL     1      -0.120   2.475  15.764  1.00  0.00     0.049 A 
ATOM     57  C   UNL     1      -4.122   4.968  12.696  1.00  0.00     0.074 A 
ATOM     58  C   UNL     1       0.254   3.111  16.932  1.00  0.00     0.029 A 
ATOM     59  N   UNL     1      -1.122   3.242  15.187  1.00  0.00    -0.354 N 
ATOM     60  N   UNL     1      -3.203   4.502  13.510  1.00  0.00    -0.248 NA
ATOM     61  C   UNL     1      -4.784   6.188  13.175  1.00  0.00     0.031 C 
ATOM     62  C   UNL     1      -0.561   4.235  17.090  1.00  0.00     0.029 A 
ATOM     63  C   UNL     1      -1.399   4.335  15.989  1.00  0.00     0.049 A 
ATOM     64  H   UNL     1      -1.568   3.040  14.334  1.00  0.00     0.167 HD
ATOM     65  C   UNL     1      -3.157   5.387  14.584  1.00  0.00     0.074 A 
ATOM     66  C   UNL     1      -4.134   6.421  14.308  1.00  0.00     0.031 C 
ATOM     67  C   UNL     1      -2.378   5.352  15.695  1.00  0.00     0.037 A 
BRANCH  54  68
ATOM     68  C   UNL     1       1.480   0.519  15.940  1.00  0.00     0.058 A 
ATOM     69  C   UNL     1       1.222  -0.103  17.171  1.00  0.00     0.135 A 
ATOM     70  C   UNL     1       2.785   0.437  15.424  1.00  0.00     0.135 A 
ATOM     71  F   UNL     1      -0.011  -0.072  17.700  1.00  0.00    -0.206 F 
ATOM     72  C   UNL     1       2.221  -0.767  17.872  1.00  0.00     0.059 A 
ATOM     73  C   UNL     1       3.793  -0.250  16.094  1.00  0.00     0.059 A 
ATOM     74  F   UNL     1       3.076   0.983  14.233  1.00  0.00    -0.206 F 
ATOM     75  C   UNL     1       3.503  -0.838  17.325  1.00  0.00     0.060 A 
BRANCH  75  76
ATOM     76  S   UNL     1       4.775  -1.744  18.230  1.00  0.00     0.124 S 
ATOM     77  O   UNL     1       4.986  -0.885  19.389  1.00  0.00    -0.237 OA
ATOM     78  O   UNL     1       4.112  -3.018  18.492  1.00  0.00    -0.237 OA
ATOM     79  O   UNL     1       5.884  -1.809  17.282  1.00  0.00    -0.744 OA
ENDBRANCH  75  76
ENDBRANCH  54  68
BRANCH  55  80
ATOM     80  C   UNL     1      -5.586   5.144  10.543  1.00  0.00     0.058 A 
ATOM     81  C   UNL     1      -6.853   4.589  10.308  1.00  0.00     0.135 A 
ATOM     82  C   UNL     1      -5.295   6.383   9.953  1.00  0.00     0.135 A 
ATOM     83  F   UNL     1      -7.181   3.404  10.845  1.00  0.00    -0.206 F 
ATOM     84  C   UNL     1      -7.784   5.221   9.492  1.00  0.00     0.059 A 
ATOM     85  C   UNL     1      -6.220   7.048   9.153  1.00  0.00     0.059 A 
ATOM     86  F   UNL     1      -4.102   6.960  10.162  1.00  0.00    -0.206 F 
ATOM     87  C   UNL     1      -7.455   6.447   8.913  1.00  0.00     0.060 A 
BRANCH  87  88
ATOM     88  S   UNL     1      -8.666   7.230   7.827  1.00  0.00     0.124 S 
ATOM     89  O   UNL     1      -8.707   6.289   6.712  1.00  0.00    -0.237 OA
ATOM     90  O   UNL     1      -9.854   7.265   8.672  1.00  0.00    -0.237 OA
ATOM     91  O   UNL     1      -8.068   8.527   7.531  1.00  0.00    -0.744 OA
ENDBRANCH  87  88
ENDBRANCH  55  80
BRANCH  67  92
ATOM     92  C   UNL     1      -2.529   6.466  16.695  1.00  0.00     0.058 A 
ATOM     93  C   UNL     1      -1.485   7.384  16.899  1.00  0.00     0.135 A 
ATOM     94  C   UNL     1      -3.664   6.574  17.514  1.00  0.00     0.135 A 
ATOM     95  F   UNL     1      -0.370   7.319  16.154  1.00  0.00    -0.206 F 
ATOM     96  C   UNL     1      -1.554   8.358  17.889  1.00  0.00     0.059 A 
ATOM     97  C   UNL     1      -3.769   7.563  18.488  1.00  0.00     0.059 A 
ATOM     98  F   UNL     1      -4.692   5.725  17.358  1.00  0.00    -0.206 F 
ATOM     99  C   UNL     1      -2.701   8.440  18.678  1.00  0.00     0.060 A 
BRANCH  99 100
ATOM    100  S   UNL     1      -2.783   9.726  19.942  1.00  0.00     0.124 S 
ATOM    101  O   UNL     1      -1.793   9.262  20.908  1.00  0.00    -0.237 OA
ATOM    102  O   UNL     1      -2.421  10.922  19.186  1.00  0.00    -0.237 OA
ATOM    103  O   UNL     1      -4.171   9.674  20.390  1.00  0.00    -0.744 OA
ENDBRANCH  99 100
ENDBRANCH  67  92
ENDBRANCH  41  42
ENDBRANCH  34  36
ENDBRANCH  33  34
ENDBRANCH  32  33
ENDBRANCH  31  32
ENDBRANCH  30  31
ENDBRANCH  29  30
ENDBRANCH   1  29
TORSDOF 26
