REMARK SMILES O=C(OCCOCCOCCOC(=O)c1ccccc1Nc1cccc(S(F)(F)(F)(F)F)c1)c1ccc(-c2c3nc(c(-c4c(F)cc(S(=O)(=O)[O-])cc4F)c4ccc([nH]4)c(-c4c(F)cc(S(=O)(=O)[O-])cc4F)c4nc(c(-c5c(F)cc(S(=O)(=O)[O-])cc5F)c5ccc2[nH]5)C=C4)C=C3)cc1
REMARK SMILES IDX 7 1 6 2 5 3 4 4 3 5 2 6 1 7 34 8 35 9 99 10 36 11 98 12
REMARK SMILES IDX 37 13 38 14 39 15 92 16 40 17 97 18 91 19 93 20 41 21 96 22
REMARK SMILES IDX 90 23 89 24 42 26 76 27 55 28 75 29 56 30 59 31 74 32 94 33
REMARK SMILES IDX 57 34 58 35 73 37 95 38 60 39 43 40 44 41 53 42 45 43 46 44
REMARK SMILES IDX 52 45 54 46 47 47 48 48 49 49 50 50 51 51 77 52 78 53 87 54
REMARK SMILES IDX 79 55 80 56 86 57 88 58 81 59 82 60 83 61 84 62 85 63 61 64
REMARK SMILES IDX 62 65 71 66 63 67 64 68 70 69 72 70 65 71 66 72 67 73 68 74
REMARK SMILES IDX 69 75 8 76 9 77 10 78 11 79 12 80 13 81 14 82 15 83 16 84
REMARK SMILES IDX 20 85 17 86 19 87 18 88 21 89 22 91 23 92 33 93 24 94 26 95
REMARK SMILES IDX 25 96 27 97 28 98 29 99 30 100 31 101 32 102
REMARK H PARENT 93 25 59 36 21 90
REMARK Flexibility Score: inf
ROOT
ATOM      1  C   UNL     1       3.098   0.368   1.481  1.00  0.00     0.188 C 
ENDROOT
BRANCH   1   2
ATOM      2  O   UNL     1       4.518   0.368   1.481  1.00  0.00    -0.376 OA
BRANCH   2   3
ATOM      3  C   UNL     1       4.991   1.243   0.467  1.00  0.00     0.202 C 
BRANCH   3   4
ATOM      4  C   UNL     1       4.484   0.771  -0.886  1.00  0.00     0.261 C 
BRANCH   4   5
ATOM      5  O   UNL     1       3.064   0.771  -0.886  1.00  0.00    -0.460 OA
BRANCH   5   6
ATOM      6  C   UNL     1       2.354  -0.032   0.045  1.00  0.00     0.338 C 
ATOM      7  O   UNL     1       1.083  -0.032   0.045  1.00  0.00    -0.246 OA
BRANCH   6   8
ATOM      8  C   UNL     1       3.114  -0.892   1.042  1.00  0.00     0.060 A 
ATOM      9  C   UNL     1       4.264  -0.350   1.592  1.00  0.00     0.016 A 
ATOM     10  C   UNL     1       2.766  -2.152   1.276  1.00  0.00     0.016 A 
ATOM     11  C   UNL     1       5.142  -1.311   2.147  1.00  0.00     0.010 A 
ATOM     12  C   UNL     1       3.616  -3.000   1.944  1.00  0.00     0.010 A 
ATOM     13  C   UNL     1       4.797  -2.546   2.463  1.00  0.00    -0.014 A 
BRANCH  13  14
ATOM     14  C   UNL     1       5.666  -3.417   3.356  1.00  0.00     0.031 A 
ATOM     15  C   UNL     1       6.184  -4.628   2.895  1.00  0.00     0.074 A 
ATOM     16  C   UNL     1       5.970  -2.864   4.588  1.00  0.00     0.049 A 
ATOM     17  N   UNL     1       7.056  -5.428   3.512  1.00  0.00    -0.248 NA
ATOM     18  C   UNL     1       5.837  -5.234   1.601  1.00  0.00     0.031 C 
ATOM     19  C   UNL     1       5.458  -1.638   5.057  1.00  0.00     0.029 A 
ATOM     20  N   UNL     1       6.796  -3.377   5.564  1.00  0.00    -0.354 N 
ATOM     21  C   UNL     1       7.329  -6.488   2.748  1.00  0.00     0.074 A 
ATOM     22  C   UNL     1       6.544  -6.382   1.511  1.00  0.00     0.031 C 
ATOM     23  C   UNL     1       5.959  -1.421   6.301  1.00  0.00     0.029 A 
ATOM     24  C   UNL     1       6.793  -2.506   6.631  1.00  0.00     0.049 A 
ATOM     25  H   UNL     1       7.301  -4.220   5.508  1.00  0.00     0.167 HD
ATOM     26  C   UNL     1       8.202  -7.538   3.035  1.00  0.00     0.037 A 
ATOM     27  C   UNL     1       7.470  -2.635   7.834  1.00  0.00     0.037 A 
ATOM     28  C   UNL     1       8.913  -7.645   4.220  1.00  0.00     0.049 A 
ATOM     29  C   UNL     1       8.299  -3.715   8.145  1.00  0.00     0.074 A 
ATOM     30  C   UNL     1       9.804  -8.693   4.521  1.00  0.00     0.029 A 
ATOM     31  N   UNL     1       8.891  -6.787   5.297  1.00  0.00    -0.354 N 
ATOM     32  N   UNL     1       8.602  -4.755   7.365  1.00  0.00    -0.248 NA
ATOM     33  C   UNL     1       8.996  -3.878   9.427  1.00  0.00     0.031 C 
ATOM     34  C   UNL     1      10.305  -8.475   5.767  1.00  0.00     0.029 A 
ATOM     35  C   UNL     1       9.735  -7.288   6.264  1.00  0.00     0.049 A 
ATOM     36  H   UNL     1       8.363  -5.958   5.364  1.00  0.00     0.167 HD
ATOM     37  C   UNL     1       9.442  -5.575   8.000  1.00  0.00     0.074 A 
ATOM     38  C   UNL     1       9.701  -5.027   9.338  1.00  0.00     0.031 C 
ATOM     39  C   UNL     1      10.005  -6.757   7.516  1.00  0.00     0.037 A 
BRANCH  26  40
ATOM     40  C   UNL     1       8.385  -8.626   1.989  1.00  0.00     0.058 A 
ATOM     41  C   UNL     1       8.949  -8.222   0.790  1.00  0.00     0.135 A 
ATOM     42  C   UNL     1       8.102  -9.902   2.223  1.00  0.00     0.135 A 
ATOM     43  F   UNL     1       9.477  -7.016   0.606  1.00  0.00    -0.206 F 
ATOM     44  C   UNL     1       8.912  -9.211  -0.222  1.00  0.00     0.059 A 
ATOM     45  C   UNL     1       8.219 -10.838   1.224  1.00  0.00     0.059 A 
ATOM     46  F   UNL     1       7.703 -10.277   3.434  1.00  0.00    -0.206 F 
ATOM     47  C   UNL     1       8.713 -10.498  -0.005  1.00  0.00     0.060 A 
BRANCH  47  48
ATOM     48  S   UNL     1       9.077 -11.745  -1.265  1.00  0.00     0.124 S 
ATOM     49  O   UNL     1       8.232 -11.472  -2.512  1.00  0.00    -0.237 OA
ATOM     50  O   UNL     1      10.561 -11.683  -1.632  1.00  0.00    -0.237 OA
ATOM     51  O   UNL     1       8.706 -13.299  -0.654  1.00  0.00    -0.744 OA
ENDBRANCH  47  48
ENDBRANCH  26  40
BRANCH  27  52
ATOM     52  C   UNL     1       7.300  -1.539   8.873  1.00  0.00     0.058 A 
ATOM     53  C   UNL     1       8.392  -0.873   9.405  1.00  0.00     0.135 A 
ATOM     54  C   UNL     1       6.070  -1.312   9.319  1.00  0.00     0.135 A 
ATOM     55  F   UNL     1       9.592  -0.874   8.833  1.00  0.00    -0.206 F 
ATOM     56  C   UNL     1       8.114  -0.191  10.614  1.00  0.00     0.059 A 
ATOM     57  C   UNL     1       5.862  -0.524  10.425  1.00  0.00     0.059 A 
ATOM     58  F   UNL     1       5.031  -1.851   8.688  1.00  0.00    -0.206 F 
ATOM     59  C   UNL     1       6.902   0.117  11.038  1.00  0.00     0.060 A 
BRANCH  59  60
ATOM     60  S   UNL     1       6.632   1.324  12.360  1.00  0.00     0.124 S 
ATOM     61  O   UNL     1       7.333   0.850  13.635  1.00  0.00    -0.237 OA
ATOM     62  O   UNL     1       7.205   2.679  11.938  1.00  0.00    -0.237 OA
ATOM     63  O   UNL     1       4.955   1.481  12.655  1.00  0.00    -0.744 OA
ENDBRANCH  59  60
ENDBRANCH  27  52
BRANCH  39  64
ATOM     64  C   UNL     1      10.973  -7.507   8.415  1.00  0.00     0.058 A 
ATOM     65  C   UNL     1      10.524  -7.874   9.673  1.00  0.00     0.135 A 
ATOM     66  C   UNL     1      12.228  -7.729   8.040  1.00  0.00     0.135 A 
ATOM     67  F   UNL     1       9.236  -7.906  10.002  1.00  0.00    -0.206 F 
ATOM     68  C   UNL     1      11.560  -8.211  10.576  1.00  0.00     0.059 A 
ATOM     69  C   UNL     1      13.157  -8.189   8.942  1.00  0.00     0.059 A 
ATOM     70  F   UNL     1      12.588  -7.505   6.779  1.00  0.00    -0.206 F 
ATOM     71  C   UNL     1      12.795  -8.515  10.219  1.00  0.00     0.060 A 
BRANCH  71  72
ATOM     72  S   UNL     1      13.947  -9.320  11.361  1.00  0.00     0.124 S 
ATOM     73  O   UNL     1      14.152  -8.431  12.589  1.00  0.00    -0.237 OA
ATOM     74  O   UNL     1      13.372 -10.669  11.797  1.00  0.00    -0.237 OA
ATOM     75  O   UNL     1      15.447  -9.565  10.578  1.00  0.00    -0.744 OA
ENDBRANCH  71  72
ENDBRANCH  39  64
ENDBRANCH  13  14
ENDBRANCH   6   8
ENDBRANCH   5   6
ENDBRANCH   4   5
ENDBRANCH   3   4
ENDBRANCH   2   3
ENDBRANCH   1   2
BRANCH   1  76
ATOM     76  C   UNL     1       2.591   1.776   1.749  1.00  0.00     0.188 C 
BRANCH  76  77
ATOM     77  O   UNL     1       3.064   2.651   0.735  1.00  0.00    -0.376 OA
BRANCH  77  78
ATOM     78  C   UNL     1       4.484   2.651   0.735  1.00  0.00     0.202 C 
BRANCH  78  79
ATOM     79  C   UNL     1       4.991   3.123   2.088  1.00  0.00     0.261 C 
BRANCH  79  80
ATOM     80  O   UNL     1       4.518   2.248   3.102  1.00  0.00    -0.460 OA
BRANCH  80  81
ATOM     81  C   UNL     1       3.121   2.079   3.299  1.00  0.00     0.340 C 
ATOM     82  O   UNL     1       2.296   2.710   2.567  1.00  0.00    -0.246 OA
BRANCH  81  83
ATOM     83  C   UNL     1       2.615   1.143   4.384  1.00  0.00     0.083 A 
ATOM     84  C   UNL     1       1.478   0.377   4.184  1.00  0.00     0.018 A 
ATOM     85  C   UNL     1       3.196   1.215   5.575  1.00  0.00     0.053 A 
ATOM     86  C   UNL     1       0.858  -0.052   5.381  1.00  0.00     0.001 A 
ATOM     87  C   UNL     1       2.599   0.655   6.680  1.00  0.00     0.027 A 
ATOM     88  C   UNL     1       1.443  -0.066   6.565  1.00  0.00     0.002 A 
BRANCH  85  89
ATOM     89  N   UNL     1       4.489   1.899   5.715  1.00  0.00    -0.355 N 
ATOM     90  H   UNL     1       4.921   2.302   4.927  1.00  0.00     0.167 HD
BRANCH  89  91
ATOM     91  C   UNL     1       5.138   1.983   7.031  1.00  0.00     0.040 A 
ATOM     92  C   UNL     1       5.405   3.227   7.580  1.00  0.00     0.026 A 
ATOM     93  C   UNL     1       5.462   0.865   7.670  1.00  0.00     0.050 A 
ATOM     94  C   UNL     1       6.284   3.188   8.688  1.00  0.00     0.004 A 
ATOM     95  C   UNL     1       6.209   0.909   8.822  1.00  0.00     0.109 A 
ATOM     96  C   UNL     1       6.559   2.103   9.389  1.00  0.00     0.024 A 
BRANCH  95  97
ATOM     97  S   UNL     1       6.737  -0.637   9.602  1.00  0.00     0.310 S 
ATOM     98  F   UNL     1       5.515  -0.459  10.598  1.00  0.00    -0.094 F 
ATOM     99  F   UNL     1       7.624   0.116  10.665  1.00  0.00    -0.094 F 
ATOM    100  F   UNL     1       7.020  -2.002  10.291  1.00  0.00    -0.094 F 
ATOM    101  F   UNL     1       5.734  -1.353   8.614  1.00  0.00    -0.094 F 
ATOM    102  F   UNL     1       6.351   0.756   8.962  1.00  0.00    -0.094 F 
ENDBRANCH  95  97
ENDBRANCH  89  91
ENDBRANCH  85  89
ENDBRANCH  81  83
ENDBRANCH  80  81
ENDBRANCH  79  80
ENDBRANCH  78  79
ENDBRANCH  77  78
ENDBRANCH  76  77
ENDBRANCH   1  76
TORSDOF 23
