REMARK SMILES CCC(=O)Nc1ccc(NC(=O)[C@@H]2CC=CC[C@@H]2C(=O)OCCOCCOCCOC(=O)c2ccc(-c3c4nc(c(-c5c(F)cc(S(=O)(=O)[O-])cc5F)c5ccc([nH]5)c(-c5c(F)cc(S(=O)(=O)[O-])cc5F)c5nc(c(-c6c(F)cc(S(=O)(=O)[O-])cc6F)c6ccc3[nH]6)C=C5)C=C4)cc2)cc1
REMARK SMILES IDX 25 1 24 2 23 3 22 4 21 5 19 6 20 7 18 8 13 9 14 10 15 11
REMARK SMILES IDX 17 12 16 13 11 14 10 15 12 17 9 18 6 19 7 20 100 21 8 22
REMARK SMILES IDX 99 23 5 24 3 25 4 26 2 28 1 29 26 30 27 31 28 32 29 33 30 34
REMARK SMILES IDX 31 35 32 36 33 37 34 38 98 39 35 40 97 41 36 42 37 43 38 44
REMARK SMILES IDX 91 45 39 46 96 47 90 48 92 49 40 50 95 51 89 52 88 53 41 55
REMARK SMILES IDX 75 56 54 57 74 58 55 59 58 60 73 61 93 62 56 63 57 64 72 66
REMARK SMILES IDX 94 67 59 68 42 69 43 70 52 71 44 72 45 73 51 74 53 75 46 76
REMARK SMILES IDX 47 77 48 78 49 79 50 80 76 81 77 82 86 83 78 84 79 85 85 86
REMARK SMILES IDX 87 87 80 88 81 89 82 90 83 91 84 92 60 93 61 94 70 95 62 96
REMARK SMILES IDX 63 97 69 98 71 99 64 100 65 101 66 102 67 103 68 104
REMARK H PARENT 10 16 5 27 92 54 58 65
REMARK Flexibility Score: inf
ROOT
ATOM      1  C   UNL     1      10.650   1.563   4.286  1.00  0.00     0.188 C 
ENDROOT
BRANCH   1   2
ATOM      2  O   UNL     1      10.797   2.230   5.531  1.00  0.00    -0.376 OA
BRANCH   2   3
ATOM      3  C   UNL     1       9.637   2.240   6.355  1.00  0.00     0.202 C 
BRANCH   3   4
ATOM      4  C   UNL     1       9.315   0.876   6.974  1.00  0.00     0.261 C 
BRANCH   4   5
ATOM      5  O   UNL     1       8.959  -0.140   6.020  1.00  0.00    -0.463 OA
BRANCH   5   6
ATOM      6  C   UNL     1       7.802   0.049   5.324  1.00  0.00     0.310 C 
ATOM      7  O   UNL     1       7.059   1.002   5.487  1.00  0.00    -0.252 OA
BRANCH   6   8
ATOM      8  C   UNL     1       7.574  -1.147   4.401  1.00  0.00     0.116 C 
ATOM      9  C   UNL     1       6.973  -0.821   3.020  1.00  0.00     0.097 C 
ATOM     10  C   UNL     1       5.615  -0.116   3.156  1.00  0.00     0.041 C 
ATOM     11  C   UNL     1       4.741  -0.820   4.164  1.00  0.00    -0.030 C 
ATOM     12  C   UNL     1       6.649  -2.123   5.141  1.00  0.00     0.043 C 
ATOM     13  C   UNL     1       5.198  -1.740   5.031  1.00  0.00    -0.030 C 
BRANCH   9  14
ATOM     14  C   UNL     1       7.931  -0.085   2.107  1.00  0.00     0.228 C 
ATOM     15  N   UNL     1       8.901  -0.715   1.383  1.00  0.00    -0.326 N 
ATOM     16  H   UNL     1       9.354  -0.098   0.765  1.00  0.00     0.169 HD
ATOM     17  O   UNL     1       7.882   1.145   1.999  1.00  0.00    -0.274 OA
BRANCH  15  18
ATOM     18  C   UNL     1       9.421  -2.022   1.290  1.00  0.00     0.041 A 
ATOM     19  C   UNL     1      10.863  -4.457   1.173  1.00  0.00     0.041 A 
ATOM     20  C   UNL     1       9.694  -4.357   1.921  1.00  0.00     0.028 A 
ATOM     21  C   UNL     1      11.238  -3.383   0.380  1.00  0.00     0.028 A 
ATOM     22  C   UNL     1       8.993  -3.143   1.994  1.00  0.00     0.028 A 
ATOM     23  C   UNL     1      10.514  -2.187   0.429  1.00  0.00     0.028 A 
BRANCH  19  24
ATOM     24  N   UNL     1      11.566  -5.665   1.192  1.00  0.00    -0.326 N 
ATOM     25  C   UNL     1      12.915  -5.895   1.181  1.00  0.00     0.224 C 
ATOM     26  O   UNL     1      13.318  -7.047   0.998  1.00  0.00    -0.275 OA
ATOM     27  H   UNL     1      11.005  -6.474   1.217  1.00  0.00     0.169 HD
BRANCH  25  28
ATOM     28  C   UNL     1      13.883  -4.785   1.553  1.00  0.00     0.097 C 
ATOM     29  C   UNL     1      14.534  -4.100   0.368  1.00  0.00     0.014 C 
ENDBRANCH  25  28
ENDBRANCH  19  24
ENDBRANCH  15  18
ENDBRANCH   9  14
ENDBRANCH   6   8
ENDBRANCH   5   6
ENDBRANCH   4   5
ENDBRANCH   3   4
ENDBRANCH   2   3
ENDBRANCH   1   2
BRANCH   1  30
ATOM     30  C   UNL     1      11.356   0.193   4.197  1.00  0.00     0.188 C 
BRANCH  30  31
ATOM     31  O   UNL     1      12.260  -0.227   5.211  1.00  0.00    -0.376 OA
BRANCH  31  32
ATOM     32  C   UNL     1      13.171   0.714   5.763  1.00  0.00     0.202 C 
BRANCH  32  33
ATOM     33  C   UNL     1      14.153   1.426   4.823  1.00  0.00     0.261 C 
BRANCH  33  34
ATOM     34  O   UNL     1      13.537   2.067   3.692  1.00  0.00    -0.460 OA
BRANCH  34  35
ATOM     35  C   UNL     1      13.913   1.578   2.485  1.00  0.00     0.338 C 
ATOM     36  O   UNL     1      14.747   0.715   2.270  1.00  0.00    -0.246 OA
BRANCH  35  37
ATOM     37  C   UNL     1      13.029   2.086   1.416  1.00  0.00     0.060 A 
ATOM     38  C   UNL     1      12.318   1.131   0.680  1.00  0.00     0.016 A 
ATOM     39  C   UNL     1      12.990   3.432   1.048  1.00  0.00     0.016 A 
ATOM     40  C   UNL     1      11.607   1.507  -0.456  1.00  0.00     0.010 A 
ATOM     41  C   UNL     1      12.295   3.806  -0.114  1.00  0.00     0.010 A 
ATOM     42  C   UNL     1      11.637   2.836  -0.893  1.00  0.00    -0.014 A 
BRANCH  42  43
ATOM     43  C   UNL     1      11.205   3.108  -2.288  1.00  0.00     0.031 A 
ATOM     44  C   UNL     1      12.244   3.029  -3.378  1.00  0.00     0.074 A 
ATOM     45  C   UNL     1       9.910   3.286  -2.606  1.00  0.00     0.049 A 
ATOM     46  N   UNL     1      12.107   3.170  -4.671  1.00  0.00    -0.248 NA
ATOM     47  C   UNL     1      13.621   2.724  -2.950  1.00  0.00     0.031 C 
ATOM     48  C   UNL     1       8.796   3.299  -1.659  1.00  0.00     0.029 A 
ATOM     49  N   UNL     1       9.315   3.478  -3.829  1.00  0.00    -0.354 N 
ATOM     50  C   UNL     1      13.371   2.962  -5.210  1.00  0.00     0.074 A 
ATOM     51  C   UNL     1      14.269   2.711  -4.104  1.00  0.00     0.031 C 
ATOM     52  C   UNL     1       7.652   3.507  -2.337  1.00  0.00     0.029 A 
ATOM     53  C   UNL     1       7.955   3.662  -3.760  1.00  0.00     0.049 A 
ATOM     54  H   UNL     1       9.817   3.485  -4.676  1.00  0.00     0.167 HD
ATOM     55  C   UNL     1      13.754   2.971  -6.509  1.00  0.00     0.037 A 
ATOM     56  C   UNL     1       7.063   3.941  -4.733  1.00  0.00     0.037 A 
ATOM     57  C   UNL     1      12.873   3.244  -7.612  1.00  0.00     0.049 A 
ATOM     58  C   UNL     1       7.530   4.044  -6.165  1.00  0.00     0.074 A 
ATOM     59  C   UNL     1      13.179   3.329  -8.959  1.00  0.00     0.029 A 
ATOM     60  N   UNL     1      11.512   3.481  -7.495  1.00  0.00    -0.354 N 
ATOM     61  N   UNL     1       8.734   3.868  -6.657  1.00  0.00    -0.248 NA
ATOM     62  C   UNL     1       6.515   4.380  -7.175  1.00  0.00     0.031 C 
ATOM     63  C   UNL     1      12.008   3.651  -9.654  1.00  0.00     0.029 A 
ATOM     64  C   UNL     1      10.965   3.722  -8.744  1.00  0.00     0.049 A 
ATOM     65  H   UNL     1      11.009   3.479  -6.649  1.00  0.00     0.167 HD
ATOM     66  C   UNL     1       8.614   4.050  -8.033  1.00  0.00     0.074 A 
ATOM     67  C   UNL     1       7.219   4.330  -8.297  1.00  0.00     0.031 C 
ATOM     68  C   UNL     1       9.572   3.992  -8.992  1.00  0.00     0.037 A 
BRANCH  55  69
ATOM     69  C   UNL     1      15.203   2.704  -6.798  1.00  0.00     0.058 A 
ATOM     70  C   UNL     1      15.745   1.413  -6.702  1.00  0.00     0.135 A 
ATOM     71  C   UNL     1      16.057   3.749  -7.184  1.00  0.00     0.135 A 
ATOM     72  F   UNL     1      14.976   0.385  -6.310  1.00  0.00    -0.206 F 
ATOM     73  C   UNL     1      17.090   1.170  -6.960  1.00  0.00     0.059 A 
ATOM     74  C   UNL     1      17.400   3.525  -7.468  1.00  0.00     0.059 A 
ATOM     75  F   UNL     1      15.589   5.003  -7.282  1.00  0.00    -0.206 F 
ATOM     76  C   UNL     1      17.910   2.234  -7.340  1.00  0.00     0.060 A 
BRANCH  76  77
ATOM     77  S   UNL     1      19.654   1.905  -7.671  1.00  0.00     0.124 S 
ATOM     78  O   UNL     1      20.173   1.705  -6.322  1.00  0.00    -0.237 OA
ATOM     79  O   UNL     1      19.593   0.712  -8.509  1.00  0.00    -0.237 OA
ATOM     80  O   UNL     1      20.107   3.118  -8.344  1.00  0.00    -0.744 OA
ENDBRANCH  76  77
ENDBRANCH  55  69
BRANCH  56  81
ATOM     81  C   UNL     1       5.634   4.187  -4.394  1.00  0.00     0.058 A 
ATOM     82  C   UNL     1       4.621   3.307  -4.802  1.00  0.00     0.135 A 
ATOM     83  C   UNL     1       5.251   5.343  -3.696  1.00  0.00     0.135 A 
ATOM     84  F   UNL     1       4.934   2.196  -5.486  1.00  0.00    -0.206 F 
ATOM     85  C   UNL     1       3.278   3.576  -4.556  1.00  0.00     0.059 A 
ATOM     86  C   UNL     1       3.917   5.622  -3.414  1.00  0.00     0.059 A 
ATOM     87  F   UNL     1       6.181   6.217  -3.280  1.00  0.00    -0.206 F 
ATOM     88  C   UNL     1       2.936   4.740  -3.864  1.00  0.00     0.060 A 
BRANCH  88  89
ATOM     89  S   UNL     1       1.192   5.078  -3.536  1.00  0.00     0.124 S 
ATOM     90  O   UNL     1       0.729   5.524  -4.845  1.00  0.00    -0.237 OA
ATOM     91  O   UNL     1       0.703   3.776  -3.095  1.00  0.00    -0.237 OA
ATOM     92  O   UNL     1       1.240   6.105  -2.499  1.00  0.00    -0.744 OA
ENDBRANCH  88  89
ENDBRANCH  56  81
BRANCH  68  93
ATOM     93  C   UNL     1       9.141   4.201 -10.418  1.00  0.00     0.058 A 
ATOM     94  C   UNL     1       8.779   5.468 -10.902  1.00  0.00     0.135 A 
ATOM     95  C   UNL     1       9.125   3.126 -11.322  1.00  0.00     0.135 A 
ATOM     96  F   UNL     1       8.776   6.529 -10.080  1.00  0.00    -0.206 F 
ATOM     97  C   UNL     1       8.385   5.657 -12.223  1.00  0.00     0.059 A 
ATOM     98  C   UNL     1       8.760   3.296 -12.654  1.00  0.00     0.059 A 
ATOM     99  F   UNL     1       9.477   1.896 -10.916  1.00  0.00    -0.206 F 
ATOM    100  C   UNL     1       8.374   4.563 -13.091  1.00  0.00     0.060 A 
BRANCH 100 101
ATOM    101  S   UNL     1       7.874   4.819 -14.807  1.00  0.00     0.124 S 
ATOM    102  O   UNL     1       6.423   4.910 -14.679  1.00  0.00    -0.237 OA
ATOM    103  O   UNL     1       8.559   6.060 -15.154  1.00  0.00    -0.237 OA
ATOM    104  O   UNL     1       8.371   3.626 -15.487  1.00  0.00    -0.744 OA
ENDBRANCH 100 101
ENDBRANCH  68  93
ENDBRANCH  42  43
ENDBRANCH  35  37
ENDBRANCH  34  35
ENDBRANCH  33  34
ENDBRANCH  32  33
ENDBRANCH  31  32
ENDBRANCH  30  31
ENDBRANCH   1  30
TORSDOF 24
