REMARK SMILES COc1ccc(CCN2C(=O)C[C@@H](C(=O)OCCOCCOCCOC(=O)c3ccc(-c4c5nc(c(-c6c(F)cc(S(=O)(=O)[O-])cc6F)c6ccc([nH]6)c(-c6c(F)cc(S(=O)(=O)[O-])cc6F)c6nc(c(-c7c(F)cc(S(=O)(=O)[O-])cc7F)c7ccc4[nH]7)C=C6)C=C5)cc3)S/C2=[NH+]\c2ccc(F)cc2)cc1OC
REMARK SMILES IDX 20 1 19 2 18 3 17 4 16 5 14 6 15 7 13 8 9 9 10 10 95 11
REMARK SMILES IDX 11 12 12 13 94 14 96 15 8 17 7 18 6 19 3 20 4 21 105 22 5 23
REMARK SMILES IDX 104 24 2 25 1 26 106 27 107 28 97 29 98 30 103 31 99 32
REMARK SMILES IDX 102 33 100 34 101 35 21 36 22 37 23 38 24 39 25 40 26 41
REMARK SMILES IDX 27 42 28 43 29 44 93 45 30 46 92 47 31 48 32 49 33 50 86 51
REMARK SMILES IDX 34 52 91 53 85 54 87 55 35 56 90 57 84 58 83 59 36 61 70 62
REMARK SMILES IDX 49 63 69 64 50 65 53 66 68 67 88 68 51 69 52 70 67 72 89 73
REMARK SMILES IDX 54 74 37 75 38 76 47 77 39 78 40 79 46 80 48 81 41 82 42 83
REMARK SMILES IDX 43 84 44 85 45 86 71 87 72 88 81 89 73 90 74 91 80 92 82 93
REMARK SMILES IDX 75 94 76 95 77 96 78 97 79 98 55 99 56 100 65 101 57 102
REMARK SMILES IDX 58 103 64 104 66 105 59 106 60 107 61 108 62 109 63 110
REMARK H PARENT 96 16 87 60 53 71
REMARK Flexibility Score: inf
ROOT
ATOM      1  C   UNL     1      -4.593   3.900   3.280  1.00  0.00     0.188 C 
ENDROOT
BRANCH   1   2
ATOM      2  O   UNL     1      -4.865   5.116   2.593  1.00  0.00    -0.376 OA
BRANCH   2   3
ATOM      3  C   UNL     1      -3.856   5.720   1.813  1.00  0.00     0.202 C 
BRANCH   3   4
ATOM      4  C   UNL     1      -2.602   6.219   2.539  1.00  0.00     0.261 C 
BRANCH   4   5
ATOM      5  O   UNL     1      -2.210   5.487   3.716  1.00  0.00    -0.462 OA
BRANCH   5   6
ATOM      6  C   UNL     1      -2.594   6.004   4.920  1.00  0.00     0.320 C 
ATOM      7  O   UNL     1      -3.287   7.004   5.049  1.00  0.00    -0.251 OA
BRANCH   6   8
ATOM      8  C   UNL     1      -1.930   5.288   6.097  1.00  0.00     0.180 C 
ATOM      9  N   UNL     1       0.200   3.355   6.824  1.00  0.00    -0.191 N 
ATOM     10  C   UNL     1       0.289   4.729   6.983  1.00  0.00     0.311 C 
ATOM     11  C   UNL     1      -1.008   2.667   6.741  1.00  0.00     0.319 C 
ATOM     12  O   UNL     1       0.986   5.282   7.829  1.00  0.00    -0.247 OA
ATOM     13  C   UNL     1      -0.449   5.497   5.949  1.00  0.00     0.155 C 
ATOM     14  S   UNL     1      -2.444   3.554   6.267  1.00  0.00    -0.022 SA
ATOM     15  N   UNL     1      -0.977   1.384   6.922  1.00  0.00    -0.235 N 
ATOM     16  H   UNL     1      -0.142   1.003   7.278  1.00  0.00     0.313 HD
BRANCH   9  17
ATOM     17  C   UNL     1       1.472   2.652   7.009  1.00  0.00     0.251 C 
BRANCH  17  18
ATOM     18  C   UNL     1       1.810   1.446   6.098  1.00  0.00     0.082 C 
BRANCH  18  19
ATOM     19  C   UNL     1       1.704   1.544   4.583  1.00  0.00    -0.040 A 
ATOM     20  C   UNL     1       1.431   1.256   1.771  1.00  0.00     0.160 A 
ATOM     21  C   UNL     1       0.368   1.708   2.546  1.00  0.00     0.051 A 
ATOM     22  C   UNL     1       2.665   1.002   2.378  1.00  0.00     0.160 A 
ATOM     23  C   UNL     1       0.509   1.848   3.928  1.00  0.00     0.008 A 
ATOM     24  C   UNL     1       2.782   1.141   3.777  1.00  0.00     0.054 A 
BRANCH  20  25
ATOM     25  O   UNL     1       1.244   1.147   0.420  1.00  0.00    -0.493 OA
ATOM     26  C   UNL     1       0.350   0.083   0.085  1.00  0.00     0.278 C 
ENDBRANCH  20  25
BRANCH  22  27
ATOM     27  O   UNL     1       3.831   0.599   1.780  1.00  0.00    -0.493 OA
ATOM     28  C   UNL     1       3.778   0.209   0.416  1.00  0.00     0.278 C 
ENDBRANCH  22  27
ENDBRANCH  18  19
ENDBRANCH  17  18
ENDBRANCH   9  17
BRANCH  15  29
ATOM     29  C   UNL     1      -2.022   0.490   6.660  1.00  0.00     0.125 A 
ATOM     30  C   UNL     1      -3.004   0.185   7.605  1.00  0.00     0.055 A 
ATOM     31  C   UNL     1      -1.975  -0.265   5.476  1.00  0.00     0.055 A 
ATOM     32  C   UNL     1      -3.942  -0.827   7.351  1.00  0.00     0.043 A 
ATOM     33  C   UNL     1      -2.914  -1.262   5.210  1.00  0.00     0.043 A 
ATOM     34  C   UNL     1      -3.893  -1.535   6.153  1.00  0.00     0.123 A 
ATOM     35  F   UNL     1      -4.809  -2.477   5.897  1.00  0.00    -0.207 F 
ENDBRANCH  15  29
ENDBRANCH   6   8
ENDBRANCH   5   6
ENDBRANCH   4   5
ENDBRANCH   3   4
ENDBRANCH   2   3
ENDBRANCH   1   2
BRANCH   1  36
ATOM     36  C   UNL     1      -3.433   2.978   2.846  1.00  0.00     0.188 C 
BRANCH  36  37
ATOM     37  O   UNL     1      -3.162   3.025   1.453  1.00  0.00    -0.376 OA
BRANCH  37  38
ATOM     38  C   UNL     1      -3.368   1.815   0.745  1.00  0.00     0.202 C 
BRANCH  38  39
ATOM     39  C   UNL     1      -4.838   1.468   0.488  1.00  0.00     0.261 C 
BRANCH  39  40
ATOM     40  O   UNL     1      -5.692   1.465   1.645  1.00  0.00    -0.460 OA
BRANCH  40  41
ATOM     41  C   UNL     1      -5.526   0.461   2.535  1.00  0.00     0.338 C 
ATOM     42  O   UNL     1      -4.705  -0.439   2.465  1.00  0.00    -0.246 OA
BRANCH  41  43
ATOM     43  C   UNL     1      -6.388   0.744   3.706  1.00  0.00     0.060 A 
ATOM     44  C   UNL     1      -5.794   1.016   4.944  1.00  0.00     0.016 A 
ATOM     45  C   UNL     1      -7.777   0.757   3.586  1.00  0.00     0.016 A 
ATOM     46  C   UNL     1      -6.581   1.236   6.078  1.00  0.00     0.010 A 
ATOM     47  C   UNL     1      -8.566   0.979   4.722  1.00  0.00     0.010 A 
ATOM     48  C   UNL     1      -7.976   1.181   5.984  1.00  0.00    -0.014 A 
BRANCH  48  49
ATOM     49  C   UNL     1      -8.819   1.182   7.209  1.00  0.00     0.031 A 
ATOM     50  C   UNL     1      -9.424  -0.118   7.670  1.00  0.00     0.074 A 
ATOM     51  C   UNL     1      -9.053   2.311   7.905  1.00  0.00     0.049 A 
ATOM     52  N   UNL     1     -10.289  -0.341   8.626  1.00  0.00    -0.248 NA
ATOM     53  C   UNL     1      -8.998  -1.329   6.949  1.00  0.00     0.031 C 
ATOM     54  C   UNL     1      -8.487   3.625   7.605  1.00  0.00     0.029 A 
ATOM     55  N   UNL     1      -9.851   2.533   9.003  1.00  0.00    -0.354 N 
ATOM     56  C   UNL     1     -10.531  -1.710   8.606  1.00  0.00     0.074 A 
ATOM     57  C   UNL     1      -9.738  -2.263   7.529  1.00  0.00     0.031 C 
ATOM     58  C   UNL     1      -8.973   4.520   8.484  1.00  0.00     0.029 A 
ATOM     59  C   UNL     1      -9.917   3.854   9.380  1.00  0.00     0.049 A 
ATOM     60  H   UNL     1     -10.331   1.813   9.474  1.00  0.00     0.167 HD
ATOM     61  C   UNL     1     -11.338  -2.441   9.412  1.00  0.00     0.037 A 
ATOM     62  C   UNL     1     -10.677   4.462  10.315  1.00  0.00     0.037 A 
ATOM     63  C   UNL     1     -12.119  -1.890  10.490  1.00  0.00     0.049 A 
ATOM     64  C   UNL     1     -11.626   3.639  11.153  1.00  0.00     0.074 A 
ATOM     65  C   UNL     1     -12.950  -2.555  11.376  1.00  0.00     0.029 A 
ATOM     66  N   UNL     1     -12.174  -0.545  10.826  1.00  0.00    -0.354 N 
ATOM     67  N   UNL     1     -11.840   2.344  11.131  1.00  0.00    -0.248 NA
ATOM     68  C   UNL     1     -12.439   4.361  12.144  1.00  0.00     0.031 C 
ATOM     69  C   UNL     1     -13.551  -1.606  12.209  1.00  0.00     0.029 A 
ATOM     70  C   UNL     1     -13.045  -0.357  11.887  1.00  0.00     0.049 A 
ATOM     71  H   UNL     1     -11.668   0.170  10.377  1.00  0.00     0.167 HD
ATOM     72  C   UNL     1     -12.783   2.095  12.125  1.00  0.00     0.074 A 
ATOM     73  C   UNL     1     -13.092   3.370  12.736  1.00  0.00     0.031 C 
ATOM     74  C   UNL     1     -13.339   0.915  12.500  1.00  0.00     0.037 A 
BRANCH  61  75
ATOM     75  C   UNL     1     -11.445  -3.917   9.140  1.00  0.00     0.058 A 
ATOM     76  C   UNL     1     -10.385  -4.801   9.396  1.00  0.00     0.135 A 
ATOM     77  C   UNL     1     -12.645  -4.461   8.649  1.00  0.00     0.135 A 
ATOM     78  F   UNL     1      -9.210  -4.334   9.850  1.00  0.00    -0.206 F 
ATOM     79  C   UNL     1     -10.499  -6.166   9.150  1.00  0.00     0.059 A 
ATOM     80  C   UNL     1     -12.792  -5.827   8.426  1.00  0.00     0.059 A 
ATOM     81  F   UNL     1     -13.691  -3.663   8.386  1.00  0.00    -0.206 F 
ATOM     82  C   UNL     1     -11.708  -6.669   8.666  1.00  0.00     0.060 A 
BRANCH  82  83
ATOM     83  S   UNL     1     -11.842  -8.443   8.360  1.00  0.00     0.124 S 
ATOM     84  O   UNL     1     -10.998  -8.601   7.180  1.00  0.00    -0.237 OA
ATOM     85  O   UNL     1     -11.316  -9.013   9.596  1.00  0.00    -0.237 OA
ATOM     86  O   UNL     1     -13.271  -8.645   8.139  1.00  0.00    -0.744 OA
ENDBRANCH  82  83
ENDBRANCH  61  75
BRANCH  62  87
ATOM     87  C   UNL     1     -10.596   5.938  10.502  1.00  0.00     0.058 A 
ATOM     88  C   UNL     1     -10.071   6.492  11.679  1.00  0.00     0.135 A 
ATOM     89  C   UNL     1     -11.059   6.823   9.515  1.00  0.00     0.135 A 
ATOM     90  F   UNL     1      -9.632   5.689  12.661  1.00  0.00    -0.206 F 
ATOM     91  C   UNL     1     -10.023   7.868  11.880  1.00  0.00     0.059 A 
ATOM     92  C   UNL     1     -10.993   8.204   9.680  1.00  0.00     0.059 A 
ATOM     93  F   UNL     1     -11.568   6.347   8.368  1.00  0.00    -0.206 F 
ATOM     94  C   UNL     1     -10.483   8.717  10.872  1.00  0.00     0.060 A 
BRANCH  94  95
ATOM     95  S   UNL     1     -10.374  10.502  11.127  1.00  0.00     0.124 S 
ATOM     96  O   UNL     1     -11.408  10.719  12.132  1.00  0.00    -0.237 OA
ATOM     97  O   UNL     1      -8.997  10.661  11.583  1.00  0.00    -0.237 OA
ATOM     98  O   UNL     1     -10.657  11.049   9.803  1.00  0.00    -0.744 OA
ENDBRANCH  94  95
ENDBRANCH  62  87
BRANCH  74  99
ATOM     99  C   UNL     1     -14.303   0.928  13.658  1.00  0.00     0.058 A 
ATOM    100  C   UNL     1     -15.590   1.480  13.551  1.00  0.00     0.135 A 
ATOM    101  C   UNL     1     -13.953   0.325  14.878  1.00  0.00     0.135 A 
ATOM    102  F   UNL     1     -15.978   2.074  12.411  1.00  0.00    -0.206 F 
ATOM    103  C   UNL     1     -16.485   1.455  14.618  1.00  0.00     0.059 A 
ATOM    104  C   UNL     1     -14.843   0.260  15.947  1.00  0.00     0.059 A 
ATOM    105  F   UNL     1     -12.741  -0.230  15.035  1.00  0.00    -0.206 F 
ATOM    106  C   UNL     1     -16.103   0.839  15.811  1.00  0.00     0.060 A 
BRANCH 106 107
ATOM    107  S   UNL     1     -17.285   0.783  17.175  1.00  0.00     0.124 S 
ATOM    108  O   UNL     1     -17.294   2.174  17.615  1.00  0.00    -0.237 OA
ATOM    109  O   UNL     1     -18.502   0.320  16.514  1.00  0.00    -0.237 OA
ATOM    110  O   UNL     1     -16.686  -0.166  18.108  1.00  0.00    -0.744 OA
ENDBRANCH 106 107
ENDBRANCH  74  99
ENDBRANCH  48  49
ENDBRANCH  41  43
ENDBRANCH  40  41
ENDBRANCH  39  40
ENDBRANCH  38  39
ENDBRANCH  37  38
ENDBRANCH  36  37
ENDBRANCH   1  36
TORSDOF 26
