REMARK SMILES Nc1ccc(-c2cc(Cl)cc3c2O[C@H](C(F)(F)F)C(C(=O)OCCOCCOCCOC(=O)c2ccc(-c4c5nc(c(-c6c(F)cc(S(=O)(=O)[O-])cc6F)c6ccc([nH]6)c(-c6c(F)cc(S(=O)(=O)[O-])cc6F)c6nc(c(-c7c(F)cc(S(=O)(=O)[O-])cc7F)c7ccc4[nH]7)C=C6)C=C5)cc2)=C3)cc1
REMARK SMILES IDX 27 1 26 2 25 3 24 4 23 5 22 6 20 7 21 8 19 9 6 10 7 11 12 12
REMARK SMILES IDX 8 13 11 14 13 15 9 16 10 17 100 18 14 19 5 20 2 21 3 22
REMARK SMILES IDX 102 23 4 24 101 25 1 26 15 29 16 30 17 31 18 32 28 33 29 34
REMARK SMILES IDX 30 35 31 36 32 37 33 38 34 39 35 40 99 41 36 42 98 43 37 44
REMARK SMILES IDX 38 45 39 46 92 47 40 48 97 49 91 50 93 51 41 52 96 53 90 54
REMARK SMILES IDX 89 55 42 57 76 58 55 59 75 60 56 61 59 62 74 63 94 64 57 65
REMARK SMILES IDX 58 66 73 68 95 69 60 70 43 71 44 72 53 73 45 74 46 75 52 76
REMARK SMILES IDX 54 77 47 78 48 79 49 80 50 81 51 82 77 83 78 84 87 85 79 86
REMARK SMILES IDX 80 87 86 88 88 89 81 90 82 91 83 92 84 93 85 94 61 95 62 96
REMARK SMILES IDX 71 97 63 98 64 99 70 100 72 101 65 102 66 103 67 104 68 105
REMARK SMILES IDX 69 106
REMARK H PARENT 1 27 1 28 93 56 59 67
REMARK Flexibility Score: inf
ROOT
ATOM      1  C   UNL     1      -6.305  -0.628   5.604  1.00  0.00     0.188 C 
ENDROOT
BRANCH   1   2
ATOM      2  C   UNL     1      -7.615  -1.444   5.580  1.00  0.00     0.188 C 
BRANCH   2   3
ATOM      3  O   UNL     1      -7.718  -2.331   6.678  1.00  0.00    -0.376 OA
BRANCH   3   4
ATOM      4  C   UNL     1      -7.664  -3.720   6.415  1.00  0.00     0.202 C 
BRANCH   4   5
ATOM      5  C   UNL     1      -6.384  -4.294   5.789  1.00  0.00     0.261 C 
BRANCH   5   6
ATOM      6  O   UNL     1      -5.751  -3.481   4.790  1.00  0.00    -0.460 OA
BRANCH   6   7
ATOM      7  C   UNL     1      -6.172  -3.626   3.516  1.00  0.00     0.338 C 
ATOM      8  O   UNL     1      -7.064  -4.360   3.127  1.00  0.00    -0.246 OA
BRANCH   7   9
ATOM      9  C   UNL     1      -5.446  -2.656   2.666  1.00  0.00     0.087 C 
ATOM     10  C   UNL     1      -3.345  -0.066   0.110  1.00  0.00     0.026 A 
ATOM     11  C   UNL     1      -4.076   0.658  -0.848  1.00  0.00     0.033 A 
ATOM     12  C   UNL     1      -4.064  -0.876   1.022  1.00  0.00     0.135 A 
ATOM     13  C   UNL     1      -5.466   0.567  -0.904  1.00  0.00     0.042 A 
ATOM     14  C   UNL     1      -5.457  -1.007   0.926  1.00  0.00     0.019 A 
ATOM     15  O   UNL     1      -3.338  -1.500   2.001  1.00  0.00    -0.475 OA
ATOM     16  Cl  UNL     1      -6.328   1.465  -2.091  1.00  0.00    -0.084 Cl
ATOM     17  C   UNL     1      -6.159  -0.267  -0.030  1.00  0.00     0.032 A 
ATOM     18  C   UNL     1      -6.163  -1.950   1.782  1.00  0.00     0.027 C 
ATOM     19  C   UNL     1      -3.963  -2.483   2.862  1.00  0.00     0.316 C 
BRANCH  10  20
ATOM     20  C   UNL     1      -1.867  -0.020   0.089  1.00  0.00    -0.014 A 
ATOM     21  C   UNL     1       0.974   0.032   0.012  1.00  0.00     0.031 A 
ATOM     22  C   UNL     1       0.284  -1.178  -0.024  1.00  0.00     0.026 A 
ATOM     23  C   UNL     1       0.237   1.217   0.034  1.00  0.00     0.026 A 
ATOM     24  C   UNL     1      -1.114  -1.204   0.019  1.00  0.00     0.011 A 
ATOM     25  C   UNL     1      -1.164   1.194   0.086  1.00  0.00     0.011 A 
BRANCH  21  26
ATOM     26  N   UNL     1       2.354   0.056  -0.107  1.00  0.00    -0.399 N 
ATOM     27  H   UNL     1       2.862  -0.787  -0.121  1.00  0.00     0.156 HD
ATOM     28  H   UNL     1       2.827   0.917  -0.178  1.00  0.00     0.156 HD
ENDBRANCH  21  26
ENDBRANCH  10  20
BRANCH  19  29
ATOM     29  C   UNL     1      -3.187  -3.799   2.713  1.00  0.00     0.430 C 
ATOM     30  F   UNL     1      -1.856  -3.608   2.893  1.00  0.00    -0.167 F 
ATOM     31  F   UNL     1      -3.568  -4.721   3.627  1.00  0.00    -0.167 F 
ATOM     32  F   UNL     1      -3.350  -4.348   1.488  1.00  0.00    -0.167 F 
ENDBRANCH  19  29
ENDBRANCH   7   9
ENDBRANCH   6   7
ENDBRANCH   5   6
ENDBRANCH   4   5
ENDBRANCH   3   4
ENDBRANCH   2   3
ENDBRANCH   1   2
BRANCH   1  33
ATOM     33  O   UNL     1      -5.455  -0.699   6.744  1.00  0.00    -0.376 OA
BRANCH  33  34
ATOM     34  C   UNL     1      -6.031  -0.589   8.042  1.00  0.00     0.202 C 
BRANCH  34  35
ATOM     35  C   UNL     1      -6.848   0.665   8.381  1.00  0.00     0.261 C 
BRANCH  35  36
ATOM     36  O   UNL     1      -7.936   0.928   7.480  1.00  0.00    -0.460 OA
BRANCH  36  37
ATOM     37  C   UNL     1      -7.820   2.055   6.731  1.00  0.00     0.338 C 
ATOM     38  O   UNL     1      -6.919   2.875   6.768  1.00  0.00    -0.246 OA
BRANCH  37  39
ATOM     39  C   UNL     1      -8.865   2.047   5.685  1.00  0.00     0.060 A 
ATOM     40  C   UNL     1     -10.218   1.960   6.015  1.00  0.00     0.016 A 
ATOM     41  C   UNL     1      -8.466   2.132   4.343  1.00  0.00     0.016 A 
ATOM     42  C   UNL     1     -11.175   1.977   4.995  1.00  0.00     0.010 A 
ATOM     43  C   UNL     1      -9.422   2.128   3.325  1.00  0.00     0.010 A 
ATOM     44  C   UNL     1     -10.785   2.070   3.647  1.00  0.00    -0.014 A 
BRANCH  44  45
ATOM     45  C   UNL     1     -11.809   2.272   2.593  1.00  0.00     0.031 A 
ATOM     46  C   UNL     1     -12.315   1.141   1.750  1.00  0.00     0.074 A 
ATOM     47  C   UNL     1     -12.285   3.518   2.409  1.00  0.00     0.049 A 
ATOM     48  N   UNL     1     -13.279   1.146   0.867  1.00  0.00    -0.248 NA
ATOM     49  C   UNL     1     -11.653  -0.161   1.913  1.00  0.00     0.031 C 
ATOM     50  C   UNL     1     -11.839   4.701   3.148  1.00  0.00     0.029 A 
ATOM     51  N   UNL     1     -13.248   3.997   1.559  1.00  0.00    -0.354 N 
ATOM     52  C   UNL     1     -13.368  -0.154   0.387  1.00  0.00     0.074 A 
ATOM     53  C   UNL     1     -12.319  -0.911   1.043  1.00  0.00     0.031 C 
ATOM     54  C   UNL     1     -12.546   5.765   2.737  1.00  0.00     0.029 A 
ATOM     55  C   UNL     1     -13.482   5.344   1.698  1.00  0.00     0.049 A 
ATOM     56  H   UNL     1     -13.726   3.430   0.910  1.00  0.00     0.167 HD
ATOM     57  C   UNL     1     -14.256  -0.666  -0.499  1.00  0.00     0.037 A 
ATOM     58  C   UNL     1     -14.361   6.149   1.072  1.00  0.00     0.037 A 
ATOM     59  C   UNL     1     -15.281   0.103  -1.162  1.00  0.00     0.049 A 
ATOM     60  C   UNL     1     -15.306   5.563   0.062  1.00  0.00     0.074 A 
ATOM     61  C   UNL     1     -16.252  -0.338  -2.046  1.00  0.00     0.029 A 
ATOM     62  N   UNL     1     -15.463   1.473  -1.028  1.00  0.00    -0.354 N 
ATOM     63  N   UNL     1     -15.430   4.315  -0.321  1.00  0.00    -0.248 NA
ATOM     64  C   UNL     1     -16.236   6.492  -0.594  1.00  0.00     0.031 C 
ATOM     65  C   UNL     1     -16.988   0.769  -2.482  1.00  0.00     0.029 A 
ATOM     66  C   UNL     1     -16.509   1.896  -1.834  1.00  0.00     0.049 A 
ATOM     67  H   UNL     1     -14.927   2.059  -0.446  1.00  0.00     0.167 HD
ATOM     68  C   UNL     1     -16.464   4.305  -1.250  1.00  0.00     0.074 A 
ATOM     69  C   UNL     1     -16.941   5.669  -1.359  1.00  0.00     0.031 C 
ATOM     70  C   UNL     1     -16.971   3.258  -1.947  1.00  0.00     0.037 A 
BRANCH  57  71
ATOM     71  C   UNL     1     -14.180  -2.139  -0.801  1.00  0.00     0.058 A 
ATOM     72  C   UNL     1     -14.597  -3.096   0.138  1.00  0.00     0.135 A 
ATOM     73  C   UNL     1     -13.772  -2.597  -2.064  1.00  0.00     0.135 A 
ATOM     74  F   UNL     1     -14.989  -2.714   1.364  1.00  0.00    -0.206 F 
ATOM     75  C   UNL     1     -14.599  -4.455  -0.159  1.00  0.00     0.059 A 
ATOM     76  C   UNL     1     -13.787  -3.951  -2.392  1.00  0.00     0.059 A 
ATOM     77  F   UNL     1     -13.366  -1.725  -3.001  1.00  0.00    -0.206 F 
ATOM     78  C   UNL     1     -14.196  -4.873  -1.429  1.00  0.00     0.060 A 
BRANCH  78  79
ATOM     79  S   UNL     1     -14.228  -6.639  -1.801  1.00  0.00     0.124 S 
ATOM     80  O   UNL     1     -13.132  -7.131  -0.972  1.00  0.00    -0.237 OA
ATOM     81  O   UNL     1     -15.569  -7.023  -1.371  1.00  0.00    -0.237 OA
ATOM     82  O   UNL     1     -13.995  -6.689  -3.241  1.00  0.00    -0.744 OA
ENDBRANCH  78  79
ENDBRANCH  57  71
BRANCH  58  83
ATOM     83  C   UNL     1     -14.410   7.590   1.427  1.00  0.00     0.058 A 
ATOM     84  C   UNL     1     -15.479   8.110   2.170  1.00  0.00     0.135 A 
ATOM     85  C   UNL     1     -13.370   8.462   1.071  1.00  0.00     0.135 A 
ATOM     86  F   UNL     1     -16.497   7.313   2.530  1.00  0.00    -0.206 F 
ATOM     87  C   UNL     1     -15.519   9.447   2.546  1.00  0.00     0.059 A 
ATOM     88  C   UNL     1     -13.376   9.799   1.455  1.00  0.00     0.059 A 
ATOM     89  F   UNL     1     -12.318   8.006   0.374  1.00  0.00    -0.206 F 
ATOM     90  C   UNL     1     -14.459  10.283   2.189  1.00  0.00     0.060 A 
BRANCH  90  91
ATOM     91  S   UNL     1     -14.492  12.002   2.740  1.00  0.00     0.124 S 
ATOM     92  O   UNL     1     -15.550  12.558   1.904  1.00  0.00    -0.237 OA
ATOM     93  O   UNL     1     -14.806  11.861   4.158  1.00  0.00    -0.237 OA
ATOM     94  O   UNL     1     -13.143  12.475   2.448  1.00  0.00    -0.744 OA
ENDBRANCH  90  91
ENDBRANCH  58  83
BRANCH  70  95
ATOM     95  C   UNL     1     -18.107   3.541  -2.893  1.00  0.00     0.058 A 
ATOM     96  C   UNL     1     -17.898   4.209  -4.110  1.00  0.00     0.135 A 
ATOM     97  C   UNL     1     -19.406   3.091  -2.607  1.00  0.00     0.135 A 
ATOM     98  F   UNL     1     -16.677   4.668  -4.428  1.00  0.00    -0.206 F 
ATOM     99  C   UNL     1     -18.940   4.436  -5.003  1.00  0.00     0.059 A 
ATOM    100  C   UNL     1     -20.459   3.285  -3.498  1.00  0.00     0.059 A 
ATOM    101  F   UNL     1     -19.660   2.441  -1.460  1.00  0.00    -0.206 F 
ATOM    102  C   UNL     1     -20.217   3.966  -4.690  1.00  0.00     0.060 A 
BRANCH 102 103
ATOM    103  S   UNL     1     -21.550   4.233  -5.878  1.00  0.00     0.124 S 
ATOM    104  O   UNL     1     -21.777   5.669  -5.749  1.00  0.00    -0.237 OA
ATOM    105  O   UNL     1     -20.942   3.798  -7.131  1.00  0.00    -0.237 OA
ATOM    106  O   UNL     1     -22.626   3.381  -5.381  1.00  0.00    -0.744 OA
ENDBRANCH 102 103
ENDBRANCH  70  95
ENDBRANCH  44  45
ENDBRANCH  37  39
ENDBRANCH  36  37
ENDBRANCH  35  36
ENDBRANCH  34  35
ENDBRANCH  33  34
ENDBRANCH   1  33
TORSDOF 23
