REMARK SMILES O=C(OCCOCCOCCOC(=O)[C@H]1C=C[C@@H](NS(=O)(=O)c2ccc(Br)cc2)C1)c1ccc(-c2c3nc(c(-c4c(F)cc(S(=O)(=O)[O-])cc4F)c4ccc([nH]4)c(-c4c(F)cc(S(=O)(=O)[O-])cc4F)c4nc(c(-c5c(F)cc(S(=O)(=O)[O-])cc5F)c5ccc2[nH]5)C=C4)C=C3)cc1
REMARK SMILES IDX 7 1 6 2 5 3 4 4 3 5 2 6 1 7 31 8 32 9 96 10 33 11 95 12
REMARK SMILES IDX 34 13 35 14 36 15 89 16 37 17 94 18 88 19 90 20 38 21 93 22
REMARK SMILES IDX 87 23 86 24 39 26 73 27 52 28 72 29 53 30 56 31 71 32 91 33
REMARK SMILES IDX 54 34 55 35 70 37 92 38 57 39 40 40 41 41 50 42 42 43 43 44
REMARK SMILES IDX 49 45 51 46 44 47 45 48 46 49 47 50 48 51 74 52 75 53 84 54
REMARK SMILES IDX 76 55 77 56 83 57 85 58 78 59 79 60 80 61 81 62 82 63 58 64
REMARK SMILES IDX 59 65 68 66 60 67 61 68 67 69 69 70 62 71 63 72 64 73 65 74
REMARK SMILES IDX 66 75 8 76 9 77 10 78 11 79 12 80 13 81 14 82 15 83 16 84
REMARK SMILES IDX 30 85 17 86 18 87 19 88 20 90 21 91 22 92 23 93 24 94 29 95
REMARK SMILES IDX 25 96 28 97 26 98 27 99
REMARK H PARENT 90 25 56 36 19 89
REMARK Flexibility Score: inf
ROOT
ATOM      1  C   UNL     1       2.486   2.008  -1.149  1.00  0.00     0.188 C 
ENDROOT
BRANCH   1   2
ATOM      2  O   UNL     1       3.788   1.664  -0.666  1.00  0.00    -0.376 OA
BRANCH   2   3
ATOM      3  C   UNL     1       4.554   0.871  -1.580  1.00  0.00     0.202 C 
BRANCH   3   4
ATOM      4  C   UNL     1       4.252  -0.638  -1.547  1.00  0.00     0.261 C 
BRANCH   4   5
ATOM      5  O   UNL     1       2.902  -0.930  -1.141  1.00  0.00    -0.460 OA
BRANCH   5   6
ATOM      6  C   UNL     1       2.458  -1.263   0.102  1.00  0.00     0.338 C 
ATOM      7  O   UNL     1       1.277  -1.575   0.244  1.00  0.00    -0.246 OA
BRANCH   6   8
ATOM      8  C   UNL     1       3.358  -1.313   1.292  1.00  0.00     0.060 A 
ATOM      9  C   UNL     1       4.514  -0.548   1.426  1.00  0.00     0.016 A 
ATOM     10  C   UNL     1       3.009  -2.155   2.356  1.00  0.00     0.016 A 
ATOM     11  C   UNL     1       5.416  -0.762   2.454  1.00  0.00     0.010 A 
ATOM     12  C   UNL     1       3.852  -2.275   3.469  1.00  0.00     0.010 A 
ATOM     13  C   UNL     1       5.100  -1.628   3.490  1.00  0.00    -0.014 A 
BRANCH  13  14
ATOM     14  C   UNL     1       6.117  -1.943   4.520  1.00  0.00     0.031 A 
ATOM     15  C   UNL     1       6.514  -3.383   4.695  1.00  0.00     0.074 A 
ATOM     16  C   UNL     1       6.692  -0.973   5.261  1.00  0.00     0.049 A 
ATOM     17  N   UNL     1       7.152  -3.961   5.675  1.00  0.00    -0.248 NA
ATOM     18  C   UNL     1       6.155  -4.295   3.591  1.00  0.00     0.031 C 
ATOM     19  C   UNL     1       6.484   0.473   5.113  1.00  0.00     0.029 A 
ATOM     20  N   UNL     1       7.492  -1.071   6.375  1.00  0.00    -0.354 N 
ATOM     21  C   UNL     1       7.312  -5.285   5.285  1.00  0.00     0.074 A 
ATOM     22  C   UNL     1       6.606  -5.457   4.037  1.00  0.00     0.031 C 
ATOM     23  C   UNL     1       6.980   1.105   6.188  1.00  0.00     0.029 A 
ATOM     24  C   UNL     1       7.518   0.105   7.095  1.00  0.00     0.049 A 
ATOM     25  H   UNL     1       7.987  -1.883   6.629  1.00  0.00     0.167 HD
ATOM     26  C   UNL     1       8.053  -6.248   5.880  1.00  0.00     0.037 A 
ATOM     27  C   UNL     1       7.812   0.315   8.389  1.00  0.00     0.037 A 
ATOM     28  C   UNL     1       8.737  -6.044   7.127  1.00  0.00     0.049 A 
ATOM     29  C   UNL     1       8.321  -0.831   9.203  1.00  0.00     0.074 A 
ATOM     30  C   UNL     1       9.567  -6.905   7.819  1.00  0.00     0.029 A 
ATOM     31  N   UNL     1       8.654  -4.876   7.874  1.00  0.00    -0.354 N 
ATOM     32  N   UNL     1       8.458  -2.087   8.858  1.00  0.00    -0.248 NA
ATOM     33  C   UNL     1       8.753  -0.518  10.569  1.00  0.00     0.031 C 
ATOM     34  C   UNL     1       9.967  -6.264   8.999  1.00  0.00     0.029 A 
ATOM     35  C   UNL     1       9.414  -4.993   9.022  1.00  0.00     0.049 A 
ATOM     36  H   UNL     1       8.130  -4.082   7.622  1.00  0.00     0.167 HD
ATOM     37  C   UNL     1       9.079  -2.703   9.933  1.00  0.00     0.074 A 
ATOM     38  C   UNL     1       9.219  -1.694  10.967  1.00  0.00     0.031 C 
ATOM     39  C   UNL     1       9.552  -3.969  10.025  1.00  0.00     0.037 A 
BRANCH  26  40
ATOM     40  C   UNL     1       8.208  -7.551   5.148  1.00  0.00     0.058 A 
ATOM     41  C   UNL     1       8.943  -7.617   3.950  1.00  0.00     0.135 A 
ATOM     42  C   UNL     1       7.638  -8.738   5.628  1.00  0.00     0.135 A 
ATOM     43  F   UNL     1       9.495  -6.507   3.432  1.00  0.00    -0.206 F 
ATOM     44  C   UNL     1       9.080  -8.804   3.240  1.00  0.00     0.059 A 
ATOM     45  C   UNL     1       7.784  -9.945   4.946  1.00  0.00     0.059 A 
ATOM     46  F   UNL     1       6.922  -8.734   6.763  1.00  0.00    -0.206 F 
ATOM     47  C   UNL     1       8.495  -9.964   3.746  1.00  0.00     0.060 A 
BRANCH  47  48
ATOM     48  S   UNL     1       8.693 -11.497   2.812  1.00  0.00     0.124 S 
ATOM     49  O   UNL     1       7.814 -11.259   1.671  1.00  0.00    -0.237 OA
ATOM     50  O   UNL     1      10.122 -11.502   2.519  1.00  0.00    -0.237 OA
ATOM     51  O   UNL     1       8.244 -12.525   3.746  1.00  0.00    -0.744 OA
ENDBRANCH  47  48
ENDBRANCH  26  40
BRANCH  27  52
ATOM     52  C   UNL     1       7.455   1.597   9.040  1.00  0.00     0.058 A 
ATOM     53  C   UNL     1       8.339   2.673   9.158  1.00  0.00     0.135 A 
ATOM     54  C   UNL     1       6.170   1.735   9.585  1.00  0.00     0.135 A 
ATOM     55  F   UNL     1       9.579   2.582   8.658  1.00  0.00    -0.206 F 
ATOM     56  C   UNL     1       7.960   3.849   9.803  1.00  0.00     0.059 A 
ATOM     57  C   UNL     1       5.766   2.898  10.225  1.00  0.00     0.059 A 
ATOM     58  F   UNL     1       5.303   0.719   9.498  1.00  0.00    -0.206 F 
ATOM     59  C   UNL     1       6.672   3.949  10.337  1.00  0.00     0.060 A 
BRANCH  59  60
ATOM     60  S   UNL     1       6.153   5.484  11.137  1.00  0.00     0.124 S 
ATOM     61  O   UNL     1       6.695   5.312  12.479  1.00  0.00    -0.237 OA
ATOM     62  O   UNL     1       6.798   6.500  10.312  1.00  0.00    -0.237 OA
ATOM     63  O   UNL     1       4.698   5.433  11.027  1.00  0.00    -0.744 OA
ENDBRANCH  59  60
ENDBRANCH  27  52
BRANCH  39  64
ATOM     64  C   UNL     1      10.409  -4.265  11.213  1.00  0.00     0.058 A 
ATOM     65  C   UNL     1       9.879  -4.498  12.488  1.00  0.00     0.135 A 
ATOM     66  C   UNL     1      11.804  -4.297  11.053  1.00  0.00     0.135 A 
ATOM     67  F   UNL     1       8.553  -4.450  12.689  1.00  0.00    -0.206 F 
ATOM     68  C   UNL     1      10.711  -4.730  13.577  1.00  0.00     0.059 A 
ATOM     69  C   UNL     1      12.651  -4.552  12.121  1.00  0.00     0.059 A 
ATOM     70  F   UNL     1      12.353  -4.076   9.848  1.00  0.00    -0.206 F 
ATOM     71  C   UNL     1      12.095  -4.751  13.383  1.00  0.00     0.060 A 
BRANCH  71  72
ATOM     72  S   UNL     1      13.169  -5.063  14.797  1.00  0.00     0.124 S 
ATOM     73  O   UNL     1      13.156  -3.766  15.465  1.00  0.00    -0.237 OA
ATOM     74  O   UNL     1      12.472  -6.142  15.490  1.00  0.00    -0.237 OA
ATOM     75  O   UNL     1      14.438  -5.441  14.180  1.00  0.00    -0.744 OA
ENDBRANCH  71  72
ENDBRANCH  39  64
ENDBRANCH  13  14
ENDBRANCH   6   8
ENDBRANCH   5   6
ENDBRANCH   4   5
ENDBRANCH   3   4
ENDBRANCH   2   3
ENDBRANCH   1   2
BRANCH   1  76
ATOM     76  C   UNL     1       1.965   3.303  -0.514  1.00  0.00     0.188 C 
BRANCH  76  77
ATOM     77  O   UNL     1       2.651   4.503  -0.875  1.00  0.00    -0.376 OA
BRANCH  77  78
ATOM     78  C   UNL     1       4.044   4.560  -0.578  1.00  0.00     0.202 C 
BRANCH  78  79
ATOM     79  C   UNL     1       4.453   4.717   0.897  1.00  0.00     0.261 C 
BRANCH  79  80
ATOM     80  O   UNL     1       3.779   3.834   1.810  1.00  0.00    -0.463 OA
BRANCH  80  81
ATOM     81  C   UNL     1       3.044   4.443   2.783  1.00  0.00     0.312 C 
ATOM     82  O   UNL     1       2.964   5.657   2.939  1.00  0.00    -0.252 OA
BRANCH  81  83
ATOM     83  C   UNL     1       2.298   3.473   3.694  1.00  0.00     0.123 C 
ATOM     84  C   UNL     1       2.051   2.081   3.195  1.00  0.00    -0.015 C 
ATOM     85  C   UNL     1       3.042   3.187   5.006  1.00  0.00     0.043 C 
ATOM     86  C   UNL     1       2.136   1.198   4.196  1.00  0.00    -0.011 C 
ATOM     87  C   UNL     1       2.438   1.860   5.501  1.00  0.00     0.093 C 
BRANCH  87  88
ATOM     88  N   UNL     1       3.387   1.097   6.287  1.00  0.00    -0.204 NA
ATOM     89  H   UNL     1       3.692   1.701   7.050  1.00  0.00     0.142 HD
BRANCH  88  90
ATOM     90  S   UNL     1       2.920  -0.364   6.981  1.00  0.00     0.241 S 
ATOM     91  O   UNL     1       1.694  -0.818   6.376  1.00  0.00    -0.207 OA
ATOM     92  O   UNL     1       4.106  -1.196   6.987  1.00  0.00    -0.207 OA
BRANCH  90  93
ATOM     93  C   UNL     1       2.554   0.003   8.669  1.00  0.00     0.082 A 
ATOM     94  C   UNL     1       2.574  -1.065   9.575  1.00  0.00     0.023 A 
ATOM     95  C   UNL     1       2.292   1.304   9.103  1.00  0.00     0.023 A 
ATOM     96  C   UNL     1       2.302  -0.834  10.922  1.00  0.00     0.017 A 
ATOM     97  C   UNL     1       2.024   1.531  10.455  1.00  0.00     0.017 A 
ATOM     98  C   UNL     1       2.023   0.462  11.354  1.00  0.00     0.018 A 
ATOM     99  Br  UNL     1       1.648   0.774  13.180  1.00  0.00    -0.051 Br
ENDBRANCH  90  93
ENDBRANCH  88  90
ENDBRANCH  87  88
ENDBRANCH  81  83
ENDBRANCH  80  81
ENDBRANCH  79  80
ENDBRANCH  78  79
ENDBRANCH  77  78
ENDBRANCH  76  77
ENDBRANCH   1  76
TORSDOF 23
