REMARK SMILES O=C(CSc1ccc(Cl)cc1)Nc1cccc(C(=O)Nc2ccc(C(=O)OCCOCCOCCOC(=O)c3ccc(-c4c5nc(c(-c6c(F)cc(S(=O)(=O)[O-])cc6F)c6ccc([nH]6)c(-c6c(F)cc(S(=O)(=O)[O-])cc6F)c6nc(c(-c7c(F)cc(S(=O)(=O)[O-])cc7F)c7ccc4[nH]7)C=C6)C=C5)cc3)cc2)c1
REMARK SMILES IDX 30 1 29 2 28 3 27 4 25 5 26 6 24 7 21 8 22 9 106 10 23 11
REMARK SMILES IDX 105 12 20 13 18 14 19 15 17 17 13 18 14 19 107 20 15 21
REMARK SMILES IDX 16 22 12 23 1 24 2 25 3 27 4 28 5 29 6 30 11 31 7 32 10 33
REMARK SMILES IDX 8 34 9 35 31 36 32 37 33 38 34 39 35 40 36 41 37 42 38 43
REMARK SMILES IDX 39 44 40 45 104 46 41 47 103 48 42 49 43 50 44 51 97 52
REMARK SMILES IDX 45 53 102 54 96 55 98 56 46 57 101 58 95 59 94 60 47 62
REMARK SMILES IDX 81 63 60 64 80 65 61 66 64 67 79 68 99 69 62 70 63 71 78 73
REMARK SMILES IDX 100 74 65 75 48 76 49 77 58 78 50 79 51 80 57 81 59 82 52 83
REMARK SMILES IDX 53 84 54 85 55 86 56 87 82 88 83 89 92 90 84 91 85 92 91 93
REMARK SMILES IDX 93 94 86 95 87 96 88 97 89 98 90 99 66 100 67 101 76 102
REMARK SMILES IDX 68 103 69 104 75 105 77 106 70 107 71 108 72 109 73 110
REMARK SMILES IDX 74 111
REMARK H PARENT 20 16 12 26 98 61 64 72
REMARK Flexibility Score: inf
ROOT
ATOM      1  O   UNL     1       1.236  -5.755  -0.961  1.00  0.00    -0.376 OA
ENDROOT
BRANCH   1   2
ATOM      2  C   UNL     1       1.978  -4.925  -1.832  1.00  0.00     0.202 C 
BRANCH   2   3
ATOM      3  C   UNL     1       2.256  -3.426  -1.632  1.00  0.00     0.261 C 
BRANCH   3   4
ATOM      4  O   UNL     1       1.865  -2.810  -0.404  1.00  0.00    -0.460 OA
BRANCH   4   5
ATOM      5  C   UNL     1       0.690  -2.130  -0.452  1.00  0.00     0.338 C 
ATOM      6  O   UNL     1      -0.039  -2.050  -1.429  1.00  0.00    -0.246 OA
BRANCH   5   7
ATOM      7  C   UNL     1       0.341  -1.575   0.883  1.00  0.00     0.060 A 
ATOM      8  C   UNL     1      -0.379  -0.057   3.089  1.00  0.00     0.041 A 
ATOM      9  C   UNL     1      -1.375  -0.578   2.262  1.00  0.00     0.027 A 
ATOM     10  C   UNL     1       0.942  -0.494   2.964  1.00  0.00     0.027 A 
ATOM     11  C   UNL     1      -1.008  -1.306   1.134  1.00  0.00     0.018 A 
ATOM     12  C   UNL     1       1.307  -1.257   1.851  1.00  0.00     0.018 A 
BRANCH   8  13
ATOM     13  N   UNL     1      -0.749   1.017   3.904  1.00  0.00    -0.322 N 
ATOM     14  C   UNL     1      -0.212   2.290   3.994  1.00  0.00     0.255 C 
ATOM     15  O   UNL     1      -0.731   3.067   4.802  1.00  0.00    -0.269 OA
ATOM     16  H   UNL     1      -1.507   0.840   4.506  1.00  0.00     0.170 HD
BRANCH  14  17
ATOM     17  C   UNL     1       0.927   2.804   3.159  1.00  0.00     0.042 A 
ATOM     18  C   UNL     1       2.558   2.639   1.353  1.00  0.00     0.041 A 
ATOM     19  C   UNL     1       3.273   3.703   1.900  1.00  0.00     0.026 A 
ATOM     20  C   UNL     1       1.333   2.274   1.927  1.00  0.00     0.040 A 
ATOM     21  C   UNL     1       2.779   4.375   3.016  1.00  0.00     0.003 A 
ATOM     22  C   UNL     1       1.633   3.907   3.660  1.00  0.00     0.014 A 
BRANCH  18  23
ATOM     23  N   UNL     1       3.180   1.896   0.327  1.00  0.00    -0.325 N 
ATOM     24  O   UNL     1       1.375   0.850  -0.669  1.00  0.00    -0.274 OA
ATOM     25  C   UNL     1       2.581   0.938  -0.466  1.00  0.00     0.234 C 
ATOM     26  H   UNL     1       4.133   2.079   0.160  1.00  0.00     0.169 HD
BRANCH  25  27
ATOM     27  C   UNL     1       3.548  -0.092  -1.028  1.00  0.00     0.175 C 
BRANCH  27  28
ATOM     28  S   UNL     1       4.726   0.615  -2.206  1.00  0.00    -0.116 SA
BRANCH  28  29
ATOM     29  C   UNL     1       3.555   1.261  -3.384  1.00  0.00     0.008 A 
ATOM     30  C   UNL     1       3.518   2.643  -3.574  1.00  0.00     0.016 A 
ATOM     31  C   UNL     1       2.644   0.441  -4.060  1.00  0.00     0.016 A 
ATOM     32  C   UNL     1       2.560   3.208  -4.414  1.00  0.00     0.021 A 
ATOM     33  C   UNL     1       1.683   1.007  -4.902  1.00  0.00     0.021 A 
ATOM     34  C   UNL     1       1.645   2.389  -5.072  1.00  0.00     0.041 A 
ATOM     35  Cl  UNL     1       0.465   3.097  -6.104  1.00  0.00    -0.084 Cl
ENDBRANCH  28  29
ENDBRANCH  27  28
ENDBRANCH  25  27
ENDBRANCH  18  23
ENDBRANCH  14  17
ENDBRANCH   8  13
ENDBRANCH   5   7
ENDBRANCH   4   5
ENDBRANCH   3   4
ENDBRANCH   2   3
ENDBRANCH   1   2
BRANCH   1  36
ATOM     36  C   UNL     1       0.443  -5.204   0.063  1.00  0.00     0.188 C 
BRANCH  36  37
ATOM     37  C   UNL     1       1.180  -4.936   1.393  1.00  0.00     0.188 C 
BRANCH  37  38
ATOM     38  O   UNL     1       2.566  -5.210   1.510  1.00  0.00    -0.376 OA
BRANCH  38  39
ATOM     39  C   UNL     1       3.036  -6.495   1.128  1.00  0.00     0.202 C 
BRANCH  39  40
ATOM     40  C   UNL     1       2.302  -7.783   1.551  1.00  0.00     0.261 C 
BRANCH  40  41
ATOM     41  O   UNL     1       0.869  -7.767   1.461  1.00  0.00    -0.460 OA
BRANCH  41  42
ATOM     42  C   UNL     1       0.203  -7.713   2.645  1.00  0.00     0.338 C 
ATOM     43  O   UNL     1       0.694  -7.718   3.761  1.00  0.00    -0.246 OA
BRANCH  42  44
ATOM     44  C   UNL     1      -1.225  -7.408   2.392  1.00  0.00     0.060 A 
ATOM     45  C   UNL     1      -1.766  -6.229   2.930  1.00  0.00     0.016 A 
ATOM     46  C   UNL     1      -2.025  -8.270   1.642  1.00  0.00     0.016 A 
ATOM     47  C   UNL     1      -3.112  -5.918   2.737  1.00  0.00     0.010 A 
ATOM     48  C   UNL     1      -3.383  -7.975   1.480  1.00  0.00     0.010 A 
ATOM     49  C   UNL     1      -3.939  -6.815   2.051  1.00  0.00    -0.014 A 
BRANCH  49  50
ATOM     50  C   UNL     1      -5.413  -6.660   2.123  1.00  0.00     0.031 A 
ATOM     51  C   UNL     1      -6.153  -7.428   3.185  1.00  0.00     0.074 A 
ATOM     52  C   UNL     1      -6.085  -5.859   1.276  1.00  0.00     0.049 A 
ATOM     53  N   UNL     1      -7.438  -7.519   3.403  1.00  0.00    -0.248 NA
ATOM     54  C   UNL     1      -5.325  -8.202   4.126  1.00  0.00     0.031 C 
ATOM     55  C   UNL     1      -5.481  -5.024   0.239  1.00  0.00     0.029 A 
ATOM     56  N   UNL     1      -7.433  -5.629   1.151  1.00  0.00    -0.354 N 
ATOM     57  C   UNL     1      -7.576  -8.371   4.493  1.00  0.00     0.074 A 
ATOM     58  C   UNL     1      -6.245  -8.786   4.879  1.00  0.00     0.031 C 
ATOM     59  C   UNL     1      -6.459  -4.385  -0.429  1.00  0.00     0.029 A 
ATOM     60  C   UNL     1      -7.757  -4.792   0.110  1.00  0.00     0.049 A 
ATOM     61  H   UNL     1      -8.105  -6.027   1.751  1.00  0.00     0.167 HD
ATOM     62  C   UNL     1      -8.708  -8.772   5.117  1.00  0.00     0.037 A 
ATOM     63  C   UNL     1      -8.963  -4.420  -0.366  1.00  0.00     0.037 A 
ATOM     64  C   UNL     1     -10.031  -8.359   4.729  1.00  0.00     0.049 A 
ATOM     65  C   UNL     1     -10.216  -4.939   0.298  1.00  0.00     0.074 A 
ATOM     66  C   UNL     1     -11.240  -8.690   5.314  1.00  0.00     0.029 A 
ATOM     67  N   UNL     1     -10.319  -7.536   3.651  1.00  0.00    -0.354 N 
ATOM     68  N   UNL     1     -10.333  -5.725   1.343  1.00  0.00    -0.248 NA
ATOM     69  C   UNL     1     -11.500  -4.522  -0.283  1.00  0.00     0.031 C 
ATOM     70  C   UNL     1     -12.264  -8.112   4.556  1.00  0.00     0.029 A 
ATOM     71  C   UNL     1     -11.690  -7.372   3.535  1.00  0.00     0.049 A 
ATOM     72  H   UNL     1      -9.649  -7.128   3.056  1.00  0.00     0.167 HD
ATOM     73  C   UNL     1     -11.701  -5.867   1.563  1.00  0.00     0.074 A 
ATOM     74  C   UNL     1     -12.370  -5.083   0.547  1.00  0.00     0.031 C 
ATOM     75  C   UNL     1     -12.344  -6.578   2.524  1.00  0.00     0.037 A 
BRANCH  62  76
ATOM     76  C   UNL     1      -8.566  -9.737   6.261  1.00  0.00     0.058 A 
ATOM     77  C   UNL     1      -8.030  -9.349   7.499  1.00  0.00     0.135 A 
ATOM     78  C   UNL     1      -8.995 -11.067   6.121  1.00  0.00     0.135 A 
ATOM     79  F   UNL     1      -7.585  -8.095   7.680  1.00  0.00    -0.206 F 
ATOM     80  C   UNL     1      -7.899 -10.252   8.549  1.00  0.00     0.059 A 
ATOM     81  C   UNL     1      -8.900 -11.980   7.167  1.00  0.00     0.059 A 
ATOM     82  F   UNL     1      -9.510 -11.493   4.957  1.00  0.00    -0.206 F 
ATOM     83  C   UNL     1      -8.337 -11.566   8.373  1.00  0.00     0.060 A 
BRANCH  83  84
ATOM     84  S   UNL     1      -8.162 -12.725   9.745  1.00  0.00     0.124 S 
ATOM     85  O   UNL     1      -6.720 -12.951   9.754  1.00  0.00    -0.237 OA
ATOM     86  O   UNL     1      -8.691 -11.959  10.869  1.00  0.00    -0.237 OA
ATOM     87  O   UNL     1      -8.973 -13.867   9.332  1.00  0.00    -0.744 OA
ENDBRANCH  83  84
ENDBRANCH  62  76
BRANCH  63  88
ATOM     88  C   UNL     1      -9.056  -3.513  -1.544  1.00  0.00     0.058 A 
ATOM     89  C   UNL     1      -9.543  -2.205  -1.411  1.00  0.00     0.135 A 
ATOM     90  C   UNL     1      -8.675  -3.941  -2.825  1.00  0.00     0.135 A 
ATOM     91  F   UNL     1      -9.937  -1.754  -0.210  1.00  0.00    -0.206 F 
ATOM     92  C   UNL     1      -9.663  -1.356  -2.508  1.00  0.00     0.059 A 
ATOM     93  C   UNL     1      -8.760  -3.102  -3.933  1.00  0.00     0.059 A 
ATOM     94  F   UNL     1      -8.198  -5.182  -3.007  1.00  0.00    -0.206 F 
ATOM     95  C   UNL     1      -9.265  -1.813  -3.765  1.00  0.00     0.060 A 
BRANCH  95  96
ATOM     96  S   UNL     1      -9.384  -0.688  -5.173  1.00  0.00     0.124 S 
ATOM     97  O   UNL     1     -10.826  -0.636  -5.387  1.00  0.00    -0.237 OA
ATOM     98  O   UNL     1      -8.773   0.527  -4.645  1.00  0.00    -0.237 OA
ATOM     99  O   UNL     1      -8.616  -1.368  -6.212  1.00  0.00    -0.744 OA
ENDBRANCH  95  96
ENDBRANCH  63  88
BRANCH  75 100
ATOM    100  C   UNL     1     -13.848  -6.510   2.558  1.00  0.00     0.058 A 
ATOM    101  C   UNL     1     -14.643  -7.153   1.597  1.00  0.00     0.135 A 
ATOM    102  C   UNL     1     -14.502  -5.842   3.607  1.00  0.00     0.135 A 
ATOM    103  F   UNL     1     -14.070  -7.803   0.571  1.00  0.00    -0.206 F 
ATOM    104  C   UNL     1     -16.033  -7.119   1.662  1.00  0.00     0.059 A 
ATOM    105  C   UNL     1     -15.890  -5.820   3.708  1.00  0.00     0.059 A 
ATOM    106  F   UNL     1     -13.791  -5.220   4.561  1.00  0.00    -0.206 F 
ATOM    107  C   UNL     1     -16.648  -6.452   2.723  1.00  0.00     0.060 A 
BRANCH 107 108
ATOM    108  S   UNL     1     -18.451  -6.446   2.816  1.00  0.00     0.124 S 
ATOM    109  O   UNL     1     -18.798  -5.513   1.750  1.00  0.00    -0.237 OA
ATOM    110  O   UNL     1     -18.781  -7.846   2.566  1.00  0.00    -0.237 OA
ATOM    111  O   UNL     1     -18.721  -5.978   4.173  1.00  0.00    -0.744 OA
ENDBRANCH 107 108
ENDBRANCH  75 100
ENDBRANCH  49  50
ENDBRANCH  42  44
ENDBRANCH  41  42
ENDBRANCH  40  41
ENDBRANCH  39  40
ENDBRANCH  38  39
ENDBRANCH  37  38
ENDBRANCH  36  37
ENDBRANCH   1  36
TORSDOF 26
