REMARK SMILES COc1ccc(-c2cc([C@@H]3CC[N@@H+](CC(=O)OCCOCCOCCOC(=O)c4ccc(-c5c6nc(c(-c7c(F)cc(S(=O)(=O)[O-])cc7F)c7ccc([nH]7)c(-c7c(F)cc(S(=O)(=O)[O-])cc7F)c7nc(c(-c8c(F)cc(S(=O)(=O)[O-])cc8F)c8ccc5[nH]8)C=C7)C=C6)cc4)C3)ccn2)c2ccc(C)nc12
REMARK SMILES IDX 21 1 20 2 19 3 18 4 17 5 15 6 16 7 14 8 13 9 10 10 11 11
REMARK SMILES IDX 95 12 12 13 9 15 7 16 8 17 98 18 97 19 96 20 6 21 3 22 4 23
REMARK SMILES IDX 105 24 5 25 99 26 104 27 100 28 102 29 101 30 103 31 2 32
REMARK SMILES IDX 1 33 22 34 23 35 24 36 25 37 26 38 27 39 28 40 29 41 30 42
REMARK SMILES IDX 94 43 31 44 93 45 32 46 33 47 34 48 87 49 35 50 92 51 86 52
REMARK SMILES IDX 88 53 36 54 91 55 85 56 84 57 37 59 71 60 50 61 70 62 51 63
REMARK SMILES IDX 54 64 69 65 89 66 52 67 53 68 68 70 90 71 55 72 38 73 39 74
REMARK SMILES IDX 48 75 40 76 41 77 47 78 49 79 42 80 43 81 44 82 45 83 46 84
REMARK SMILES IDX 72 85 73 86 82 87 74 88 75 89 81 90 83 91 76 92 77 93 78 94
REMARK SMILES IDX 79 95 80 96 56 97 57 98 66 99 58 100 59 101 65 102 67 103
REMARK SMILES IDX 60 104 61 105 62 106 63 107 64 108
REMARK H PARENT 13 14 88 58 54 69
REMARK Flexibility Score: inf
ROOT
ATOM      1  C   UNL     1       4.519 -12.694  -4.585  1.00  0.00     0.188 C 
ENDROOT
BRANCH   1   2
ATOM      2  O   UNL     1       3.497 -13.676  -4.475  1.00  0.00    -0.376 OA
BRANCH   2   3
ATOM      3  C   UNL     1       2.251 -13.291  -3.904  1.00  0.00     0.202 C 
BRANCH   3   4
ATOM      4  C   UNL     1       2.299 -12.707  -2.491  1.00  0.00     0.261 C 
BRANCH   4   5
ATOM      5  O   UNL     1       3.110 -11.516  -2.389  1.00  0.00    -0.459 OA
BRANCH   5   6
ATOM      6  C   UNL     1       3.950 -11.440  -1.322  1.00  0.00     0.361 C 
ATOM      7  O   UNL     1       4.076 -12.337  -0.495  1.00  0.00    -0.245 OA
BRANCH   6   8
ATOM      8  C   UNL     1       4.815 -10.173  -1.285  1.00  0.00     0.386 C 
BRANCH   8   9
ATOM      9  N   UNL     1       4.193  -8.844  -1.453  1.00  0.00    -0.325 N 
ATOM     10  C   UNL     1       3.313  -8.036  -3.546  1.00  0.00     0.080 C 
ATOM     11  C   UNL     1       2.201  -8.684  -2.700  1.00  0.00     0.075 C 
ATOM     12  C   UNL     1       4.558  -8.064  -2.642  1.00  0.00     0.271 C 
ATOM     13  C   UNL     1       2.758  -8.732  -1.286  1.00  0.00     0.263 C 
ATOM     14  H   UNL     1       4.645  -8.435  -0.636  1.00  0.00     0.348 HD
BRANCH  10  15
ATOM     15  C   UNL     1       2.779  -6.732  -4.082  1.00  0.00    -0.035 A 
ATOM     16  C   UNL     1       1.648  -4.670  -3.625  1.00  0.00     0.071 A 
ATOM     17  C   UNL     1       2.408  -5.750  -3.187  1.00  0.00     0.033 A 
ATOM     18  N   UNL     1       1.226  -4.506  -4.894  1.00  0.00    -0.256 NA
ATOM     19  C   UNL     1       1.641  -5.440  -5.770  1.00  0.00     0.112 A 
ATOM     20  C   UNL     1       2.416  -6.538  -5.418  1.00  0.00     0.024 A 
BRANCH  16  21
ATOM     21  C   UNL     1       1.359  -3.626  -2.658  1.00  0.00     0.010 A 
ATOM     22  C   UNL     1       0.913  -1.985  -0.490  1.00  0.00     0.145 A 
ATOM     23  C   UNL     1      -0.157  -2.696  -1.046  1.00  0.00     0.049 A 
ATOM     24  C   UNL     1       2.237  -2.095  -0.960  1.00  0.00     0.113 A 
ATOM     25  C   UNL     1       0.066  -3.518  -2.135  1.00  0.00     0.015 A 
ATOM     26  C   UNL     1       2.442  -2.891  -2.095  1.00  0.00     0.013 A 
ATOM     27  N   UNL     1       3.284  -1.488  -0.343  1.00  0.00    -0.249 NA
ATOM     28  C   UNL     1       3.756  -2.968  -2.612  1.00  0.00     0.013 A 
ATOM     29  C   UNL     1       4.543  -1.646  -0.825  1.00  0.00     0.038 A 
ATOM     30  C   UNL     1       4.817  -2.361  -1.970  1.00  0.00     0.024 A 
ATOM     31  C   UNL     1       5.653  -0.982  -0.073  1.00  0.00     0.067 C 
BRANCH  22  32
ATOM     32  O   UNL     1       0.571  -1.181   0.577  1.00  0.00    -0.494 OA
ATOM     33  C   UNL     1       0.870   0.183   0.280  1.00  0.00     0.278 C 
ENDBRANCH  22  32
ENDBRANCH  16  21
ENDBRANCH  10  15
ENDBRANCH   8   9
ENDBRANCH   6   8
ENDBRANCH   5   6
ENDBRANCH   4   5
ENDBRANCH   3   4
ENDBRANCH   2   3
ENDBRANCH   1   2
BRANCH   1  34
ATOM     34  C   UNL     1       4.133 -11.323  -5.154  1.00  0.00     0.188 C 
BRANCH  34  35
ATOM     35  O   UNL     1       2.880 -11.351  -5.819  1.00  0.00    -0.376 OA
BRANCH  35  36
ATOM     36  C   UNL     1       2.434 -10.168  -6.457  1.00  0.00     0.202 C 
BRANCH  36  37
ATOM     37  C   UNL     1       3.031  -9.969  -7.848  1.00  0.00     0.261 C 
BRANCH  37  38
ATOM     38  O   UNL     1       4.464 -10.066  -7.901  1.00  0.00    -0.460 OA
BRANCH  38  39
ATOM     39  C   UNL     1       5.191  -9.063  -7.361  1.00  0.00     0.338 C 
ATOM     40  O   UNL     1       4.765  -8.008  -6.917  1.00  0.00    -0.246 OA
BRANCH  39  41
ATOM     41  C   UNL     1       6.577  -9.544  -7.178  1.00  0.00     0.060 A 
ATOM     42  C   UNL     1       7.216  -9.316  -5.950  1.00  0.00     0.016 A 
ATOM     43  C   UNL     1       7.218 -10.276  -8.180  1.00  0.00     0.016 A 
ATOM     44  C   UNL     1       8.509  -9.798  -5.733  1.00  0.00     0.010 A 
ATOM     45  C   UNL     1       8.511 -10.751  -7.963  1.00  0.00     0.010 A 
ATOM     46  C   UNL     1       9.175 -10.491  -6.751  1.00  0.00    -0.014 A 
BRANCH  46  47
ATOM     47  C   UNL     1      10.620 -10.809  -6.641  1.00  0.00     0.031 A 
ATOM     48  C   UNL     1      11.592  -9.963  -7.420  1.00  0.00     0.074 A 
ATOM     49  C   UNL     1      11.057 -11.845  -5.900  1.00  0.00     0.049 A 
ATOM     50  N   UNL     1      12.873 -10.130  -7.608  1.00  0.00    -0.248 NA
ATOM     51  C   UNL     1      11.036  -8.773  -8.089  1.00  0.00     0.031 C 
ATOM     52  C   UNL     1      10.219 -12.710  -5.072  1.00  0.00     0.029 A 
ATOM     53  N   UNL     1      12.322 -12.358  -5.746  1.00  0.00    -0.354 N 
ATOM     54  C   UNL     1      13.270  -9.092  -8.444  1.00  0.00     0.074 A 
ATOM     55  C   UNL     1      12.093  -8.304  -8.735  1.00  0.00     0.031 C 
ATOM     56  C   UNL     1      10.990 -13.659  -4.510  1.00  0.00     0.029 A 
ATOM     57  C   UNL     1      12.366 -13.498  -4.976  1.00  0.00     0.049 A 
ATOM     58  H   UNL     1      13.122 -11.950  -6.149  1.00  0.00     0.167 HD
ATOM     59  C   UNL     1      14.506  -8.824  -8.924  1.00  0.00     0.037 A 
ATOM     60  C   UNL     1      13.392 -14.332  -4.712  1.00  0.00     0.037 A 
ATOM     61  C   UNL     1      15.675  -9.600  -8.606  1.00  0.00     0.049 A 
ATOM     62  C   UNL     1      14.750 -14.037  -5.307  1.00  0.00     0.074 A 
ATOM     63  C   UNL     1      16.983  -9.380  -9.000  1.00  0.00     0.029 A 
ATOM     64  N   UNL     1      15.679 -10.746  -7.826  1.00  0.00    -0.354 N 
ATOM     65  N   UNL     1      15.120 -13.031  -6.064  1.00  0.00    -0.248 NA
ATOM     66  C   UNL     1      15.828 -14.992  -5.013  1.00  0.00     0.031 C 
ATOM     67  C   UNL     1      17.766 -10.430  -8.515  1.00  0.00     0.029 A 
ATOM     68  C   UNL     1      16.960 -11.264  -7.757  1.00  0.00     0.049 A 
ATOM     69  H   UNL     1      14.888 -11.134  -7.387  1.00  0.00     0.167 HD
ATOM     70  C   UNL     1      16.481 -13.212  -6.300  1.00  0.00     0.074 A 
ATOM     71  C   UNL     1      16.869 -14.417  -5.598  1.00  0.00     0.031 C 
ATOM     72  C   UNL     1      17.334 -12.451  -7.030  1.00  0.00     0.037 A 
BRANCH  59  73
ATOM     73  C   UNL     1      14.666  -7.668  -9.871  1.00  0.00     0.058 A 
ATOM     74  C   UNL     1      14.585  -6.334  -9.443  1.00  0.00     0.135 A 
ATOM     75  C   UNL     1      14.988  -7.905 -11.219  1.00  0.00     0.135 A 
ATOM     76  F   UNL     1      14.257  -6.049  -8.173  1.00  0.00    -0.206 F 
ATOM     77  C   UNL     1      14.816  -5.276 -10.317  1.00  0.00     0.059 A 
ATOM     78  C   UNL     1      15.251  -6.864 -12.103  1.00  0.00     0.059 A 
ATOM     79  F   UNL     1      15.067  -9.162 -11.682  1.00  0.00    -0.206 F 
ATOM     80  C   UNL     1      15.159  -5.552 -11.643  1.00  0.00     0.060 A 
BRANCH  80  81
ATOM     81  S   UNL     1      15.508  -4.169 -12.749  1.00  0.00     0.124 S 
ATOM     82  O   UNL     1      14.179  -3.586 -12.914  1.00  0.00    -0.237 OA
ATOM     83  O   UNL     1      16.453  -3.379 -11.967  1.00  0.00    -0.237 OA
ATOM     84  O   UNL     1      16.062  -4.812 -13.936  1.00  0.00    -0.744 OA
ENDBRANCH  80  81
ENDBRANCH  59  73
BRANCH  60  85
ATOM     85  C   UNL     1      13.191 -15.547  -3.872  1.00  0.00     0.058 A 
ATOM     86  C   UNL     1      13.841 -15.688  -2.635  1.00  0.00     0.135 A 
ATOM     87  C   UNL     1      12.395 -16.617  -4.311  1.00  0.00     0.135 A 
ATOM     88  F   UNL     1      14.623 -14.700  -2.173  1.00  0.00    -0.206 F 
ATOM     89  C   UNL     1      13.742 -16.856  -1.885  1.00  0.00     0.059 A 
ATOM     90  C   UNL     1      12.253 -17.782  -3.563  1.00  0.00     0.059 A 
ATOM     91  F   UNL     1      11.742 -16.535  -5.481  1.00  0.00    -0.206 F 
ATOM     92  C   UNL     1      12.948 -17.901  -2.361  1.00  0.00     0.060 A 
BRANCH  92  93
ATOM     93  S   UNL     1      12.830 -19.413  -1.381  1.00  0.00     0.124 S 
ATOM     94  O   UNL     1      14.152 -19.995  -1.580  1.00  0.00    -0.237 OA
ATOM     95  O   UNL     1      12.555 -18.892  -0.046  1.00  0.00    -0.237 OA
ATOM     96  O   UNL     1      11.723 -20.131  -2.006  1.00  0.00    -0.744 OA
ENDBRANCH  92  93
ENDBRANCH  60  85
BRANCH  72  97
ATOM     97  C   UNL     1      18.785 -12.854  -7.058  1.00  0.00     0.058 A 
ATOM     98  C   UNL     1      19.230 -13.992  -7.748  1.00  0.00     0.135 A 
ATOM     99  C   UNL     1      19.752 -12.050  -6.431  1.00  0.00     0.135 A 
ATOM    100  F   UNL     1      18.348 -14.798  -8.362  1.00  0.00    -0.206 F 
ATOM    101  C   UNL     1      20.578 -14.334  -7.793  1.00  0.00     0.059 A 
ATOM    102  C   UNL     1      21.108 -12.352  -6.493  1.00  0.00     0.059 A 
ATOM    103  F   UNL     1      19.384 -10.941  -5.769  1.00  0.00    -0.206 F 
ATOM    104  C   UNL     1      21.510 -13.505  -7.166  1.00  0.00     0.060 A 
BRANCH 104 105
ATOM    105  S   UNL     1      23.259 -13.941  -7.262  1.00  0.00     0.124 S 
ATOM    106  O   UNL     1      23.323 -15.096  -6.374  1.00  0.00    -0.237 OA
ATOM    107  O   UNL     1      23.431 -14.223  -8.684  1.00  0.00    -0.237 OA
ATOM    108  O   UNL     1      23.936 -12.741  -6.780  1.00  0.00    -0.744 OA
ENDBRANCH 104 105
ENDBRANCH  72  97
ENDBRANCH  46  47
ENDBRANCH  39  41
ENDBRANCH  38  39
ENDBRANCH  37  38
ENDBRANCH  36  37
ENDBRANCH  35  36
ENDBRANCH  34  35
ENDBRANCH   1  34
TORSDOF 24
