REMARK SMILES CCCCCCNC(=O)Oc1cccc(-c2ccc([C@@H](C)C(=O)OCCOCCOCCOC(=O)c3ccc(-c4c5nc(c(-c6c(F)cc(S(=O)(=O)[O-])cc6F)c6ccc([nH]6)c(-c6c(F)cc(S(=O)(=O)[O-])cc6F)c6nc(c(-c7c(F)cc(S(=O)(=O)[O-])cc7F)c7ccc4[nH]7)C=C6)C=C5)cc3)cc2C)c1
REMARK SMILES IDX 25 1 24 2 22 3 23 4 20 5 21 6 19 7 16 8 17 9 103 10 18 11
REMARK SMILES IDX 102 12 104 13 15 14 11 15 12 16 105 17 13 18 14 19 10 20
REMARK SMILES IDX 8 21 7 22 9 24 6 25 5 26 4 27 3 28 2 29 1 30 26 31 27 32
REMARK SMILES IDX 28 33 29 34 30 35 31 36 32 37 33 38 34 39 35 40 36 41 37 42
REMARK SMILES IDX 101 43 38 44 100 45 39 46 40 47 41 48 94 49 42 50 99 51
REMARK SMILES IDX 93 52 95 53 43 54 98 55 92 56 91 57 44 59 78 60 57 61 77 62
REMARK SMILES IDX 58 63 61 64 76 65 96 66 59 67 60 68 75 70 97 71 62 72 45 73
REMARK SMILES IDX 46 74 55 75 47 76 48 77 54 78 56 79 49 80 50 81 51 82 52 83
REMARK SMILES IDX 53 84 79 85 80 86 89 87 81 88 82 89 88 90 90 91 83 92 84 93
REMARK SMILES IDX 85 94 86 95 87 96 63 97 64 98 73 99 65 100 66 101 72 102
REMARK SMILES IDX 74 103 67 104 68 105 69 106 70 107 71 108
REMARK H PARENT 7 23 95 58 61 69
REMARK Flexibility Score: inf
ROOT
ATOM      1  C   UNL     1      -2.328  -8.481  13.513  1.00  0.00     0.261 C 
ENDROOT
BRANCH   1   2
ATOM      2  O   UNL     1      -3.279  -7.725  12.732  1.00  0.00    -0.463 OA
BRANCH   2   3
ATOM      3  C   UNL     1      -4.007  -6.798  13.404  1.00  0.00     0.313 C 
ATOM      4  O   UNL     1      -3.938  -6.647  14.623  1.00  0.00    -0.252 OA
BRANCH   3   5
ATOM      5  C   UNL     1      -4.942  -5.924  12.564  1.00  0.00     0.126 C 
ATOM      6  C   UNL     1      -6.365  -6.096  13.097  1.00  0.00     0.025 C 
BRANCH   5   7
ATOM      7  C   UNL     1      -4.942  -5.983  11.037  1.00  0.00    -0.034 A 
ATOM      8  C   UNL     1      -4.977  -5.949   8.162  1.00  0.00    -0.015 A 
ATOM      9  C   UNL     1      -5.127  -7.141   8.902  1.00  0.00     0.009 A 
ATOM     10  C   UNL     1      -4.832  -4.748   8.889  1.00  0.00    -0.043 A 
ATOM     11  C   UNL     1      -5.128  -7.161  10.309  1.00  0.00     0.005 A 
ATOM     12  C   UNL     1      -4.802  -4.786  10.303  1.00  0.00     0.008 A 
ATOM     13  C   UNL     1      -4.690  -3.400   8.224  1.00  0.00     0.045 C 
BRANCH   8  14
ATOM     14  C   UNL     1      -5.054  -5.990   6.681  1.00  0.00    -0.014 A 
ATOM     15  C   UNL     1      -4.189  -5.465   4.468  1.00  0.00     0.133 A 
ATOM     16  C   UNL     1      -5.359  -5.923   3.867  1.00  0.00     0.047 A 
ATOM     17  C   UNL     1      -4.019  -5.506   5.857  1.00  0.00     0.056 A 
ATOM     18  C   UNL     1      -6.375  -6.439   4.664  1.00  0.00     0.004 A 
ATOM     19  C   UNL     1      -6.226  -6.464   6.055  1.00  0.00     0.009 A 
BRANCH  15  20
ATOM     20  O   UNL     1      -3.279  -4.796   3.624  1.00  0.00    -0.410 OA
BRANCH  20  21
ATOM     21  C   UNL     1      -1.940  -5.142   3.643  1.00  0.00     0.412 C 
ATOM     22  N   UNL     1      -1.160  -4.342   2.856  1.00  0.00    -0.321 N 
ATOM     23  H   UNL     1      -0.190  -4.505   2.889  1.00  0.00     0.167 HD
ATOM     24  O   UNL     1      -1.454  -6.090   4.266  1.00  0.00    -0.224 OA
BRANCH  22  25
ATOM     25  C   UNL     1      -1.608  -3.276   1.974  1.00  0.00     0.119 C 
BRANCH  25  26
ATOM     26  C   UNL     1      -0.987  -1.921   2.313  1.00  0.00     0.021 C 
BRANCH  26  27
ATOM     27  C   UNL     1       0.540  -1.850   2.187  1.00  0.00     0.002 C 
BRANCH  27  28
ATOM     28  C   UNL     1       1.111  -2.170   0.801  1.00  0.00    -0.000 C 
BRANCH  28  29
ATOM     29  C   UNL     1       0.638  -1.261  -0.337  1.00  0.00    -0.003 C 
ATOM     30  C   UNL     1       1.048   0.194  -0.160  1.00  0.00     0.004 C 
ENDBRANCH  28  29
ENDBRANCH  27  28
ENDBRANCH  26  27
ENDBRANCH  25  26
ENDBRANCH  22  25
ENDBRANCH  20  21
ENDBRANCH  15  20
ENDBRANCH   8  14
ENDBRANCH   5   7
ENDBRANCH   3   5
ENDBRANCH   2   3
ENDBRANCH   1   2
BRANCH   1  31
ATOM     31  C   UNL     1      -0.875  -8.392  13.030  1.00  0.00     0.202 C 
BRANCH  31  32
ATOM     32  O   UNL     1      -0.291  -7.101  12.937  1.00  0.00    -0.376 OA
BRANCH  32  33
ATOM     33  C   UNL     1      -0.871  -6.132  12.068  1.00  0.00     0.188 C 
BRANCH  33  34
ATOM     34  C   UNL     1      -1.528  -6.585  10.757  1.00  0.00     0.188 C 
BRANCH  34  35
ATOM     35  O   UNL     1      -1.132  -7.871  10.319  1.00  0.00    -0.376 OA
BRANCH  35  36
ATOM     36  C   UNL     1      -0.701  -7.945   8.972  1.00  0.00     0.202 C 
BRANCH  36  37
ATOM     37  C   UNL     1       0.737  -7.440   8.812  1.00  0.00     0.261 C 
BRANCH  37  38
ATOM     38  O   UNL     1       0.957  -6.087   9.259  1.00  0.00    -0.460 OA
BRANCH  38  39
ATOM     39  C   UNL     1       0.358  -5.113   8.545  1.00  0.00     0.338 C 
ATOM     40  O   UNL     1      -0.325  -5.254   7.536  1.00  0.00    -0.246 OA
BRANCH  39  41
ATOM     41  C   UNL     1       0.465  -3.842   9.287  1.00  0.00     0.060 A 
ATOM     42  C   UNL     1      -0.707  -3.133   9.584  1.00  0.00     0.016 A 
ATOM     43  C   UNL     1       1.710  -3.335   9.662  1.00  0.00     0.016 A 
ATOM     44  C   UNL     1      -0.635  -1.883  10.201  1.00  0.00     0.010 A 
ATOM     45  C   UNL     1       1.783  -2.078  10.269  1.00  0.00     0.010 A 
ATOM     46  C   UNL     1       0.615  -1.327  10.499  1.00  0.00    -0.014 A 
BRANCH  46  47
ATOM     47  C   UNL     1       0.721   0.116  10.837  1.00  0.00     0.031 A 
ATOM     48  C   UNL     1       1.098   1.074   9.736  1.00  0.00     0.074 A 
ATOM     49  C   UNL     1       0.481   0.574  12.079  1.00  0.00     0.049 A 
ATOM     50  N   UNL     1       1.327   2.359   9.794  1.00  0.00    -0.248 NA
ATOM     51  C   UNL     1       1.237   0.499   8.387  1.00  0.00     0.031 C 
ATOM     52  C   UNL     1       0.068  -0.242  13.219  1.00  0.00     0.029 A 
ATOM     53  N   UNL     1       0.564   1.847  12.588  1.00  0.00    -0.354 N 
ATOM     54  C   UNL     1       1.652   2.744   8.498  1.00  0.00     0.074 A 
ATOM     55  C   UNL     1       1.616   1.552   7.680  1.00  0.00     0.031 C 
ATOM     56  C   UNL     1      -0.049   0.550  14.301  1.00  0.00     0.029 A 
ATOM     57  C   UNL     1       0.313   1.920  13.938  1.00  0.00     0.049 A 
ATOM     58  H   UNL     1       0.783   2.634  12.038  1.00  0.00     0.167 HD
ATOM     59  C   UNL     1       1.945   3.979   8.029  1.00  0.00     0.037 A 
ATOM     60  C   UNL     1       0.393   2.967  14.785  1.00  0.00     0.037 A 
ATOM     61  C   UNL     1       1.975   5.165   8.844  1.00  0.00     0.049 A 
ATOM     62  C   UNL     1       0.785   4.324  14.251  1.00  0.00     0.074 A 
ATOM     63  C   UNL     1       2.247   6.466   8.459  1.00  0.00     0.029 A 
ATOM     64  N   UNL     1       1.730   5.194  10.209  1.00  0.00    -0.354 N 
ATOM     65  N   UNL     1       1.072   4.678  13.020  1.00  0.00    -0.248 NA
ATOM     66  C   UNL     1       0.862   5.426  15.222  1.00  0.00     0.031 C 
ATOM     67  C   UNL     1       2.215   7.274   9.599  1.00  0.00     0.029 A 
ATOM     68  C   UNL     1       1.866   6.487  10.685  1.00  0.00     0.049 A 
ATOM     69  H   UNL     1       1.495   4.411  10.758  1.00  0.00     0.167 HD
ATOM     70  C   UNL     1       1.328   6.046  13.065  1.00  0.00     0.074 A 
ATOM     71  C   UNL     1       1.153   6.457  14.441  1.00  0.00     0.031 C 
ATOM     72  C   UNL     1       1.673   6.887  12.057  1.00  0.00     0.037 A 
BRANCH  59  73
ATOM     73  C   UNL     1       2.281   4.109   6.569  1.00  0.00     0.058 A 
ATOM     74  C   UNL     1       1.304   3.971   5.570  1.00  0.00     0.135 A 
ATOM     75  C   UNL     1       3.591   4.412   6.165  1.00  0.00     0.135 A 
ATOM     76  F   UNL     1       0.040   3.659   5.898  1.00  0.00    -0.206 F 
ATOM     77  C   UNL     1       1.618   4.108   4.222  1.00  0.00     0.059 A 
ATOM     78  C   UNL     1       3.923   4.581   4.824  1.00  0.00     0.059 A 
ATOM     79  F   UNL     1       4.565   4.548   7.079  1.00  0.00    -0.206 F 
ATOM     80  C   UNL     1       2.931   4.416   3.859  1.00  0.00     0.060 A 
BRANCH  80  81
ATOM     81  S   UNL     1       3.317   4.602   2.106  1.00  0.00     0.124 S 
ATOM     82  O   UNL     1       3.226   3.222   1.639  1.00  0.00    -0.237 OA
ATOM     83  O   UNL     1       2.257   5.495   1.648  1.00  0.00    -0.237 OA
ATOM     84  O   UNL     1       4.659   5.175   2.111  1.00  0.00    -0.744 OA
ENDBRANCH  80  81
ENDBRANCH  59  73
BRANCH  60  85
ATOM     85  C   UNL     1       0.114   2.782  16.236  1.00  0.00     0.058 A 
ATOM     86  C   UNL     1      -1.007   3.370  16.841  1.00  0.00     0.135 A 
ATOM     87  C   UNL     1       0.979   2.038  17.053  1.00  0.00     0.135 A 
ATOM     88  F   UNL     1      -1.857   4.104  16.107  1.00  0.00    -0.206 F 
ATOM     89  C   UNL     1      -1.249   3.248  18.207  1.00  0.00     0.059 A 
ATOM     90  C   UNL     1       0.744   1.877  18.416  1.00  0.00     0.059 A 
ATOM     91  F   UNL     1       2.063   1.449  16.525  1.00  0.00    -0.206 F 
ATOM     92  C   UNL     1      -0.366   2.498  18.986  1.00  0.00     0.060 A 
BRANCH  92  93
ATOM     93  S   UNL     1      -0.705   2.321  20.751  1.00  0.00     0.124 S 
ATOM     94  O   UNL     1      -0.376   3.652  21.248  1.00  0.00    -0.237 OA
ATOM     95  O   UNL     1      -2.122   1.970  20.757  1.00  0.00    -0.237 OA
ATOM     96  O   UNL     1       0.201   1.252  21.162  1.00  0.00    -0.744 OA
ENDBRANCH  92  93
ENDBRANCH  60  85
BRANCH  72  97
ATOM     97  C   UNL     1       1.835   8.347  12.387  1.00  0.00     0.058 A 
ATOM     98  C   UNL     1       2.928   8.825  13.127  1.00  0.00     0.135 A 
ATOM     99  C   UNL     1       0.909   9.288  11.905  1.00  0.00     0.135 A 
ATOM    100  F   UNL     1       3.841   7.970  13.613  1.00  0.00    -0.206 F 
ATOM    101  C   UNL     1       3.083  10.181  13.400  1.00  0.00     0.059 A 
ATOM    102  C   UNL     1       1.061  10.651  12.141  1.00  0.00     0.059 A 
ATOM    103  F   UNL     1      -0.147   8.888  11.180  1.00  0.00    -0.206 F 
ATOM    104  C   UNL     1       2.144  11.087  12.902  1.00  0.00     0.060 A 
BRANCH 104 105
ATOM    105  S   UNL     1       2.372  12.846  13.239  1.00  0.00     0.124 S 
ATOM    106  O   UNL     1       2.013  12.924  14.651  1.00  0.00    -0.237 OA
ATOM    107  O   UNL     1       3.786  13.043  12.932  1.00  0.00    -0.237 OA
ATOM    108  O   UNL     1       1.442  13.493  12.318  1.00  0.00    -0.744 OA
ENDBRANCH 104 105
ENDBRANCH  72  97
ENDBRANCH  46  47
ENDBRANCH  39  41
ENDBRANCH  38  39
ENDBRANCH  37  38
ENDBRANCH  36  37
ENDBRANCH  35  36
ENDBRANCH  34  35
ENDBRANCH  33  34
ENDBRANCH  32  33
ENDBRANCH  31  32
ENDBRANCH   1  31
TORSDOF 29
