REMARK SMILES O=C(OCCOCCOCCOC(=O)[C@]1(C2CCCC2)CCOc2ccccc21)c1ccc(-c2c3nc(c(-c4c(F)cc(S(=O)(=O)[O-])cc4F)c4ccc([nH]4)c(-c4c(F)cc(S(=O)(=O)[O-])cc4F)c4nc(c(-c5c(F)cc(S(=O)(=O)[O-])cc5F)c5ccc2[nH]5)C=C4)C=C3)cc1
REMARK SMILES IDX 7 1 6 2 5 3 4 4 3 5 2 6 1 7 30 8 31 9 95 10 32 11 94 12
REMARK SMILES IDX 33 13 34 14 35 15 88 16 36 17 93 18 87 19 89 20 37 21 92 22
REMARK SMILES IDX 86 23 85 24 38 26 72 27 51 28 71 29 52 30 55 31 70 32 90 33
REMARK SMILES IDX 53 34 54 35 69 37 91 38 56 39 39 40 40 41 49 42 41 43 42 44
REMARK SMILES IDX 48 45 50 46 43 47 44 48 45 49 46 50 47 51 73 52 74 53 83 54
REMARK SMILES IDX 75 55 76 56 82 57 84 58 77 59 78 60 79 61 80 62 81 63 57 64
REMARK SMILES IDX 58 65 67 66 59 67 60 68 66 69 68 70 61 71 62 72 63 73 64 74
REMARK SMILES IDX 65 75 8 76 9 77 10 78 11 79 12 80 13 81 14 82 15 83 21 84
REMARK SMILES IDX 29 85 22 86 24 87 28 88 23 89 25 90 27 91 26 92 16 93 17 94
REMARK SMILES IDX 20 95 18 96 19 97
REMARK H PARENT 89 25 55 36
REMARK Flexibility Score: inf
ROOT
ATOM      1  C   UNL     1       3.123   1.020  -1.487  1.00  0.00     0.188 C 
ENDROOT
BRANCH   1   2
ATOM      2  O   UNL     1       4.513   0.763  -1.580  1.00  0.00    -0.376 OA
BRANCH   2   3
ATOM      3  C   UNL     1       4.982  -0.556  -1.808  1.00  0.00     0.202 C 
BRANCH   3   4
ATOM      4  C   UNL     1       4.745  -1.619  -0.717  1.00  0.00     0.261 C 
BRANCH   4   5
ATOM      5  O   UNL     1       3.388  -1.697  -0.260  1.00  0.00    -0.460 OA
BRANCH   5   6
ATOM      6  C   UNL     1       2.885  -1.267   0.927  1.00  0.00     0.338 C 
ATOM      7  O   UNL     1       1.775  -1.677   1.265  1.00  0.00    -0.246 OA
BRANCH   6   8
ATOM      8  C   UNL     1       3.548  -0.232   1.795  1.00  0.00     0.060 A 
ATOM      9  C   UNL     1       4.671   0.527   1.456  1.00  0.00     0.016 A 
ATOM     10  C   UNL     1       2.939   0.043   3.030  1.00  0.00     0.016 A 
ATOM     11  C   UNL     1       5.223   1.466   2.322  1.00  0.00     0.010 A 
ATOM     12  C   UNL     1       3.465   1.009   3.896  1.00  0.00     0.010 A 
ATOM     13  C   UNL     1       4.644   1.693   3.563  1.00  0.00    -0.014 A 
BRANCH  13  14
ATOM     14  C   UNL     1       5.425   2.445   4.572  1.00  0.00     0.031 A 
ATOM     15  C   UNL     1       6.005   1.651   5.705  1.00  0.00     0.074 A 
ATOM     16  C   UNL     1       5.721   3.750   4.415  1.00  0.00     0.049 A 
ATOM     17  N   UNL     1       6.740   2.049   6.706  1.00  0.00    -0.248 NA
ATOM     18  C   UNL     1       5.716   0.205   5.712  1.00  0.00     0.031 C 
ATOM     19  C   UNL     1       5.280   4.583   3.298  1.00  0.00     0.029 A 
ATOM     20  N   UNL     1       6.478   4.604   5.175  1.00  0.00    -0.354 N 
ATOM     21  C   UNL     1       6.970   0.912   7.469  1.00  0.00     0.074 A 
ATOM     22  C   UNL     1       6.250  -0.177   6.857  1.00  0.00     0.031 C 
ATOM     23  C   UNL     1       5.771   5.825   3.443  1.00  0.00     0.029 A 
ATOM     24  C   UNL     1       6.560   5.882   4.664  1.00  0.00     0.049 A 
ATOM     25  H   UNL     1       6.922   4.330   6.010  1.00  0.00     0.167 HD
ATOM     26  C   UNL     1       7.744   0.780   8.567  1.00  0.00     0.037 A 
ATOM     27  C   UNL     1       7.208   6.968   5.129  1.00  0.00     0.037 A 
ATOM     28  C   UNL     1       8.483   1.868   9.136  1.00  0.00     0.049 A 
ATOM     29  C   UNL     1       8.017   6.811   6.390  1.00  0.00     0.074 A 
ATOM     30  C   UNL     1       9.288   1.870  10.257  1.00  0.00     0.029 A 
ATOM     31  N   UNL     1       8.507   3.156   8.614  1.00  0.00    -0.354 N 
ATOM     32  N   UNL     1       8.213   5.730   7.111  1.00  0.00    -0.248 NA
ATOM     33  C   UNL     1       8.698   8.007   6.899  1.00  0.00     0.031 C 
ATOM     34  C   UNL     1       9.758   3.174  10.444  1.00  0.00     0.029 A 
ATOM     35  C   UNL     1       9.298   3.968   9.402  1.00  0.00     0.049 A 
ATOM     36  H   UNL     1       8.030   3.446   7.803  1.00  0.00     0.167 HD
ATOM     37  C   UNL     1       9.071   6.106   8.137  1.00  0.00     0.074 A 
ATOM     38  C   UNL     1       9.362   7.512   7.935  1.00  0.00     0.031 C 
ATOM     39  C   UNL     1       9.575   5.362   9.152  1.00  0.00     0.037 A 
BRANCH  26  40
ATOM     40  C   UNL     1       7.766  -0.572   9.220  1.00  0.00     0.058 A 
ATOM     41  C   UNL     1       8.363  -1.689   8.610  1.00  0.00     0.135 A 
ATOM     42  C   UNL     1       7.107  -0.767  10.444  1.00  0.00     0.135 A 
ATOM     43  F   UNL     1       8.968  -1.566   7.417  1.00  0.00    -0.206 F 
ATOM     44  C   UNL     1       8.265  -2.959   9.168  1.00  0.00     0.059 A 
ATOM     45  C   UNL     1       7.027  -2.023  11.036  1.00  0.00     0.059 A 
ATOM     46  F   UNL     1       6.504   0.262  11.059  1.00  0.00    -0.206 F 
ATOM     47  C   UNL     1       7.591  -3.116  10.380  1.00  0.00     0.060 A 
BRANCH  47  48
ATOM     48  S   UNL     1       7.450  -4.771  11.082  1.00  0.00     0.124 S 
ATOM     49  O   UNL     1       6.480  -5.388  10.181  1.00  0.00    -0.237 OA
ATOM     50  O   UNL     1       8.820  -5.271  10.972  1.00  0.00    -0.237 OA
ATOM     51  O   UNL     1       6.983  -4.528  12.439  1.00  0.00    -0.744 OA
ENDBRANCH  47  48
ENDBRANCH  26  40
BRANCH  27  52
ATOM     52  C   UNL     1       7.147   8.272   4.404  1.00  0.00     0.058 A 
ATOM     53  C   UNL     1       8.291   8.835   3.816  1.00  0.00     0.135 A 
ATOM     54  C   UNL     1       5.948   8.996   4.299  1.00  0.00     0.135 A 
ATOM     55  F   UNL     1       9.467   8.191   3.885  1.00  0.00    -0.206 F 
ATOM     56  C   UNL     1       8.257  10.072   3.177  1.00  0.00     0.059 A 
ATOM     57  C   UNL     1       5.881  10.222   3.639  1.00  0.00     0.059 A 
ATOM     58  F   UNL     1       4.818   8.506   4.833  1.00  0.00    -0.206 F 
ATOM     59  C   UNL     1       7.045  10.759   3.094  1.00  0.00     0.060 A 
BRANCH  59  60
ATOM     60  S   UNL     1       7.009  12.350   2.237  1.00  0.00     0.124 S 
ATOM     61  O   UNL     1       7.777  13.193   3.148  1.00  0.00    -0.237 OA
ATOM     62  O   UNL     1       7.656  12.023   0.970  1.00  0.00    -0.237 OA
ATOM     63  O   UNL     1       5.586  12.652   2.146  1.00  0.00    -0.744 OA
ENDBRANCH  59  60
ENDBRANCH  27  52
BRANCH  39  64
ATOM     64  C   UNL     1      10.534   6.040  10.086  1.00  0.00     0.058 A 
ATOM     65  C   UNL     1      10.107   6.995  11.020  1.00  0.00     0.135 A 
ATOM     66  C   UNL     1      11.889   5.673  10.086  1.00  0.00     0.135 A 
ATOM     67  F   UNL     1       8.822   7.380  11.056  1.00  0.00    -0.206 F 
ATOM     68  C   UNL     1      10.999   7.585  11.906  1.00  0.00     0.059 A 
ATOM     69  C   UNL     1      12.791   6.224  10.986  1.00  0.00     0.059 A 
ATOM     70  F   UNL     1      12.341   4.751   9.220  1.00  0.00    -0.206 F 
ATOM     71  C   UNL     1      12.339   7.189  11.884  1.00  0.00     0.060 A 
BRANCH  71  72
ATOM     72  S   UNL     1      13.479   7.936  13.064  1.00  0.00     0.124 S 
ATOM     73  O   UNL     1      13.647   9.273  12.502  1.00  0.00    -0.237 OA
ATOM     74  O   UNL     1      12.728   7.862  14.313  1.00  0.00    -0.237 OA
ATOM     75  O   UNL     1      14.654   7.073  12.993  1.00  0.00    -0.744 OA
ENDBRANCH  71  72
ENDBRANCH  39  64
ENDBRANCH  13  14
ENDBRANCH   6   8
ENDBRANCH   5   6
ENDBRANCH   4   5
ENDBRANCH   3   4
ENDBRANCH   2   3
ENDBRANCH   1   2
BRANCH   1  76
ATOM     76  C   UNL     1       2.258   1.226  -2.735  1.00  0.00     0.188 C 
BRANCH  76  77
ATOM     77  O   UNL     1       2.734   1.871  -3.902  1.00  0.00    -0.376 OA
BRANCH  77  78
ATOM     78  C   UNL     1       4.064   2.340  -3.930  1.00  0.00     0.202 C 
BRANCH  78  79
ATOM     79  C   UNL     1       4.359   3.646  -3.176  1.00  0.00     0.261 C 
BRANCH  79  80
ATOM     80  O   UNL     1       3.757   3.835  -1.877  1.00  0.00    -0.463 OA
BRANCH  80  81
ATOM     81  C   UNL     1       2.535   4.448  -1.881  1.00  0.00     0.317 C 
ATOM     82  O   UNL     1       1.852   4.524  -2.898  1.00  0.00    -0.251 OA
BRANCH  81  83
ATOM     83  C   UNL     1       2.163   5.147  -0.514  1.00  0.00     0.102 C 
ATOM     84  C   UNL     1       0.740   5.758  -0.731  1.00  0.00     0.065 C 
ATOM     85  C   UNL     1       3.183   6.293  -0.311  1.00  0.00     0.012 A 
ATOM     86  C   UNL     1       0.536   7.110  -0.081  1.00  0.00     0.231 C 
ATOM     87  C   UNL     1       2.786   7.636  -0.346  1.00  0.00     0.123 A 
ATOM     88  C   UNL     1       4.561   6.030  -0.144  1.00  0.00     0.009 A 
ATOM     89  O   UNL     1       1.496   8.048  -0.536  1.00  0.00    -0.493 OA
ATOM     90  C   UNL     1       3.721   8.669  -0.239  1.00  0.00     0.047 A 
ATOM     91  C   UNL     1       5.498   7.065  -0.061  1.00  0.00     0.001 A 
ATOM     92  C   UNL     1       5.077   8.388  -0.101  1.00  0.00     0.004 A 
BRANCH  83  93
ATOM     93  C   UNL     1       2.164   4.191   0.755  1.00  0.00     0.011 C 
ATOM     94  C   UNL     1       1.842   4.916   2.081  1.00  0.00     0.005 C 
ATOM     95  C   UNL     1       1.169   3.002   0.801  1.00  0.00     0.005 C 
ATOM     96  C   UNL     1       1.530   3.818   3.073  1.00  0.00     0.000 C 
ATOM     97  C   UNL     1       0.702   2.846   2.256  1.00  0.00     0.000 C 
ENDBRANCH  83  93
ENDBRANCH  81  83
ENDBRANCH  80  81
ENDBRANCH  79  80
ENDBRANCH  78  79
ENDBRANCH  77  78
ENDBRANCH  76  77
ENDBRANCH   1  76
TORSDOF 21
