REMARK SMILES Cc1c(Cl)cc2c(c1C)O[C@@H](C(F)(F)F)C(C(=O)OCCOCCOCCOC(=O)c1ccc(-c3c4nc(c(-c5c(F)cc(S(=O)(=O)[O-])cc5F)c5ccc([nH]5)c(-c5c(F)cc(S(=O)(=O)[O-])cc5F)c5nc(c(-c6c(F)cc(S(=O)(=O)[O-])cc6F)c6ccc3[nH]6)C=C5)C=C4)cc1)=C2
REMARK SMILES IDX 24 1 23 2 22 3 21 4 20 5 19 6 17 7 18 8 16 9 1 10 2 11 3 12
REMARK SMILES IDX 8 13 4 14 5 15 7 16 9 17 6 18 10 19 97 20 11 21 12 22 13 23
REMARK SMILES IDX 14 24 15 25 25 26 26 27 27 28 28 29 29 30 30 31 31 32 32 33
REMARK SMILES IDX 96 34 33 35 95 36 34 37 35 38 36 39 89 40 37 41 94 42 88 43
REMARK SMILES IDX 90 44 38 45 93 46 87 47 86 48 39 50 73 51 52 52 72 53 53 54
REMARK SMILES IDX 56 55 71 56 91 57 54 58 55 59 70 61 92 62 57 63 40 64 41 65
REMARK SMILES IDX 50 66 42 67 43 68 49 69 51 70 44 71 45 72 46 73 47 74 48 75
REMARK SMILES IDX 74 76 75 77 84 78 76 79 77 80 83 81 85 82 78 83 79 84 80 85
REMARK SMILES IDX 81 86 82 87 58 88 59 89 68 90 60 91 61 92 67 93 69 94 62 95
REMARK SMILES IDX 63 96 64 97 65 98 66 99
REMARK H PARENT 90 49 56 60
REMARK Flexibility Score: inf
ROOT
ATOM      1  C   UNL     1      -3.529   1.736  -7.411  1.00  0.00     0.188 C 
ENDROOT
BRANCH   1   2
ATOM      2  C   UNL     1      -2.698   2.874  -8.034  1.00  0.00     0.188 C 
BRANCH   2   3
ATOM      3  O   UNL     1      -2.641   2.991  -9.452  1.00  0.00    -0.376 OA
BRANCH   3   4
ATOM      4  C   UNL     1      -2.440   1.827 -10.246  1.00  0.00     0.202 C 
BRANCH   4   5
ATOM      5  C   UNL     1      -1.248   0.913  -9.923  1.00  0.00     0.261 C 
BRANCH   5   6
ATOM      6  O   UNL     1      -1.245   0.396  -8.577  1.00  0.00    -0.460 OA
BRANCH   6   7
ATOM      7  C   UNL     1      -0.126   0.639  -7.860  1.00  0.00     0.338 C 
ATOM      8  O   UNL     1       0.907   1.135  -8.282  1.00  0.00    -0.246 OA
BRANCH   7   9
ATOM      9  C   UNL     1      -0.332   0.337  -6.431  1.00  0.00     0.087 C 
ATOM     10  C   UNL     1       0.820   0.029  -0.011  1.00  0.00     0.046 C 
ATOM     11  C   UNL     1       0.468   0.353  -1.443  1.00  0.00    -0.026 A 
ATOM     12  C   UNL     1       0.527   1.690  -1.893  1.00  0.00     0.045 A 
ATOM     13  C   UNL     1       0.189  -0.667  -2.390  1.00  0.00    -0.004 A 
ATOM     14  Cl  UNL     1       0.935   2.998  -0.835  1.00  0.00    -0.084 Cl
ATOM     15  C   UNL     1       0.301   2.017  -3.232  1.00  0.00     0.032 A 
ATOM     16  C   UNL     1      -0.016  -0.319  -3.745  1.00  0.00     0.131 A 
ATOM     17  C   UNL     1       0.081  -2.126  -2.020  1.00  0.00     0.049 C 
ATOM     18  C   UNL     1       0.046   1.013  -4.164  1.00  0.00     0.019 A 
ATOM     19  O   UNL     1      -0.174  -1.354  -4.636  1.00  0.00    -0.475 OA
ATOM     20  C   UNL     1      -0.014   1.326  -5.583  1.00  0.00     0.027 C 
ATOM     21  C   UNL     1      -0.672  -1.052  -5.971  1.00  0.00     0.316 C 
BRANCH  21  22
ATOM     22  C   UNL     1      -2.161  -1.439  -6.025  1.00  0.00     0.430 C 
ATOM     23  F   UNL     1      -2.946  -0.588  -5.327  1.00  0.00    -0.167 F 
ATOM     24  F   UNL     1      -2.627  -1.496  -7.292  1.00  0.00    -0.167 F 
ATOM     25  F   UNL     1      -2.356  -2.677  -5.499  1.00  0.00    -0.167 F 
ENDBRANCH  21  22
ENDBRANCH   7   9
ENDBRANCH   6   7
ENDBRANCH   5   6
ENDBRANCH   4   5
ENDBRANCH   3   4
ENDBRANCH   2   3
ENDBRANCH   1   2
BRANCH   1  26
ATOM     26  O   UNL     1      -4.224   0.961  -8.360  1.00  0.00    -0.376 OA
BRANCH  26  27
ATOM     27  C   UNL     1      -5.634   1.068  -8.410  1.00  0.00     0.202 C 
BRANCH  27  28
ATOM     28  C   UNL     1      -6.317   2.447  -8.457  1.00  0.00     0.261 C 
BRANCH  28  29
ATOM     29  O   UNL     1      -5.708   3.509  -7.711  1.00  0.00    -0.460 OA
BRANCH  29  30
ATOM     30  C   UNL     1      -6.000   3.602  -6.393  1.00  0.00     0.338 C 
ATOM     31  O   UNL     1      -6.726   2.865  -5.748  1.00  0.00    -0.246 OA
BRANCH  30  32
ATOM     32  C   UNL     1      -5.109   4.638  -5.825  1.00  0.00     0.060 A 
ATOM     33  C   UNL     1      -4.106   4.257  -4.923  1.00  0.00     0.016 A 
ATOM     34  C   UNL     1      -5.229   5.972  -6.224  1.00  0.00     0.016 A 
ATOM     35  C   UNL     1      -3.220   5.211  -4.419  1.00  0.00     0.010 A 
ATOM     36  C   UNL     1      -4.361   6.931  -5.694  1.00  0.00     0.010 A 
ATOM     37  C   UNL     1      -3.365   6.559  -4.774  1.00  0.00    -0.014 A 
BRANCH  37  38
ATOM     38  C   UNL     1      -2.620   7.596  -4.017  1.00  0.00     0.031 A 
ATOM     39  C   UNL     1      -3.297   8.216  -2.825  1.00  0.00     0.074 A 
ATOM     40  C   UNL     1      -1.365   7.953  -4.346  1.00  0.00     0.049 A 
ATOM     41  N   UNL     1      -2.856   9.129  -2.002  1.00  0.00    -0.248 NA
ATOM     42  C   UNL     1      -4.656   7.735  -2.521  1.00  0.00     0.031 C 
ATOM     43  C   UNL     1      -0.589   7.397  -5.453  1.00  0.00     0.029 A 
ATOM     44  N   UNL     1      -0.521   8.873  -3.772  1.00  0.00    -0.354 N 
ATOM     45  C   UNL     1      -3.873   9.321  -1.076  1.00  0.00     0.074 A 
ATOM     46  C   UNL     1      -4.973   8.466  -1.464  1.00  0.00     0.031 C 
ATOM     47  C   UNL     1       0.621   7.988  -5.477  1.00  0.00     0.029 A 
ATOM     48  C   UNL     1       0.696   8.981  -4.405  1.00  0.00     0.049 A 
ATOM     49  H   UNL     1      -0.765   9.405  -2.981  1.00  0.00     0.167 HD
ATOM     50  C   UNL     1      -3.884  10.123   0.014  1.00  0.00     0.037 A 
ATOM     51  C   UNL     1       1.741   9.797  -4.152  1.00  0.00     0.037 A 
ATOM     52  C   UNL     1      -2.795  10.979   0.393  1.00  0.00     0.049 A 
ATOM     53  C   UNL     1       1.661  10.766  -2.996  1.00  0.00     0.074 A 
ATOM     54  C   UNL     1      -2.707  11.822   1.486  1.00  0.00     0.029 A 
ATOM     55  N   UNL     1      -1.609  11.112  -0.314  1.00  0.00    -0.354 N 
ATOM     56  N   UNL     1       0.709  10.911  -2.105  1.00  0.00    -0.248 NA
ATOM     57  C   UNL     1       2.793  11.690  -2.816  1.00  0.00     0.031 C 
ATOM     58  C   UNL     1      -1.491  12.506   1.411  1.00  0.00     0.029 A 
ATOM     59  C   UNL     1      -0.799  12.053   0.298  1.00  0.00     0.049 A 
ATOM     60  H   UNL     1      -1.378  10.611  -1.129  1.00  0.00     0.167 HD
ATOM     61  C   UNL     1       1.132  11.928  -1.253  1.00  0.00     0.074 A 
ATOM     62  C   UNL     1       2.434  12.352  -1.723  1.00  0.00     0.031 C 
ATOM     63  C   UNL     1       0.497  12.465  -0.182  1.00  0.00     0.037 A 
BRANCH  50  64
ATOM     64  C   UNL     1      -5.118  10.115   0.870  1.00  0.00     0.058 A 
ATOM     65  C   UNL     1      -5.437   9.017   1.684  1.00  0.00     0.135 A 
ATOM     66  C   UNL     1      -5.971  11.230   0.907  1.00  0.00     0.135 A 
ATOM     67  F   UNL     1      -4.667   7.917   1.669  1.00  0.00    -0.206 F 
ATOM     68  C   UNL     1      -6.568   9.016   2.492  1.00  0.00     0.059 A 
ATOM     69  C   UNL     1      -7.093  11.262   1.728  1.00  0.00     0.059 A 
ATOM     70  F   UNL     1      -5.714  12.302   0.141  1.00  0.00    -0.206 F 
ATOM     71  C   UNL     1      -7.388  10.146   2.510  1.00  0.00     0.060 A 
BRANCH  71  72
ATOM     72  S   UNL     1      -8.844  10.130   3.576  1.00  0.00     0.124 S 
ATOM     73  O   UNL     1      -9.683   9.138   2.910  1.00  0.00    -0.237 OA
ATOM     74  O   UNL     1      -8.282   9.724   4.860  1.00  0.00    -0.237 OA
ATOM     75  O   UNL     1      -9.330  11.505   3.512  1.00  0.00    -0.744 OA
ENDBRANCH  71  72
ENDBRANCH  50  64
BRANCH  51  76
ATOM     76  C   UNL     1       2.958   9.743  -5.010  1.00  0.00     0.058 A 
ATOM     77  C   UNL     1       4.178   9.272  -4.504  1.00  0.00     0.135 A 
ATOM     78  C   UNL     1       2.928  10.165  -6.348  1.00  0.00     0.135 A 
ATOM     79  F   UNL     1       4.266   8.875  -3.225  1.00  0.00    -0.206 F 
ATOM     80  C   UNL     1       5.326   9.224  -5.291  1.00  0.00     0.059 A 
ATOM     81  C   UNL     1       4.056  10.105  -7.163  1.00  0.00     0.059 A 
ATOM     82  F   UNL     1       1.786  10.626  -6.883  1.00  0.00    -0.206 F 
ATOM     83  C   UNL     1       5.252   9.637  -6.622  1.00  0.00     0.060 A 
BRANCH  83  84
ATOM     84  S   UNL     1       6.737   9.520  -7.646  1.00  0.00     0.124 S 
ATOM     85  O   UNL     1       7.590  10.540  -7.048  1.00  0.00    -0.237 OA
ATOM     86  O   UNL     1       7.147   8.136  -7.426  1.00  0.00    -0.237 OA
ATOM     87  O   UNL     1       6.245   9.816  -8.988  1.00  0.00    -0.744 OA
ENDBRANCH  83  84
ENDBRANCH  51  76
BRANCH  63  88
ATOM     88  C   UNL     1       1.177  13.581   0.564  1.00  0.00     0.058 A 
ATOM     89  C   UNL     1       1.236  14.879   0.033  1.00  0.00     0.135 A 
ATOM     90  C   UNL     1       1.653  13.386   1.871  1.00  0.00     0.135 A 
ATOM     91  F   UNL     1       0.801  15.119  -1.214  1.00  0.00    -0.206 F 
ATOM     92  C   UNL     1       1.734  15.945   0.774  1.00  0.00     0.059 A 
ATOM     93  C   UNL     1       2.132  14.443   2.640  1.00  0.00     0.059 A 
ATOM     94  F   UNL     1       1.610  12.166   2.431  1.00  0.00    -0.206 F 
ATOM     95  C   UNL     1       2.166  15.720   2.083  1.00  0.00     0.060 A 
BRANCH  95  96
ATOM     96  S   UNL     1       2.725  17.133   3.058  1.00  0.00     0.124 S 
ATOM     97  O   UNL     1       3.968  17.488   2.380  1.00  0.00    -0.237 OA
ATOM     98  O   UNL     1       1.623  18.076   2.896  1.00  0.00    -0.237 OA
ATOM     99  O   UNL     1       2.880  16.582   4.401  1.00  0.00    -0.744 OA
ENDBRANCH  95  96
ENDBRANCH  63  88
ENDBRANCH  37  38
ENDBRANCH  30  32
ENDBRANCH  29  30
ENDBRANCH  28  29
ENDBRANCH  27  28
ENDBRANCH  26  27
ENDBRANCH   1  26
TORSDOF 21
