REMARK SMILES COc1ccc(C(F)(F)F)cc1-c1cccnc1C(=O)OCCOCCOCCOC(=O)c1ccc(-c2c3nc(c(-c4c(F)cc(S(=O)(=O)[O-])cc4F)c4ccc([nH]4)c(-c4c(F)cc(S(=O)(=O)[O-])cc4F)c4nc(c(-c5c(F)cc(S(=O)(=O)[O-])cc5F)c5ccc2[nH]5)C=C4)C=C3)cc1
REMARK SMILES IDX 26 1 25 2 24 3 23 4 22 5 21 6 19 7 20 8 18 9 13 10 14 11
REMARK SMILES IDX 15 12 17 13 16 14 12 15 3 16 4 17 5 18 11 19 6 20 2 21 1 22
REMARK SMILES IDX 7 23 8 24 9 25 10 26 27 27 28 28 29 29 30 30 31 31 32 32
REMARK SMILES IDX 33 33 34 34 98 35 35 36 97 37 36 38 37 39 38 40 91 41 39 42
REMARK SMILES IDX 96 43 90 44 92 45 40 46 95 47 89 48 88 49 41 51 75 52 54 53
REMARK SMILES IDX 74 54 55 55 58 56 73 57 93 58 56 59 57 60 72 62 94 63 59 64
REMARK SMILES IDX 42 65 43 66 52 67 44 68 45 69 51 70 53 71 46 72 47 73 48 74
REMARK SMILES IDX 49 75 50 76 76 77 77 78 86 79 78 80 79 81 85 82 87 83 80 84
REMARK SMILES IDX 81 85 82 86 83 87 84 88 60 89 61 90 70 91 62 92 63 93 69 94
REMARK SMILES IDX 71 95 64 96 65 97 66 98 67 99 68 100
REMARK H PARENT 92 50 58 61
REMARK Flexibility Score: inf
ROOT
ATOM      1  C   UNL     1       1.992   2.201  -2.653  1.00  0.00     0.188 C 
ENDROOT
BRANCH   1   2
ATOM      2  C   UNL     1       3.150   2.883  -3.411  1.00  0.00     0.188 C 
BRANCH   2   3
ATOM      3  O   UNL     1       3.017   3.091  -4.814  1.00  0.00    -0.376 OA
BRANCH   3   4
ATOM      4  C   UNL     1       2.607   1.997  -5.630  1.00  0.00     0.202 C 
BRANCH   4   5
ATOM      5  C   UNL     1       3.408   0.698  -5.508  1.00  0.00     0.261 C 
BRANCH   5   6
ATOM      6  O   UNL     1       3.364   0.171  -4.171  1.00  0.00    -0.458 OA
BRANCH   6   7
ATOM      7  C   UNL     1       4.515  -0.387  -3.718  1.00  0.00     0.357 C 
ATOM      8  O   UNL     1       5.509  -0.609  -4.391  1.00  0.00    -0.244 OA
BRANCH   7   9
ATOM      9  C   UNL     1       4.431  -0.670  -2.247  1.00  0.00     0.156 A 
ATOM     10  C   UNL     1       3.448  -1.494  -1.660  1.00  0.00     0.019 A 
ATOM     11  C   UNL     1       3.624  -1.744  -0.285  1.00  0.00     0.013 A 
ATOM     12  C   UNL     1       4.652  -1.141   0.440  1.00  0.00     0.021 A 
ATOM     13  N   UNL     1       5.441  -0.068  -1.549  1.00  0.00    -0.249 NA
ATOM     14  C   UNL     1       5.519  -0.303  -0.228  1.00  0.00     0.112 A 
BRANCH  10  15
ATOM     15  C   UNL     1       2.259  -2.025  -2.376  1.00  0.00     0.027 A 
ATOM     16  C   UNL     1       0.950  -1.948  -1.848  1.00  0.00     0.126 A 
ATOM     17  C   UNL     1      -0.167  -2.329  -2.601  1.00  0.00     0.048 A 
ATOM     18  C   UNL     1      -0.011  -2.756  -3.917  1.00  0.00     0.017 A 
ATOM     19  C   UNL     1       2.386  -2.563  -3.673  1.00  0.00     0.025 A 
ATOM     20  C   UNL     1       1.269  -2.873  -4.469  1.00  0.00     0.056 A 
BRANCH  16  21
ATOM     21  O   UNL     1       0.706  -1.611  -0.538  1.00  0.00    -0.496 OA
ATOM     22  C   UNL     1       0.491  -0.210  -0.376  1.00  0.00     0.278 C 
ENDBRANCH  16  21
BRANCH  20  23
ATOM     23  C   UNL     1       1.444  -3.299  -5.906  1.00  0.00     0.416 C 
ATOM     24  F   UNL     1       1.145  -4.612  -6.101  1.00  0.00    -0.166 F 
ATOM     25  F   UNL     1       0.638  -2.602  -6.756  1.00  0.00    -0.166 F 
ATOM     26  F   UNL     1       2.710  -3.127  -6.377  1.00  0.00    -0.166 F 
ENDBRANCH  20  23
ENDBRANCH  10  15
ENDBRANCH   7   9
ENDBRANCH   6   7
ENDBRANCH   5   6
ENDBRANCH   4   5
ENDBRANCH   3   4
ENDBRANCH   2   3
ENDBRANCH   1   2
BRANCH   1  27
ATOM     27  O   UNL     1       0.811   2.009  -3.417  1.00  0.00    -0.376 OA
BRANCH  27  28
ATOM     28  C   UNL     1      -0.309   2.800  -3.045  1.00  0.00     0.202 C 
BRANCH  28  29
ATOM     29  C   UNL     1      -0.182   4.297  -3.357  1.00  0.00     0.261 C 
BRANCH  29  30
ATOM     30  O   UNL     1       0.908   4.972  -2.708  1.00  0.00    -0.460 OA
BRANCH  30  31
ATOM     31  C   UNL     1       0.900   5.011  -1.357  1.00  0.00     0.338 C 
ATOM     32  O   UNL     1       0.053   4.543  -0.615  1.00  0.00    -0.246 OA
BRANCH  31  33
ATOM     33  C   UNL     1       2.209   5.536  -0.916  1.00  0.00     0.060 A 
ATOM     34  C   UNL     1       2.966   4.792  -0.002  1.00  0.00     0.016 A 
ATOM     35  C   UNL     1       2.694   6.747  -1.416  1.00  0.00     0.016 A 
ATOM     36  C   UNL     1       4.197   5.279   0.442  1.00  0.00     0.010 A 
ATOM     37  C   UNL     1       3.918   7.240  -0.960  1.00  0.00     0.010 A 
ATOM     38  C   UNL     1       4.660   6.525  -0.004  1.00  0.00    -0.014 A 
BRANCH  38  39
ATOM     39  C   UNL     1       5.804   7.176   0.678  1.00  0.00     0.031 A 
ATOM     40  C   UNL     1       5.507   8.148   1.789  1.00  0.00     0.074 A 
ATOM     41  C   UNL     1       7.077   6.911   0.334  1.00  0.00     0.049 A 
ATOM     42  N   UNL     1       6.329   8.857   2.516  1.00  0.00    -0.248 NA
ATOM     43  C   UNL     1       4.085   8.342   2.121  1.00  0.00     0.031 C 
ATOM     44  C   UNL     1       7.497   5.968  -0.700  1.00  0.00     0.029 A 
ATOM     45  N   UNL     1       8.253   7.422   0.824  1.00  0.00    -0.354 N 
ATOM     46  C   UNL     1       5.528   9.580   3.393  1.00  0.00     0.074 A 
ATOM     47  C   UNL     1       4.154   9.250   3.082  1.00  0.00     0.031 C 
ATOM     48  C   UNL     1       8.841   5.973  -0.772  1.00  0.00     0.029 A 
ATOM     49  C   UNL     1       9.373   6.935   0.193  1.00  0.00     0.049 A 
ATOM     50  H   UNL     1       8.292   8.076   1.559  1.00  0.00     0.167 HD
ATOM     51  C   UNL     1       5.900  10.434   4.375  1.00  0.00     0.037 A 
ATOM     52  C   UNL     1      10.674   7.241   0.368  1.00  0.00     0.037 A 
ATOM     53  C   UNL     1       7.265  10.778   4.671  1.00  0.00     0.049 A 
ATOM     54  C   UNL     1      11.064   8.251   1.419  1.00  0.00     0.074 A 
ATOM     55  C   UNL     1       7.746  11.639   5.641  1.00  0.00     0.029 A 
ATOM     56  N   UNL     1       8.368  10.284   3.991  1.00  0.00    -0.354 N 
ATOM     57  N   UNL     1      10.298   8.913   2.254  1.00  0.00    -0.248 NA
ATOM     58  C   UNL     1      12.497   8.550   1.556  1.00  0.00     0.031 C 
ATOM     59  C   UNL     1       9.140  11.695   5.522  1.00  0.00     0.029 A 
ATOM     60  C   UNL     1       9.529  10.833   4.510  1.00  0.00     0.049 A 
ATOM     61  H   UNL     1       8.332   9.639   3.248  1.00  0.00     0.167 HD
ATOM     62  C   UNL     1      11.158   9.679   3.037  1.00  0.00     0.074 A 
ATOM     63  C   UNL     1      12.502   9.397   2.576  1.00  0.00     0.031 C 
ATOM     64  C   UNL     1      10.862  10.532   4.050  1.00  0.00     0.037 A 
BRANCH  51  65
ATOM     65  C   UNL     1       4.801  11.070   5.179  1.00  0.00     0.058 A 
ATOM     66  C   UNL     1       4.043  10.332   6.102  1.00  0.00     0.135 A 
ATOM     67  C   UNL     1       4.491  12.429   5.013  1.00  0.00     0.135 A 
ATOM     68  F   UNL     1       4.284   9.023   6.282  1.00  0.00    -0.206 F 
ATOM     69  C   UNL     1       2.991  10.909   6.805  1.00  0.00     0.059 A 
ATOM     70  C   UNL     1       3.459  13.034   5.725  1.00  0.00     0.059 A 
ATOM     71  F   UNL     1       5.182  13.179   4.140  1.00  0.00    -0.206 F 
ATOM     72  C   UNL     1       2.702  12.259   6.603  1.00  0.00     0.060 A 
BRANCH  72  73
ATOM     73  S   UNL     1       1.315  12.989   7.500  1.00  0.00     0.124 S 
ATOM     74  O   UNL     1       0.177  12.442   6.767  1.00  0.00    -0.237 OA
ATOM     75  O   UNL     1       1.507  12.471   8.850  1.00  0.00    -0.237 OA
ATOM     76  O   UNL     1       1.530  14.425   7.346  1.00  0.00    -0.744 OA
ENDBRANCH  72  73
ENDBRANCH  51  65
BRANCH  52  77
ATOM     77  C   UNL     1      11.713   6.577  -0.463  1.00  0.00     0.058 A 
ATOM     78  C   UNL     1      12.590   5.635   0.094  1.00  0.00     0.135 A 
ATOM     79  C   UNL     1      11.853   6.872  -1.828  1.00  0.00     0.135 A 
ATOM     80  F   UNL     1      12.506   5.331   1.398  1.00  0.00    -0.206 F 
ATOM     81  C   UNL     1      13.576   5.015  -0.668  1.00  0.00     0.059 A 
ATOM     82  C   UNL     1      12.816   6.249  -2.617  1.00  0.00     0.059 A 
ATOM     83  F   UNL     1      11.036   7.764  -2.410  1.00  0.00    -0.206 F 
ATOM     84  C   UNL     1      13.679   5.327  -2.025  1.00  0.00     0.060 A 
BRANCH  84  85
ATOM     85  S   UNL     1      14.930   4.480  -3.015  1.00  0.00     0.124 S 
ATOM     86  O   UNL     1      16.153   5.132  -2.563  1.00  0.00    -0.237 OA
ATOM     87  O   UNL     1      14.758   3.090  -2.603  1.00  0.00    -0.237 OA
ATOM     88  O   UNL     1      14.527   4.775  -4.387  1.00  0.00    -0.744 OA
ENDBRANCH  84  85
ENDBRANCH  52  77
BRANCH  64  89
ATOM     89  C   UNL     1      12.011  11.185   4.768  1.00  0.00     0.058 A 
ATOM     90  C   UNL     1      12.756  12.223   4.187  1.00  0.00     0.135 A 
ATOM     91  C   UNL     1      12.334  10.802   6.080  1.00  0.00     0.135 A 
ATOM     92  F   UNL     1      12.491  12.626   2.935  1.00  0.00    -0.206 F 
ATOM     93  C   UNL     1      13.798  12.841   4.873  1.00  0.00     0.059 A 
ATOM     94  C   UNL     1      13.354  11.423   6.794  1.00  0.00     0.059 A 
ATOM     95  F   UNL     1      11.643   9.824   6.688  1.00  0.00    -0.206 F 
ATOM     96  C   UNL     1      14.089  12.434   6.177  1.00  0.00     0.060 A 
BRANCH  96  97
ATOM     97  S   UNL     1      15.422  13.262   7.070  1.00  0.00     0.124 S 
ATOM     98  O   UNL     1      16.603  12.669   6.452  1.00  0.00    -0.237 OA
ATOM     99  O   UNL     1      15.183  14.668   6.759  1.00  0.00    -0.237 OA
ATOM    100  O   UNL     1      15.184  12.886   8.460  1.00  0.00    -0.744 OA
ENDBRANCH  96  97
ENDBRANCH  64  89
ENDBRANCH  38  39
ENDBRANCH  31  33
ENDBRANCH  30  31
ENDBRANCH  29  30
ENDBRANCH  28  29
ENDBRANCH  27  28
ENDBRANCH   1  27
TORSDOF 23
