REMARK SMILES Cc1ccc(NC(=O)[C@H]2CC=CC[C@H]2C(=O)OCCOCCOCCOC(=O)c2ccc(-c3c4nc(c(-c5c(F)cc(S(=O)(=O)[O-])cc5F)c5ccc([nH]5)c(-c5c(F)cc(S(=O)(=O)[O-])cc5F)c5nc(c(-c6c(F)cc(S(=O)(=O)[O-])cc6F)c6ccc3[nH]6)C=C5)C=C4)cc2)cc1F
REMARK SMILES IDX 22 1 21 2 20 3 19 4 18 5 17 6 15 7 16 8 14 9 9 10 10 11
REMARK SMILES IDX 11 12 13 13 12 14 7 15 6 16 8 18 5 19 1 20 2 21 3 22 96 23
REMARK SMILES IDX 4 24 95 25 97 26 23 27 24 28 25 29 26 30 27 31 28 32 29 33
REMARK SMILES IDX 30 34 94 35 31 36 93 37 32 38 33 39 34 40 87 41 35 42 92 43
REMARK SMILES IDX 86 44 88 45 36 46 91 47 85 48 84 49 37 51 71 52 50 53 70 54
REMARK SMILES IDX 51 55 54 56 69 57 89 58 52 59 53 60 68 62 90 63 55 64 38 65
REMARK SMILES IDX 39 66 48 67 40 68 41 69 47 70 49 71 42 72 43 73 44 74 45 75
REMARK SMILES IDX 46 76 72 77 73 78 82 79 74 80 75 81 81 82 83 83 76 84 77 85
REMARK SMILES IDX 78 86 79 87 80 88 56 89 57 90 66 91 58 92 59 93 65 94 67 95
REMARK SMILES IDX 60 96 61 97 62 98 63 99 64 100
REMARK H PARENT 6 17 88 50 54 61
REMARK Flexibility Score: inf
ROOT
ATOM      1  C   UNL     1      -0.898   0.269   0.107  1.00  0.00     0.188 C 
ENDROOT
BRANCH   1   2
ATOM      2  C   UNL     1      -0.869   0.002  -2.063  1.00  0.00     0.188 C 
BRANCH   2   3
ATOM      3  O   UNL     1      -1.795   0.589  -3.195  1.00  0.00    -0.376 OA
BRANCH   3   4
ATOM      4  C   UNL     1      -2.992  -0.095  -3.619  1.00  0.00     0.202 C 
BRANCH   4   5
ATOM      5  C   UNL     1      -2.961  -1.531  -4.171  1.00  0.00     0.261 C 
BRANCH   5   6
ATOM      6  O   UNL     1      -2.748  -2.575  -3.195  1.00  0.00    -0.463 OA
BRANCH   6   7
ATOM      7  C   UNL     1      -1.569  -3.240  -3.240  1.00  0.00     0.310 C 
ATOM      8  O   UNL     1      -0.728  -3.046  -4.116  1.00  0.00    -0.252 OA
BRANCH   7   9
ATOM      9  C   UNL     1      -1.373  -4.341  -2.189  1.00  0.00     0.116 C 
ATOM     10  C   UNL     1      -1.829  -4.214  -0.713  1.00  0.00     0.097 C 
ATOM     11  C   UNL     1      -1.654  -5.513   0.104  1.00  0.00     0.041 C 
ATOM     12  C   UNL     1      -1.554  -6.784  -0.683  1.00  0.00    -0.030 C 
ATOM     13  C   UNL     1      -1.891  -5.623  -2.849  1.00  0.00     0.043 C 
ATOM     14  C   UNL     1      -1.672  -6.841  -2.013  1.00  0.00    -0.030 C 
BRANCH  10  15
ATOM     15  C   UNL     1      -3.124  -3.459  -0.526  1.00  0.00     0.228 C 
ATOM     16  N   UNL     1      -3.114  -2.084  -0.613  1.00  0.00    -0.326 N 
ATOM     17  H   UNL     1      -4.000  -1.669  -0.505  1.00  0.00     0.169 HD
ATOM     18  O   UNL     1      -4.203  -4.045  -0.399  1.00  0.00    -0.274 OA
BRANCH  16  19
ATOM     19  C   UNL     1      -2.064  -1.156  -0.829  1.00  0.00     0.044 A 
ATOM     20  C   UNL     1       1.645   2.346  -0.954  1.00  0.00     0.047 C 
ATOM     21  C   UNL     1       0.502   1.386  -1.076  1.00  0.00    -0.015 A 
ATOM     22  C   UNL     1      -1.226   1.879  -1.188  1.00  0.00     0.008 A 
ATOM     23  C   UNL     1       0.941  -0.323  -0.915  1.00  0.00     0.128 A 
ATOM     24  C   UNL     1      -2.527   0.613  -1.024  1.00  0.00     0.026 A 
ATOM     25  C   UNL     1      -0.301  -1.578  -0.762  1.00  0.00     0.065 A 
ATOM     26  F   UNL     1       2.232  -0.672  -0.819  1.00  0.00    -0.207 F 
ENDBRANCH  16  19
ENDBRANCH  10  15
ENDBRANCH   7   9
ENDBRANCH   6   7
ENDBRANCH   5   6
ENDBRANCH   4   5
ENDBRANCH   3   4
ENDBRANCH   2   3
ENDBRANCH   1   2
BRANCH   1  27
ATOM     27  O   UNL     1      -1.956  -0.191   1.186  1.00  0.00    -0.376 OA
BRANCH  27  28
ATOM     28  C   UNL     1      -3.125   0.512   1.645  1.00  0.00     0.202 C 
BRANCH  28  29
ATOM     29  C   UNL     1      -3.032   1.996   2.018  1.00  0.00     0.261 C 
BRANCH  29  30
ATOM     30  O   UNL     1      -1.716   2.397   2.311  1.00  0.00    -0.460 OA
BRANCH  30  31
ATOM     31  C   UNL     1      -1.155   1.577   3.222  1.00  0.00     0.338 C 
ATOM     32  O   UNL     1      -1.665   1.069   4.200  1.00  0.00    -0.246 OA
BRANCH  31  33
ATOM     33  C   UNL     1       0.227   1.417   2.816  1.00  0.00     0.060 A 
ATOM     34  C   UNL     1       0.822   0.149   2.940  1.00  0.00     0.016 A 
ATOM     35  C   UNL     1       0.930   2.593   2.582  1.00  0.00     0.016 A 
ATOM     36  C   UNL     1       2.162   0.083   3.182  1.00  0.00     0.010 A 
ATOM     37  C   UNL     1       2.252   2.545   2.862  1.00  0.00     0.010 A 
ATOM     38  C   UNL     1       2.743   1.320   3.363  1.00  0.00    -0.014 A 
BRANCH  38  39
ATOM     39  C   UNL     1       3.528   1.551   4.558  1.00  0.00     0.031 A 
ATOM     40  C   UNL     1       4.931   1.823   4.249  1.00  0.00     0.074 A 
ATOM     41  C   UNL     1       2.715   1.842   5.614  1.00  0.00     0.049 A 
ATOM     42  N   UNL     1       5.903   1.788   5.079  1.00  0.00    -0.248 NA
ATOM     43  C   UNL     1       5.402   2.039   2.865  1.00  0.00     0.031 C 
ATOM     44  C   UNL     1       2.846   2.756   6.738  1.00  0.00     0.029 A 
ATOM     45  N   UNL     1       1.493   1.200   5.893  1.00  0.00    -0.354 N 
ATOM     46  C   UNL     1       6.872   2.564   4.478  1.00  0.00     0.074 A 
ATOM     47  C   UNL     1       6.673   2.390   3.070  1.00  0.00     0.031 C 
ATOM     48  C   UNL     1       1.955   2.416   7.697  1.00  0.00     0.029 A 
ATOM     49  C   UNL     1       1.284   1.193   7.274  1.00  0.00     0.049 A 
ATOM     50  H   UNL     1       0.882   0.817   5.222  1.00  0.00     0.167 HD
ATOM     51  C   UNL     1       7.450   3.538   5.237  1.00  0.00     0.037 A 
ATOM     52  C   UNL     1       1.371  -0.014   7.912  1.00  0.00     0.037 A 
ATOM     53  C   UNL     1       6.922   3.447   6.606  1.00  0.00     0.049 A 
ATOM     54  C   UNL     1       2.705  -0.126   8.618  1.00  0.00     0.074 A 
ATOM     55  C   UNL     1       6.006   4.205   7.314  1.00  0.00     0.029 A 
ATOM     56  N   UNL     1       7.045   2.244   7.291  1.00  0.00    -0.354 N 
ATOM     57  N   UNL     1       3.767   0.553   8.273  1.00  0.00    -0.248 NA
ATOM     58  C   UNL     1       2.916  -0.919   9.824  1.00  0.00     0.031 C 
ATOM     59  C   UNL     1       5.512   3.395   8.381  1.00  0.00     0.029 A 
ATOM     60  C   UNL     1       6.103   2.144   8.296  1.00  0.00     0.049 A 
ATOM     61  H   UNL     1       7.717   1.553   7.086  1.00  0.00     0.167 HD
ATOM     62  C   UNL     1       4.769   0.332   9.171  1.00  0.00     0.074 A 
ATOM     63  C   UNL     1       4.183  -0.590  10.130  1.00  0.00     0.031 C 
ATOM     64  C   UNL     1       6.002   0.910   9.067  1.00  0.00     0.037 A 
BRANCH  51  65
ATOM     65  C   UNL     1       8.262   4.723   4.757  1.00  0.00     0.058 A 
ATOM     66  C   UNL     1       8.786   5.610   5.723  1.00  0.00     0.135 A 
ATOM     67  C   UNL     1       8.565   5.070   3.421  1.00  0.00     0.135 A 
ATOM     68  F   UNL     1       8.581   5.417   7.034  1.00  0.00    -0.206 F 
ATOM     69  C   UNL     1       9.552   6.728   5.400  1.00  0.00     0.059 A 
ATOM     70  C   UNL     1       9.352   6.173   3.074  1.00  0.00     0.059 A 
ATOM     71  F   UNL     1       8.110   4.379   2.373  1.00  0.00    -0.206 F 
ATOM     72  C   UNL     1       9.847   6.994   4.072  1.00  0.00     0.060 A 
BRANCH  72  73
ATOM     73  S   UNL     1      10.909   8.394   3.690  1.00  0.00     0.124 S 
ATOM     74  O   UNL     1      10.107   9.519   4.160  1.00  0.00    -0.237 OA
ATOM     75  O   UNL     1      12.103   8.090   4.471  1.00  0.00    -0.237 OA
ATOM     76  O   UNL     1      11.075   8.310   2.241  1.00  0.00    -0.744 OA
ENDBRANCH  72  73
ENDBRANCH  51  65
BRANCH  52  77
ATOM     77  C   UNL     1       0.647  -1.103   7.174  1.00  0.00     0.058 A 
ATOM     78  C   UNL     1      -0.763  -1.040   7.136  1.00  0.00     0.135 A 
ATOM     79  C   UNL     1       1.264  -1.914   6.210  1.00  0.00     0.135 A 
ATOM     80  F   UNL     1      -1.418  -0.298   8.046  1.00  0.00    -0.206 F 
ATOM     81  C   UNL     1      -1.517  -1.650   6.129  1.00  0.00     0.059 A 
ATOM     82  C   UNL     1       0.526  -2.547   5.197  1.00  0.00     0.059 A 
ATOM     83  F   UNL     1       2.601  -2.013   6.164  1.00  0.00    -0.206 F 
ATOM     84  C   UNL     1      -0.862  -2.387   5.146  1.00  0.00     0.060 A 
BRANCH  84  85
ATOM     85  S   UNL     1      -1.798  -3.047   3.733  1.00  0.00     0.124 S 
ATOM     86  O   UNL     1      -2.052  -4.417   4.164  1.00  0.00    -0.237 OA
ATOM     87  O   UNL     1      -2.978  -2.190   3.671  1.00  0.00    -0.237 OA
ATOM     88  O   UNL     1      -0.864  -2.916   2.616  1.00  0.00    -0.744 OA
ENDBRANCH  84  85
ENDBRANCH  52  77
BRANCH  64  89
ATOM     89  C   UNL     1       7.232   0.359   9.741  1.00  0.00     0.058 A 
ATOM     90  C   UNL     1       7.358  -0.984  10.134  1.00  0.00     0.135 A 
ATOM     91  C   UNL     1       8.399   1.148   9.879  1.00  0.00     0.135 A 
ATOM     92  F   UNL     1       6.397  -1.886   9.892  1.00  0.00    -0.206 F 
ATOM     93  C   UNL     1       8.498  -1.469  10.759  1.00  0.00     0.059 A 
ATOM     94  C   UNL     1       9.584   0.654  10.406  1.00  0.00     0.059 A 
ATOM     95  F   UNL     1       8.440   2.431   9.490  1.00  0.00    -0.206 F 
ATOM     96  C   UNL     1       9.602  -0.639  10.900  1.00  0.00     0.060 A 
BRANCH  96  97
ATOM     97  S   UNL     1      11.062  -1.270  11.729  1.00  0.00     0.124 S 
ATOM     98  O   UNL     1      10.678  -1.122  13.130  1.00  0.00    -0.237 OA
ATOM     99  O   UNL     1      11.139  -2.642  11.237  1.00  0.00    -0.237 OA
ATOM    100  O   UNL     1      12.125  -0.383  11.268  1.00  0.00    -0.744 OA
ENDBRANCH  96  97
ENDBRANCH  64  89
ENDBRANCH  38  39
ENDBRANCH  31  33
ENDBRANCH  30  31
ENDBRANCH  29  30
ENDBRANCH  28  29
ENDBRANCH  27  28
ENDBRANCH   1  27
TORSDOF 22
