REMARK SMILES Nc1nonc1C(=O)N1[C@@H]2CC[C@H]1C[C@H](CC(=O)OCCOCCOCCOC(=O)c1ccc(-c3c4nc(c(-c5c(F)cc(S(=O)(=O)[O-])cc5F)c5ccc([nH]5)c(-c5c(F)cc(S(=O)(=O)[O-])cc5F)c5nc(c(-c6c(F)cc(S(=O)(=O)[O-])cc6F)c6ccc3[nH]6)C=C5)C=C4)cc1)C2
REMARK SMILES IDX 23 1 22 2 21 3 20 4 19 5 17 6 18 7 16 8 15 9 9 10 10 11
REMARK SMILES IDX 13 12 11 13 97 14 12 15 14 16 7 17 8 18 6 19 2 20 3 21 4 22
REMARK SMILES IDX 5 23 1 24 24 27 25 28 26 29 27 30 28 31 29 32 30 33 31 34
REMARK SMILES IDX 32 35 96 36 33 37 95 38 34 39 35 40 36 41 89 42 37 43 94 44
REMARK SMILES IDX 88 45 90 46 38 47 93 48 87 49 86 50 39 52 73 53 52 54 72 55
REMARK SMILES IDX 53 56 56 57 71 58 91 59 54 60 55 61 70 63 92 64 57 65 40 66
REMARK SMILES IDX 41 67 50 68 42 69 43 70 49 71 51 72 44 73 45 74 46 75 47 76
REMARK SMILES IDX 48 77 74 78 75 79 84 80 76 81 77 82 83 83 85 84 78 85 79 86
REMARK SMILES IDX 80 87 81 88 82 89 58 90 59 91 68 92 60 93 61 94 67 95 69 96
REMARK SMILES IDX 62 97 63 98 64 99 65 100 66 101
REMARK H PARENT 1 25 1 26 90 51 56 62
REMARK Flexibility Score: inf
ROOT
ATOM      1  C   UNL     1       8.210  -1.209  -1.527  1.00  0.00     0.188 C 
ENDROOT
BRANCH   1   2
ATOM      2  O   UNL     1       8.877  -0.037  -1.075  1.00  0.00    -0.376 OA
BRANCH   2   3
ATOM      3  C   UNL     1       8.360   0.588   0.098  1.00  0.00     0.202 C 
BRANCH   3   4
ATOM      4  C   UNL     1       6.931   1.137  -0.001  1.00  0.00     0.261 C 
BRANCH   4   5
ATOM      5  O   UNL     1       5.979   0.143  -0.427  1.00  0.00    -0.463 OA
BRANCH   5   6
ATOM      6  C   UNL     1       5.160   0.521  -1.437  1.00  0.00     0.306 C 
ATOM      7  O   UNL     1       5.054   1.666  -1.865  1.00  0.00    -0.252 OA
BRANCH   6   8
ATOM      8  C   UNL     1       4.412  -0.627  -2.083  1.00  0.00     0.126 C 
BRANCH   8   9
ATOM      9  C   UNL     1       4.106  -1.931  -1.309  1.00  0.00     0.004 C 
ATOM     10  N   UNL     1       1.546  -2.628  -0.309  1.00  0.00    -0.331 N 
ATOM     11  C   UNL     1       2.057  -3.544  -1.309  1.00  0.00     0.086 C 
ATOM     12  C   UNL     1       2.578  -2.554   0.711  1.00  0.00     0.086 C 
ATOM     13  C   UNL     1       2.750  -4.648  -0.511  1.00  0.00     0.027 C 
ATOM     14  C   UNL     1       3.046  -2.728  -2.142  1.00  0.00     0.029 C 
ATOM     15  C   UNL     1       3.020  -4.019   0.858  1.00  0.00     0.027 C 
ATOM     16  C   UNL     1       3.729  -1.689   0.180  1.00  0.00     0.029 C 
BRANCH  10  17
ATOM     17  C   UNL     1       0.187  -2.588  -0.007  1.00  0.00     0.280 C 
ATOM     18  O   UNL     1      -0.512  -3.595  -0.119  1.00  0.00    -0.267 OA
BRANCH  17  19
ATOM     19  C   UNL     1      -0.375  -1.280   0.345  1.00  0.00     0.216 A 
ATOM     20  C   UNL     1       0.110   0.040   0.131  1.00  0.00     0.201 A 
ATOM     21  N   UNL     1      -0.776   0.923   0.585  1.00  0.00    -0.032 NA
ATOM     22  O   UNL     1      -1.847   0.167   1.029  1.00  0.00    -0.242 OA
ATOM     23  N   UNL     1      -1.598  -1.188   0.892  1.00  0.00    -0.042 NA
BRANCH  20  24
ATOM     24  N   UNL     1       1.254   0.396  -0.472  1.00  0.00    -0.379 N 
ATOM     25  H   UNL     1       1.487   1.348  -0.563  1.00  0.00     0.158 HD
ATOM     26  H   UNL     1       1.861  -0.296  -0.824  1.00  0.00     0.158 HD
ENDBRANCH  20  24
ENDBRANCH  17  19
ENDBRANCH  10  17
ENDBRANCH   8   9
ENDBRANCH   6   8
ENDBRANCH   5   6
ENDBRANCH   4   5
ENDBRANCH   3   4
ENDBRANCH   2   3
ENDBRANCH   1   2
BRANCH   1  27
ATOM     27  C   UNL     1       8.147  -2.384  -0.549  1.00  0.00     0.188 C 
BRANCH  27  28
ATOM     28  O   UNL     1       7.691  -2.086   0.766  1.00  0.00    -0.376 OA
BRANCH  28  29
ATOM     29  C   UNL     1       7.498  -3.218   1.624  1.00  0.00     0.202 C 
BRANCH  29  30
ATOM     30  C   UNL     1       8.683  -4.197   1.750  1.00  0.00     0.261 C 
BRANCH  30  31
ATOM     31  O   UNL     1       9.057  -4.868   0.529  1.00  0.00    -0.460 OA
BRANCH  31  32
ATOM     32  C   UNL     1       8.094  -5.518  -0.166  1.00  0.00     0.338 C 
ATOM     33  O   UNL     1       6.976  -5.799   0.235  1.00  0.00    -0.246 OA
BRANCH  32  34
ATOM     34  C   UNL     1       8.514  -5.570  -1.594  1.00  0.00     0.060 A 
ATOM     35  C   UNL     1       7.537  -5.373  -2.583  1.00  0.00     0.016 A 
ATOM     36  C   UNL     1       9.857  -5.702  -1.962  1.00  0.00     0.016 A 
ATOM     37  C   UNL     1       7.897  -5.335  -3.934  1.00  0.00     0.010 A 
ATOM     38  C   UNL     1      10.214  -5.674  -3.314  1.00  0.00     0.010 A 
ATOM     39  C   UNL     1       9.235  -5.514  -4.309  1.00  0.00    -0.014 A 
BRANCH  39  40
ATOM     40  C   UNL     1       9.598  -5.725  -5.734  1.00  0.00     0.031 A 
ATOM     41  C   UNL     1       9.762  -7.139  -6.222  1.00  0.00     0.074 A 
ATOM     42  C   UNL     1       9.796  -4.698  -6.581  1.00  0.00     0.049 A 
ATOM     43  N   UNL     1      10.161  -7.576  -7.388  1.00  0.00    -0.248 NA
ATOM     44  C   UNL     1       9.432  -8.203  -5.259  1.00  0.00     0.031 C 
ATOM     45  C   UNL     1       9.637  -3.284  -6.252  1.00  0.00     0.029 A 
ATOM     46  N   UNL     1      10.195  -4.695  -7.897  1.00  0.00    -0.354 N 
ATOM     47  C   UNL     1      10.136  -8.962  -7.298  1.00  0.00     0.074 A 
ATOM     48  C   UNL     1       9.710  -9.294  -5.956  1.00  0.00     0.031 C 
ATOM     49  C   UNL     1       9.957  -2.547  -7.332  1.00  0.00     0.029 A 
ATOM     50  C   UNL     1      10.378  -3.435  -8.417  1.00  0.00     0.049 A 
ATOM     51  H   UNL     1      10.337  -5.518  -8.418  1.00  0.00     0.167 HD
ATOM     52  C   UNL     1      10.434  -9.880  -8.249  1.00  0.00     0.037 A 
ATOM     53  C   UNL     1      10.858  -3.045  -9.616  1.00  0.00     0.037 A 
ATOM     54  C   UNL     1      10.870  -9.555  -9.580  1.00  0.00     0.049 A 
ATOM     55  C   UNL     1      11.267  -4.083 -10.633  1.00  0.00     0.074 A 
ATOM     56  C   UNL     1      11.186 -10.419 -10.615  1.00  0.00     0.029 A 
ATOM     57  N   UNL     1      11.067  -8.269 -10.059  1.00  0.00    -0.354 N 
ATOM     58  N   UNL     1      11.216  -5.391 -10.545  1.00  0.00    -0.248 NA
ATOM     59  C   UNL     1      11.804  -3.592 -11.912  1.00  0.00     0.031 C 
ATOM     60  C   UNL     1      11.621  -9.656 -11.703  1.00  0.00     0.029 A 
ATOM     61  C   UNL     1      11.526  -8.315 -11.365  1.00  0.00     0.049 A 
ATOM     62  H   UNL     1      10.904  -7.444  -9.546  1.00  0.00     0.167 HD
ATOM     63  C   UNL     1      11.689  -5.876 -11.762  1.00  0.00     0.074 A 
ATOM     64  C   UNL     1      12.014  -4.722 -12.574  1.00  0.00     0.031 C 
ATOM     65  C   UNL     1      11.839  -7.161 -12.170  1.00  0.00     0.037 A 
BRANCH  52  66
ATOM     66  C   UNL     1      10.324 -11.328  -7.865  1.00  0.00     0.058 A 
ATOM     67  C   UNL     1       9.079 -11.945  -7.667  1.00  0.00     0.135 A 
ATOM     68  C   UNL     1      11.478 -12.110  -7.705  1.00  0.00     0.135 A 
ATOM     69  F   UNL     1       7.945 -11.236  -7.785  1.00  0.00    -0.206 F 
ATOM     70  C   UNL     1       8.983 -13.281  -7.293  1.00  0.00     0.059 A 
ATOM     71  C   UNL     1      11.405 -13.455  -7.358  1.00  0.00     0.059 A 
ATOM     72  F   UNL     1      12.693 -11.566  -7.878  1.00  0.00    -0.206 F 
ATOM     73  C   UNL     1      10.153 -14.027  -7.137  1.00  0.00     0.060 A 
BRANCH  73  74
ATOM     74  S   UNL     1      10.013 -15.755  -6.638  1.00  0.00     0.124 S 
ATOM     75  O   UNL     1       9.635 -15.620  -5.234  1.00  0.00    -0.237 OA
ATOM     76  O   UNL     1       8.970 -16.254  -7.529  1.00  0.00    -0.237 OA
ATOM     77  O   UNL     1      11.349 -16.289  -6.879  1.00  0.00    -0.744 OA
ENDBRANCH  73  74
ENDBRANCH  52  66
BRANCH  53  78
ATOM     78  C   UNL     1      11.014  -1.595  -9.919  1.00  0.00     0.058 A 
ATOM     79  C   UNL     1      10.209  -0.961 -10.877  1.00  0.00     0.135 A 
ATOM     80  C   UNL     1      11.983  -0.818  -9.265  1.00  0.00     0.135 A 
ATOM     81  F   UNL     1       9.281  -1.664 -11.544  1.00  0.00    -0.206 F 
ATOM     82  C   UNL     1      10.364   0.388 -11.183  1.00  0.00     0.059 A 
ATOM     83  C   UNL     1      12.140   0.538  -9.534  1.00  0.00     0.059 A 
ATOM     84  F   UNL     1      12.778  -1.376  -8.338  1.00  0.00    -0.206 F 
ATOM     85  C   UNL     1      11.331   1.130 -10.502  1.00  0.00     0.060 A 
BRANCH  85  86
ATOM     86  S   UNL     1      11.488   2.893 -10.867  1.00  0.00     0.124 S 
ATOM     87  O   UNL     1      12.124   2.865 -12.179  1.00  0.00    -0.237 OA
ATOM     88  O   UNL     1      10.098   3.335 -10.840  1.00  0.00    -0.237 OA
ATOM     89  O   UNL     1      12.318   3.389  -9.773  1.00  0.00    -0.744 OA
ENDBRANCH  85  86
ENDBRANCH  53  78
BRANCH  65  90
ATOM     90  C   UNL     1      12.348  -7.405 -13.566  1.00  0.00     0.058 A 
ATOM     91  C   UNL     1      13.694  -7.201 -13.908  1.00  0.00     0.135 A 
ATOM     92  C   UNL     1      11.495  -7.929 -14.552  1.00  0.00     0.135 A 
ATOM     93  F   UNL     1      14.551  -6.697 -13.006  1.00  0.00    -0.206 F 
ATOM     94  C   UNL     1      14.174  -7.496 -15.181  1.00  0.00     0.059 A 
ATOM     95  C   UNL     1      11.959  -8.256 -15.823  1.00  0.00     0.059 A 
ATOM     96  F   UNL     1      10.201  -8.155 -14.275  1.00  0.00    -0.206 F 
ATOM     97  C   UNL     1      13.299  -8.029 -16.131  1.00  0.00     0.060 A 
BRANCH  97  98
ATOM     98  S   UNL     1      13.947  -8.460 -17.761  1.00  0.00     0.124 S 
ATOM     99  O   UNL     1      14.134  -7.143 -18.361  1.00  0.00    -0.237 OA
ATOM    100  O   UNL     1      15.170  -9.185 -17.430  1.00  0.00    -0.237 OA
ATOM    101  O   UNL     1      12.884  -9.271 -18.346  1.00  0.00    -0.744 OA
ENDBRANCH  97  98
ENDBRANCH  65  90
ENDBRANCH  39  40
ENDBRANCH  32  34
ENDBRANCH  31  32
ENDBRANCH  30  31
ENDBRANCH  29  30
ENDBRANCH  28  29
ENDBRANCH  27  28
ENDBRANCH   1  27
TORSDOF 24
