REMARK SMILES CC[N@@H+](C/C(Cl)=C/Cl)C[C@@H](C)C(=O)OCCOCCOCCOC(=O)c1ccc(-c2c3nc(c(-c4c(F)cc(S(=O)(=O)[O-])cc4F)c4ccc([nH]4)c(-c4c(F)cc(S(=O)(=O)[O-])cc4F)c4nc(c(-c5c(F)cc(S(=O)(=O)[O-])cc5F)c5ccc2[nH]5)C=C4)C=C3)cc1
REMARK SMILES IDX 18 1 17 2 16 3 15 4 14 5 12 6 13 7 10 8 11 9 9 10 3 11 2 13
REMARK SMILES IDX 1 14 4 15 5 16 6 17 7 18 8 19 19 20 20 21 21 22 22 23 23 24
REMARK SMILES IDX 24 25 25 26 26 27 27 28 91 29 28 30 90 31 29 32 30 33 31 34
REMARK SMILES IDX 84 35 32 36 89 37 83 38 85 39 33 40 88 41 82 42 81 43 34 45
REMARK SMILES IDX 68 46 47 47 67 48 48 49 51 50 66 51 86 52 49 53 50 54 65 56
REMARK SMILES IDX 87 57 52 58 35 59 36 60 45 61 37 62 38 63 44 64 46 65 39 66
REMARK SMILES IDX 40 67 41 68 42 69 43 70 69 71 70 72 79 73 71 74 72 75 78 76
REMARK SMILES IDX 80 77 73 78 74 79 75 80 76 81 77 82 53 83 54 84 63 85 55 86
REMARK SMILES IDX 56 87 62 88 64 89 57 90 58 91 59 92 60 93 61 94
REMARK H PARENT 3 12 85 44 51 55
REMARK Flexibility Score: inf
ROOT
ATOM      1  C   UNL     1       5.858  -4.196  -0.419  1.00  0.00     0.188 C 
ENDROOT
BRANCH   1   2
ATOM      2  O   UNL     1       7.148  -3.783  -0.848  1.00  0.00    -0.376 OA
BRANCH   2   3
ATOM      3  C   UNL     1       7.489  -2.408  -0.781  1.00  0.00     0.202 C 
BRANCH   3   4
ATOM      4  C   UNL     1       6.560  -1.350  -1.411  1.00  0.00     0.261 C 
BRANCH   4   5
ATOM      5  O   UNL     1       5.132  -1.462  -1.190  1.00  0.00    -0.463 OA
BRANCH   5   6
ATOM      6  C   UNL     1       4.400  -1.834  -2.273  1.00  0.00     0.314 C 
ATOM      7  O   UNL     1       4.897  -2.117  -3.360  1.00  0.00    -0.252 OA
BRANCH   6   8
ATOM      8  C   UNL     1       2.878  -1.786  -2.097  1.00  0.00     0.151 C 
ATOM      9  C   UNL     1       2.394  -0.533  -2.813  1.00  0.00     0.026 C 
BRANCH   8  10
ATOM     10  C   UNL     1       2.320  -1.973  -0.666  1.00  0.00     0.277 C 
BRANCH  10  11
ATOM     11  N   UNL     1       0.876  -2.047  -0.386  1.00  0.00    -0.330 N 
ATOM     12  H   UNL     1       0.978  -1.980   0.626  1.00  0.00     0.348 HD
BRANCH  11  13
ATOM     13  C   UNL     1       0.019  -0.884  -0.551  1.00  0.00     0.259 C 
ATOM     14  C   UNL     1       0.535   0.378   0.132  1.00  0.00     0.071 C 
ENDBRANCH  11  13
BRANCH  11  15
ATOM     15  C   UNL     1       0.230  -3.345  -0.633  1.00  0.00     0.312 C 
BRANCH  15  16
ATOM     16  C   UNL     1       0.394  -3.947  -2.006  1.00  0.00     0.083 C 
ATOM     17  Cl  UNL     1       1.337  -5.407  -2.048  1.00  0.00    -0.082 Cl
ATOM     18  C   UNL     1      -0.109  -3.394  -3.116  1.00  0.00     0.102 C 
ATOM     19  Cl  UNL     1       0.122  -3.957  -4.717  1.00  0.00    -0.091 Cl
ENDBRANCH  15  16
ENDBRANCH  11  15
ENDBRANCH  10  11
ENDBRANCH   8  10
ENDBRANCH   6   8
ENDBRANCH   5   6
ENDBRANCH   4   5
ENDBRANCH   3   4
ENDBRANCH   2   3
ENDBRANCH   1   2
BRANCH   1  20
ATOM     20  C   UNL     1       5.229  -3.517   0.808  1.00  0.00     0.188 C 
BRANCH  20  21
ATOM     21  O   UNL     1       6.072  -2.602   1.472  1.00  0.00    -0.376 OA
BRANCH  21  22
ATOM     22  C   UNL     1       6.266  -2.801   2.857  1.00  0.00     0.202 C 
BRANCH  22  23
ATOM     23  C   UNL     1       7.015  -4.084   3.241  1.00  0.00     0.261 C 
BRANCH  23  24
ATOM     24  O   UNL     1       6.526  -5.310   2.667  1.00  0.00    -0.460 OA
BRANCH  24  25
ATOM     25  C   UNL     1       5.333  -5.781   3.100  1.00  0.00     0.338 C 
ATOM     26  O   UNL     1       4.615  -5.275   3.947  1.00  0.00    -0.246 OA
BRANCH  25  27
ATOM     27  C   UNL     1       4.939  -6.888   2.194  1.00  0.00     0.060 A 
ATOM     28  C   UNL     1       3.737  -6.805   1.472  1.00  0.00     0.016 A 
ATOM     29  C   UNL     1       5.775  -7.994   2.035  1.00  0.00     0.016 A 
ATOM     30  C   UNL     1       3.358  -7.842   0.609  1.00  0.00     0.010 A 
ATOM     31  C   UNL     1       5.385  -9.037   1.192  1.00  0.00     0.010 A 
ATOM     32  C   UNL     1       4.161  -8.984   0.498  1.00  0.00    -0.014 A 
BRANCH  32  33
ATOM     33  C   UNL     1       3.650 -10.230  -0.132  1.00  0.00     0.031 A 
ATOM     34  C   UNL     1       3.108 -11.297   0.781  1.00  0.00     0.074 A 
ATOM     35  C   UNL     1       3.718 -10.453  -1.456  1.00  0.00     0.049 A 
ATOM     36  N   UNL     1       2.798 -12.540   0.523  1.00  0.00    -0.248 NA
ATOM     37  C   UNL     1       2.907 -10.902   2.185  1.00  0.00     0.031 C 
ATOM     38  C   UNL     1       4.163  -9.489  -2.458  1.00  0.00     0.029 A 
ATOM     39  N   UNL     1       3.439 -11.589  -2.180  1.00  0.00    -0.354 N 
ATOM     40  C   UNL     1       2.396 -13.085   1.737  1.00  0.00     0.074 A 
ATOM     41  C   UNL     1       2.519 -12.043   2.733  1.00  0.00     0.031 C 
ATOM     42  C   UNL     1       4.161 -10.085  -3.665  1.00  0.00     0.029 A 
ATOM     43  C   UNL     1       3.761 -11.485  -3.513  1.00  0.00     0.049 A 
ATOM     44  H   UNL     1       3.047 -12.399  -1.782  1.00  0.00     0.167 HD
ATOM     45  C   UNL     1       1.966 -14.342   2.000  1.00  0.00     0.037 A 
ATOM     46  C   UNL     1       3.773 -12.420  -4.486  1.00  0.00     0.037 A 
ATOM     47  C   UNL     1       1.853 -15.376   1.006  1.00  0.00     0.049 A 
ATOM     48  C   UNL     1       3.363 -13.838  -4.164  1.00  0.00     0.074 A 
ATOM     49  C   UNL     1       1.416 -16.679   1.167  1.00  0.00     0.029 A 
ATOM     50  N   UNL     1       2.191 -15.230  -0.332  1.00  0.00    -0.354 N 
ATOM     51  N   UNL     1       2.982 -14.347  -3.015  1.00  0.00    -0.248 NA
ATOM     52  C   UNL     1       3.384 -14.809  -5.268  1.00  0.00     0.031 C 
ATOM     53  C   UNL     1       1.547 -17.337  -0.059  1.00  0.00     0.029 A 
ATOM     54  C   UNL     1       1.995 -16.425  -1.003  1.00  0.00     0.049 A 
ATOM     55  H   UNL     1       2.521 -14.399  -0.744  1.00  0.00     0.167 HD
ATOM     56  C   UNL     1       2.680 -15.684  -3.268  1.00  0.00     0.074 A 
ATOM     57  C   UNL     1       2.929 -15.907  -4.677  1.00  0.00     0.031 C 
ATOM     58  C   UNL     1       2.227 -16.634  -2.412  1.00  0.00     0.037 A 
BRANCH  45  59
ATOM     59  C   UNL     1       1.639 -14.675   3.431  1.00  0.00     0.058 A 
ATOM     60  C   UNL     1       0.534 -14.115   4.093  1.00  0.00     0.135 A 
ATOM     61  C   UNL     1       2.450 -15.566   4.152  1.00  0.00     0.135 A 
ATOM     62  F   UNL     1      -0.265 -13.242   3.459  1.00  0.00    -0.206 F 
ATOM     63  C   UNL     1       0.272 -14.391   5.431  1.00  0.00     0.059 A 
ATOM     64  C   UNL     1       2.187 -15.884   5.481  1.00  0.00     0.059 A 
ATOM     65  F   UNL     1       3.520 -16.130   3.571  1.00  0.00    -0.206 F 
ATOM     66  C   UNL     1       1.108 -15.274   6.118  1.00  0.00     0.060 A 
BRANCH  66  67
ATOM     67  S   UNL     1       0.770 -15.601   7.860  1.00  0.00     0.124 S 
ATOM     68  O   UNL     1       1.170 -14.339   8.476  1.00  0.00    -0.237 OA
ATOM     69  O   UNL     1      -0.663 -15.877   7.854  1.00  0.00    -0.237 OA
ATOM     70  O   UNL     1       1.624 -16.745   8.164  1.00  0.00    -0.744 OA
ENDBRANCH  66  67
ENDBRANCH  45  59
BRANCH  46  71
ATOM     71  C   UNL     1       4.208 -12.049  -5.862  1.00  0.00     0.058 A 
ATOM     72  C   UNL     1       3.292 -12.002  -6.924  1.00  0.00     0.135 A 
ATOM     73  C   UNL     1       5.543 -11.715  -6.139  1.00  0.00     0.135 A 
ATOM     74  F   UNL     1       2.009 -12.335  -6.718  1.00  0.00    -0.206 F 
ATOM     75  C   UNL     1       3.682 -11.633  -8.208  1.00  0.00     0.059 A 
ATOM     76  C   UNL     1       5.952 -11.317  -7.409  1.00  0.00     0.059 A 
ATOM     77  F   UNL     1       6.461 -11.745  -5.160  1.00  0.00    -0.206 F 
ATOM     78  C   UNL     1       5.013 -11.282  -8.438  1.00  0.00     0.060 A 
BRANCH  78  79
ATOM     79  S   UNL     1       5.488 -10.731 -10.092  1.00  0.00     0.124 S 
ATOM     80  O   UNL     1       5.399 -11.971 -10.854  1.00  0.00    -0.237 OA
ATOM     81  O   UNL     1       4.468  -9.728 -10.384  1.00  0.00    -0.237 OA
ATOM     82  O   UNL     1       6.837 -10.206  -9.899  1.00  0.00    -0.744 OA
ENDBRANCH  78  79
ENDBRANCH  46  71
BRANCH  58  83
ATOM     83  C   UNL     1       1.897 -17.995  -2.968  1.00  0.00     0.058 A 
ATOM     84  C   UNL     1       2.889 -18.906  -3.360  1.00  0.00     0.135 A 
ATOM     85  C   UNL     1       0.559 -18.427  -3.015  1.00  0.00     0.135 A 
ATOM     86  F   UNL     1       4.183 -18.547  -3.341  1.00  0.00    -0.206 F 
ATOM     87  C   UNL     1       2.568 -20.192  -3.788  1.00  0.00     0.059 A 
ATOM     88  C   UNL     1       0.218 -19.716  -3.410  1.00  0.00     0.059 A 
ATOM     89  F   UNL     1      -0.431 -17.601  -2.641  1.00  0.00    -0.206 F 
ATOM     90  C   UNL     1       1.229 -20.591  -3.801  1.00  0.00     0.060 A 
BRANCH  90  91
ATOM     91  S   UNL     1       0.832 -22.282  -4.297  1.00  0.00     0.124 S 
ATOM     92  O   UNL     1       1.091 -22.237  -5.732  1.00  0.00    -0.237 OA
ATOM     93  O   UNL     1       1.774 -23.068  -3.507  1.00  0.00    -0.237 OA
ATOM     94  O   UNL     1      -0.571 -22.428  -3.917  1.00  0.00    -0.744 OA
ENDBRANCH  90  91
ENDBRANCH  58  83
ENDBRANCH  32  33
ENDBRANCH  25  27
ENDBRANCH  24  25
ENDBRANCH  23  24
ENDBRANCH  22  23
ENDBRANCH  21  22
ENDBRANCH  20  21
ENDBRANCH   1  20
TORSDOF 25
