REMARK SMILES O=C(OCCOCCOCCOC(=O)[C@H]1CC[C@H]2CCCC[C@@H]2N1C(=O)c1ccn[nH]1)c1ccc(-c2c3nc(c(-c4c(F)cc(S(=O)(=O)[O-])cc4F)c4ccc([nH]4)c(-c4c(F)cc(S(=O)(=O)[O-])cc4F)c4nc(c(-c5c(F)cc(S(=O)(=O)[O-])cc5F)c5ccc2[nH]5)C=C4)C=C3)cc1
REMARK SMILES IDX 7 1 6 2 5 3 4 4 3 5 2 6 1 7 32 8 33 9 97 10 34 11 96 12
REMARK SMILES IDX 35 13 36 14 37 15 90 16 38 17 95 18 89 19 91 20 39 21 94 22
REMARK SMILES IDX 88 23 87 24 40 26 74 27 53 28 73 29 54 30 57 31 72 32 92 33
REMARK SMILES IDX 55 34 56 35 71 37 93 38 58 39 41 40 42 41 51 42 43 43 44 44
REMARK SMILES IDX 50 45 52 46 45 47 46 48 47 49 48 50 49 51 75 52 76 53 85 54
REMARK SMILES IDX 77 55 78 56 84 57 86 58 79 59 80 60 81 61 82 62 83 63 59 64
REMARK SMILES IDX 60 65 69 66 61 67 62 68 68 69 70 70 63 71 64 72 65 73 66 74
REMARK SMILES IDX 67 75 8 76 9 77 10 78 11 79 12 80 13 81 14 82 15 83 16 84
REMARK SMILES IDX 24 85 17 86 23 87 18 88 22 89 19 90 21 91 20 92 25 93 26 94
REMARK SMILES IDX 27 95 28 96 31 97 29 98 30 99
REMARK H PARENT 91 25 57 36 31 100
REMARK Flexibility Score: inf
ROOT
ATOM      1  C   UNL     1       2.421   0.687  -2.260  1.00  0.00     0.188 C 
ENDROOT
BRANCH   1   2
ATOM      2  O   UNL     1       3.680   0.665  -1.568  1.00  0.00    -0.376 OA
BRANCH   2   3
ATOM      3  C   UNL     1       4.522  -0.419  -1.962  1.00  0.00     0.202 C 
BRANCH   3   4
ATOM      4  C   UNL     1       4.452  -1.623  -1.018  1.00  0.00     0.261 C 
BRANCH   4   5
ATOM      5  O   UNL     1       3.128  -1.810  -0.494  1.00  0.00    -0.460 OA
BRANCH   5   6
ATOM      6  C   UNL     1       2.581  -1.163   0.568  1.00  0.00     0.338 C 
ATOM      7  O   UNL     1       1.356  -1.145   0.683  1.00  0.00    -0.246 OA
BRANCH   6   8
ATOM      8  C   UNL     1       3.401  -0.620   1.693  1.00  0.00     0.060 A 
ATOM      9  C   UNL     1       4.609   0.073   1.569  1.00  0.00     0.016 A 
ATOM     10  C   UNL     1       2.865  -0.787   2.981  1.00  0.00     0.016 A 
ATOM     11  C   UNL     1       5.340   0.450   2.704  1.00  0.00     0.010 A 
ATOM     12  C   UNL     1       3.559  -0.351   4.113  1.00  0.00     0.010 A 
ATOM     13  C   UNL     1       4.831   0.220   3.986  1.00  0.00    -0.014 A 
BRANCH  13  14
ATOM     14  C   UNL     1       5.639   0.506   5.198  1.00  0.00     0.031 A 
ATOM     15  C   UNL     1       6.175  -0.636   6.018  1.00  0.00     0.074 A 
ATOM     16  C   UNL     1       5.875   1.772   5.590  1.00  0.00     0.049 A 
ATOM     17  N   UNL     1       6.858  -0.603   7.133  1.00  0.00    -0.248 NA
ATOM     18  C   UNL     1       5.919  -1.993   5.508  1.00  0.00     0.031 C 
ATOM     19  C   UNL     1       5.450   2.973   4.878  1.00  0.00     0.029 A 
ATOM     20  N   UNL     1       6.504   2.255   6.710  1.00  0.00    -0.354 N 
ATOM     21  C   UNL     1       7.145  -1.926   7.439  1.00  0.00     0.074 A 
ATOM     22  C   UNL     1       6.503  -2.743   6.430  1.00  0.00     0.031 C 
ATOM     23  C   UNL     1       5.749   4.052   5.619  1.00  0.00     0.029 A 
ATOM     24  C   UNL     1       6.419   3.619   6.838  1.00  0.00     0.049 A 
ATOM     25  H   UNL     1       6.971   1.680   7.358  1.00  0.00     0.167 HD
ATOM     26  C   UNL     1       7.908  -2.420   8.443  1.00  0.00     0.037 A 
ATOM     27  C   UNL     1       6.829   4.435   7.826  1.00  0.00     0.037 A 
ATOM     28  C   UNL     1       8.541  -1.620   9.455  1.00  0.00     0.049 A 
ATOM     29  C   UNL     1       7.586   3.866   8.986  1.00  0.00     0.074 A 
ATOM     30  C   UNL     1       9.357  -2.026  10.496  1.00  0.00     0.029 A 
ATOM     31  N   UNL     1       8.420  -0.242   9.556  1.00  0.00    -0.354 N 
ATOM     32  N   UNL     1       7.887   2.616   9.233  1.00  0.00    -0.248 NA
ATOM     33  C   UNL     1       8.087   4.822   9.982  1.00  0.00     0.031 C 
ATOM     34  C   UNL     1       9.715  -0.893  11.240  1.00  0.00     0.029 A 
ATOM     35  C   UNL     1       9.133   0.218  10.650  1.00  0.00     0.049 A 
ATOM     36  H   UNL     1       7.903   0.326   8.941  1.00  0.00     0.167 HD
ATOM     37  C   UNL     1       8.640   2.635  10.399  1.00  0.00     0.074 A 
ATOM     38  C   UNL     1       8.738   4.020  10.814  1.00  0.00     0.031 C 
ATOM     39  C   UNL     1       9.214   1.597  11.054  1.00  0.00     0.037 A 
BRANCH  26  40
ATOM     40  C   UNL     1       8.110  -3.905   8.459  1.00  0.00     0.058 A 
ATOM     41  C   UNL     1       9.010  -4.516   7.571  1.00  0.00     0.135 A 
ATOM     42  C   UNL     1       7.378  -4.727   9.328  1.00  0.00     0.135 A 
ATOM     43  F   UNL     1       9.716  -3.771   6.706  1.00  0.00    -0.206 F 
ATOM     44  C   UNL     1       9.151  -5.897   7.518  1.00  0.00     0.059 A 
ATOM     45  C   UNL     1       7.514  -6.112   9.302  1.00  0.00     0.059 A 
ATOM     46  F   UNL     1       6.499  -4.188  10.188  1.00  0.00    -0.206 F 
ATOM     47  C   UNL     1       8.387  -6.688   8.378  1.00  0.00     0.060 A 
BRANCH  47  48
ATOM     48  S   UNL     1       8.538  -8.483   8.268  1.00  0.00     0.124 S 
ATOM     49  O   UNL     1       7.695  -8.772   7.112  1.00  0.00    -0.237 OA
ATOM     50  O   UNL     1       9.971  -8.671   8.069  1.00  0.00    -0.237 OA
ATOM     51  O   UNL     1       8.022  -8.943   9.554  1.00  0.00    -0.744 OA
ENDBRANCH  47  48
ENDBRANCH  26  40
BRANCH  27  52
ATOM     52  C   UNL     1       6.535   5.884   7.752  1.00  0.00     0.058 A 
ATOM     53  C   UNL     1       7.484   6.791   7.264  1.00  0.00     0.135 A 
ATOM     54  C   UNL     1       5.288   6.379   8.155  1.00  0.00     0.135 A 
ATOM     55  F   UNL     1       8.685   6.353   6.858  1.00  0.00    -0.206 F 
ATOM     56  C   UNL     1       7.211   8.152   7.185  1.00  0.00     0.059 A 
ATOM     57  C   UNL     1       4.991   7.734   8.082  1.00  0.00     0.059 A 
ATOM     58  F   UNL     1       4.344   5.540   8.607  1.00  0.00    -0.206 F 
ATOM     59  C   UNL     1       5.960   8.612   7.596  1.00  0.00     0.060 A 
BRANCH  59  60
ATOM     60  S   UNL     1       5.542  10.362   7.441  1.00  0.00     0.124 S 
ATOM     61  O   UNL     1       5.689  10.818   8.817  1.00  0.00    -0.237 OA
ATOM     62  O   UNL     1       6.543  10.851   6.499  1.00  0.00    -0.237 OA
ATOM     63  O   UNL     1       4.174  10.306   6.931  1.00  0.00    -0.744 OA
ENDBRANCH  59  60
ENDBRANCH  27  52
BRANCH  39  64
ATOM     64  C   UNL     1      10.014   1.933  12.274  1.00  0.00     0.058 A 
ATOM     65  C   UNL     1       9.394   2.168  13.509  1.00  0.00     0.135 A 
ATOM     66  C   UNL     1      11.413   2.014  12.207  1.00  0.00     0.135 A 
ATOM     67  F   UNL     1       8.057   2.114  13.616  1.00  0.00    -0.206 F 
ATOM     68  C   UNL     1      10.136   2.489  14.640  1.00  0.00     0.059 A 
ATOM     69  C   UNL     1      12.175   2.322  13.327  1.00  0.00     0.059 A 
ATOM     70  F   UNL     1      12.047   1.798  11.043  1.00  0.00    -0.206 F 
ATOM     71  C   UNL     1      11.527   2.570  14.537  1.00  0.00     0.060 A 
BRANCH  71  72
ATOM     72  S   UNL     1      12.495   2.968  16.009  1.00  0.00     0.124 S 
ATOM     73  O   UNL     1      12.436   4.426  16.011  1.00  0.00    -0.237 OA
ATOM     74  O   UNL     1      11.749   2.302  17.073  1.00  0.00    -0.237 OA
ATOM     75  O   UNL     1      13.802   2.389  15.713  1.00  0.00    -0.744 OA
ENDBRANCH  71  72
ENDBRANCH  39  64
ENDBRANCH  13  14
ENDBRANCH   6   8
ENDBRANCH   5   6
ENDBRANCH   4   5
ENDBRANCH   3   4
ENDBRANCH   2   3
ENDBRANCH   1   2
BRANCH   1  76
ATOM     76  C   UNL     1       1.842   2.104  -2.260  1.00  0.00     0.188 C 
BRANCH  76  77
ATOM     77  O   UNL     1       2.429   2.937  -3.270  1.00  0.00    -0.376 OA
BRANCH  77  78
ATOM     78  C   UNL     1       3.782   3.333  -3.032  1.00  0.00     0.202 C 
BRANCH  78  79
ATOM     79  C   UNL     1       3.897   4.557  -2.130  1.00  0.00     0.261 C 
BRANCH  79  80
ATOM     80  O   UNL     1       3.397   4.284  -0.814  1.00  0.00    -0.462 OA
BRANCH  80  81
ATOM     81  C   UNL     1       2.881   5.368  -0.179  1.00  0.00     0.328 C 
ATOM     82  O   UNL     1       2.735   6.474  -0.692  1.00  0.00    -0.250 OA
BRANCH  81  83
ATOM     83  C   UNL     1       2.570   5.109   1.301  1.00  0.00     0.195 C 
ATOM     84  C   UNL     1       2.617   3.689   1.861  1.00  0.00     0.037 C 
ATOM     85  N   UNL     1       3.365   5.998   2.158  1.00  0.00    -0.320 N 
ATOM     86  C   UNL     1       2.118   3.666   3.326  1.00  0.00     0.008 C 
ATOM     87  C   UNL     1       2.906   6.118   3.547  1.00  0.00     0.089 C 
ATOM     88  C   UNL     1       1.821   5.065   3.901  1.00  0.00     0.012 C 
ATOM     89  C   UNL     1       2.362   7.504   3.907  1.00  0.00     0.025 C 
ATOM     90  C   UNL     1       1.613   5.061   5.421  1.00  0.00     0.006 C 
ATOM     91  C   UNL     1       2.081   7.576   5.409  1.00  0.00     0.002 C 
ATOM     92  C   UNL     1       1.174   6.448   5.905  1.00  0.00     0.000 C 
BRANCH  85  93
ATOM     93  C   UNL     1       4.742   6.082   1.893  1.00  0.00     0.272 C 
ATOM     94  O   UNL     1       5.316   5.273   1.165  1.00  0.00    -0.267 OA
BRANCH  93  95
ATOM     95  C   UNL     1       5.422   7.224   2.426  1.00  0.00     0.123 A 
ATOM     96  C   UNL     1       6.469   7.334   3.317  1.00  0.00     0.055 A 
ATOM     97  N   UNL     1       5.172   8.500   2.002  1.00  0.00    -0.273 N 
ATOM     98  C   UNL     1       6.733   8.716   3.393  1.00  0.00     0.135 A 
ATOM     99  N   UNL     1       5.982   9.420   2.542  1.00  0.00    -0.183 NA
ATOM    100  H   UNL     1       4.461   8.722   1.359  1.00  0.00     0.190 HD
ENDBRANCH  93  95
ENDBRANCH  85  93
ENDBRANCH  81  83
ENDBRANCH  80  81
ENDBRANCH  79  80
ENDBRANCH  78  79
ENDBRANCH  77  78
ENDBRANCH  76  77
ENDBRANCH   1  76
TORSDOF 22
