REMARK SMILES O=C(OCCOCCOCCOC(=O)c1cc2c(C(F)(F)F)onc2c2ccccc12)c1ccc(-c2c3nc(c(-c4c(F)cc(S(=O)(=O)[O-])cc4F)c4ccc([nH]4)c(-c4c(F)cc(S(=O)(=O)[O-])cc4F)c4nc(c(-c5c(F)cc(S(=O)(=O)[O-])cc5F)c5ccc2[nH]5)C=C4)C=C3)cc1
REMARK SMILES IDX 7 1 6 2 5 3 4 4 3 5 2 6 1 7 32 8 33 9 97 10 34 11 96 12
REMARK SMILES IDX 35 13 36 14 37 15 90 16 38 17 95 18 89 19 91 20 39 21 94 22
REMARK SMILES IDX 88 23 87 24 40 26 74 27 53 28 73 29 54 30 57 31 72 32 92 33
REMARK SMILES IDX 55 34 56 35 71 37 93 38 58 39 41 40 42 41 51 42 43 43 44 44
REMARK SMILES IDX 50 45 52 46 45 47 46 48 47 49 48 50 49 51 75 52 76 53 85 54
REMARK SMILES IDX 77 55 78 56 84 57 86 58 79 59 80 60 81 61 82 62 83 63 59 64
REMARK SMILES IDX 60 65 69 66 61 67 62 68 68 69 70 70 63 71 64 72 65 73 66 74
REMARK SMILES IDX 67 75 8 76 9 77 10 78 11 79 12 80 13 81 14 82 15 83 16 84
REMARK SMILES IDX 31 85 17 86 26 87 30 88 18 89 25 90 27 91 29 92 23 93 24 94
REMARK SMILES IDX 28 95 19 96 20 97 21 98 22 99
REMARK H PARENT 91 25 57 36
REMARK Flexibility Score: inf
ROOT
ATOM      1  C   UNL     1       1.851   0.445  -1.355  1.00  0.00     0.188 C 
ENDROOT
BRANCH   1   2
ATOM      2  O   UNL     1       3.232   0.712  -1.183  1.00  0.00    -0.376 OA
BRANCH   2   3
ATOM      3  C   UNL     1       4.100  -0.339  -1.576  1.00  0.00     0.202 C 
BRANCH   3   4
ATOM      4  C   UNL     1       3.999  -1.627  -0.746  1.00  0.00     0.261 C 
BRANCH   4   5
ATOM      5  O   UNL     1       3.272  -1.626   0.517  1.00  0.00    -0.460 OA
BRANCH   5   6
ATOM      6  C   UNL     1       3.223  -0.707   1.515  1.00  0.00     0.338 C 
ATOM      7  O   UNL     1       2.344  -0.750   2.369  1.00  0.00    -0.246 OA
BRANCH   6   8
ATOM      8  C   UNL     1       4.180   0.415   1.481  1.00  0.00     0.060 A 
ATOM      9  C   UNL     1       3.687   1.706   1.672  1.00  0.00     0.016 A 
ATOM     10  C   UNL     1       5.504   0.221   1.095  1.00  0.00     0.016 A 
ATOM     11  C   UNL     1       4.443   2.784   1.220  1.00  0.00     0.010 A 
ATOM     12  C   UNL     1       6.223   1.296   0.578  1.00  0.00     0.010 A 
ATOM     13  C   UNL     1       5.655   2.573   0.540  1.00  0.00    -0.014 A 
BRANCH  13  14
ATOM     14  C   UNL     1       6.474   3.745   0.169  1.00  0.00     0.031 A 
ATOM     15  C   UNL     1       7.067   4.292   1.409  1.00  0.00     0.074 A 
ATOM     16  C   UNL     1       6.820   4.240  -1.048  1.00  0.00     0.049 A 
ATOM     17  N   UNL     1       6.672   5.324   2.080  1.00  0.00    -0.248 NA
ATOM     18  C   UNL     1       8.022   3.428   2.127  1.00  0.00     0.031 C 
ATOM     19  C   UNL     1       6.542   3.666  -2.368  1.00  0.00     0.029 A 
ATOM     20  N   UNL     1       7.564   5.365  -1.370  1.00  0.00    -0.354 N 
ATOM     21  C   UNL     1       7.536   5.361   3.165  1.00  0.00     0.074 A 
ATOM     22  C   UNL     1       8.076   4.035   3.313  1.00  0.00     0.031 C 
ATOM     23  C   UNL     1       7.200   4.347  -3.325  1.00  0.00     0.029 A 
ATOM     24  C   UNL     1       7.963   5.407  -2.713  1.00  0.00     0.049 A 
ATOM     25  H   UNL     1       7.790   6.067  -0.717  1.00  0.00     0.167 HD
ATOM     26  C   UNL     1       8.096   6.527   3.580  1.00  0.00     0.037 A 
ATOM     27  C   UNL     1       8.886   6.205  -3.314  1.00  0.00     0.037 A 
ATOM     28  C   UNL     1       7.512   7.699   2.987  1.00  0.00     0.049 A 
ATOM     29  C   UNL     1       9.018   7.424  -2.488  1.00  0.00     0.074 A 
ATOM     30  C   UNL     1       6.783   8.794   3.383  1.00  0.00     0.029 A 
ATOM     31  N   UNL     1       7.635   7.778   1.626  1.00  0.00    -0.354 N 
ATOM     32  N   UNL     1       8.041   8.283  -2.355  1.00  0.00    -0.248 NA
ATOM     33  C   UNL     1      10.061   7.490  -1.469  1.00  0.00     0.031 C 
ATOM     34  C   UNL     1       6.528   9.572   2.213  1.00  0.00     0.029 A 
ATOM     35  C   UNL     1       7.087   8.926   1.122  1.00  0.00     0.049 A 
ATOM     36  H   UNL     1       8.067   7.088   1.073  1.00  0.00     0.167 HD
ATOM     37  C   UNL     1       8.139   8.703  -1.048  1.00  0.00     0.074 A 
ATOM     38  C   UNL     1       9.456   8.283  -0.580  1.00  0.00     0.031 C 
ATOM     39  C   UNL     1       7.053   9.070  -0.314  1.00  0.00     0.037 A 
BRANCH  26  40
ATOM     40  C   UNL     1       9.489   6.604   4.145  1.00  0.00     0.058 A 
ATOM     41  C   UNL     1       9.842   7.688   4.962  1.00  0.00     0.135 A 
ATOM     42  C   UNL     1      10.558   5.807   3.671  1.00  0.00     0.135 A 
ATOM     43  F   UNL     1       8.898   8.504   5.458  1.00  0.00    -0.206 F 
ATOM     44  C   UNL     1      11.172   7.996   5.241  1.00  0.00     0.059 A 
ATOM     45  C   UNL     1      11.883   6.051   3.998  1.00  0.00     0.059 A 
ATOM     46  F   UNL     1      10.376   4.816   2.789  1.00  0.00    -0.206 F 
ATOM     47  C   UNL     1      12.184   7.176   4.744  1.00  0.00     0.060 A 
BRANCH  47  48
ATOM     48  S   UNL     1      13.902   7.631   5.015  1.00  0.00     0.124 S 
ATOM     49  O   UNL     1      14.018   8.835   4.201  1.00  0.00    -0.237 OA
ATOM     50  O   UNL     1      13.937   7.827   6.460  1.00  0.00    -0.237 OA
ATOM     51  O   UNL     1      14.639   6.467   4.529  1.00  0.00    -0.744 OA
ENDBRANCH  47  48
ENDBRANCH  26  40
BRANCH  27  52
ATOM     52  C   UNL     1       9.831   5.822  -4.409  1.00  0.00     0.058 A 
ATOM     53  C   UNL     1      10.633   6.764  -5.082  1.00  0.00     0.135 A 
ATOM     54  C   UNL     1      10.159   4.468  -4.644  1.00  0.00     0.135 A 
ATOM     55  F   UNL     1      10.398   8.077  -4.938  1.00  0.00    -0.206 F 
ATOM     56  C   UNL     1      11.738   6.386  -5.863  1.00  0.00     0.059 A 
ATOM     57  C   UNL     1      11.235   4.070  -5.430  1.00  0.00     0.059 A 
ATOM     58  F   UNL     1       9.502   3.471  -4.036  1.00  0.00    -0.206 F 
ATOM     59  C   UNL     1      12.052   5.033  -5.997  1.00  0.00     0.060 A 
BRANCH  59  60
ATOM     60  S   UNL     1      13.614   4.529  -6.759  1.00  0.00     0.124 S 
ATOM     61  O   UNL     1      13.416   4.916  -8.151  1.00  0.00    -0.237 OA
ATOM     62  O   UNL     1      14.585   5.316  -6.006  1.00  0.00    -0.237 OA
ATOM     63  O   UNL     1      13.661   3.089  -6.513  1.00  0.00    -0.744 OA
ENDBRANCH  59  60
ENDBRANCH  27  52
BRANCH  39  64
ATOM     64  C   UNL     1       5.772   9.442  -1.005  1.00  0.00     0.058 A 
ATOM     65  C   UNL     1       4.986   8.558  -1.771  1.00  0.00     0.135 A 
ATOM     66  C   UNL     1       5.245  10.721  -0.777  1.00  0.00     0.135 A 
ATOM     67  F   UNL     1       5.374   7.286  -1.955  1.00  0.00    -0.206 F 
ATOM     68  C   UNL     1       3.738   8.934  -2.287  1.00  0.00     0.059 A 
ATOM     69  C   UNL     1       3.998  11.108  -1.256  1.00  0.00     0.059 A 
ATOM     70  F   UNL     1       5.928  11.608  -0.035  1.00  0.00    -0.206 F 
ATOM     71  C   UNL     1       3.251  10.215  -2.019  1.00  0.00     0.060 A 
BRANCH  71  72
ATOM     72  S   UNL     1       1.625  10.711  -2.640  1.00  0.00     0.124 S 
ATOM     73  O   UNL     1       1.856  10.778  -4.079  1.00  0.00    -0.237 OA
ATOM     74  O   UNL     1       0.758   9.631  -2.183  1.00  0.00    -0.237 OA
ATOM     75  O   UNL     1       1.392  11.999  -1.990  1.00  0.00    -0.744 OA
ENDBRANCH  71  72
ENDBRANCH  39  64
ENDBRANCH  13  14
ENDBRANCH   6   8
ENDBRANCH   5   6
ENDBRANCH   4   5
ENDBRANCH   3   4
ENDBRANCH   2   3
ENDBRANCH   1   2
BRANCH   1  76
ATOM     76  C   UNL     1       1.134   1.445  -2.268  1.00  0.00     0.188 C 
BRANCH  76  77
ATOM     77  O   UNL     1       1.819   1.873  -3.434  1.00  0.00    -0.376 OA
BRANCH  77  78
ATOM     78  C   UNL     1       3.052   2.558  -3.251  1.00  0.00     0.202 C 
BRANCH  78  79
ATOM     79  C   UNL     1       3.223   3.635  -2.163  1.00  0.00     0.261 C 
BRANCH  79  80
ATOM     80  O   UNL     1       2.395   3.615  -1.004  1.00  0.00    -0.460 OA
BRANCH  80  81
ATOM     81  C   UNL     1       1.806   4.797  -0.740  1.00  0.00     0.338 C 
ATOM     82  O   UNL     1       1.580   5.694  -1.542  1.00  0.00    -0.246 OA
BRANCH  81  83
ATOM     83  C   UNL     1       1.561   4.893   0.714  1.00  0.00     0.068 A 
ATOM     84  C   UNL     1       0.694   3.919   1.262  1.00  0.00     0.030 A 
ATOM     85  C   UNL     1       2.158   5.987   1.459  1.00  0.00    -0.002 A 
ATOM     86  C   UNL     1       0.445   4.173   2.604  1.00  0.00     0.056 A 
ATOM     87  C   UNL     1       1.853   6.202   2.842  1.00  0.00     0.012 A 
ATOM     88  C   UNL     1       3.057   6.901   0.890  1.00  0.00     0.010 A 
ATOM     89  C   UNL     1      -0.421   3.484   3.405  1.00  0.00     0.248 A 
ATOM     90  C   UNL     1       0.967   5.247   3.408  1.00  0.00     0.122 A 
ATOM     91  C   UNL     1       2.353   7.298   3.572  1.00  0.00     0.011 A 
ATOM     92  C   UNL     1       3.520   8.008   1.605  1.00  0.00     0.001 A 
ATOM     93  O   UNL     1      -0.408   4.063   4.637  1.00  0.00    -0.350 OA
ATOM     94  N   UNL     1       0.453   5.143   4.649  1.00  0.00    -0.079 NA
ATOM     95  C   UNL     1       3.167   8.217   2.932  1.00  0.00     0.001 A 
BRANCH  89  96
ATOM     96  C   UNL     1      -1.354   2.369   3.222  1.00  0.00     0.453 C 
ATOM     97  F   UNL     1      -1.360   1.511   4.274  1.00  0.00    -0.163 F 
ATOM     98  F   UNL     1      -2.632   2.807   3.069  1.00  0.00    -0.163 F 
ATOM     99  F   UNL     1      -1.071   1.629   2.117  1.00  0.00    -0.163 F 
ENDBRANCH  89  96
ENDBRANCH  81  83
ENDBRANCH  80  81
ENDBRANCH  79  80
ENDBRANCH  78  79
ENDBRANCH  77  78
ENDBRANCH  76  77
ENDBRANCH   1  76
TORSDOF 21
