REMARK SMILES O=C(OCCOCCOCCOC(=O)c1ccc(-c2c3nc(c(-c4c(F)cc(S(=O)(=O)[O-])cc4F)c4ccc([nH]4)c(-c4c(F)cc(S(=O)(=O)[O-])cc4F)c4nc(c(-c5c(F)cc(S(=O)(=O)[O-])cc5F)c5ccc2[nH]5)C=C4)C=C3)cc1)C1=Cc2cc(Cl)cc(-c3ccccc3)c2O[C@@H]1C(F)(F)F
REMARK SMILES IDX 8 1 7 2 6 3 5 4 4 5 3 6 2 7 1 8 81 9 82 10 97 11 83 12 96 13
REMARK SMILES IDX 84 14 95 15 85 16 88 17 86 18 87 19 98 20 99 21 100 22
REMARK SMILES IDX 101 23 89 24 90 25 94 26 91 27 93 28 92 29 9 30 10 31 11 32
REMARK SMILES IDX 12 33 13 34 14 35 15 36 16 37 80 38 17 39 79 40 18 41 19 42
REMARK SMILES IDX 20 43 73 44 21 45 78 46 72 47 74 48 22 49 77 50 71 51 70 52
REMARK SMILES IDX 23 54 57 55 36 56 56 57 37 58 40 59 55 60 75 61 38 62 39 63
REMARK SMILES IDX 54 65 76 66 41 67 24 68 25 69 34 70 26 71 27 72 33 73 35 74
REMARK SMILES IDX 28 75 29 76 30 77 31 78 32 79 58 80 59 81 68 82 60 83 61 84
REMARK SMILES IDX 67 85 69 86 62 87 63 88 64 89 65 90 66 91 42 92 43 93 52 94
REMARK SMILES IDX 44 95 45 96 51 97 53 98 46 99 47 100 48 101 49 102 50 103
REMARK H PARENT 74 53 40 64
REMARK Flexibility Score: inf
ROOT
ATOM      1  C   UNL     1       1.559  -2.212  -2.602  1.00  0.00     0.188 C 
ENDROOT
BRANCH   1   2
ATOM      2  C   UNL     1       2.107  -0.957  -1.900  1.00  0.00     0.188 C 
BRANCH   2   3
ATOM      3  O   UNL     1       3.565  -0.550  -1.934  1.00  0.00    -0.376 OA
BRANCH   3   4
ATOM      4  C   UNL     1       4.433   0.381  -0.699  1.00  0.00     0.202 C 
BRANCH   4   5
ATOM      5  C   UNL     1       3.901   0.279   1.411  1.00  0.00     0.261 C 
BRANCH   5   6
ATOM      6  O   UNL     1       2.970   1.252   2.154  1.00  0.00    -0.460 OA
BRANCH   6   7
ATOM      7  C   UNL     1       3.057   2.509   1.686  1.00  0.00     0.338 C 
ATOM      8  O   UNL     1       2.333   3.444   1.915  1.00  0.00    -0.246 OA
BRANCH   7   9
ATOM      9  C   UNL     1       3.869   2.175   0.532  1.00  0.00     0.087 C 
ATOM     10  C   UNL     1       5.278   1.974   0.793  1.00  0.00     0.027 C 
ATOM     11  C   UNL     1       2.655   0.841  -0.110  1.00  0.00     0.316 C 
ATOM     12  C   UNL     1       6.059   0.370   0.823  1.00  0.00     0.019 A 
ATOM     13  O   UNL     1       3.441  -0.953   0.085  1.00  0.00    -0.475 OA
ATOM     14  C   UNL     1       7.363   0.334   1.247  1.00  0.00     0.032 A 
ATOM     15  C   UNL     1       5.206  -1.113   0.546  1.00  0.00     0.135 A 
ATOM     16  C   UNL     1       7.917  -0.940   1.358  1.00  0.00     0.042 A 
ATOM     17  C   UNL     1       5.860  -2.331   0.634  1.00  0.00     0.026 A 
ATOM     18  Cl  UNL     1       9.558  -1.054   1.903  1.00  0.00    -0.084 Cl
ATOM     19  C   UNL     1       7.224  -2.169   1.056  1.00  0.00     0.033 A 
BRANCH  11  20
ATOM     20  C   UNL     1       2.269   1.781  -1.490  1.00  0.00     0.430 C 
ATOM     21  F   UNL     1       2.714   1.409  -2.704  1.00  0.00    -0.167 F 
ATOM     22  F   UNL     1       0.928   1.948  -1.575  1.00  0.00    -0.167 F 
ATOM     23  F   UNL     1       2.779   3.045  -1.365  1.00  0.00    -0.167 F 
ENDBRANCH  11  20
BRANCH  17  24
ATOM     24  C   UNL     1       5.466  -3.700   0.319  1.00  0.00    -0.015 A 
ATOM     25  C   UNL     1       4.884  -4.536   1.277  1.00  0.00     0.009 A 
ATOM     26  C   UNL     1       5.928  -4.296  -0.873  1.00  0.00     0.009 A 
ATOM     27  C   UNL     1       4.687  -5.899   1.015  1.00  0.00     0.001 A 
ATOM     28  C   UNL     1       5.706  -5.650  -1.149  1.00  0.00     0.001 A 
ATOM     29  C   UNL     1       5.069  -6.448  -0.208  1.00  0.00     0.000 A 
ENDBRANCH  17  24
ENDBRANCH   7   9
ENDBRANCH   6   7
ENDBRANCH   5   6
ENDBRANCH   4   5
ENDBRANCH   3   4
ENDBRANCH   2   3
ENDBRANCH   1   2
BRANCH   1  30
ATOM     30  O   UNL     1       2.223  -3.433  -2.420  1.00  0.00    -0.376 OA
BRANCH  30  31
ATOM     31  C   UNL     1       3.604  -3.383  -2.712  1.00  0.00     0.202 C 
BRANCH  31  32
ATOM     32  C   UNL     1       4.061  -3.009  -4.128  1.00  0.00     0.261 C 
BRANCH  32  33
ATOM     33  O   UNL     1       3.680  -1.690  -4.558  1.00  0.00    -0.460 OA
BRANCH  33  34
ATOM     34  C   UNL     1       2.717  -1.620  -5.510  1.00  0.00     0.338 C 
ATOM     35  O   UNL     1       2.151  -2.547  -6.061  1.00  0.00    -0.246 OA
BRANCH  34  36
ATOM     36  C   UNL     1       2.312  -0.210  -5.661  1.00  0.00     0.060 A 
ATOM     37  C   UNL     1       1.064   0.219  -5.184  1.00  0.00     0.016 A 
ATOM     38  C   UNL     1       3.163   0.677  -6.317  1.00  0.00     0.016 A 
ATOM     39  C   UNL     1       0.680   1.552  -5.328  1.00  0.00     0.010 A 
ATOM     40  C   UNL     1       2.756   1.998  -6.505  1.00  0.00     0.010 A 
ATOM     41  C   UNL     1       1.513   2.439  -6.019  1.00  0.00    -0.014 A 
BRANCH  41  42
ATOM     42  C   UNL     1       1.016   3.780  -6.398  1.00  0.00     0.031 A 
ATOM     43  C   UNL     1       0.331   3.927  -7.726  1.00  0.00     0.074 A 
ATOM     44  C   UNL     1       1.203   4.843  -5.595  1.00  0.00     0.049 A 
ATOM     45  N   UNL     1      -0.078   5.011  -8.328  1.00  0.00    -0.248 NA
ATOM     46  C   UNL     1       0.085   2.686  -8.481  1.00  0.00     0.031 C 
ATOM     47  C   UNL     1       1.824   4.800  -4.273  1.00  0.00     0.029 A 
ATOM     48  N   UNL     1       0.908   6.170  -5.785  1.00  0.00    -0.354 N 
ATOM     49  C   UNL     1      -0.610   4.587  -9.539  1.00  0.00     0.074 A 
ATOM     50  C   UNL     1      -0.470   3.149  -9.591  1.00  0.00     0.031 C 
ATOM     51  C   UNL     1       1.886   6.049  -3.779  1.00  0.00     0.029 A 
ATOM     52  C   UNL     1       1.351   6.984  -4.767  1.00  0.00     0.049 A 
ATOM     53  H   UNL     1       0.425   6.508  -6.573  1.00  0.00     0.167 HD
ATOM     54  C   UNL     1      -1.155   5.339 -10.522  1.00  0.00     0.037 A 
ATOM     55  C   UNL     1       1.362   8.330  -4.671  1.00  0.00     0.037 A 
ATOM     56  C   UNL     1      -1.278   6.771 -10.460  1.00  0.00     0.049 A 
ATOM     57  C   UNL     1       0.804   9.146  -5.815  1.00  0.00     0.074 A 
ATOM     58  C   UNL     1      -1.845   7.623 -11.390  1.00  0.00     0.029 A 
ATOM     59  N   UNL     1      -0.809   7.563  -9.422  1.00  0.00    -0.354 N 
ATOM     60  N   UNL     1       0.255   8.733  -6.935  1.00  0.00    -0.248 NA
ATOM     61  C   UNL     1       0.876  10.609  -5.691  1.00  0.00     0.031 C 
ATOM     62  C   UNL     1      -1.654   8.935 -10.950  1.00  0.00     0.029 A 
ATOM     63  C   UNL     1      -1.035   8.898  -9.711  1.00  0.00     0.049 A 
ATOM     64  H   UNL     1      -0.380   7.226  -8.603  1.00  0.00     0.167 HD
ATOM     65  C   UNL     1      -0.098   9.883  -7.635  1.00  0.00     0.074 A 
ATOM     66  C   UNL     1       0.271  11.007  -6.801  1.00  0.00     0.031 C 
ATOM     67  C   UNL     1      -0.665  10.003  -8.861  1.00  0.00     0.037 A 
BRANCH  54  68
ATOM     68  C   UNL     1      -1.626   4.643 -11.767  1.00  0.00     0.058 A 
ATOM     69  C   UNL     1      -2.782   3.848 -11.783  1.00  0.00     0.135 A 
ATOM     70  C   UNL     1      -0.953   4.846 -12.983  1.00  0.00     0.135 A 
ATOM     71  F   UNL     1      -3.448   3.599 -10.644  1.00  0.00    -0.206 F 
ATOM     72  C   UNL     1      -3.257   3.284 -12.962  1.00  0.00     0.059 A 
ATOM     73  C   UNL     1      -1.426   4.316 -14.178  1.00  0.00     0.059 A 
ATOM     74  F   UNL     1       0.167   5.586 -13.020  1.00  0.00    -0.206 F 
ATOM     75  C   UNL     1      -2.580   3.536 -14.157  1.00  0.00     0.060 A 
BRANCH  75  76
ATOM     76  S   UNL     1      -3.253   2.853 -15.686  1.00  0.00     0.124 S 
ATOM     77  O   UNL     1      -3.026   1.424 -15.495  1.00  0.00    -0.237 OA
ATOM     78  O   UNL     1      -4.645   3.287 -15.630  1.00  0.00    -0.237 OA
ATOM     79  O   UNL     1      -2.444   3.482 -16.726  1.00  0.00    -0.744 OA
ENDBRANCH  75  76
ENDBRANCH  54  68
BRANCH  55  80
ATOM     80  C   UNL     1       1.969   9.007  -3.488  1.00  0.00     0.058 A 
ATOM     81  C   UNL     1       1.202   9.814  -2.633  1.00  0.00     0.135 A 
ATOM     82  C   UNL     1       3.344   8.906  -3.219  1.00  0.00     0.135 A 
ATOM     83  F   UNL     1      -0.114   9.961  -2.852  1.00  0.00    -0.206 F 
ATOM     84  C   UNL     1       1.777  10.522  -1.580  1.00  0.00     0.059 A 
ATOM     85  C   UNL     1       3.936   9.573  -2.150  1.00  0.00     0.059 A 
ATOM     86  F   UNL     1       4.130   8.147  -3.998  1.00  0.00    -0.206 F 
ATOM     87  C   UNL     1       3.147  10.395  -1.348  1.00  0.00     0.060 A 
BRANCH  87  88
ATOM     88  S   UNL     1       3.886  11.308   0.024  1.00  0.00     0.124 S 
ATOM     89  O   UNL     1       3.829  12.679  -0.470  1.00  0.00    -0.237 OA
ATOM     90  O   UNL     1       2.985  10.989   1.127  1.00  0.00    -0.237 OA
ATOM     91  O   UNL     1       5.224  10.732   0.131  1.00  0.00    -0.744 OA
ENDBRANCH  87  88
ENDBRANCH  55  80
BRANCH  67  92
ATOM     92  C   UNL     1      -0.944  11.393  -9.370  1.00  0.00     0.058 A 
ATOM     93  C   UNL     1       0.091  12.256  -9.762  1.00  0.00     0.135 A 
ATOM     94  C   UNL     1      -2.266  11.840  -9.535  1.00  0.00     0.135 A 
ATOM     95  F   UNL     1       1.373  11.883  -9.621  1.00  0.00    -0.206 F 
ATOM     96  C   UNL     1      -0.173  13.521 -10.277  1.00  0.00     0.059 A 
ATOM     97  C   UNL     1      -2.554  13.086 -10.082  1.00  0.00     0.059 A 
ATOM     98  F   UNL     1      -3.295  11.050  -9.189  1.00  0.00    -0.206 F 
ATOM     99  C   UNL     1      -1.500  13.924 -10.441  1.00  0.00     0.060 A 
BRANCH  99 100
ATOM    100  S   UNL     1      -1.825  15.549 -11.154  1.00  0.00     0.124 S 
ATOM    101  O   UNL     1      -1.386  16.436 -10.082  1.00  0.00    -0.237 OA
ATOM    102  O   UNL     1      -0.987  15.536 -12.349  1.00  0.00    -0.237 OA
ATOM    103  O   UNL     1      -3.263  15.532 -11.404  1.00  0.00    -0.744 OA
ENDBRANCH  99 100
ENDBRANCH  67  92
ENDBRANCH  41  42
ENDBRANCH  34  36
ENDBRANCH  33  34
ENDBRANCH  32  33
ENDBRANCH  31  32
ENDBRANCH  30  31
ENDBRANCH   1  30
TORSDOF 22
