REMARK SMILES O=C(OCCOCCOCCOC(=O)[C@H]1CCO[C@H]1Cc1ccccc1)c1ccc(-c2c3nc(c(-c4c(F)cc(S(=O)(=O)[O-])cc4F)c4ccc([nH]4)c(-c4c(F)cc(S(=O)(=O)[O-])cc4F)c4nc(c(-c5c(F)cc(S(=O)(=O)[O-])cc5F)c5ccc2[nH]5)C=C4)C=C3)cc1
REMARK SMILES IDX 7 1 6 2 5 3 4 4 3 5 2 6 1 7 27 8 28 9 92 10 29 11 91 12
REMARK SMILES IDX 30 13 31 14 32 15 85 16 33 17 90 18 84 19 86 20 34 21 89 22
REMARK SMILES IDX 83 23 82 24 35 26 69 27 48 28 68 29 49 30 52 31 67 32 87 33
REMARK SMILES IDX 50 34 51 35 66 37 88 38 53 39 36 40 37 41 46 42 38 43 39 44
REMARK SMILES IDX 45 45 47 46 40 47 41 48 42 49 43 50 44 51 70 52 71 53 80 54
REMARK SMILES IDX 72 55 73 56 79 57 81 58 74 59 75 60 76 61 77 62 78 63 54 64
REMARK SMILES IDX 55 65 64 66 56 67 57 68 63 69 65 70 58 71 59 72 60 73 61 74
REMARK SMILES IDX 62 75 8 76 9 77 10 78 11 79 12 80 13 81 14 82 15 83 16 84
REMARK SMILES IDX 19 85 17 86 18 87 20 88 21 89 22 90 26 91 23 92 25 93 24 94
REMARK H PARENT 86 25 52 36
REMARK Flexibility Score: inf
ROOT
ATOM      1  C   UNL     1       4.469   2.386   1.197  1.00  0.00     0.188 C 
ENDROOT
BRANCH   1   2
ATOM      2  O   UNL     1       4.597   0.963   1.193  1.00  0.00    -0.376 OA
BRANCH   2   3
ATOM      3  C   UNL     1       5.585   0.461   2.077  1.00  0.00     0.202 C 
BRANCH   3   4
ATOM      4  C   UNL     1       7.019   0.543   1.540  1.00  0.00     0.261 C 
BRANCH   4   5
ATOM      5  O   UNL     1       7.381   1.883   1.156  1.00  0.00    -0.460 OA
BRANCH   5   6
ATOM      6  C   UNL     1       7.587   2.388  -0.087  1.00  0.00     0.338 C 
ATOM      7  O   UNL     1       8.183   3.461  -0.182  1.00  0.00    -0.246 OA
BRANCH   6   8
ATOM      8  C   UNL     1       7.054   1.774  -1.352  1.00  0.00     0.060 A 
ATOM      9  C   UNL     1       6.115   0.743  -1.418  1.00  0.00     0.016 A 
ATOM     10  C   UNL     1       7.492   2.328  -2.572  1.00  0.00     0.016 A 
ATOM     11  C   UNL     1       5.673   0.228  -2.630  1.00  0.00     0.010 A 
ATOM     12  C   UNL     1       7.060   1.815  -3.802  1.00  0.00     0.010 A 
ATOM     13  C   UNL     1       6.183   0.727  -3.825  1.00  0.00    -0.014 A 
BRANCH  13  14
ATOM     14  C   UNL     1       6.003  -0.120  -5.019  1.00  0.00     0.031 A 
ATOM     15  C   UNL     1       7.095  -1.111  -5.314  1.00  0.00     0.074 A 
ATOM     16  C   UNL     1       4.829  -0.142  -5.672  1.00  0.00     0.049 A 
ATOM     17  N   UNL     1       7.154  -2.039  -6.228  1.00  0.00    -0.248 NA
ATOM     18  C   UNL     1       8.272  -1.068  -4.426  1.00  0.00     0.031 C 
ATOM     19  C   UNL     1       3.666   0.684  -5.342  1.00  0.00     0.029 A 
ATOM     20  N   UNL     1       4.404  -0.917  -6.717  1.00  0.00    -0.354 N 
ATOM     21  C   UNL     1       8.375  -2.676  -6.035  1.00  0.00     0.074 A 
ATOM     22  C   UNL     1       9.030  -2.030  -4.923  1.00  0.00     0.031 C 
ATOM     23  C   UNL     1       2.651   0.356  -6.160  1.00  0.00     0.029 A 
ATOM     24  C   UNL     1       3.108  -0.665  -7.099  1.00  0.00     0.049 A 
ATOM     25  H   UNL     1       4.973  -1.591  -7.154  1.00  0.00     0.167 HD
ATOM     26  C   UNL     1       8.904  -3.705  -6.735  1.00  0.00     0.037 A 
ATOM     27  C   UNL     1       2.391  -1.198  -8.108  1.00  0.00     0.037 A 
ATOM     28  C   UNL     1       8.234  -4.309  -7.853  1.00  0.00     0.049 A 
ATOM     29  C   UNL     1       3.048  -2.261  -8.953  1.00  0.00     0.074 A 
ATOM     30  C   UNL     1       8.684  -5.305  -8.698  1.00  0.00     0.029 A 
ATOM     31  N   UNL     1       6.962  -3.953  -8.287  1.00  0.00    -0.354 N 
ATOM     32  N   UNL     1       4.231  -2.816  -8.807  1.00  0.00    -0.248 NA
ATOM     33  C   UNL     1       2.284  -2.767 -10.099  1.00  0.00     0.031 C 
ATOM     34  C   UNL     1       7.708  -5.505  -9.681  1.00  0.00     0.029 A 
ATOM     35  C   UNL     1       6.620  -4.689  -9.405  1.00  0.00     0.049 A 
ATOM     36  H   UNL     1       6.390  -3.275  -7.860  1.00  0.00     0.167 HD
ATOM     37  C   UNL     1       4.339  -3.761  -9.821  1.00  0.00     0.074 A 
ATOM     38  C   UNL     1       3.097  -3.703 -10.569  1.00  0.00     0.031 C 
ATOM     39  C   UNL     1       5.363  -4.605 -10.110  1.00  0.00     0.037 A 
BRANCH  26  40
ATOM     40  C   UNL     1      10.297  -4.138  -6.367  1.00  0.00     0.058 A 
ATOM     41  C   UNL     1      10.590  -4.793  -5.158  1.00  0.00     0.135 A 
ATOM     42  C   UNL     1      11.371  -3.825  -7.215  1.00  0.00     0.135 A 
ATOM     43  F   UNL     1       9.607  -5.084  -4.291  1.00  0.00    -0.206 F 
ATOM     44  C   UNL     1      11.901  -5.079  -4.785  1.00  0.00     0.059 A 
ATOM     45  C   UNL     1      12.686  -4.129  -6.876  1.00  0.00     0.059 A 
ATOM     46  F   UNL     1      11.152  -3.187  -8.376  1.00  0.00    -0.206 F 
ATOM     47  C   UNL     1      12.943  -4.736  -5.649  1.00  0.00     0.060 A 
BRANCH  47  48
ATOM     48  S   UNL     1      14.641  -5.072  -5.135  1.00  0.00     0.124 S 
ATOM     49  O   UNL     1      14.833  -4.071  -4.090  1.00  0.00    -0.237 OA
ATOM     50  O   UNL     1      14.559  -6.456  -4.678  1.00  0.00    -0.237 OA
ATOM     51  O   UNL     1      15.414  -4.861  -6.354  1.00  0.00    -0.744 OA
ENDBRANCH  47  48
ENDBRANCH  26  40
BRANCH  27  52
ATOM     52  C   UNL     1       1.006  -0.724  -8.386  1.00  0.00     0.058 A 
ATOM     53  C   UNL     1      -0.104  -1.572  -8.248  1.00  0.00     0.135 A 
ATOM     54  C   UNL     1       0.761   0.597  -8.798  1.00  0.00     0.135 A 
ATOM     55  F   UNL     1       0.069  -2.846  -7.867  1.00  0.00    -0.206 F 
ATOM     56  C   UNL     1      -1.399  -1.133  -8.515  1.00  0.00     0.059 A 
ATOM     57  C   UNL     1      -0.525   1.067  -9.044  1.00  0.00     0.059 A 
ATOM     58  F   UNL     1       1.783   1.456  -8.942  1.00  0.00    -0.206 F 
ATOM     59  C   UNL     1      -1.600   0.192  -8.908  1.00  0.00     0.060 A 
BRANCH  59  60
ATOM     60  S   UNL     1      -3.287   0.765  -9.204  1.00  0.00     0.124 S 
ATOM     61  O   UNL     1      -3.630   0.053 -10.430  1.00  0.00    -0.237 OA
ATOM     62  O   UNL     1      -3.974   0.325  -7.994  1.00  0.00    -0.237 OA
ATOM     63  O   UNL     1      -3.132   2.211  -9.337  1.00  0.00    -0.744 OA
ENDBRANCH  59  60
ENDBRANCH  27  52
BRANCH  39  64
ATOM     64  C   UNL     1       5.157  -5.571 -11.242  1.00  0.00     0.058 A 
ATOM     65  C   UNL     1       5.150  -5.157 -12.582  1.00  0.00     0.135 A 
ATOM     66  C   UNL     1       5.030  -6.944 -10.973  1.00  0.00     0.135 A 
ATOM     67  F   UNL     1       5.266  -3.856 -12.889  1.00  0.00    -0.206 F 
ATOM     68  C   UNL     1       4.995  -6.070 -13.618  1.00  0.00     0.059 A 
ATOM     69  C   UNL     1       4.909  -7.877 -11.994  1.00  0.00     0.059 A 
ATOM     70  F   UNL     1       5.047  -7.390  -9.707  1.00  0.00    -0.206 F 
ATOM     71  C   UNL     1       4.878  -7.429 -13.313  1.00  0.00     0.060 A 
BRANCH  71  72
ATOM     72  S   UNL     1       4.707  -8.607 -14.668  1.00  0.00     0.124 S 
ATOM     73  O   UNL     1       3.334  -8.364 -15.097  1.00  0.00    -0.237 OA
ATOM     74  O   UNL     1       5.748  -8.170 -15.594  1.00  0.00    -0.237 OA
ATOM     75  O   UNL     1       4.947  -9.897 -14.028  1.00  0.00    -0.744 OA
ENDBRANCH  71  72
ENDBRANCH  39  64
ENDBRANCH  13  14
ENDBRANCH   6   8
ENDBRANCH   5   6
ENDBRANCH   4   5
ENDBRANCH   3   4
ENDBRANCH   2   3
ENDBRANCH   1   2
BRANCH   1  76
ATOM     76  C   UNL     1       3.127   2.681   0.583  1.00  0.00     0.188 C 
BRANCH  76  77
ATOM     77  O   UNL     1       2.088   2.374   1.511  1.00  0.00    -0.376 OA
BRANCH  77  78
ATOM     78  C   UNL     1       1.295   1.261   1.105  1.00  0.00     0.202 C 
BRANCH  78  79
ATOM     79  C   UNL     1       0.228   1.683   0.088  1.00  0.00     0.261 C 
BRANCH  79  80
ATOM     80  O   UNL     1       0.876   2.187  -1.095  1.00  0.00    -0.463 OA
BRANCH  80  81
ATOM     81  C   UNL     1       0.628   3.484  -1.441  1.00  0.00     0.311 C 
ATOM     82  O   UNL     1      -0.338   4.131  -1.087  1.00  0.00    -0.252 OA
BRANCH  81  83
ATOM     83  C   UNL     1       1.723   3.977  -2.364  1.00  0.00     0.131 C 
ATOM     84  C   UNL     1       1.166   4.300  -3.731  1.00  0.00     0.046 C 
ATOM     85  C   UNL     1       2.521   5.232  -1.974  1.00  0.00     0.136 C 
ATOM     86  C   UNL     1       2.245   5.172  -4.317  1.00  0.00     0.161 C 
ATOM     87  O   UNL     1       2.810   5.912  -3.230  1.00  0.00    -0.377 OA
BRANCH  85  88
ATOM     88  C   UNL     1       1.927   6.308  -1.033  1.00  0.00     0.068 C 
BRANCH  88  89
ATOM     89  C   UNL     1       2.078   6.064   0.455  1.00  0.00    -0.045 A 
ATOM     90  C   UNL     1       0.976   5.662   1.221  1.00  0.00     0.004 A 
ATOM     91  C   UNL     1       3.324   6.185   1.095  1.00  0.00     0.004 A 
ATOM     92  C   UNL     1       1.126   5.292   2.558  1.00  0.00     0.000 A 
ATOM     93  C   UNL     1       3.473   5.823   2.439  1.00  0.00     0.000 A 
ATOM     94  C   UNL     1       2.378   5.354   3.163  1.00  0.00     0.000 A 
ENDBRANCH  88  89
ENDBRANCH  85  88
ENDBRANCH  81  83
ENDBRANCH  80  81
ENDBRANCH  79  80
ENDBRANCH  78  79
ENDBRANCH  77  78
ENDBRANCH  76  77
ENDBRANCH   1  76
TORSDOF 22
