REMARK SMILES COC1=CC2=NC(C(=O)OCCOCCOCCOC(=O)c3ccc(-c4c5nc(c(-c6c(F)cc(S(=O)(=O)[O-])cc6F)c6ccc([nH]6)c(-c6c(F)cc(S(=O)(=O)[O-])cc6F)c6nc(c(-c7c(F)cc(S(=O)(=O)[O-])cc7F)c7ccc4[nH]7)C=C6)C=C5)cc3)=C[C@@H]2C(OC)=C1
REMARK SMILES IDX 15 1 14 2 13 3 12 4 11 5 10 6 8 7 9 8 7 9 3 10 4 11 93 12
REMARK SMILES IDX 5 13 90 14 6 15 89 16 88 17 2 18 1 19 91 20 92 21 16 22
REMARK SMILES IDX 17 23 18 24 19 25 20 26 21 27 22 28 23 29 87 30 24 31 86 32
REMARK SMILES IDX 25 33 26 34 27 35 80 36 28 37 85 38 79 39 81 40 29 41 84 42
REMARK SMILES IDX 78 43 77 44 30 46 64 47 43 48 63 49 44 50 47 51 62 52 82 53
REMARK SMILES IDX 45 54 46 55 61 57 83 58 48 59 31 60 32 61 41 62 33 63 34 64
REMARK SMILES IDX 40 65 42 66 35 67 36 68 37 69 38 70 39 71 65 72 66 73 75 74
REMARK SMILES IDX 67 75 68 76 74 77 76 78 69 79 70 80 71 81 72 82 73 83 49 84
REMARK SMILES IDX 50 85 59 86 51 87 52 88 58 89 60 90 53 91 54 92 55 93 56 94
REMARK SMILES IDX 57 95
REMARK H PARENT 81 45 47 56
REMARK Flexibility Score: inf
ROOT
ATOM      1  C   UNL     1       1.290  -7.263  -3.958  1.00  0.00     0.188 C 
ENDROOT
BRANCH   1   2
ATOM      2  C   UNL     1      -0.194  -7.642  -4.168  1.00  0.00     0.188 C 
BRANCH   2   3
ATOM      3  O   UNL     1      -0.558  -8.591  -5.164  1.00  0.00    -0.376 OA
BRANCH   3   4
ATOM      4  C   UNL     1       0.036  -8.518  -6.454  1.00  0.00     0.202 C 
BRANCH   4   5
ATOM      5  C   UNL     1       0.025  -7.184  -7.226  1.00  0.00     0.261 C 
BRANCH   5   6
ATOM      6  O   UNL     1       0.516  -6.047  -6.494  1.00  0.00    -0.459 OA
BRANCH   6   7
ATOM      7  C   UNL     1      -0.382  -5.056  -6.259  1.00  0.00     0.356 C 
ATOM      8  O   UNL     1      -1.506  -4.979  -6.740  1.00  0.00    -0.244 OA
BRANCH   7   9
ATOM      9  C   UNL     1       0.130  -4.102  -5.226  1.00  0.00     0.145 C 
ATOM     10  C   UNL     1       0.770  -2.031  -1.379  1.00  0.00     0.124 C 
ATOM     11  C   UNL     1      -0.269  -2.397  -2.142  1.00  0.00     0.071 C 
ATOM     12  C   UNL     1       2.153  -2.249  -1.781  1.00  0.00     0.089 C 
ATOM     13  C   UNL     1       0.072  -2.913  -3.476  1.00  0.00     0.060 C 
ATOM     14  C   UNL     1       2.488  -2.515  -3.063  1.00  0.00     0.112 C 
ATOM     15  N   UNL     1      -0.684  -3.691  -4.186  1.00  0.00    -0.245 NA
ATOM     16  C   UNL     1       1.404  -2.533  -4.104  1.00  0.00     0.129 C 
ATOM     17  C   UNL     1       1.369  -3.583  -5.169  1.00  0.00     0.027 C 
BRANCH  10  18
ATOM     18  O   UNL     1       0.569  -1.569  -0.094  1.00  0.00    -0.497 OA
ATOM     19  C   UNL     1       0.910  -0.188   0.027  1.00  0.00     0.278 C 
ENDBRANCH  10  18
BRANCH  14  20
ATOM     20  O   UNL     1       3.767  -2.652  -3.560  1.00  0.00    -0.500 OA
ATOM     21  C   UNL     1       4.846  -2.327  -2.687  1.00  0.00     0.278 C 
ENDBRANCH  14  20
ENDBRANCH   7   9
ENDBRANCH   6   7
ENDBRANCH   5   6
ENDBRANCH   4   5
ENDBRANCH   3   4
ENDBRANCH   2   3
ENDBRANCH   1   2
BRANCH   1  22
ATOM     22  O   UNL     1       2.165  -7.699  -4.988  1.00  0.00    -0.376 OA
BRANCH  22  23
ATOM     23  C   UNL     1       3.184  -8.623  -4.630  1.00  0.00     0.202 C 
BRANCH  23  24
ATOM     24  C   UNL     1       2.743 -10.013  -4.172  1.00  0.00     0.261 C 
BRANCH  24  25
ATOM     25  O   UNL     1       1.677 -10.032  -3.234  1.00  0.00    -0.460 OA
BRANCH  25  26
ATOM     26  C   UNL     1       1.993  -9.645  -1.981  1.00  0.00     0.338 C 
ATOM     27  O   UNL     1       3.005  -9.067  -1.625  1.00  0.00    -0.246 OA
BRANCH  26  28
ATOM     28  C   UNL     1       0.924 -10.094  -1.083  1.00  0.00     0.060 A 
ATOM     29  C   UNL     1       0.861  -9.530   0.195  1.00  0.00     0.016 A 
ATOM     30  C   UNL     1       0.172 -11.226  -1.432  1.00  0.00     0.016 A 
ATOM     31  C   UNL     1       0.187 -10.215   1.185  1.00  0.00     0.010 A 
ATOM     32  C   UNL     1      -0.486 -11.915  -0.441  1.00  0.00     0.010 A 
ATOM     33  C   UNL     1      -0.394 -11.445   0.870  1.00  0.00    -0.014 A 
BRANCH  33  34
ATOM     34  C   UNL     1      -0.807 -12.309   1.961  1.00  0.00     0.031 A 
ATOM     35  C   UNL     1      -2.155 -12.064   2.518  1.00  0.00     0.074 A 
ATOM     36  C   UNL     1      -0.046 -13.373   2.288  1.00  0.00     0.049 A 
ATOM     37  N   UNL     1      -2.493 -11.898   3.755  1.00  0.00    -0.248 NA
ATOM     38  C   UNL     1      -3.268 -11.917   1.564  1.00  0.00     0.031 C 
ATOM     39  C   UNL     1       1.145 -13.856   1.576  1.00  0.00     0.029 A 
ATOM     40  N   UNL     1      -0.258 -14.338   3.225  1.00  0.00    -0.354 N 
ATOM     41  C   UNL     1      -3.882 -11.836   3.755  1.00  0.00     0.074 A 
ATOM     42  C   UNL     1      -4.296 -11.708   2.383  1.00  0.00     0.031 C 
ATOM     43  C   UNL     1       1.396 -15.127   1.951  1.00  0.00     0.029 A 
ATOM     44  C   UNL     1       0.450 -15.510   2.985  1.00  0.00     0.049 A 
ATOM     45  H   UNL     1      -0.855 -14.218   3.998  1.00  0.00     0.167 HD
ATOM     46  C   UNL     1      -4.618 -12.134   4.858  1.00  0.00     0.037 A 
ATOM     47  C   UNL     1       0.185 -16.733   3.505  1.00  0.00     0.037 A 
ATOM     48  C   UNL     1      -3.851 -12.045   6.070  1.00  0.00     0.049 A 
ATOM     49  C   UNL     1      -0.647 -16.528   4.721  1.00  0.00     0.074 A 
ATOM     50  C   UNL     1      -3.124 -11.042   6.680  1.00  0.00     0.029 A 
ATOM     51  N   UNL     1      -3.479 -13.210   6.694  1.00  0.00    -0.354 N 
ATOM     52  N   UNL     1      -0.231 -15.962   5.821  1.00  0.00    -0.248 NA
ATOM     53  C   UNL     1      -2.093 -16.624   4.585  1.00  0.00     0.031 C 
ATOM     54  C   UNL     1      -2.033 -11.699   7.316  1.00  0.00     0.029 A 
ATOM     55  C   UNL     1      -2.168 -13.067   7.076  1.00  0.00     0.049 A 
ATOM     56  H   UNL     1      -4.047 -14.001   6.840  1.00  0.00     0.167 HD
ATOM     57  C   UNL     1      -1.333 -15.273   6.307  1.00  0.00     0.074 A 
ATOM     58  C   UNL     1      -2.471 -15.819   5.579  1.00  0.00     0.031 C 
ATOM     59  C   UNL     1      -1.190 -14.134   7.047  1.00  0.00     0.037 A 
BRANCH  46  60
ATOM     60  C   UNL     1      -5.949 -12.830   4.775  1.00  0.00     0.058 A 
ATOM     61  C   UNL     1      -6.819 -12.826   5.880  1.00  0.00     0.135 A 
ATOM     62  C   UNL     1      -6.280 -13.724   3.730  1.00  0.00     0.135 A 
ATOM     63  F   UNL     1      -6.574 -12.035   6.937  1.00  0.00    -0.206 F 
ATOM     64  C   UNL     1      -7.916 -13.684   5.961  1.00  0.00     0.059 A 
ATOM     65  C   UNL     1      -7.399 -14.544   3.764  1.00  0.00     0.059 A 
ATOM     66  F   UNL     1      -5.474 -13.911   2.676  1.00  0.00    -0.206 F 
ATOM     67  C   UNL     1      -8.187 -14.550   4.903  1.00  0.00     0.060 A 
BRANCH  67  68
ATOM     68  S   UNL     1      -9.526 -15.745   5.050  1.00  0.00     0.124 S 
ATOM     69  O   UNL     1      -8.931 -16.730   5.945  1.00  0.00    -0.237 OA
ATOM     70  O   UNL     1     -10.602 -14.935   5.613  1.00  0.00    -0.237 OA
ATOM     71  O   UNL     1      -9.735 -16.182   3.673  1.00  0.00    -0.744 OA
ENDBRANCH  67  68
ENDBRANCH  46  60
BRANCH  47  72
ATOM     72  C   UNL     1       0.302 -18.052   2.822  1.00  0.00     0.058 A 
ATOM     73  C   UNL     1       0.142 -19.250   3.542  1.00  0.00     0.135 A 
ATOM     74  C   UNL     1       0.308 -18.177   1.415  1.00  0.00     0.135 A 
ATOM     75  F   UNL     1       0.101 -19.231   4.883  1.00  0.00    -0.206 F 
ATOM     76  C   UNL     1      -0.055 -20.483   2.909  1.00  0.00     0.059 A 
ATOM     77  C   UNL     1       0.142 -19.397   0.764  1.00  0.00     0.059 A 
ATOM     78  F   UNL     1       0.378 -17.105   0.615  1.00  0.00    -0.206 F 
ATOM     79  C   UNL     1      -0.071 -20.542   1.517  1.00  0.00     0.060 A 
BRANCH  79  80
ATOM     80  S   UNL     1      -0.512 -22.088   0.692  1.00  0.00     0.124 S 
ATOM     81  O   UNL     1       0.674 -22.903   0.926  1.00  0.00    -0.237 OA
ATOM     82  O   UNL     1      -1.716 -22.489   1.412  1.00  0.00    -0.237 OA
ATOM     83  O   UNL     1      -0.728 -21.682  -0.695  1.00  0.00    -0.744 OA
ENDBRANCH  79  80
ENDBRANCH  47  72
BRANCH  59  84
ATOM     84  C   UNL     1       0.163 -13.829   7.638  1.00  0.00     0.058 A 
ATOM     85  C   UNL     1       1.315 -13.569   6.876  1.00  0.00     0.135 A 
ATOM     86  C   UNL     1       0.258 -13.641   9.026  1.00  0.00     0.135 A 
ATOM     87  F   UNL     1       1.282 -13.616   5.537  1.00  0.00    -0.206 F 
ATOM     88  C   UNL     1       2.519 -13.186   7.471  1.00  0.00     0.059 A 
ATOM     89  C   UNL     1       1.440 -13.227   9.637  1.00  0.00     0.059 A 
ATOM     90  F   UNL     1      -0.825 -13.808   9.804  1.00  0.00    -0.206 F 
ATOM     91  C   UNL     1       2.571 -13.015   8.853  1.00  0.00     0.060 A 
BRANCH  91  92
ATOM     92  S   UNL     1       4.104 -12.426   9.607  1.00  0.00     0.124 S 
ATOM     93  O   UNL     1       4.940 -13.621   9.576  1.00  0.00    -0.237 OA
ATOM     94  O   UNL     1       4.508 -11.345   8.712  1.00  0.00    -0.237 OA
ATOM     95  O   UNL     1       3.683 -11.992  10.938  1.00  0.00    -0.744 OA
ENDBRANCH  91  92
ENDBRANCH  59  84
ENDBRANCH  33  34
ENDBRANCH  26  28
ENDBRANCH  25  26
ENDBRANCH  24  25
ENDBRANCH  23  24
ENDBRANCH  22  23
ENDBRANCH   1  22
TORSDOF 22
