REMARK SMILES O=C(OCCOCCOCCOC(=O)[C@H]1C[C@@H](O)CN1C(=O)c1cc(F)c(F)cc1Cl)c1ccc(-c2c3nc(c(-c4c(F)cc(S(=O)(=O)[O-])cc4F)c4ccc([nH]4)c(-c4c(F)cc(S(=O)(=O)[O-])cc4F)c4nc(c(-c5c(F)cc(S(=O)(=O)[O-])cc5F)c5ccc2[nH]5)C=C4)C=C3)cc1
REMARK SMILES IDX 7 1 6 2 5 3 4 4 3 5 2 6 1 7 32 8 33 9 97 10 34 11 96 12
REMARK SMILES IDX 35 13 36 14 37 15 90 16 38 17 95 18 89 19 91 20 39 21 94 22
REMARK SMILES IDX 88 23 87 24 40 26 74 27 53 28 73 29 54 30 57 31 72 32 92 33
REMARK SMILES IDX 55 34 56 35 71 37 93 38 58 39 41 40 42 41 51 42 43 43 44 44
REMARK SMILES IDX 50 45 52 46 45 47 46 48 47 49 48 50 49 51 75 52 76 53 85 54
REMARK SMILES IDX 77 55 78 56 84 57 86 58 79 59 80 60 81 61 82 62 83 63 59 64
REMARK SMILES IDX 60 65 69 66 61 67 62 68 68 69 70 70 63 71 64 72 65 73 66 74
REMARK SMILES IDX 67 75 8 76 9 77 10 78 11 79 12 80 13 81 14 82 15 83 16 84
REMARK SMILES IDX 20 85 17 86 19 87 21 88 22 89 23 90 24 91 30 92 25 93 29 94
REMARK SMILES IDX 31 95 26 96 27 97 28 98 18 99
REMARK H PARENT 91 25 57 36 18 100
REMARK Flexibility Score: inf
ROOT
ATOM      1  C   UNL     1       2.732  -0.140   1.706  1.00  0.00     0.188 C 
ENDROOT
BRANCH   1   2
ATOM      2  O   UNL     1       3.947  -0.698   1.177  1.00  0.00    -0.376 OA
BRANCH   2   3
ATOM      3  C   UNL     1       4.995   0.248   1.004  1.00  0.00     0.202 C 
BRANCH   3   4
ATOM      4  C   UNL     1       4.790   1.343  -0.049  1.00  0.00     0.261 C 
BRANCH   4   5
ATOM      5  O   UNL     1       3.473   1.456  -0.607  1.00  0.00    -0.460 OA
BRANCH   5   6
ATOM      6  C   UNL     1       2.867   0.830  -1.642  1.00  0.00     0.338 C 
ATOM      7  O   UNL     1       1.829   1.341  -2.070  1.00  0.00    -0.246 OA
BRANCH   6   8
ATOM      8  C   UNL     1       3.298  -0.474  -2.252  1.00  0.00     0.060 A 
ATOM      9  C   UNL     1       2.357  -1.112  -3.094  1.00  0.00     0.016 A 
ATOM     10  C   UNL     1       4.528  -1.104  -2.084  1.00  0.00     0.016 A 
ATOM     11  C   UNL     1       2.623  -2.339  -3.731  1.00  0.00     0.010 A 
ATOM     12  C   UNL     1       4.789  -2.346  -2.696  1.00  0.00     0.010 A 
ATOM     13  C   UNL     1       3.841  -2.985  -3.526  1.00  0.00    -0.014 A 
BRANCH  13  14
ATOM     14  C   UNL     1       4.287  -4.125  -4.379  1.00  0.00     0.031 A 
ATOM     15  C   UNL     1       3.980  -5.582  -4.123  1.00  0.00     0.074 A 
ATOM     16  C   UNL     1       5.068  -3.776  -5.415  1.00  0.00     0.049 A 
ATOM     17  N   UNL     1       4.699  -6.648  -4.381  1.00  0.00    -0.248 NA
ATOM     18  C   UNL     1       2.720  -5.893  -3.444  1.00  0.00     0.031 C 
ATOM     19  C   UNL     1       5.309  -2.396  -5.854  1.00  0.00     0.029 A 
ATOM     20  N   UNL     1       5.799  -4.536  -6.277  1.00  0.00    -0.354 N 
ATOM     21  C   UNL     1       4.048  -7.736  -3.780  1.00  0.00     0.074 A 
ATOM     22  C   UNL     1       2.884  -7.176  -3.127  1.00  0.00     0.031 C 
ATOM     23  C   UNL     1       6.136  -2.410  -6.906  1.00  0.00     0.029 A 
ATOM     24  C   UNL     1       6.509  -3.788  -7.182  1.00  0.00     0.049 A 
ATOM     25  H   UNL     1       5.816  -5.521  -6.253  1.00  0.00     0.167 HD
ATOM     26  C   UNL     1       4.409  -9.054  -3.809  1.00  0.00     0.037 A 
ATOM     27  C   UNL     1       7.371  -4.186  -8.129  1.00  0.00     0.037 A 
ATOM     28  C   UNL     1       5.421  -9.531  -4.743  1.00  0.00     0.049 A 
ATOM     29  C   UNL     1       7.646  -5.652  -8.258  1.00  0.00     0.074 A 
ATOM     30  C   UNL     1       5.835 -10.831  -4.993  1.00  0.00     0.029 A 
ATOM     31  N   UNL     1       6.103  -8.731  -5.657  1.00  0.00    -0.354 N 
ATOM     32  N   UNL     1       7.241  -6.631  -7.484  1.00  0.00    -0.248 NA
ATOM     33  C   UNL     1       8.467  -6.071  -9.396  1.00  0.00     0.031 C 
ATOM     34  C   UNL     1       6.797 -10.812  -6.003  1.00  0.00     0.029 A 
ATOM     35  C   UNL     1       6.881  -9.519  -6.488  1.00  0.00     0.049 A 
ATOM     36  H   UNL     1       6.042  -7.750  -5.704  1.00  0.00     0.167 HD
ATOM     37  C   UNL     1       7.723  -7.791  -8.069  1.00  0.00     0.074 A 
ATOM     38  C   UNL     1       8.441  -7.388  -9.263  1.00  0.00     0.031 C 
ATOM     39  C   UNL     1       7.581  -9.075  -7.666  1.00  0.00     0.037 A 
BRANCH  26  40
ATOM     40  C   UNL     1       3.767 -10.096  -2.874  1.00  0.00     0.058 A 
ATOM     41  C   UNL     1       2.389 -10.321  -2.736  1.00  0.00     0.135 A 
ATOM     42  C   UNL     1       4.591 -10.982  -2.135  1.00  0.00     0.135 A 
ATOM     43  F   UNL     1       1.508  -9.623  -3.469  1.00  0.00    -0.206 F 
ATOM     44  C   UNL     1       1.868 -11.278  -1.853  1.00  0.00     0.059 A 
ATOM     45  C   UNL     1       4.101 -11.976  -1.288  1.00  0.00     0.059 A 
ATOM     46  F   UNL     1       5.926 -10.925  -2.253  1.00  0.00    -0.206 F 
ATOM     47  C   UNL     1       2.732 -12.099  -1.130  1.00  0.00     0.060 A 
BRANCH  47  48
ATOM     48  S   UNL     1       2.046 -13.324   0.006  1.00  0.00     0.124 S 
ATOM     49  O   UNL     1       1.258 -12.489   0.907  1.00  0.00    -0.237 OA
ATOM     50  O   UNL     1       1.282 -14.178  -0.896  1.00  0.00    -0.237 OA
ATOM     51  O   UNL     1       3.228 -13.942   0.602  1.00  0.00    -0.744 OA
ENDBRANCH  47  48
ENDBRANCH  26  40
BRANCH  27  52
ATOM     52  C   UNL     1       7.917  -3.194  -9.080  1.00  0.00     0.058 A 
ATOM     53  C   UNL     1       7.437  -3.163 -10.397  1.00  0.00     0.135 A 
ATOM     54  C   UNL     1       8.861  -2.231  -8.696  1.00  0.00     0.135 A 
ATOM     55  F   UNL     1       6.513  -4.051 -10.794  1.00  0.00    -0.206 F 
ATOM     56  C   UNL     1       7.906  -2.239 -11.318  1.00  0.00     0.059 A 
ATOM     57  C   UNL     1       9.325  -1.276  -9.593  1.00  0.00     0.059 A 
ATOM     58  F   UNL     1       9.307  -2.191  -7.431  1.00  0.00    -0.206 F 
ATOM     59  C   UNL     1       8.855  -1.302 -10.906  1.00  0.00     0.060 A 
BRANCH  59  60
ATOM     60  S   UNL     1       9.453  -0.108 -12.118  1.00  0.00     0.124 S 
ATOM     61  O   UNL     1      10.258  -0.957 -12.987  1.00  0.00    -0.237 OA
ATOM     62  O   UNL     1       8.209   0.396 -12.689  1.00  0.00    -0.237 OA
ATOM     63  O   UNL     1      10.197   0.850 -11.305  1.00  0.00    -0.744 OA
ENDBRANCH  59  60
ENDBRANCH  27  52
BRANCH  39  64
ATOM     64  C   UNL     1       8.146 -10.135  -8.567  1.00  0.00     0.058 A 
ATOM     65  C   UNL     1       9.525 -10.350  -8.688  1.00  0.00     0.135 A 
ATOM     66  C   UNL     1       7.278 -10.973  -9.287  1.00  0.00     0.135 A 
ATOM     67  F   UNL     1      10.393  -9.571  -8.023  1.00  0.00    -0.206 F 
ATOM     68  C   UNL     1      10.029 -11.340  -9.522  1.00  0.00     0.059 A 
ATOM     69  C   UNL     1       7.759 -11.990 -10.101  1.00  0.00     0.059 A 
ATOM     70  F   UNL     1       5.948 -10.812  -9.194  1.00  0.00    -0.206 F 
ATOM     71  C   UNL     1       9.137 -12.155 -10.223  1.00  0.00     0.060 A 
BRANCH  71  72
ATOM     72  S   UNL     1       9.809 -13.448 -11.287  1.00  0.00     0.124 S 
ATOM     73  O   UNL     1      10.357 -12.664 -12.389  1.00  0.00    -0.237 OA
ATOM     74  O   UNL     1      10.789 -14.088 -10.415  1.00  0.00    -0.237 OA
ATOM     75  O   UNL     1       8.641 -14.261 -11.613  1.00  0.00    -0.744 OA
ENDBRANCH  71  72
ENDBRANCH  39  64
ENDBRANCH  13  14
ENDBRANCH   6   8
ENDBRANCH   5   6
ENDBRANCH   4   5
ENDBRANCH   3   4
ENDBRANCH   2   3
ENDBRANCH   1   2
BRANCH   1  76
ATOM     76  C   UNL     1       1.994  -1.151   2.591  1.00  0.00     0.188 C 
BRANCH  76  77
ATOM     77  O   UNL     1       2.515  -1.303   3.913  1.00  0.00    -0.376 OA
BRANCH  77  78
ATOM     78  C   UNL     1       3.895  -1.624   4.036  1.00  0.00     0.202 C 
BRANCH  78  79
ATOM     79  C   UNL     1       4.337  -3.061   3.748  1.00  0.00     0.261 C 
BRANCH  79  80
ATOM     80  O   UNL     1       3.868  -3.629   2.527  1.00  0.00    -0.462 OA
BRANCH  80  81
ATOM     81  C   UNL     1       2.779  -4.444   2.673  1.00  0.00     0.329 C 
ATOM     82  O   UNL     1       1.991  -4.395   3.619  1.00  0.00    -0.250 OA
BRANCH  81  83
ATOM     83  C   UNL     1       2.577  -5.347   1.461  1.00  0.00     0.198 C 
ATOM     84  C   UNL     1       1.591  -4.743   0.465  1.00  0.00     0.071 C 
ATOM     85  N   UNL     1       3.806  -5.548   0.695  1.00  0.00    -0.322 N 
ATOM     86  C   UNL     1       2.483  -4.011  -0.521  1.00  0.00     0.136 C 
ATOM     87  C   UNL     1       3.792  -4.800  -0.538  1.00  0.00     0.152 C 
BRANCH  85  88
ATOM     88  C   UNL     1       4.755  -6.428   1.169  1.00  0.00     0.256 C 
ATOM     89  O   UNL     1       4.793  -6.726   2.361  1.00  0.00    -0.269 OA
BRANCH  88  90
ATOM     90  C   UNL     1       5.723  -7.068   0.243  1.00  0.00     0.061 A 
ATOM     91  C   UNL     1       6.544  -6.310  -0.601  1.00  0.00     0.057 A 
ATOM     92  C   UNL     1       5.885  -8.465   0.284  1.00  0.00     0.056 A 
ATOM     93  C   UNL     1       7.479  -6.946  -1.414  1.00  0.00     0.159 A 
ATOM     94  C   UNL     1       6.876  -9.079  -0.486  1.00  0.00     0.063 A 
ATOM     95  Cl  UNL     1       4.870  -9.501   1.226  1.00  0.00    -0.083 Cl
ATOM     96  F   UNL     1       8.252  -6.205  -2.219  1.00  0.00    -0.204 F 
ATOM     97  C   UNL     1       7.650  -8.321  -1.353  1.00  0.00     0.160 A 
ATOM     98  F   UNL     1       8.582  -8.923  -2.102  1.00  0.00    -0.204 F 
ENDBRANCH  88  90
ENDBRANCH  85  88
BRANCH  86  99
ATOM     99  O   UNL     1       2.659  -2.674  -0.091  1.00  0.00    -0.391 OA
ATOM    100  H   UNL     1       3.032  -2.669   0.804  1.00  0.00     0.211 HD
ENDBRANCH  86  99
ENDBRANCH  81  83
ENDBRANCH  80  81
ENDBRANCH  79  80
ENDBRANCH  78  79
ENDBRANCH  77  78
ENDBRANCH  76  77
ENDBRANCH   1  76
TORSDOF 23
