REMARK SMILES Cc1cc(Cl)c(C)c2c1O[C@H](C(F)(F)F)C(C(=O)OCCOCCOCCOC(=O)c1ccc(-c3c4nc(c(-c5c(F)cc(S(=O)(=O)[O-])cc5F)c5ccc([nH]5)c(-c5c(F)cc(S(=O)(=O)[O-])cc5F)c5nc(c(-c6c(F)cc(S(=O)(=O)[O-])cc6F)c6ccc3[nH]6)C=C5)C=C4)cc1)=C2
REMARK SMILES IDX 24 1 23 2 22 3 21 4 20 5 19 6 17 7 18 8 16 9 1 10 2 11 3 12
REMARK SMILES IDX 9 13 4 14 8 15 10 16 5 17 6 18 97 19 11 20 7 21 12 22 13 23
REMARK SMILES IDX 14 24 15 25 25 26 26 27 27 28 28 29 29 30 30 31 31 32 32 33
REMARK SMILES IDX 96 34 33 35 95 36 34 37 35 38 36 39 89 40 37 41 94 42 88 43
REMARK SMILES IDX 90 44 38 45 93 46 87 47 86 48 39 50 73 51 52 52 72 53 53 54
REMARK SMILES IDX 56 55 71 56 91 57 54 58 55 59 70 61 92 62 57 63 40 64 41 65
REMARK SMILES IDX 50 66 42 67 43 68 49 69 51 70 44 71 45 72 46 73 47 74 48 75
REMARK SMILES IDX 74 76 75 77 84 78 76 79 77 80 83 81 85 82 78 83 79 84 80 85
REMARK SMILES IDX 81 86 82 87 58 88 59 89 68 90 60 91 61 92 67 93 69 94 62 95
REMARK SMILES IDX 63 96 64 97 65 98 66 99
REMARK H PARENT 90 49 56 60
REMARK Flexibility Score: inf
ROOT
ATOM      1  C   UNL     1       3.340  -6.002   2.951  1.00  0.00     0.188 C 
ENDROOT
BRANCH   1   2
ATOM      2  C   UNL     1       2.448  -6.970   3.758  1.00  0.00     0.188 C 
BRANCH   2   3
ATOM      3  O   UNL     1       2.618  -8.315   3.361  1.00  0.00    -0.376 OA
BRANCH   3   4
ATOM      4  C   UNL     1       1.597  -8.950   2.617  1.00  0.00     0.202 C 
BRANCH   4   5
ATOM      5  C   UNL     1       0.996  -8.294   1.362  1.00  0.00     0.261 C 
BRANCH   5   6
ATOM      6  O   UNL     1       1.004  -6.863   1.313  1.00  0.00    -0.460 OA
BRANCH   6   7
ATOM      7  C   UNL     1      -0.106  -6.226   1.748  1.00  0.00     0.338 C 
ATOM      8  O   UNL     1      -1.104  -6.746   2.216  1.00  0.00    -0.246 OA
BRANCH   7   9
ATOM      9  C   UNL     1       0.123  -4.767   1.662  1.00  0.00     0.087 C 
ATOM     10  C   UNL     1       1.077  -0.014   0.050  1.00  0.00     0.048 C 
ATOM     11  C   UNL     1       0.564  -0.628   1.322  1.00  0.00    -0.007 A 
ATOM     12  C   UNL     1       0.190   0.199   2.384  1.00  0.00     0.028 A 
ATOM     13  C   UNL     1       0.476  -2.019   1.483  1.00  0.00     0.131 A 
ATOM     14  C   UNL     1      -0.259  -0.344   3.592  1.00  0.00     0.045 A 
ATOM     15  C   UNL     1      -0.017  -2.579   2.677  1.00  0.00     0.022 A 
ATOM     16  O   UNL     1       0.908  -2.762   0.419  1.00  0.00    -0.475 OA
ATOM     17  Cl  UNL     1      -0.688   0.789   4.826  1.00  0.00    -0.084 Cl
ATOM     18  C   UNL     1      -0.358  -1.737   3.767  1.00  0.00    -0.021 A 
ATOM     19  C   UNL     1      -0.201  -4.031   2.732  1.00  0.00     0.027 C 
ATOM     20  C   UNL     1       0.727  -4.197   0.412  1.00  0.00     0.316 C 
ATOM     21  C   UNL     1      -0.797  -2.333   5.084  1.00  0.00     0.047 C 
BRANCH  20  22
ATOM     22  C   UNL     1      -0.061  -4.569  -0.852  1.00  0.00     0.430 C 
ATOM     23  F   UNL     1       0.502  -4.022  -1.959  1.00  0.00    -0.167 F 
ATOM     24  F   UNL     1      -0.086  -5.907  -1.059  1.00  0.00    -0.167 F 
ATOM     25  F   UNL     1      -1.342  -4.143  -0.800  1.00  0.00    -0.167 F 
ENDBRANCH  20  22
ENDBRANCH   7   9
ENDBRANCH   6   7
ENDBRANCH   5   6
ENDBRANCH   4   5
ENDBRANCH   3   4
ENDBRANCH   2   3
ENDBRANCH   1   2
BRANCH   1  26
ATOM     26  O   UNL     1       4.271  -6.528   2.010  1.00  0.00    -0.376 OA
BRANCH  26  27
ATOM     27  C   UNL     1       5.124  -7.597   2.413  1.00  0.00     0.202 C 
BRANCH  27  28
ATOM     28  C   UNL     1       6.010  -7.416   3.654  1.00  0.00     0.261 C 
BRANCH  28  29
ATOM     29  O   UNL     1       5.300  -7.046   4.847  1.00  0.00    -0.460 OA
BRANCH  29  30
ATOM     30  C   UNL     1       5.613  -5.828   5.358  1.00  0.00     0.338 C 
ATOM     31  O   UNL     1       6.448  -5.044   4.940  1.00  0.00    -0.246 OA
BRANCH  30  32
ATOM     32  C   UNL     1       4.642  -5.476   6.413  1.00  0.00     0.060 A 
ATOM     33  C   UNL     1       3.830  -4.350   6.218  1.00  0.00     0.016 A 
ATOM     34  C   UNL     1       4.551  -6.220   7.591  1.00  0.00     0.016 A 
ATOM     35  C   UNL     1       2.924  -3.962   7.203  1.00  0.00     0.010 A 
ATOM     36  C   UNL     1       3.662  -5.811   8.592  1.00  0.00     0.010 A 
ATOM     37  C   UNL     1       2.858  -4.672   8.409  1.00  0.00    -0.014 A 
BRANCH  37  38
ATOM     38  C   UNL     1       2.063  -4.121   9.532  1.00  0.00     0.031 A 
ATOM     39  C   UNL     1       2.745  -3.213  10.519  1.00  0.00     0.074 A 
ATOM     40  C   UNL     1       0.749  -4.384   9.648  1.00  0.00     0.049 A 
ATOM     41  N   UNL     1       2.249  -2.608  11.565  1.00  0.00    -0.248 NA
ATOM     42  C   UNL     1       4.175  -2.948  10.288  1.00  0.00     0.031 C 
ATOM     43  C   UNL     1      -0.032  -5.208   8.727  1.00  0.00     0.029 A 
ATOM     44  N   UNL     1      -0.162  -3.978  10.591  1.00  0.00    -0.354 N 
ATOM     45  C   UNL     1       3.297  -1.874  12.106  1.00  0.00     0.074 A 
ATOM     46  C   UNL     1       4.467  -2.141  11.298  1.00  0.00     0.031 C 
ATOM     47  C   UNL     1      -1.308  -5.247   9.153  1.00  0.00     0.029 A 
ATOM     48  C   UNL     1      -1.428  -4.473  10.388  1.00  0.00     0.049 A 
ATOM     49  H   UNL     1       0.070  -3.387  11.344  1.00  0.00     0.167 HD
ATOM     50  C   UNL     1       3.283  -1.039  13.171  1.00  0.00     0.037 A 
ATOM     51  C   UNL     1      -2.550  -4.326  11.122  1.00  0.00     0.037 A 
ATOM     52  C   UNL     1       2.126  -0.792  13.988  1.00  0.00     0.049 A 
ATOM     53  C   UNL     1      -2.513  -3.482  12.372  1.00  0.00     0.074 A 
ATOM     54  C   UNL     1       2.018   0.025  15.100  1.00  0.00     0.029 A 
ATOM     55  N   UNL     1       0.879  -1.364  13.787  1.00  0.00    -0.354 N 
ATOM     56  N   UNL     1      -1.518  -2.784  12.866  1.00  0.00    -0.248 NA
ATOM     57  C   UNL     1      -3.748  -3.408  13.168  1.00  0.00     0.031 C 
ATOM     58  C   UNL     1       0.717  -0.088  15.598  1.00  0.00     0.029 A 
ATOM     59  C   UNL     1       0.001  -0.937  14.768  1.00  0.00     0.049 A 
ATOM     60  H   UNL     1       0.651  -1.982  13.056  1.00  0.00     0.167 HD
ATOM     61  C   UNL     1      -2.015  -2.166  14.010  1.00  0.00     0.074 A 
ATOM     62  C   UNL     1      -3.399  -2.571  14.136  1.00  0.00     0.031 C 
ATOM     63  C   UNL     1      -1.381  -1.336  14.874  1.00  0.00     0.037 A 
BRANCH  50  64
ATOM     64  C   UNL     1       4.563  -0.337  13.521  1.00  0.00     0.058 A 
ATOM     65  C   UNL     1       5.048   0.725  12.742  1.00  0.00     0.135 A 
ATOM     66  C   UNL     1       5.290  -0.698  14.666  1.00  0.00     0.135 A 
ATOM     67  F   UNL     1       4.401   1.095  11.625  1.00  0.00    -0.206 F 
ATOM     68  C   UNL     1       6.218   1.396  13.078  1.00  0.00     0.059 A 
ATOM     69  C   UNL     1       6.451  -0.026  15.034  1.00  0.00     0.059 A 
ATOM     70  F   UNL     1       4.872  -1.711  15.440  1.00  0.00    -0.206 F 
ATOM     71  C   UNL     1       6.912   1.014  14.227  1.00  0.00     0.060 A 
BRANCH  71  72
ATOM     72  S   UNL     1       8.424   1.904  14.653  1.00  0.00     0.124 S 
ATOM     73  O   UNL     1       9.335   1.446  13.609  1.00  0.00    -0.237 OA
ATOM     74  O   UNL     1       8.001   3.298  14.558  1.00  0.00    -0.237 OA
ATOM     75  O   UNL     1       8.729   1.434  16.001  1.00  0.00    -0.744 OA
ENDBRANCH  71  72
ENDBRANCH  50  64
BRANCH  51  76
ATOM     76  C   UNL     1      -3.812  -4.989  10.696  1.00  0.00     0.058 A 
ATOM     77  C   UNL     1      -4.895  -4.237  10.219  1.00  0.00     0.135 A 
ATOM     78  C   UNL     1      -3.961  -6.383  10.759  1.00  0.00     0.135 A 
ATOM     79  F   UNL     1      -4.806  -2.900  10.153  1.00  0.00    -0.206 F 
ATOM     80  C   UNL     1      -6.085  -4.842   9.826  1.00  0.00     0.059 A 
ATOM     81  C   UNL     1      -5.133  -7.013  10.351  1.00  0.00     0.059 A 
ATOM     82  F   UNL     1      -2.951  -7.148  11.203  1.00  0.00    -0.206 F 
ATOM     83  C   UNL     1      -6.193  -6.232   9.892  1.00  0.00     0.060 A 
BRANCH  83  84
ATOM     84  S   UNL     1      -7.726  -7.008   9.335  1.00  0.00     0.124 S 
ATOM     85  O   UNL     1      -8.653  -6.619  10.390  1.00  0.00    -0.237 OA
ATOM     86  O   UNL     1      -7.932  -6.374   8.036  1.00  0.00    -0.237 OA
ATOM     87  O   UNL     1      -7.385  -8.427   9.284  1.00  0.00    -0.744 OA
ENDBRANCH  83  84
ENDBRANCH  51  76
BRANCH  63  88
ATOM     88  C   UNL     1      -2.166  -0.775  16.027  1.00  0.00     0.058 A 
ATOM     89  C   UNL     1      -2.465  -1.551  17.156  1.00  0.00     0.135 A 
ATOM     90  C   UNL     1      -2.509   0.587  16.056  1.00  0.00     0.135 A 
ATOM     91  F   UNL     1      -2.164  -2.859  17.176  1.00  0.00    -0.206 F 
ATOM     92  C   UNL     1      -3.070  -0.995  18.279  1.00  0.00     0.059 A 
ATOM     93  C   UNL     1      -3.094   1.170  17.176  1.00  0.00     0.059 A 
ATOM     94  F   UNL     1      -2.236   1.375  15.003  1.00  0.00    -0.206 F 
ATOM     95  C   UNL     1      -3.368   0.370  18.285  1.00  0.00     0.060 A 
BRANCH  95  96
ATOM     96  S   UNL     1      -4.069   1.094  19.784  1.00  0.00     0.124 S 
ATOM     97  O   UNL     1      -5.418   0.539  19.777  1.00  0.00    -0.237 OA
ATOM     98  O   UNL     1      -3.178   0.582  20.821  1.00  0.00    -0.237 OA
ATOM     99  O   UNL     1      -3.981   2.531  19.543  1.00  0.00    -0.744 OA
ENDBRANCH  95  96
ENDBRANCH  63  88
ENDBRANCH  37  38
ENDBRANCH  30  32
ENDBRANCH  29  30
ENDBRANCH  28  29
ENDBRANCH  27  28
ENDBRANCH  26  27
ENDBRANCH   1  26
TORSDOF 21
