REMARK SMILES O=C(/C=C/c1ccccc1)Nc1ccc(O)cc1C(=O)OCCOCCOCCOC(=O)c1ccc(-c2c3nc(c(-c4c(F)cc(S(=O)(=O)[O-])cc4F)c4ccc([nH]4)c(-c4c(F)cc(S(=O)(=O)[O-])cc4F)c4nc(c(-c5c(F)cc(S(=O)(=O)[O-])cc5F)c5ccc2[nH]5)C=C4)C=C3)cc1
REMARK SMILES IDX 25 1 24 2 23 3 22 4 21 5 19 6 20 7 18 8 12 9 13 10 14 11
REMARK SMILES IDX 17 12 15 13 11 14 1 15 2 16 3 18 4 19 5 20 6 21 10 22 7 23
REMARK SMILES IDX 9 24 8 25 16 26 26 28 27 29 28 30 29 31 30 32 31 33 32 34
REMARK SMILES IDX 33 35 34 36 98 37 35 38 97 39 36 40 37 41 38 42 91 43 39 44
REMARK SMILES IDX 96 45 90 46 92 47 40 48 95 49 89 50 88 51 41 53 75 54 54 55
REMARK SMILES IDX 74 56 55 57 58 58 73 59 93 60 56 61 57 62 72 64 94 65 59 66
REMARK SMILES IDX 42 67 43 68 52 69 44 70 45 71 51 72 53 73 46 74 47 75 48 76
REMARK SMILES IDX 49 77 50 78 76 79 77 80 86 81 78 82 79 83 85 84 87 85 80 86
REMARK SMILES IDX 81 87 82 88 83 89 84 90 60 91 61 92 70 93 62 94 63 95 69 96
REMARK SMILES IDX 71 97 64 98 65 99 66 100 67 101 68 102
REMARK H PARENT 11 17 16 27 92 52 58 63
REMARK Flexibility Score: inf
ROOT
ATOM      1  C   UNL     1       0.473  -3.426   2.074  1.00  0.00     0.188 C 
ENDROOT
BRANCH   1   2
ATOM      2  O   UNL     1      -0.039  -3.984   0.872  1.00  0.00    -0.376 OA
BRANCH   2   3
ATOM      3  C   UNL     1       0.048  -3.216  -0.326  1.00  0.00     0.202 C 
BRANCH   3   4
ATOM      4  C   UNL     1      -0.516  -1.801  -0.270  1.00  0.00     0.261 C 
BRANCH   4   5
ATOM      5  O   UNL     1       0.332  -0.993   0.557  1.00  0.00    -0.460 OA
BRANCH   5   6
ATOM      6  C   UNL     1      -0.281   0.042   1.179  1.00  0.00     0.340 C 
ATOM      7  O   UNL     1      -1.462   0.340   1.096  1.00  0.00    -0.246 OA
BRANCH   6   8
ATOM      8  C   UNL     1       0.635   0.599   2.202  1.00  0.00     0.087 A 
ATOM      9  C   UNL     1       2.003   0.894   2.020  1.00  0.00     0.056 A 
ATOM     10  C   UNL     1       2.766   1.239   3.151  1.00  0.00     0.031 A 
ATOM     11  C   UNL     1       2.189   1.307   4.421  1.00  0.00     0.048 A 
ATOM     12  C   UNL     1       0.064   0.663   3.491  1.00  0.00     0.064 A 
ATOM     13  C   UNL     1       0.846   1.011   4.583  1.00  0.00     0.116 A 
BRANCH   9  14
ATOM     14  N   UNL     1       2.733   0.823   0.806  1.00  0.00    -0.322 N 
ATOM     15  O   UNL     1       1.117   1.379  -0.747  1.00  0.00    -0.270 OA
ATOM     16  C   UNL     1       2.220   0.926  -0.459  1.00  0.00     0.248 C 
ATOM     17  H   UNL     1       3.705   0.685   0.881  1.00  0.00     0.170 HD
BRANCH  16  18
ATOM     18  C   UNL     1       3.106   0.502  -1.579  1.00  0.00     0.072 C 
ATOM     19  C   UNL     1       4.370   0.050  -1.531  1.00  0.00     0.014 C 
BRANCH  19  20
ATOM     20  C   UNL     1       5.134  -0.337  -2.733  1.00  0.00    -0.025 A 
ATOM     21  C   UNL     1       6.188  -1.254  -2.607  1.00  0.00     0.008 A 
ATOM     22  C   UNL     1       4.882   0.216  -3.998  1.00  0.00     0.008 A 
ATOM     23  C   UNL     1       6.949  -1.625  -3.720  1.00  0.00     0.001 A 
ATOM     24  C   UNL     1       5.638  -0.160  -5.111  1.00  0.00     0.001 A 
ATOM     25  C   UNL     1       6.671  -1.082  -4.972  1.00  0.00     0.000 A 
ENDBRANCH  19  20
ENDBRANCH  16  18
ENDBRANCH   9  14
BRANCH  13  26
ATOM     26  O   UNL     1       0.337   1.046   5.845  1.00  0.00    -0.508 OA
ATOM     27  H   UNL     1       0.887   1.285   6.566  1.00  0.00     0.293 HD
ENDBRANCH  13  26
ENDBRANCH   6   8
ENDBRANCH   5   6
ENDBRANCH   4   5
ENDBRANCH   3   4
ENDBRANCH   2   3
ENDBRANCH   1   2
BRANCH   1  28
ATOM     28  C   UNL     1       1.963  -3.026   2.158  1.00  0.00     0.188 C 
BRANCH  28  29
ATOM     29  O   UNL     1       2.894  -3.407   1.156  1.00  0.00    -0.376 OA
BRANCH  29  30
ATOM     30  C   UNL     1       2.919  -4.753   0.704  1.00  0.00     0.202 C 
BRANCH  30  31
ATOM     31  C   UNL     1       3.205  -5.867   1.710  1.00  0.00     0.261 C 
BRANCH  31  32
ATOM     32  O   UNL     1       2.265  -5.905   2.792  1.00  0.00    -0.460 OA
BRANCH  32  33
ATOM     33  C   UNL     1       2.793  -5.665   4.016  1.00  0.00     0.338 C 
ATOM     34  O   UNL     1       3.964  -5.459   4.287  1.00  0.00    -0.246 OA
BRANCH  33  35
ATOM     35  C   UNL     1       1.704  -5.502   4.996  1.00  0.00     0.060 A 
ATOM     36  C   UNL     1       1.702  -4.345   5.785  1.00  0.00     0.016 A 
ATOM     37  C   UNL     1       0.727  -6.486   5.169  1.00  0.00     0.016 A 
ATOM     38  C   UNL     1       0.744  -4.185   6.783  1.00  0.00     0.010 A 
ATOM     39  C   UNL     1      -0.221  -6.333   6.183  1.00  0.00     0.010 A 
ATOM     40  C   UNL     1      -0.195  -5.199   7.013  1.00  0.00    -0.014 A 
BRANCH  40  41
ATOM     41  C   UNL     1      -1.030  -5.155   8.235  1.00  0.00     0.031 A 
ATOM     42  C   UNL     1      -0.528  -5.851   9.470  1.00  0.00     0.074 A 
ATOM     43  C   UNL     1      -2.200  -4.495   8.252  1.00  0.00     0.049 A 
ATOM     44  N   UNL     1      -1.092  -5.966  10.643  1.00  0.00    -0.248 NA
ATOM     45  C   UNL     1       0.788  -6.503   9.364  1.00  0.00     0.031 C 
ATOM     46  C   UNL     1      -2.771  -3.754   7.129  1.00  0.00     0.029 A 
ATOM     47  N   UNL     1      -3.123  -4.351   9.257  1.00  0.00    -0.354 N 
ATOM     48  C   UNL     1      -0.200  -6.697  11.418  1.00  0.00     0.074 A 
ATOM     49  C   UNL     1       0.929  -7.024  10.574  1.00  0.00     0.031 C 
ATOM     50  C   UNL     1      -3.956  -3.240   7.505  1.00  0.00     0.029 A 
ATOM     51  C   UNL     1      -4.236  -3.637   8.885  1.00  0.00     0.049 A 
ATOM     52  H   UNL     1      -2.999  -4.724  10.160  1.00  0.00     0.167 HD
ATOM     53  C   UNL     1      -0.306  -7.057  12.719  1.00  0.00     0.037 A 
ATOM     54  C   UNL     1      -5.357  -3.354   9.576  1.00  0.00     0.037 A 
ATOM     55  C   UNL     1      -1.439  -6.751  13.551  1.00  0.00     0.049 A 
ATOM     56  C   UNL     1      -5.492  -3.837  10.997  1.00  0.00     0.074 A 
ATOM     57  C   UNL     1      -1.647  -7.076  14.879  1.00  0.00     0.029 A 
ATOM     58  N   UNL     1      -2.563  -6.058  13.127  1.00  0.00    -0.354 N 
ATOM     59  N   UNL     1      -4.633  -4.512  11.725  1.00  0.00    -0.248 NA
ATOM     60  C   UNL     1      -6.749  -3.522  11.690  1.00  0.00     0.031 C 
ATOM     61  C   UNL     1      -2.914  -6.611  15.249  1.00  0.00     0.029 A 
ATOM     62  C   UNL     1      -3.478  -5.961  14.162  1.00  0.00     0.049 A 
ATOM     63  H   UNL     1      -2.692  -5.689  12.224  1.00  0.00     0.167 HD
ATOM     64  C   UNL     1      -5.235  -4.678  12.969  1.00  0.00     0.074 A 
ATOM     65  C   UNL     1      -6.529  -4.029  12.896  1.00  0.00     0.031 C 
ATOM     66  C   UNL     1      -4.759  -5.306  14.073  1.00  0.00     0.037 A 
BRANCH  53  67
ATOM     67  C   UNL     1       0.829  -7.847  13.304  1.00  0.00     0.058 A 
ATOM     68  C   UNL     1       2.065  -7.249  13.595  1.00  0.00     0.135 A 
ATOM     69  C   UNL     1       0.683  -9.218  13.569  1.00  0.00     0.135 A 
ATOM     70  F   UNL     1       2.263  -5.946  13.341  1.00  0.00    -0.206 F 
ATOM     71  C   UNL     1       3.130  -7.990  14.098  1.00  0.00     0.059 A 
ATOM     72  C   UNL     1       1.728  -9.974  14.092  1.00  0.00     0.059 A 
ATOM     73  F   UNL     1      -0.477  -9.838  13.303  1.00  0.00    -0.206 F 
ATOM     74  C   UNL     1       2.953  -9.354  14.335  1.00  0.00     0.060 A 
BRANCH  74  75
ATOM     75  S   UNL     1       4.349 -10.310  14.964  1.00  0.00     0.124 S 
ATOM     76  O   UNL     1       5.169 -10.450  13.764  1.00  0.00    -0.237 OA
ATOM     77  O   UNL     1       4.888  -9.436  16.001  1.00  0.00    -0.237 OA
ATOM     78  O   UNL     1       3.728 -11.540  15.447  1.00  0.00    -0.744 OA
ENDBRANCH  74  75
ENDBRANCH  53  67
BRANCH  54  79
ATOM     79  C   UNL     1      -6.446  -2.572   8.937  1.00  0.00     0.058 A 
ATOM     80  C   UNL     1      -6.711  -1.252   9.327  1.00  0.00     0.135 A 
ATOM     81  C   UNL     1      -7.243  -3.129   7.925  1.00  0.00     0.135 A 
ATOM     82  F   UNL     1      -5.982  -0.681  10.298  1.00  0.00    -0.206 F 
ATOM     83  C   UNL     1      -7.735  -0.512   8.745  1.00  0.00     0.059 A 
ATOM     84  C   UNL     1      -8.260  -2.403   7.313  1.00  0.00     0.059 A 
ATOM     85  F   UNL     1      -7.023  -4.387   7.511  1.00  0.00    -0.206 F 
ATOM     86  C   UNL     1      -8.504  -1.097   7.737  1.00  0.00     0.060 A 
BRANCH  86  87
ATOM     87  S   UNL     1      -9.799  -0.112   6.953  1.00  0.00     0.124 S 
ATOM     88  O   UNL     1     -10.830  -0.111   7.984  1.00  0.00    -0.237 OA
ATOM     89  O   UNL     1      -9.121   1.161   6.726  1.00  0.00    -0.237 OA
ATOM     90  O   UNL     1     -10.111  -0.871   5.746  1.00  0.00    -0.744 OA
ENDBRANCH  86  87
ENDBRANCH  54  79
BRANCH  66  91
ATOM     91  C   UNL     1      -5.622  -5.295  15.304  1.00  0.00     0.058 A 
ATOM     92  C   UNL     1      -6.755  -6.114  15.417  1.00  0.00     0.135 A 
ATOM     93  C   UNL     1      -5.274  -4.498  16.407  1.00  0.00     0.135 A 
ATOM     94  F   UNL     1      -7.133  -6.890  14.389  1.00  0.00    -0.206 F 
ATOM     95  C   UNL     1      -7.526  -6.130  16.575  1.00  0.00     0.059 A 
ATOM     96  C   UNL     1      -6.017  -4.515  17.583  1.00  0.00     0.059 A 
ATOM     97  F   UNL     1      -4.192  -3.704  16.354  1.00  0.00    -0.206 F 
ATOM     98  C   UNL     1      -7.148  -5.328  17.654  1.00  0.00     0.060 A 
BRANCH  98  99
ATOM     99  S   UNL     1      -8.132  -5.386  19.167  1.00  0.00     0.124 S 
ATOM    100  O   UNL     1      -9.292  -4.585  18.794  1.00  0.00    -0.237 OA
ATOM    101  O   UNL     1      -8.374  -6.816  19.330  1.00  0.00    -0.237 OA
ATOM    102  O   UNL     1      -7.250  -4.789  20.167  1.00  0.00    -0.744 OA
ENDBRANCH  98  99
ENDBRANCH  66  91
ENDBRANCH  40  41
ENDBRANCH  33  35
ENDBRANCH  32  33
ENDBRANCH  31  32
ENDBRANCH  30  31
ENDBRANCH  29  30
ENDBRANCH  28  29
ENDBRANCH   1  28
TORSDOF 24
