REMARK SMILES CC[C@@H](C)[C@H](C(=O)OCCOCCOCCOC(=O)c1ccc(-c2c3nc(c(-c4c(F)cc(S(=O)(=O)[O-])cc4F)c4ccc([nH]4)c(-c4c(F)cc(S(=O)(=O)[O-])cc4F)c4nc(c(-c5c(F)cc(S(=O)(=O)[O-])cc5F)c5ccc2[nH]5)C=C4)C=C3)cc1)N1C(=O)/C(=C/c2ccc3c(c2)OCO3)SC1=S
REMARK SMILES IDX 13 1 12 2 11 3 10 4 9 5 8 6 6 7 7 8 5 9 3 10 4 11 2 12 1 13
REMARK SMILES IDX 86 14 87 15 101 16 88 17 89 18 100 19 102 20 90 21 91 22
REMARK SMILES IDX 92 23 96 24 93 25 95 26 94 27 97 28 99 29 98 30 14 31 15 32
REMARK SMILES IDX 16 33 17 34 18 35 19 36 20 37 21 38 85 39 22 40 84 41 23 42
REMARK SMILES IDX 24 43 25 44 78 45 26 46 83 47 77 48 79 49 27 50 82 51 76 52
REMARK SMILES IDX 75 53 28 55 62 56 41 57 61 58 42 59 45 60 60 61 80 62 43 63
REMARK SMILES IDX 44 64 59 66 81 67 46 68 29 69 30 70 39 71 31 72 32 73 38 74
REMARK SMILES IDX 40 75 33 76 34 77 35 78 36 79 37 80 63 81 64 82 73 83 65 84
REMARK SMILES IDX 66 85 72 86 74 87 67 88 68 89 69 90 70 91 71 92 47 93 48 94
REMARK SMILES IDX 57 95 49 96 50 97 56 98 58 99 51 100 52 101 53 102 54 103
REMARK SMILES IDX 55 104
REMARK H PARENT 79 54 45 65
REMARK Flexibility Score: inf
ROOT
ATOM      1  C   UNL     1      -1.206   0.076   1.690  1.00  0.00     0.188 C 
ENDROOT
BRANCH   1   2
ATOM      2  C   UNL     1      -0.239   1.264   1.880  1.00  0.00     0.188 C 
BRANCH   2   3
ATOM      3  O   UNL     1       0.232   1.826   0.678  1.00  0.00    -0.376 OA
BRANCH   3   4
ATOM      4  C   UNL     1       1.457   1.370   0.137  1.00  0.00     0.202 C 
BRANCH   4   5
ATOM      5  C   UNL     1       2.181   0.071   0.552  1.00  0.00     0.261 C 
BRANCH   5   6
ATOM      6  O   UNL     1       1.444  -0.890   1.316  1.00  0.00    -0.462 OA
BRANCH   6   7
ATOM      7  C   UNL     1       1.998  -1.314   2.496  1.00  0.00     0.329 C 
ATOM      8  O   UNL     1       3.050  -0.895   2.964  1.00  0.00    -0.250 OA
BRANCH   7   9
ATOM      9  C   UNL     1       1.167  -2.476   3.116  1.00  0.00     0.204 C 
BRANCH   9  10
ATOM     10  C   UNL     1       1.787  -3.807   2.569  1.00  0.00     0.020 C 
ATOM     11  C   UNL     1       3.149  -4.137   3.197  1.00  0.00     0.010 C 
BRANCH  10  12
ATOM     12  C   UNL     1       1.886  -3.791   1.021  1.00  0.00     0.002 C 
ATOM     13  C   UNL     1       2.228  -5.136   0.399  1.00  0.00     0.004 C 
ENDBRANCH  10  12
ENDBRANCH   9  10
BRANCH   9  14
ATOM     14  N   UNL     1       1.113  -2.303   4.599  1.00  0.00    -0.278 N 
ATOM     15  C   UNL     1       0.880  -1.027   5.092  1.00  0.00     0.267 C 
ATOM     16  C   UNL     1       0.873  -3.249   5.569  1.00  0.00     0.149 C 
ATOM     17  O   UNL     1       0.414  -0.086   4.470  1.00  0.00    -0.268 OA
ATOM     18  C   UNL     1       1.206  -0.968   6.531  1.00  0.00     0.081 C 
ATOM     19  S   UNL     1       1.228  -2.562   7.155  1.00  0.00    -0.054 SA
ATOM     20  S   UNL     1       0.268  -4.796   5.428  1.00  0.00    -0.052 S 
ATOM     21  C   UNL     1       1.576   0.179   7.113  1.00  0.00     0.029 C 
BRANCH  21  22
ATOM     22  C   UNL     1       2.284   0.193   8.392  1.00  0.00    -0.020 A 
ATOM     23  C   UNL     1       1.622   0.068   9.627  1.00  0.00     0.012 A 
ATOM     24  C   UNL     1       3.684   0.167   8.325  1.00  0.00     0.058 A 
ATOM     25  C   UNL     1       2.357  -0.162  10.795  1.00  0.00     0.051 A 
ATOM     26  C   UNL     1       4.372  -0.097   9.483  1.00  0.00     0.166 A 
ATOM     27  C   UNL     1       3.728  -0.272  10.683  1.00  0.00     0.165 A 
ATOM     28  O   UNL     1       5.712  -0.297   9.566  1.00  0.00    -0.454 OA
ATOM     29  O   UNL     1       4.590  -0.596  11.684  1.00  0.00    -0.454 OA
ATOM     30  C   UNL     1       5.827  -0.706  10.944  1.00  0.00     0.468 C 
ENDBRANCH  21  22
ENDBRANCH   9  14
ENDBRANCH   7   9
ENDBRANCH   6   7
ENDBRANCH   5   6
ENDBRANCH   4   5
ENDBRANCH   3   4
ENDBRANCH   2   3
ENDBRANCH   1   2
BRANCH   1  31
ATOM     31  O   UNL     1      -1.641  -0.303   0.392  1.00  0.00    -0.376 OA
BRANCH  31  32
ATOM     32  C   UNL     1      -2.101   0.715  -0.484  1.00  0.00     0.202 C 
BRANCH  32  33
ATOM     33  C   UNL     1      -3.180   1.709  -0.017  1.00  0.00     0.261 C 
BRANCH  33  34
ATOM     34  O   UNL     1      -3.024   2.239   1.311  1.00  0.00    -0.460 OA
BRANCH  34  35
ATOM     35  C   UNL     1      -3.895   1.763   2.238  1.00  0.00     0.338 C 
ATOM     36  O   UNL     1      -4.810   0.976   2.044  1.00  0.00    -0.246 OA
BRANCH  35  37
ATOM     37  C   UNL     1      -3.471   2.173   3.597  1.00  0.00     0.060 A 
ATOM     38  C   UNL     1      -3.178   1.173   4.538  1.00  0.00     0.016 A 
ATOM     39  C   UNL     1      -3.421   3.517   3.966  1.00  0.00     0.016 A 
ATOM     40  C   UNL     1      -2.862   1.512   5.855  1.00  0.00     0.010 A 
ATOM     41  C   UNL     1      -3.135   3.854   5.296  1.00  0.00     0.010 A 
ATOM     42  C   UNL     1      -2.887   2.854   6.254  1.00  0.00    -0.014 A 
BRANCH  42  43
ATOM     43  C   UNL     1      -2.852   3.191   7.702  1.00  0.00     0.031 A 
ATOM     44  C   UNL     1      -4.160   3.387   8.420  1.00  0.00     0.074 A 
ATOM     45  C   UNL     1      -1.690   3.321   8.368  1.00  0.00     0.049 A 
ATOM     46  N   UNL     1      -4.380   3.724   9.663  1.00  0.00    -0.248 NA
ATOM     47  C   UNL     1      -5.382   3.200   7.620  1.00  0.00     0.031 C 
ATOM     48  C   UNL     1      -0.367   3.164   7.776  1.00  0.00     0.029 A 
ATOM     49  N   UNL     1      -1.435   3.620   9.686  1.00  0.00    -0.354 N 
ATOM     50  C   UNL     1      -5.761   3.831   9.786  1.00  0.00     0.074 A 
ATOM     51  C   UNL     1      -6.327   3.521   8.491  1.00  0.00     0.031 C 
ATOM     52  C   UNL     1       0.563   3.354   8.729  1.00  0.00     0.029 A 
ATOM     53  C   UNL     1      -0.094   3.673   9.995  1.00  0.00     0.049 A 
ATOM     54  H   UNL     1      -2.146   3.781  10.347  1.00  0.00     0.167 HD
ATOM     55  C   UNL     1      -6.488   4.170  10.876  1.00  0.00     0.037 A 
ATOM     56  C   UNL     1       0.526   3.956  11.161  1.00  0.00     0.037 A 
ATOM     57  C   UNL     1      -5.919   4.468  12.164  1.00  0.00     0.049 A 
ATOM     58  C   UNL     1      -0.316   4.302  12.369  1.00  0.00     0.074 A 
ATOM     59  C   UNL     1      -6.576   4.799  13.337  1.00  0.00     0.029 A 
ATOM     60  N   UNL     1      -4.562   4.478  12.450  1.00  0.00    -0.354 N 
ATOM     61  N   UNL     1      -1.623   4.348  12.482  1.00  0.00    -0.248 NA
ATOM     62  C   UNL     1       0.400   4.647  13.607  1.00  0.00     0.031 C 
ATOM     63  C   UNL     1      -5.614   5.059  14.318  1.00  0.00     0.029 A 
ATOM     64  C   UNL     1      -4.360   4.831  13.774  1.00  0.00     0.049 A 
ATOM     65  H   UNL     1      -3.848   4.265  11.806  1.00  0.00     0.167 HD
ATOM     66  C   UNL     1      -1.883   4.707  13.803  1.00  0.00     0.074 A 
ATOM     67  C   UNL     1      -0.599   4.831  14.459  1.00  0.00     0.031 C 
ATOM     68  C   UNL     1      -3.073   4.931  14.416  1.00  0.00     0.037 A 
BRANCH  55  69
ATOM     69  C   UNL     1      -7.979   4.283  10.713  1.00  0.00     0.058 A 
ATOM     70  C   UNL     1      -8.798   3.157  10.541  1.00  0.00     0.135 A 
ATOM     71  C   UNL     1      -8.599   5.542  10.765  1.00  0.00     0.135 A 
ATOM     72  F   UNL     1      -8.255   1.931  10.462  1.00  0.00    -0.206 F 
ATOM     73  C   UNL     1     -10.178   3.276  10.408  1.00  0.00     0.059 A 
ATOM     74  C   UNL     1      -9.980   5.683  10.663  1.00  0.00     0.059 A 
ATOM     75  F   UNL     1      -7.862   6.654  10.920  1.00  0.00    -0.206 F 
ATOM     76  C   UNL     1     -10.760   4.543  10.474  1.00  0.00     0.060 A 
BRANCH  76  77
ATOM     77  S   UNL     1     -12.553   4.679  10.320  1.00  0.00     0.124 S 
ATOM     78  O   UNL     1     -12.747   4.391   8.902  1.00  0.00    -0.237 OA
ATOM     79  O   UNL     1     -13.023   3.652  11.245  1.00  0.00    -0.237 OA
ATOM     80  O   UNL     1     -12.827   6.054  10.723  1.00  0.00    -0.744 OA
ENDBRANCH  76  77
ENDBRANCH  55  69
BRANCH  56  81
ATOM     81  C   UNL     1       2.018   3.918  11.263  1.00  0.00     0.058 A 
ATOM     82  C   UNL     1       2.662   3.011  12.121  1.00  0.00     0.135 A 
ATOM     83  C   UNL     1       2.834   4.790  10.527  1.00  0.00     0.135 A 
ATOM     84  F   UNL     1       1.934   2.168  12.871  1.00  0.00    -0.206 F 
ATOM     85  C   UNL     1       4.049   2.973  12.252  1.00  0.00     0.059 A 
ATOM     86  C   UNL     1       4.224   4.750  10.613  1.00  0.00     0.059 A 
ATOM     87  F   UNL     1       2.282   5.689   9.696  1.00  0.00    -0.206 F 
ATOM     88  C   UNL     1       4.823   3.845  11.488  1.00  0.00     0.060 A 
BRANCH  88  89
ATOM     89  S   UNL     1       6.622   3.773  11.635  1.00  0.00     0.124 S 
ATOM     90  O   UNL     1       6.838   4.396  12.936  1.00  0.00    -0.237 OA
ATOM     91  O   UNL     1       6.890   2.341  11.567  1.00  0.00    -0.237 OA
ATOM     92  O   UNL     1       7.084   4.543  10.483  1.00  0.00    -0.744 OA
ENDBRANCH  88  89
ENDBRANCH  56  81
BRANCH  68  93
ATOM     93  C   UNL     1      -3.047   5.297  15.877  1.00  0.00     0.058 A 
ATOM     94  C   UNL     1      -2.582   6.546  16.320  1.00  0.00     0.135 A 
ATOM     95  C   UNL     1      -3.541   4.404  16.844  1.00  0.00     0.135 A 
ATOM     96  F   UNL     1      -2.100   7.438  15.441  1.00  0.00    -0.206 F 
ATOM     97  C   UNL     1      -2.574   6.883  17.671  1.00  0.00     0.059 A 
ATOM     98  C   UNL     1      -3.571   4.732  18.196  1.00  0.00     0.059 A 
ATOM     99  F   UNL     1      -4.014   3.203  16.476  1.00  0.00    -0.206 F 
ATOM    100  C   UNL     1      -3.070   5.968  18.602  1.00  0.00     0.060 A 
BRANCH 100 101
ATOM    101  S   UNL     1      -3.071   6.425  20.349  1.00  0.00     0.124 S 
ATOM    102  O   UNL     1      -1.655   6.312  20.682  1.00  0.00    -0.237 OA
ATOM    103  O   UNL     1      -3.609   7.781  20.318  1.00  0.00    -0.237 OA
ATOM    104  O   UNL     1      -3.941   5.425  20.961  1.00  0.00    -0.744 OA
ENDBRANCH 100 101
ENDBRANCH  68  93
ENDBRANCH  42  43
ENDBRANCH  35  37
ENDBRANCH  34  35
ENDBRANCH  33  34
ENDBRANCH  32  33
ENDBRANCH  31  32
ENDBRANCH   1  31
TORSDOF 24
