REMARK SMILES C#Cc1cc(Cl)c2c(c1)C=C(C(=O)OCCOCCOCCOC(=O)c1ccc(-c3c4nc(c(-c5c(F)cc(S(=O)(=O)[O-])cc5F)c5ccc([nH]5)c(-c5c(F)cc(S(=O)(=O)[O-])cc5F)c5nc(c(-c6c(F)cc(S(=O)(=O)[O-])cc6F)c6ccc3[nH]6)C=C5)C=C4)cc1)[C@@H](C(F)(F)F)O2
REMARK SMILES IDX 19 1 18 2 17 3 16 4 15 5 14 6 12 7 13 8 11 9 3 10 4 11 9 12
REMARK SMILES IDX 5 13 8 14 6 15 7 16 10 17 97 18 92 19 2 20 1 21 93 22 94 23
REMARK SMILES IDX 95 24 96 25 20 26 21 27 22 28 23 29 24 30 25 31 26 32 27 33
REMARK SMILES IDX 91 34 28 35 90 36 29 37 30 38 31 39 84 40 32 41 89 42 83 43
REMARK SMILES IDX 85 44 33 45 88 46 82 47 81 48 34 50 68 51 47 52 67 53 48 54
REMARK SMILES IDX 51 55 66 56 86 57 49 58 50 59 65 61 87 62 52 63 35 64 36 65
REMARK SMILES IDX 45 66 37 67 38 68 44 69 46 70 39 71 40 72 41 73 42 74 43 75
REMARK SMILES IDX 69 76 70 77 79 78 71 79 72 80 78 81 80 82 73 83 74 84 75 85
REMARK SMILES IDX 76 86 77 87 53 88 54 89 63 90 55 91 56 92 62 93 64 94 57 95
REMARK SMILES IDX 58 96 59 97 60 98 61 99
REMARK H PARENT 85 49 51 60
REMARK Flexibility Score: inf
ROOT
ATOM      1  C   UNL     1      -6.910   3.806   2.159  1.00  0.00     0.188 C 
ENDROOT
BRANCH   1   2
ATOM      2  C   UNL     1      -6.404   5.074   1.441  1.00  0.00     0.188 C 
BRANCH   2   3
ATOM      3  O   UNL     1      -7.322   6.131   1.281  1.00  0.00    -0.376 OA
BRANCH   3   4
ATOM      4  C   UNL     1      -8.365   6.049   0.327  1.00  0.00     0.202 C 
BRANCH   4   5
ATOM      5  C   UNL     1      -8.525   4.953  -0.749  1.00  0.00     0.261 C 
BRANCH   5   6
ATOM      6  O   UNL     1      -7.834   3.716  -0.552  1.00  0.00    -0.460 OA
BRANCH   6   7
ATOM      7  C   UNL     1      -6.743   3.519  -1.332  1.00  0.00     0.338 C 
ATOM      8  O   UNL     1      -6.317   4.271  -2.191  1.00  0.00    -0.246 OA
BRANCH   7   9
ATOM      9  C   UNL     1      -6.036   2.300  -0.882  1.00  0.00     0.087 C 
ATOM     10  C   UNL     1      -1.882   0.006  -0.063  1.00  0.00     0.027 A 
ATOM     11  C   UNL     1      -2.568  -1.202   0.051  1.00  0.00     0.041 A 
ATOM     12  C   UNL     1      -2.590   1.197  -0.249  1.00  0.00     0.029 A 
ATOM     13  C   UNL     1      -3.963  -1.214   0.002  1.00  0.00     0.084 A 
ATOM     14  C   UNL     1      -3.988   1.179  -0.348  1.00  0.00     0.020 A 
ATOM     15  Cl  UNL     1      -4.772  -2.737   0.133  1.00  0.00    -0.080 Cl
ATOM     16  C   UNL     1      -4.682  -0.026  -0.193  1.00  0.00     0.146 A 
ATOM     17  C   UNL     1      -4.712   2.392  -0.700  1.00  0.00     0.027 C 
ATOM     18  O   UNL     1      -6.047  -0.104  -0.224  1.00  0.00    -0.474 OA
ATOM     19  C   UNL     1      -6.827   1.045  -0.640  1.00  0.00     0.316 C 
BRANCH  10  20
ATOM     20  C   UNL     1      -0.453   0.018  -0.036  1.00  0.00    -0.070 C 
ATOM     21  C   UNL     1       0.750   0.022  -0.034  1.00  0.00     0.010 C 
ENDBRANCH  10  20
BRANCH  19  22
ATOM     22  C   UNL     1      -7.666   0.646  -1.861  1.00  0.00     0.430 C 
ATOM     23  F   UNL     1      -8.322  -0.520  -1.651  1.00  0.00    -0.167 F 
ATOM     24  F   UNL     1      -8.611   1.573  -2.145  1.00  0.00    -0.167 F 
ATOM     25  F   UNL     1      -6.905   0.491  -2.967  1.00  0.00    -0.167 F 
ENDBRANCH  19  22
ENDBRANCH   7   9
ENDBRANCH   6   7
ENDBRANCH   5   6
ENDBRANCH   4   5
ENDBRANCH   3   4
ENDBRANCH   2   3
ENDBRANCH   1   2
BRANCH   1  26
ATOM     26  O   UNL     1      -8.297   3.672   2.369  1.00  0.00    -0.376 OA
BRANCH  26  27
ATOM     27  C   UNL     1      -8.935   4.508   3.323  1.00  0.00     0.202 C 
BRANCH  27  28
ATOM     28  C   UNL     1      -8.226   5.351   4.412  1.00  0.00     0.261 C 
BRANCH  28  29
ATOM     29  O   UNL     1      -6.840   5.675   4.245  1.00  0.00    -0.460 OA
BRANCH  29  30
ATOM     30  C   UNL     1      -5.961   4.957   4.992  1.00  0.00     0.338 C 
ATOM     31  O   UNL     1      -6.226   4.063   5.776  1.00  0.00    -0.246 OA
BRANCH  30  32
ATOM     32  C   UNL     1      -4.586   5.277   4.547  1.00  0.00     0.060 A 
ATOM     33  C   UNL     1      -3.860   4.320   3.820  1.00  0.00     0.016 A 
ATOM     34  C   UNL     1      -4.012   6.510   4.854  1.00  0.00     0.016 A 
ATOM     35  C   UNL     1      -2.559   4.595   3.395  1.00  0.00     0.010 A 
ATOM     36  C   UNL     1      -2.693   6.768   4.462  1.00  0.00     0.010 A 
ATOM     37  C   UNL     1      -1.953   5.805   3.751  1.00  0.00    -0.014 A 
BRANCH  37  38
ATOM     38  C   UNL     1      -0.492   5.982   3.554  1.00  0.00     0.031 A 
ATOM     39  C   UNL     1       0.418   5.745   4.730  1.00  0.00     0.074 A 
ATOM     40  C   UNL     1       0.023   6.318   2.356  1.00  0.00     0.049 A 
ATOM     41  N   UNL     1       1.712   5.900   4.822  1.00  0.00    -0.248 NA
ATOM     42  C   UNL     1      -0.220   5.268   5.970  1.00  0.00     0.031 C 
ATOM     43  C   UNL     1      -0.746   6.519   1.129  1.00  0.00     0.029 A 
ATOM     44  N   UNL     1       1.323   6.555   1.978  1.00  0.00    -0.354 N 
ATOM     45  C   UNL     1       2.043   5.544   6.124  1.00  0.00     0.074 A 
ATOM     46  C   UNL     1       0.811   5.199   6.798  1.00  0.00     0.031 C 
ATOM     47  C   UNL     1       0.096   6.860   0.137  1.00  0.00     0.029 A 
ATOM     48  C   UNL     1       1.458   6.940   0.664  1.00  0.00     0.049 A 
ATOM     49  H   UNL     1       2.087   6.459   2.591  1.00  0.00     0.167 HD
ATOM     50  C   UNL     1       3.266   5.495   6.701  1.00  0.00     0.037 A 
ATOM     51  C   UNL     1       2.550   7.335  -0.024  1.00  0.00     0.037 A 
ATOM     52  C   UNL     1       4.489   5.836   6.024  1.00  0.00     0.049 A 
ATOM     53  C   UNL     1       3.890   7.366   0.673  1.00  0.00     0.074 A 
ATOM     54  C   UNL     1       5.779   5.812   6.525  1.00  0.00     0.029 A 
ATOM     55  N   UNL     1       4.579   6.264   4.709  1.00  0.00    -0.354 N 
ATOM     56  N   UNL     1       4.192   7.013   1.901  1.00  0.00    -0.248 NA
ATOM     57  C   UNL     1       5.040   7.849  -0.107  1.00  0.00     0.031 C 
ATOM     58  C   UNL     1       6.641   6.285   5.533  1.00  0.00     0.029 A 
ATOM     59  C   UNL     1       5.899   6.536   4.390  1.00  0.00     0.049 A 
ATOM     60  H   UNL     1       3.817   6.360   4.092  1.00  0.00     0.167 HD
ATOM     61  C   UNL     1       5.566   7.202   2.027  1.00  0.00     0.074 A 
ATOM     62  C   UNL     1       6.040   7.683   0.747  1.00  0.00     0.031 C 
ATOM     63  C   UNL     1       6.363   6.998   3.106  1.00  0.00     0.037 A 
BRANCH  50  64
ATOM     64  C   UNL     1       3.357   5.062   8.138  1.00  0.00     0.058 A 
ATOM     65  C   UNL     1       3.146   3.728   8.518  1.00  0.00     0.135 A 
ATOM     66  C   UNL     1       3.754   5.973   9.132  1.00  0.00     0.135 A 
ATOM     67  F   UNL     1       2.744   2.822   7.614  1.00  0.00    -0.206 F 
ATOM     68  C   UNL     1       3.327   3.311   9.833  1.00  0.00     0.059 A 
ATOM     69  C   UNL     1       3.970   5.572  10.446  1.00  0.00     0.059 A 
ATOM     70  F   UNL     1       3.961   7.263   8.822  1.00  0.00    -0.206 F 
ATOM     71  C   UNL     1       3.753   4.238  10.787  1.00  0.00     0.060 A 
BRANCH  71  72
ATOM     72  S   UNL     1       4.034   3.662  12.474  1.00  0.00     0.124 S 
ATOM     73  O   UNL     1       2.682   3.300  12.889  1.00  0.00    -0.237 OA
ATOM     74  O   UNL     1       4.954   2.548  12.268  1.00  0.00    -0.237 OA
ATOM     75  O   UNL     1       4.602   4.828  13.143  1.00  0.00    -0.744 OA
ENDBRANCH  71  72
ENDBRANCH  50  64
BRANCH  51  76
ATOM     76  C   UNL     1       2.434   7.745  -1.452  1.00  0.00     0.058 A 
ATOM     77  C   UNL     1       3.054   7.007  -2.472  1.00  0.00     0.135 A 
ATOM     78  C   UNL     1       1.722   8.897  -1.828  1.00  0.00     0.135 A 
ATOM     79  F   UNL     1       3.760   5.907  -2.168  1.00  0.00    -0.206 F 
ATOM     80  C   UNL     1       2.992   7.403  -3.804  1.00  0.00     0.059 A 
ATOM     81  C   UNL     1       1.617   9.295  -3.157  1.00  0.00     0.059 A 
ATOM     82  F   UNL     1       1.105   9.641  -0.896  1.00  0.00    -0.206 F 
ATOM     83  C   UNL     1       2.266   8.547  -4.138  1.00  0.00     0.060 A 
BRANCH  83  84
ATOM     84  S   UNL     1       2.169   9.031  -5.875  1.00  0.00     0.124 S 
ATOM     85  O   UNL     1       3.550   9.407  -6.154  1.00  0.00    -0.237 OA
ATOM     86  O   UNL     1       1.703   7.800  -6.505  1.00  0.00    -0.237 OA
ATOM     87  O   UNL     1       1.207  10.128  -5.867  1.00  0.00    -0.744 OA
ENDBRANCH  83  84
ENDBRANCH  51  76
BRANCH  63  88
ATOM     88  C   UNL     1       7.840   7.258   2.958  1.00  0.00     0.058 A 
ATOM     89  C   UNL     1       8.353   8.558   2.834  1.00  0.00     0.135 A 
ATOM     90  C   UNL     1       8.760   6.197   3.033  1.00  0.00     0.135 A 
ATOM     91  F   UNL     1       7.521   9.609   2.756  1.00  0.00    -0.206 F 
ATOM     92  C   UNL     1       9.722   8.796   2.770  1.00  0.00     0.059 A 
ATOM     93  C   UNL     1      10.134   6.415   3.006  1.00  0.00     0.059 A 
ATOM     94  F   UNL     1       8.326   4.933   3.167  1.00  0.00    -0.206 F 
ATOM     95  C   UNL     1      10.605   7.719   2.865  1.00  0.00     0.060 A 
BRANCH  95  96
ATOM     96  S   UNL     1      12.379   8.053   2.821  1.00  0.00     0.124 S 
ATOM     97  O   UNL     1      12.558   8.517   1.449  1.00  0.00    -0.237 OA
ATOM     98  O   UNL     1      12.527   9.069   3.858  1.00  0.00    -0.237 OA
ATOM     99  O   UNL     1      12.979   6.758   3.127  1.00  0.00    -0.744 OA
ENDBRANCH  95  96
ENDBRANCH  63  88
ENDBRANCH  37  38
ENDBRANCH  30  32
ENDBRANCH  29  30
ENDBRANCH  28  29
ENDBRANCH  27  28
ENDBRANCH  26  27
ENDBRANCH   1  26
TORSDOF 22
