REMARK SMILES CC(=O)N[C@@H](Cc1c(C)[nH]c2ccccc2c1=O)C(=O)OCCOCCOCCOC(=O)c1ccc(-c2c3nc(c(-c4c(F)cc(S(=O)(=O)[O-])cc4F)c4ccc([nH]4)c(-c4c(F)cc(S(=O)(=O)[O-])cc4F)c4nc(c(-c5c(F)cc(S(=O)(=O)[O-])cc5F)c5ccc2[nH]5)C=C4)C=C3)cc1
REMARK SMILES IDX 26 1 25 2 24 3 23 4 22 5 21 6 19 7 20 8 5 9 4 10 1 11 2 12
REMARK SMILES IDX 3 13 6 15 7 16 8 17 17 18 9 19 10 20 16 21 18 22 11 23 15 25
REMARK SMILES IDX 12 26 14 27 13 28 27 29 28 30 29 31 30 32 31 33 32 34 33 35
REMARK SMILES IDX 34 36 98 37 35 38 97 39 36 40 37 41 38 42 91 43 39 44 96 45
REMARK SMILES IDX 90 46 92 47 40 48 95 49 89 50 88 51 41 53 75 54 54 55 74 56
REMARK SMILES IDX 55 57 58 58 73 59 93 60 56 61 57 62 72 64 94 65 59 66 42 67
REMARK SMILES IDX 43 68 52 69 44 70 45 71 51 72 53 73 46 74 47 75 48 76 49 77
REMARK SMILES IDX 50 78 76 79 77 80 86 81 78 82 79 83 85 84 87 85 80 86 81 87
REMARK SMILES IDX 82 88 83 89 84 90 60 91 61 92 70 93 62 94 63 95 69 96 71 97
REMARK SMILES IDX 64 98 65 99 66 100 67 101 68 102
REMARK H PARENT 4 14 10 24 92 52 58 63
REMARK Flexibility Score: inf
ROOT
ATOM      1  C   UNL     1      -1.535   2.369   2.749  1.00  0.00     0.188 C 
ENDROOT
BRANCH   1   2
ATOM      2  C   UNL     1      -1.017   1.514   3.924  1.00  0.00     0.188 C 
BRANCH   2   3
ATOM      3  O   UNL     1      -0.968   2.086   5.232  1.00  0.00    -0.376 OA
BRANCH   3   4
ATOM      4  C   UNL     1      -0.628   3.457   5.371  1.00  0.00     0.202 C 
BRANCH   4   5
ATOM      5  C   UNL     1       0.761   3.863   4.878  1.00  0.00     0.261 C 
BRANCH   5   6
ATOM      6  O   UNL     1       1.042   3.423   3.536  1.00  0.00    -0.462 OA
BRANCH   6   7
ATOM      7  C   UNL     1       2.216   2.767   3.348  1.00  0.00     0.329 C 
ATOM      8  O   UNL     1       3.075   2.628   4.214  1.00  0.00    -0.250 OA
BRANCH   7   9
ATOM      9  C   UNL     1       2.471   2.361   1.882  1.00  0.00     0.196 C 
BRANCH   9  10
ATOM     10  N   UNL     1       1.336   2.180   0.969  1.00  0.00    -0.343 N 
ATOM     11  C   UNL     1       1.772  -0.142   0.262  1.00  0.00     0.114 C 
ATOM     12  C   UNL     1       1.019   1.150   0.140  1.00  0.00     0.217 C 
ATOM     13  O   UNL     1       0.112   1.282  -0.680  1.00  0.00    -0.275 OA
ATOM     14  H   UNL     1       0.698   2.930   0.955  1.00  0.00     0.164 HD
ENDBRANCH   9  10
BRANCH   9  15
ATOM     15  C   UNL     1       3.462   3.400   1.294  1.00  0.00     0.078 C 
BRANCH  15  16
ATOM     16  C   UNL     1       3.120   4.880   1.465  1.00  0.00     0.022 A 
ATOM     17  C   UNL     1       3.904   5.832   2.029  1.00  0.00     0.019 A 
ATOM     18  C   UNL     1       1.791   5.342   0.923  1.00  0.00     0.192 A 
ATOM     19  C   UNL     1       5.270   5.565   2.619  1.00  0.00     0.064 C 
ATOM     20  N   UNL     1       3.524   7.163   2.107  1.00  0.00    -0.358 N 
ATOM     21  C   UNL     1       1.356   6.733   1.144  1.00  0.00     0.046 A 
ATOM     22  O   UNL     1       1.053   4.594   0.290  1.00  0.00    -0.289 OA
ATOM     23  C   UNL     1       2.274   7.625   1.694  1.00  0.00     0.049 A 
ATOM     24  H   UNL     1       4.167   7.813   2.471  1.00  0.00     0.166 HD
ATOM     25  C   UNL     1       0.070   7.146   0.774  1.00  0.00     0.014 A 
ATOM     26  C   UNL     1       1.913   8.970   1.806  1.00  0.00     0.027 A 
ATOM     27  C   UNL     1      -0.288   8.484   0.914  1.00  0.00     0.001 A 
ATOM     28  C   UNL     1       0.639   9.398   1.413  1.00  0.00     0.002 A 
ENDBRANCH  15  16
ENDBRANCH   9  15
ENDBRANCH   7   9
ENDBRANCH   6   7
ENDBRANCH   5   6
ENDBRANCH   4   5
ENDBRANCH   3   4
ENDBRANCH   2   3
ENDBRANCH   1   2
BRANCH   1  29
ATOM     29  O   UNL     1      -2.382   3.416   3.193  1.00  0.00    -0.376 OA
BRANCH  29  30
ATOM     30  C   UNL     1      -3.658   3.485   2.597  1.00  0.00     0.202 C 
BRANCH  30  31
ATOM     31  C   UNL     1      -4.637   2.408   3.077  1.00  0.00     0.261 C 
BRANCH  31  32
ATOM     32  O   UNL     1      -4.095   1.084   3.193  1.00  0.00    -0.460 OA
BRANCH  32  33
ATOM     33  C   UNL     1      -4.008   0.339   2.065  1.00  0.00     0.338 C 
ATOM     34  O   UNL     1      -4.344   0.679   0.944  1.00  0.00    -0.246 OA
BRANCH  33  35
ATOM     35  C   UNL     1      -3.273  -0.903   2.406  1.00  0.00     0.060 A 
ATOM     36  C   UNL     1      -3.701  -1.702   3.470  1.00  0.00     0.016 A 
ATOM     37  C   UNL     1      -2.126  -1.256   1.681  1.00  0.00     0.016 A 
ATOM     38  C   UNL     1      -3.003  -2.871   3.785  1.00  0.00     0.010 A 
ATOM     39  C   UNL     1      -1.422  -2.426   2.004  1.00  0.00     0.010 A 
ATOM     40  C   UNL     1      -1.872  -3.257   3.041  1.00  0.00    -0.014 A 
BRANCH  40  41
ATOM     41  C   UNL     1      -1.331  -4.630   3.222  1.00  0.00     0.031 A 
ATOM     42  C   UNL     1      -0.121  -4.926   4.057  1.00  0.00     0.074 A 
ATOM     43  C   UNL     1      -2.009  -5.640   2.640  1.00  0.00     0.049 A 
ATOM     44  N   UNL     1       0.341  -6.090   4.442  1.00  0.00    -0.248 NA
ATOM     45  C   UNL     1       0.680  -3.781   4.510  1.00  0.00     0.031 C 
ATOM     46  C   UNL     1      -3.178  -5.468   1.775  1.00  0.00     0.029 A 
ATOM     47  N   UNL     1      -1.838  -7.000   2.705  1.00  0.00    -0.354 N 
ATOM     48  C   UNL     1       1.466  -5.823   5.211  1.00  0.00     0.074 A 
ATOM     49  C   UNL     1       1.649  -4.384   5.191  1.00  0.00     0.031 C 
ATOM     50  C   UNL     1      -3.647  -6.675   1.428  1.00  0.00     0.029 A 
ATOM     51  C   UNL     1      -2.807  -7.705   2.031  1.00  0.00     0.049 A 
ATOM     52  H   UNL     1      -1.095  -7.428   3.187  1.00  0.00     0.167 HD
ATOM     53  C   UNL     1       2.254  -6.698   5.885  1.00  0.00     0.037 A 
ATOM     54  C   UNL     1      -3.017  -9.031   1.927  1.00  0.00     0.037 A 
ATOM     55  C   UNL     1       2.069  -8.131   5.882  1.00  0.00     0.049 A 
ATOM     56  C   UNL     1      -2.115  -9.979   2.665  1.00  0.00     0.074 A 
ATOM     57  C   UNL     1       2.794  -9.092   6.568  1.00  0.00     0.029 A 
ATOM     58  N   UNL     1       1.104  -8.811   5.153  1.00  0.00    -0.354 N 
ATOM     59  N   UNL     1      -1.109  -9.706   3.460  1.00  0.00    -0.248 NA
ATOM     60  C   UNL     1      -2.380 -11.415   2.501  1.00  0.00     0.031 C 
ATOM     61  C   UNL     1       2.300 -10.352   6.216  1.00  0.00     0.029 A 
ATOM     62  C   UNL     1       1.232 -10.178   5.352  1.00  0.00     0.049 A 
ATOM     63  H   UNL     1       0.426  -8.386   4.579  1.00  0.00     0.167 HD
ATOM     64  C   UNL     1      -0.637 -10.933   3.911  1.00  0.00     0.074 A 
ATOM     65  C   UNL     1      -1.473 -11.950   3.308  1.00  0.00     0.031 C 
ATOM     66  C   UNL     1       0.395 -11.188   4.751  1.00  0.00     0.037 A 
BRANCH  53  67
ATOM     67  C   UNL     1       3.383  -6.147   6.716  1.00  0.00     0.058 A 
ATOM     68  C   UNL     1       3.135  -5.476   7.924  1.00  0.00     0.135 A 
ATOM     69  C   UNL     1       4.723  -6.388   6.367  1.00  0.00     0.135 A 
ATOM     70  F   UNL     1       1.875  -5.217   8.307  1.00  0.00    -0.206 F 
ATOM     71  C   UNL     1       4.173  -5.054   8.750  1.00  0.00     0.059 A 
ATOM     72  C   UNL     1       5.776  -5.995   7.190  1.00  0.00     0.059 A 
ATOM     73  F   UNL     1       5.018  -7.032   5.227  1.00  0.00    -0.206 F 
ATOM     74  C   UNL     1       5.491  -5.323   8.377  1.00  0.00     0.060 A 
BRANCH  74  75
ATOM     75  S   UNL     1       6.821  -4.793   9.478  1.00  0.00     0.124 S 
ATOM     76  O   UNL     1       6.755  -3.341   9.338  1.00  0.00    -0.237 OA
ATOM     77  O   UNL     1       6.389  -5.324  10.767  1.00  0.00    -0.237 OA
ATOM     78  O   UNL     1       8.008  -5.422   8.909  1.00  0.00    -0.744 OA
ENDBRANCH  74  75
ENDBRANCH  53  67
BRANCH  54  79
ATOM     79  C   UNL     1      -4.170  -9.529   1.133  1.00  0.00     0.058 A 
ATOM     80  C   UNL     1      -5.285 -10.098   1.764  1.00  0.00     0.135 A 
ATOM     81  C   UNL     1      -4.196  -9.408  -0.265  1.00  0.00     0.135 A 
ATOM     82  F   UNL     1      -5.305 -10.236   3.098  1.00  0.00    -0.206 F 
ATOM     83  C   UNL     1      -6.383 -10.543   1.036  1.00  0.00     0.059 A 
ATOM     84  C   UNL     1      -5.293  -9.821  -1.012  1.00  0.00     0.059 A 
ATOM     85  F   UNL     1      -3.160  -8.852  -0.911  1.00  0.00    -0.206 F 
ATOM     86  C   UNL     1      -6.379 -10.396  -0.353  1.00  0.00     0.060 A 
BRANCH  86  87
ATOM     87  S   UNL     1      -7.831 -10.935  -1.282  1.00  0.00     0.124 S 
ATOM     88  O   UNL     1      -7.731 -12.385  -1.166  1.00  0.00    -0.237 OA
ATOM     89  O   UNL     1      -8.919 -10.308  -0.538  1.00  0.00    -0.237 OA
ATOM     90  O   UNL     1      -7.598 -10.390  -2.616  1.00  0.00    -0.744 OA
ENDBRANCH  86  87
ENDBRANCH  54  79
BRANCH  66  91
ATOM     91  C   UNL     1       0.684 -12.625   5.090  1.00  0.00     0.058 A 
ATOM     92  C   UNL     1       1.288 -13.491   4.165  1.00  0.00     0.135 A 
ATOM     93  C   UNL     1       0.432 -13.119   6.381  1.00  0.00     0.135 A 
ATOM     94  F   UNL     1       1.540 -13.074   2.914  1.00  0.00    -0.206 F 
ATOM     95  C   UNL     1       1.631 -14.796   4.507  1.00  0.00     0.059 A 
ATOM     96  C   UNL     1       0.789 -14.412   6.752  1.00  0.00     0.059 A 
ATOM     97  F   UNL     1      -0.140 -12.331   7.306  1.00  0.00    -0.206 F 
ATOM     98  C   UNL     1       1.386 -15.244   5.807  1.00  0.00     0.060 A 
BRANCH  98  99
ATOM     99  S   UNL     1       1.901 -16.917   6.252  1.00  0.00     0.124 S 
ATOM    100  O   UNL     1       0.948 -17.730   5.503  1.00  0.00    -0.237 OA
ATOM    101  O   UNL     1       3.280 -16.955   5.774  1.00  0.00    -0.237 OA
ATOM    102  O   UNL     1       1.745 -16.947   7.703  1.00  0.00    -0.744 OA
ENDBRANCH  98  99
ENDBRANCH  66  91
ENDBRANCH  40  41
ENDBRANCH  33  35
ENDBRANCH  32  33
ENDBRANCH  31  32
ENDBRANCH  30  31
ENDBRANCH  29  30
ENDBRANCH   1  29
TORSDOF 23
