REMARK SMILES CC(C)Cc1cc2c(cc1Cl)C=C(C(=O)OCCOCCOCCOC(=O)c1ccc(-c3c4nc(c(-c5c(F)cc(S(=O)(=O)[O-])cc5F)c5ccc([nH]5)c(-c5c(F)cc(S(=O)(=O)[O-])cc5F)c5nc(c(-c6c(F)cc(S(=O)(=O)[O-])cc6F)c6ccc3[nH]6)C=C5)C=C4)cc1)[C@@H](C(F)(F)F)O2
REMARK SMILES IDX 21 1 20 2 19 3 18 4 17 5 16 6 14 7 15 8 13 9 5 10 6 11 10 12
REMARK SMILES IDX 7 13 9 14 11 15 8 16 99 17 12 18 94 19 4 20 2 21 1 22 3 23
REMARK SMILES IDX 95 24 96 25 97 26 98 27 22 28 23 29 24 30 25 31 26 32 27 33
REMARK SMILES IDX 28 34 29 35 93 36 30 37 92 38 31 39 32 40 33 41 86 42 34 43
REMARK SMILES IDX 91 44 85 45 87 46 35 47 90 48 84 49 83 50 36 52 70 53 49 54
REMARK SMILES IDX 69 55 50 56 53 57 68 58 88 59 51 60 52 61 67 63 89 64 54 65
REMARK SMILES IDX 37 66 38 67 47 68 39 69 40 70 46 71 48 72 41 73 42 74 43 75
REMARK SMILES IDX 44 76 45 77 71 78 72 79 81 80 73 81 74 82 80 83 82 84 75 85
REMARK SMILES IDX 76 86 77 87 78 88 79 89 55 90 56 91 65 92 57 93 58 94 64 95
REMARK SMILES IDX 66 96 59 97 60 98 61 99 62 100 63 101
REMARK H PARENT 87 51 53 62
REMARK Flexibility Score: inf
ROOT
ATOM      1  C   UNL     1      -5.472   1.645  -6.515  1.00  0.00     0.188 C 
ENDROOT
BRANCH   1   2
ATOM      2  C   UNL     1      -4.763   2.806  -7.245  1.00  0.00     0.188 C 
BRANCH   2   3
ATOM      3  O   UNL     1      -5.007   2.817  -8.640  1.00  0.00    -0.376 OA
BRANCH   3   4
ATOM      4  C   UNL     1      -3.906   2.545  -9.490  1.00  0.00     0.202 C 
BRANCH   4   5
ATOM      5  C   UNL     1      -3.309   1.131  -9.429  1.00  0.00     0.261 C 
BRANCH   5   6
ATOM      6  O   UNL     1      -3.141   0.593  -8.108  1.00  0.00    -0.460 OA
BRANCH   6   7
ATOM      7  C   UNL     1      -1.986   0.880  -7.471  1.00  0.00     0.338 C 
ATOM      8  O   UNL     1      -1.074   1.568  -7.894  1.00  0.00    -0.246 OA
BRANCH   7   9
ATOM      9  C   UNL     1      -2.055   0.317  -6.107  1.00  0.00     0.087 C 
ATOM     10  C   UNL     1      -1.543  -0.464  -1.171  1.00  0.00    -0.025 A 
ATOM     11  C   UNL     1      -1.795  -1.292  -2.280  1.00  0.00     0.052 A 
ATOM     12  C   UNL     1      -1.605   0.927  -1.353  1.00  0.00     0.045 A 
ATOM     13  C   UNL     1      -1.987  -0.748  -3.552  1.00  0.00     0.128 A 
ATOM     14  C   UNL     1      -1.758   1.468  -2.634  1.00  0.00     0.032 A 
ATOM     15  Cl  UNL     1      -1.449   2.036  -0.038  1.00  0.00    -0.084 Cl
ATOM     16  C   UNL     1      -1.895   0.629  -3.742  1.00  0.00     0.019 A 
ATOM     17  O   UNL     1      -2.191  -1.640  -4.565  1.00  0.00    -0.475 OA
ATOM     18  C   UNL     1      -1.843   1.165  -5.092  1.00  0.00     0.027 C 
ATOM     19  C   UNL     1      -2.417  -1.134  -5.912  1.00  0.00     0.316 C 
BRANCH  10  20
ATOM     20  C   UNL     1      -1.096  -1.108   0.126  1.00  0.00     0.040 C 
BRANCH  20  21
ATOM     21  C   UNL     1       0.423  -1.412   0.142  1.00  0.00    -0.013 C 
ATOM     22  C   UNL     1       1.293  -0.151   0.101  1.00  0.00     0.008 C 
ATOM     23  C   UNL     1       0.787  -2.228   1.385  1.00  0.00     0.008 C 
ENDBRANCH  20  21
ENDBRANCH  10  20
BRANCH  19  24
ATOM     24  C   UNL     1      -1.686  -2.086  -6.872  1.00  0.00     0.430 C 
ATOM     25  F   UNL     1      -2.071  -3.371  -6.668  1.00  0.00    -0.167 F 
ATOM     26  F   UNL     1      -1.950  -1.814  -8.171  1.00  0.00    -0.167 F 
ATOM     27  F   UNL     1      -0.345  -2.038  -6.712  1.00  0.00    -0.167 F 
ENDBRANCH  19  24
ENDBRANCH   7   9
ENDBRANCH   6   7
ENDBRANCH   5   6
ENDBRANCH   4   5
ENDBRANCH   3   4
ENDBRANCH   2   3
ENDBRANCH   1   2
BRANCH   1  28
ATOM     28  O   UNL     1      -6.401   0.820  -7.212  1.00  0.00    -0.376 OA
BRANCH  28  29
ATOM     29  C   UNL     1      -7.346   1.420  -8.089  1.00  0.00     0.202 C 
BRANCH  29  30
ATOM     30  C   UNL     1      -8.320   2.465  -7.530  1.00  0.00     0.261 C 
BRANCH  30  31
ATOM     31  O   UNL     1      -7.702   3.537  -6.803  1.00  0.00    -0.460 OA
BRANCH  31  32
ATOM     32  C   UNL     1      -7.911   3.527  -5.462  1.00  0.00     0.338 C 
ATOM     33  O   UNL     1      -8.567   2.719  -4.827  1.00  0.00    -0.246 OA
BRANCH  32  34
ATOM     34  C   UNL     1      -7.057   4.551  -4.823  1.00  0.00     0.060 A 
ATOM     35  C   UNL     1      -7.045   5.871  -5.277  1.00  0.00     0.016 A 
ATOM     36  C   UNL     1      -6.268   4.171  -3.728  1.00  0.00     0.016 A 
ATOM     37  C   UNL     1      -6.263   6.817  -4.609  1.00  0.00     0.010 A 
ATOM     38  C   UNL     1      -5.481   5.116  -3.067  1.00  0.00     0.010 A 
ATOM     39  C   UNL     1      -5.490   6.452  -3.490  1.00  0.00    -0.014 A 
BRANCH  39  40
ATOM     40  C   UNL     1      -4.830   7.508  -2.684  1.00  0.00     0.031 A 
ATOM     41  C   UNL     1      -3.366   7.798  -2.806  1.00  0.00     0.074 A 
ATOM     42  C   UNL     1      -5.595   8.228  -1.841  1.00  0.00     0.049 A 
ATOM     43  N   UNL     1      -2.686   8.796  -2.304  1.00  0.00    -0.248 NA
ATOM     44  C   UNL     1      -2.558   6.846  -3.581  1.00  0.00     0.031 C 
ATOM     45  C   UNL     1      -7.021   7.996  -1.599  1.00  0.00     0.029 A 
ATOM     46  N   UNL     1      -5.292   9.307  -1.051  1.00  0.00    -0.354 N 
ATOM     47  C   UNL     1      -1.377   8.618  -2.728  1.00  0.00     0.074 A 
ATOM     48  C   UNL     1      -1.346   7.380  -3.481  1.00  0.00     0.031 C 
ATOM     49  C   UNL     1      -7.478   8.931  -0.752  1.00  0.00     0.029 A 
ATOM     50  C   UNL     1      -6.380   9.820  -0.385  1.00  0.00     0.049 A 
ATOM     51  H   UNL     1      -4.384   9.678  -0.969  1.00  0.00     0.167 HD
ATOM     52  C   UNL     1      -0.310   9.430  -2.527  1.00  0.00     0.037 A 
ATOM     53  C   UNL     1      -6.487  10.899   0.413  1.00  0.00     0.037 A 
ATOM     54  C   UNL     1      -0.352  10.650  -1.761  1.00  0.00     0.049 A 
ATOM     55  C   UNL     1      -5.281  11.762   0.650  1.00  0.00     0.074 A 
ATOM     56  C   UNL     1       0.659  11.574  -1.558  1.00  0.00     0.029 A 
ATOM     57  N   UNL     1      -1.455  11.107  -1.053  1.00  0.00    -0.354 N 
ATOM     58  N   UNL     1      -4.077  11.647   0.144  1.00  0.00    -0.248 NA
ATOM     59  C   UNL     1      -5.447  12.903   1.561  1.00  0.00     0.031 C 
ATOM     60  C   UNL     1       0.184  12.562  -0.689  1.00  0.00     0.029 A 
ATOM     61  C   UNL     1      -1.137  12.277  -0.381  1.00  0.00     0.049 A 
ATOM     62  H   UNL     1      -2.334  10.666  -1.031  1.00  0.00     0.167 HD
ATOM     63  C   UNL     1      -3.341  12.702   0.672  1.00  0.00     0.074 A 
ATOM     64  C   UNL     1      -4.243  13.459   1.518  1.00  0.00     0.031 C 
ATOM     65  C   UNL     1      -2.036  13.011   0.475  1.00  0.00     0.037 A 
BRANCH  52  66
ATOM     66  C   UNL     1       0.995   9.044  -3.167  1.00  0.00     0.058 A 
ATOM     67  C   UNL     1       1.187   9.165  -4.553  1.00  0.00     0.135 A 
ATOM     68  C   UNL     1       2.087   8.628  -2.389  1.00  0.00     0.135 A 
ATOM     69  F   UNL     1       0.174   9.552  -5.344  1.00  0.00    -0.206 F 
ATOM     70  C   UNL     1       2.408   8.868  -5.147  1.00  0.00     0.059 A 
ATOM     71  C   UNL     1       3.325   8.345  -2.960  1.00  0.00     0.059 A 
ATOM     72  F   UNL     1       1.959   8.500  -1.059  1.00  0.00    -0.206 F 
ATOM     73  C   UNL     1       3.473   8.460  -4.342  1.00  0.00     0.060 A 
BRANCH  73  74
ATOM     74  S   UNL     1       5.054   8.091  -5.133  1.00  0.00     0.124 S 
ATOM     75  O   UNL     1       4.744   6.850  -5.836  1.00  0.00    -0.237 OA
ATOM     76  O   UNL     1       5.260   9.263  -5.977  1.00  0.00    -0.237 OA
ATOM     77  O   UNL     1       5.976   7.961  -4.009  1.00  0.00    -0.744 OA
ENDBRANCH  73  74
ENDBRANCH  52  66
BRANCH  53  78
ATOM     78  C   UNL     1      -7.806  11.242   1.004  1.00  0.00     0.058 A 
ATOM     79  C   UNL     1      -8.540  12.340   0.534  1.00  0.00     0.135 A 
ATOM     80  C   UNL     1      -8.376  10.454   2.016  1.00  0.00     0.135 A 
ATOM     81  F   UNL     1      -8.033  13.123  -0.430  1.00  0.00    -0.206 F 
ATOM     82  C   UNL     1      -9.794  12.649   1.048  1.00  0.00     0.059 A 
ATOM     83  C   UNL     1      -9.638  10.731   2.532  1.00  0.00     0.059 A 
ATOM     84  F   UNL     1      -7.718   9.383   2.486  1.00  0.00    -0.206 F 
ATOM     85  C   UNL     1     -10.337  11.834   2.044  1.00  0.00     0.060 A 
BRANCH  85  86
ATOM     86  S   UNL     1     -11.993  12.211   2.659  1.00  0.00     0.124 S 
ATOM     87  O   UNL     1     -11.751  13.425   3.429  1.00  0.00    -0.237 OA
ATOM     88  O   UNL     1     -12.747  12.379   1.420  1.00  0.00    -0.237 OA
ATOM     89  O   UNL     1     -12.339  11.026   3.439  1.00  0.00    -0.744 OA
ENDBRANCH  85  86
ENDBRANCH  53  78
BRANCH  65  90
ATOM     90  C   UNL     1      -1.486  14.203   1.209  1.00  0.00     0.058 A 
ATOM     91  C   UNL     1      -1.209  14.142   2.583  1.00  0.00     0.135 A 
ATOM     92  C   UNL     1      -1.155  15.383   0.524  1.00  0.00     0.135 A 
ATOM     93  F   UNL     1      -1.518  13.041   3.287  1.00  0.00    -0.206 F 
ATOM     94  C   UNL     1      -0.623  15.210   3.254  1.00  0.00     0.059 A 
ATOM     95  C   UNL     1      -0.548  16.455   1.170  1.00  0.00     0.059 A 
ATOM     96  F   UNL     1      -1.396  15.490  -0.793  1.00  0.00    -0.206 F 
ATOM     97  C   UNL     1      -0.287  16.360   2.537  1.00  0.00     0.060 A 
BRANCH  97  98
ATOM     98  S   UNL     1       0.536  17.709   3.410  1.00  0.00     0.124 S 
ATOM     99  O   UNL     1      -0.548  18.231   4.236  1.00  0.00    -0.237 OA
ATOM    100  O   UNL     1       1.600  17.012   4.126  1.00  0.00    -0.237 OA
ATOM    101  O   UNL     1       0.984  18.588   2.334  1.00  0.00    -0.744 OA
ENDBRANCH  97  98
ENDBRANCH  65  90
ENDBRANCH  39  40
ENDBRANCH  32  34
ENDBRANCH  31  32
ENDBRANCH  30  31
ENDBRANCH  29  30
ENDBRANCH  28  29
ENDBRANCH   1  28
TORSDOF 23
