REMARK SMILES CC1CCN(C(=O)Nc2nccnc2C(=O)OCCOCCOCCOC(=O)c2ccc(-c3c4nc(c(-c5c(F)cc(S(=O)(=O)[O-])cc5F)c5ccc([nH]5)c(-c5c(F)cc(S(=O)(=O)[O-])cc5F)c5nc(c(-c6c(F)cc(S(=O)(=O)[O-])cc6F)c6ccc3[nH]6)C=C5)C=C4)cc2)CC1
REMARK SMILES IDX 22 1 21 2 20 3 19 4 18 5 17 6 15 7 16 8 14 9 9 10 10 11
REMARK SMILES IDX 11 12 13 13 12 14 8 15 1 16 2 17 3 18 96 19 4 20 95 21 5 22
REMARK SMILES IDX 6 23 7 24 23 26 24 27 25 28 26 29 27 30 28 31 29 32 30 33
REMARK SMILES IDX 94 34 31 35 93 36 32 37 33 38 34 39 87 40 35 41 92 42 86 43
REMARK SMILES IDX 88 44 36 45 91 46 85 47 84 48 37 50 71 51 50 52 70 53 51 54
REMARK SMILES IDX 54 55 69 56 89 57 52 58 53 59 68 61 90 62 55 63 38 64 39 65
REMARK SMILES IDX 48 66 40 67 41 68 47 69 49 70 42 71 43 72 44 73 45 74 46 75
REMARK SMILES IDX 72 76 73 77 82 78 74 79 75 80 81 81 83 82 76 83 77 84 78 85
REMARK SMILES IDX 79 86 80 87 56 88 57 89 66 90 58 91 59 92 65 93 67 94 60 95
REMARK SMILES IDX 61 96 62 97 63 98 64 99
REMARK H PARENT 8 25 88 49 54 60
REMARK Flexibility Score: inf
ROOT
ATOM      1  C   UNL     1       5.533  -2.086   1.114  1.00  0.00     0.188 C 
ENDROOT
BRANCH   1   2
ATOM      2  C   UNL     1       6.440  -3.306   0.859  1.00  0.00     0.188 C 
BRANCH   2   3
ATOM      3  O   UNL     1       7.769  -3.113   0.389  1.00  0.00    -0.376 OA
BRANCH   3   4
ATOM      4  C   UNL     1       8.012  -2.194  -0.669  1.00  0.00     0.202 C 
BRANCH   4   5
ATOM      5  C   UNL     1       7.248  -2.391  -1.983  1.00  0.00     0.261 C 
BRANCH   5   6
ATOM      6  O   UNL     1       5.818  -2.430  -1.812  1.00  0.00    -0.458 OA
BRANCH   6   7
ATOM      7  C   UNL     1       5.197  -3.474  -2.425  1.00  0.00     0.360 C 
ATOM      8  O   UNL     1       5.722  -4.227  -3.231  1.00  0.00    -0.244 OA
BRANCH   7   9
ATOM      9  C   UNL     1       3.803  -3.667  -1.925  1.00  0.00     0.191 A 
ATOM     10  C   UNL     1       2.905  -2.630  -1.617  1.00  0.00     0.167 A 
ATOM     11  N   UNL     1       1.620  -2.939  -1.322  1.00  0.00    -0.235 NA
ATOM     12  C   UNL     1       1.292  -4.250  -1.211  1.00  0.00     0.133 A 
ATOM     13  N   UNL     1       3.464  -4.990  -1.804  1.00  0.00    -0.244 NA
ATOM     14  C   UNL     1       2.204  -5.257  -1.419  1.00  0.00     0.132 A 
BRANCH  10  15
ATOM     15  N   UNL     1       3.308  -1.285  -1.612  1.00  0.00    -0.290 N 
ATOM     16  C   UNL     1      -2.492   0.044  -0.038  1.00  0.00     0.008 C 
ATOM     17  C   UNL     1      -1.041   0.193   0.420  1.00  0.00    -0.011 C 
ATOM     18  C   UNL     1      -0.341   1.311  -0.376  1.00  0.00     0.025 C 
ATOM     19  C   UNL     1      -0.284  -1.141   0.287  1.00  0.00     0.025 C 
ATOM     20  C   UNL     1       1.167   1.358  -0.120  1.00  0.00     0.121 C 
ATOM     21  C   UNL     1       1.201  -0.949   0.607  1.00  0.00     0.121 C 
ATOM     22  N   UNL     1       1.762   0.035  -0.313  1.00  0.00    -0.324 N 
ATOM     23  C   UNL     1       2.766  -0.109  -1.230  1.00  0.00     0.323 C 
ATOM     24  O   UNL     1       3.302   0.887  -1.738  1.00  0.00    -0.248 OA
ATOM     25  H   UNL     1       4.214  -1.171  -1.980  1.00  0.00     0.173 HD
ENDBRANCH  10  15
ENDBRANCH   7   9
ENDBRANCH   6   7
ENDBRANCH   5   6
ENDBRANCH   4   5
ENDBRANCH   3   4
ENDBRANCH   2   3
ENDBRANCH   1   2
BRANCH   1  26
ATOM     26  O   UNL     1       6.152  -0.826   0.926  1.00  0.00    -0.376 OA
BRANCH  26  27
ATOM     27  C   UNL     1       6.302  -0.038   2.102  1.00  0.00     0.202 C 
BRANCH  27  28
ATOM     28  C   UNL     1       7.365  -0.559   3.081  1.00  0.00     0.261 C 
BRANCH  28  29
ATOM     29  O   UNL     1       7.110  -1.873   3.611  1.00  0.00    -0.460 OA
BRANCH  29  30
ATOM     30  C   UNL     1       6.016  -2.007   4.394  1.00  0.00     0.338 C 
ATOM     31  O   UNL     1       5.236  -1.129   4.720  1.00  0.00    -0.246 OA
BRANCH  30  32
ATOM     32  C   UNL     1       5.794  -3.448   4.634  1.00  0.00     0.060 A 
ATOM     33  C   UNL     1       4.551  -3.999   4.300  1.00  0.00     0.016 A 
ATOM     34  C   UNL     1       6.795  -4.245   5.195  1.00  0.00     0.016 A 
ATOM     35  C   UNL     1       4.291  -5.343   4.570  1.00  0.00     0.010 A 
ATOM     36  C   UNL     1       6.527  -5.588   5.480  1.00  0.00     0.010 A 
ATOM     37  C   UNL     1       5.261  -6.133   5.203  1.00  0.00    -0.014 A 
BRANCH  37  38
ATOM     38  C   UNL     1       4.872  -7.454   5.756  1.00  0.00     0.031 A 
ATOM     39  C   UNL     1       4.435  -7.525   7.195  1.00  0.00     0.074 A 
ATOM     40  C   UNL     1       4.864  -8.562   4.994  1.00  0.00     0.049 A 
ATOM     41  N   UNL     1       3.988  -8.546   7.878  1.00  0.00    -0.248 NA
ATOM     42  C   UNL     1       4.512  -6.271   7.963  1.00  0.00     0.031 C 
ATOM     43  C   UNL     1       5.245  -8.625   3.585  1.00  0.00     0.029 A 
ATOM     44  N   UNL     1       4.511  -9.851   5.308  1.00  0.00    -0.354 N 
ATOM     45  C   UNL     1       3.725  -8.059   9.154  1.00  0.00     0.074 A 
ATOM     46  C   UNL     1       4.098  -6.661   9.158  1.00  0.00     0.031 C 
ATOM     47  C   UNL     1       5.099  -9.890   3.152  1.00  0.00     0.029 A 
ATOM     48  C   UNL     1       4.630 -10.727   4.256  1.00  0.00     0.049 A 
ATOM     49  H   UNL     1       4.203 -10.123   6.203  1.00  0.00     0.167 HD
ATOM     50  C   UNL     1       3.209  -8.711  10.224  1.00  0.00     0.037 A 
ATOM     51  C   UNL     1       4.383 -12.052   4.194  1.00  0.00     0.037 A 
ATOM     52  C   UNL     1       2.855 -10.105  10.228  1.00  0.00     0.049 A 
ATOM     53  C   UNL     1       3.859 -12.771   5.411  1.00  0.00     0.074 A 
ATOM     54  C   UNL     1       2.313 -10.854  11.258  1.00  0.00     0.029 A 
ATOM     55  N   UNL     1       3.021 -10.966   9.153  1.00  0.00    -0.354 N 
ATOM     56  N   UNL     1       3.573 -12.289   6.597  1.00  0.00    -0.248 NA
ATOM     57  C   UNL     1       3.615 -14.214   5.274  1.00  0.00     0.031 C 
ATOM     58  C   UNL     1       2.189 -12.177  10.818  1.00  0.00     0.029 A 
ATOM     59  C   UNL     1       2.610 -12.242   9.500  1.00  0.00     0.049 A 
ATOM     60  H   UNL     1       3.378 -10.707   8.273  1.00  0.00     0.167 HD
ATOM     61  C   UNL     1       3.081 -13.361   7.336  1.00  0.00     0.074 A 
ATOM     62  C   UNL     1       3.109 -14.516   6.463  1.00  0.00     0.031 C 
ATOM     63  C   UNL     1       2.636 -13.384   8.618  1.00  0.00     0.037 A 
BRANCH  50  64
ATOM     64  C   UNL     1       3.035  -7.912  11.485  1.00  0.00     0.058 A 
ATOM     65  C   UNL     1       2.043  -6.924  11.601  1.00  0.00     0.135 A 
ATOM     66  C   UNL     1       3.889  -8.116  12.580  1.00  0.00     0.135 A 
ATOM     67  F   UNL     1       1.213  -6.676  10.575  1.00  0.00    -0.206 F 
ATOM     68  C   UNL     1       1.935  -6.134  12.740  1.00  0.00     0.059 A 
ATOM     69  C   UNL     1       3.782  -7.355  13.740  1.00  0.00     0.059 A 
ATOM     70  F   UNL     1       4.854  -9.047  12.521  1.00  0.00    -0.206 F 
ATOM     71  C   UNL     1       2.817  -6.350  13.800  1.00  0.00     0.060 A 
BRANCH  71  72
ATOM     72  S   UNL     1       2.699  -5.288  15.255  1.00  0.00     0.124 S 
ATOM     73  O   UNL     1       3.326  -4.063  14.770  1.00  0.00    -0.237 OA
ATOM     74  O   UNL     1       1.258  -5.217  15.477  1.00  0.00    -0.237 OA
ATOM     75  O   UNL     1       3.450  -6.020  16.270  1.00  0.00    -0.744 OA
ENDBRANCH  71  72
ENDBRANCH  50  64
BRANCH  51  76
ATOM     76  C   UNL     1       4.593 -12.782   2.916  1.00  0.00     0.058 A 
ATOM     77  C   UNL     1       3.502 -13.226   2.154  1.00  0.00     0.135 A 
ATOM     78  C   UNL     1       5.882 -13.040   2.427  1.00  0.00     0.135 A 
ATOM     79  F   UNL     1       2.250 -13.015   2.587  1.00  0.00    -0.206 F 
ATOM     80  C   UNL     1       3.682 -13.903   0.952  1.00  0.00     0.059 A 
ATOM     81  C   UNL     1       6.087 -13.696   1.217  1.00  0.00     0.059 A 
ATOM     82  F   UNL     1       6.957 -12.630   3.119  1.00  0.00    -0.206 F 
ATOM     83  C   UNL     1       4.979 -14.128   0.489  1.00  0.00     0.060 A 
BRANCH  83  84
ATOM     84  S   UNL     1       5.197 -14.945  -1.108  1.00  0.00     0.124 S 
ATOM     85  O   UNL     1       4.858 -16.325  -0.781  1.00  0.00    -0.237 OA
ATOM     86  O   UNL     1       4.239 -14.233  -1.948  1.00  0.00    -0.237 OA
ATOM     87  O   UNL     1       6.601 -14.696  -1.422  1.00  0.00    -0.744 OA
ENDBRANCH  83  84
ENDBRANCH  51  76
BRANCH  63  88
ATOM     88  C   UNL     1       2.097 -14.687   9.142  1.00  0.00     0.058 A 
ATOM     89  C   UNL     1       2.938 -15.766   9.458  1.00  0.00     0.135 A 
ATOM     90  C   UNL     1       0.719 -14.845   9.363  1.00  0.00     0.135 A 
ATOM     91  F   UNL     1       4.263 -15.669   9.264  1.00  0.00    -0.206 F 
ATOM     92  C   UNL     1       2.428 -16.967   9.943  1.00  0.00     0.059 A 
ATOM     93  C   UNL     1       0.190 -16.028   9.870  1.00  0.00     0.059 A 
ATOM     94  F   UNL     1      -0.129 -13.840   9.091  1.00  0.00    -0.206 F 
ATOM     95  C   UNL     1       1.051 -17.090  10.142  1.00  0.00     0.060 A 
BRANCH  95  96
ATOM     96  S   UNL     1       0.398 -18.647  10.781  1.00  0.00     0.124 S 
ATOM     97  O   UNL     1       0.433 -19.490   9.591  1.00  0.00    -0.237 OA
ATOM     98  O   UNL     1       1.357 -18.986  11.827  1.00  0.00    -0.237 OA
ATOM     99  O   UNL     1      -0.935 -18.285  11.256  1.00  0.00    -0.744 OA
ENDBRANCH  95  96
ENDBRANCH  63  88
ENDBRANCH  37  38
ENDBRANCH  30  32
ENDBRANCH  29  30
ENDBRANCH  28  29
ENDBRANCH  27  28
ENDBRANCH  26  27
ENDBRANCH   1  26
TORSDOF 21
