REMARK SMILES C[NH2+][C@@]1(C(=O)OCCOCCOCCOC(=O)c2ccc(-c3c4nc(c(-c5c(F)cc(S(=O)(=O)[O-])cc5F)c5ccc([nH]5)c(-c5c(F)cc(S(=O)(=O)[O-])cc5F)c5nc(c(-c6c(F)cc(S(=O)(=O)[O-])cc6F)c6ccc3[nH]6)C=C5)C=C4)cc2)CCC[C@@H](Oc2cc(F)cc(F)c2)C1
REMARK SMILES IDX 11 1 10 2 9 3 8 4 7 5 6 6 4 7 5 8 3 9 84 10 97 11 85 12
REMARK SMILES IDX 87 13 86 14 2 15 1 16 88 19 89 20 90 21 96 22 91 23 94 24
REMARK SMILES IDX 92 25 93 26 95 27 12 28 13 29 14 30 15 31 16 32 17 33 18 34
REMARK SMILES IDX 19 35 83 36 20 37 82 38 21 39 22 40 23 41 76 42 24 43 81 44
REMARK SMILES IDX 75 45 77 46 25 47 80 48 74 49 73 50 26 52 60 53 39 54 59 55
REMARK SMILES IDX 40 56 43 57 58 58 78 59 41 60 42 61 57 63 79 64 44 65 27 66
REMARK SMILES IDX 28 67 37 68 29 69 30 70 36 71 38 72 31 73 32 74 33 75 34 76
REMARK SMILES IDX 35 77 61 78 62 79 71 80 63 81 64 82 70 83 72 84 65 85 66 86
REMARK SMILES IDX 67 87 68 88 69 89 45 90 46 91 55 92 47 93 48 94 54 95 56 96
REMARK SMILES IDX 49 97 50 98 51 99 52 100 53 101
REMARK H PARENT 2 17 2 18 77 51 43 62
REMARK Flexibility Score: inf
ROOT
ATOM      1  C   UNL     1      -1.142   3.691  -2.340  1.00  0.00     0.188 C 
ENDROOT
BRANCH   1   2
ATOM      2  C   UNL     1      -0.595   2.430  -3.016  1.00  0.00     0.188 C 
BRANCH   2   3
ATOM      3  O   UNL     1      -1.297   1.980  -4.169  1.00  0.00    -0.376 OA
BRANCH   3   4
ATOM      4  C   UNL     1      -2.681   1.684  -4.000  1.00  0.00     0.202 C 
BRANCH   4   5
ATOM      5  C   UNL     1      -3.067   0.719  -2.867  1.00  0.00     0.261 C 
BRANCH   5   6
ATOM      6  O   UNL     1      -2.583   1.081  -1.550  1.00  0.00    -0.459 OA
BRANCH   6   7
ATOM      7  C   UNL     1      -1.793   0.147  -0.949  1.00  0.00     0.368 C 
ATOM      8  O   UNL     1      -1.572  -0.959  -1.439  1.00  0.00    -0.245 OA
BRANCH   7   9
ATOM      9  C   UNL     1      -1.218   0.562   0.448  1.00  0.00     0.197 C 
ATOM     10  C   UNL     1      -1.685  -0.542   1.426  1.00  0.00     0.081 C 
ATOM     11  C   UNL     1      -1.644   1.916   1.055  1.00  0.00     0.126 C 
ATOM     12  C   UNL     1      -3.204  -0.466   1.654  1.00  0.00     0.011 C 
ATOM     13  C   UNL     1      -3.117   2.064   1.428  1.00  0.00     0.180 C 
ATOM     14  C   UNL     1      -3.627   0.876   2.251  1.00  0.00     0.046 C 
BRANCH   9  15
ATOM     15  N   UNL     1       0.272   0.714   0.363  1.00  0.00    -0.334 N 
ATOM     16  C   UNL     1       1.040  -0.448  -0.057  1.00  0.00     0.331 C 
ATOM     17  H   UNL     1       0.466   1.465  -0.299  1.00  0.00     0.347 HD
ATOM     18  H   UNL     1       0.571   0.893   1.322  1.00  0.00     0.347 HD
ENDBRANCH   9  15
BRANCH  13  19
ATOM     19  O   UNL     1      -3.422   3.353   2.021  1.00  0.00    -0.490 OA
BRANCH  19  20
ATOM     20  C   UNL     1      -2.952   3.616   3.278  1.00  0.00     0.125 A 
ATOM     21  C   UNL     1      -3.875   3.680   4.321  1.00  0.00     0.085 A 
ATOM     22  C   UNL     1      -1.622   3.961   3.521  1.00  0.00     0.085 A 
ATOM     23  C   UNL     1      -3.444   4.001   5.607  1.00  0.00     0.129 A 
ATOM     24  C   UNL     1      -1.208   4.251   4.820  1.00  0.00     0.129 A 
ATOM     25  F   UNL     1      -4.336   4.058   6.606  1.00  0.00    -0.207 F 
ATOM     26  C   UNL     1      -2.109   4.268   5.874  1.00  0.00     0.078 A 
ATOM     27  F   UNL     1       0.082   4.526   5.054  1.00  0.00    -0.207 F 
ENDBRANCH  19  20
ENDBRANCH  13  19
ENDBRANCH   7   9
ENDBRANCH   6   7
ENDBRANCH   5   6
ENDBRANCH   4   5
ENDBRANCH   3   4
ENDBRANCH   2   3
ENDBRANCH   1   2
BRANCH   1  28
ATOM     28  O   UNL     1      -2.550   3.860  -2.388  1.00  0.00    -0.376 OA
BRANCH  28  29
ATOM     29  C   UNL     1      -3.051   5.181  -2.177  1.00  0.00     0.202 C 
BRANCH  29  30
ATOM     30  C   UNL     1      -2.566   6.269  -3.164  1.00  0.00     0.261 C 
BRANCH  30  31
ATOM     31  O   UNL     1      -1.146   6.540  -3.183  1.00  0.00    -0.460 OA
BRANCH  31  32
ATOM     32  C   UNL     1      -0.536   6.780  -1.997  1.00  0.00     0.338 C 
ATOM     33  O   UNL     1      -1.093   7.054  -0.946  1.00  0.00    -0.246 OA
BRANCH  32  34
ATOM     34  C   UNL     1       0.896   6.374  -2.104  1.00  0.00     0.060 A 
ATOM     35  C   UNL     1       1.452   5.630  -1.052  1.00  0.00     0.016 A 
ATOM     36  C   UNL     1       1.664   6.638  -3.242  1.00  0.00     0.016 A 
ATOM     37  C   UNL     1       2.783   5.198  -1.109  1.00  0.00     0.010 A 
ATOM     38  C   UNL     1       3.002   6.218  -3.292  1.00  0.00     0.010 A 
ATOM     39  C   UNL     1       3.583   5.529  -2.210  1.00  0.00    -0.014 A 
BRANCH  39  40
ATOM     40  C   UNL     1       5.062   5.362  -2.142  1.00  0.00     0.031 A 
ATOM     41  C   UNL     1       5.893   6.571  -1.790  1.00  0.00     0.074 A 
ATOM     42  C   UNL     1       5.672   4.183  -2.369  1.00  0.00     0.049 A 
ATOM     43  N   UNL     1       7.193   6.708  -1.745  1.00  0.00    -0.248 NA
ATOM     44  C   UNL     1       5.148   7.794  -1.447  1.00  0.00     0.031 C 
ATOM     45  C   UNL     1       4.999   2.923  -2.673  1.00  0.00     0.029 A 
ATOM     46  N   UNL     1       7.011   3.863  -2.394  1.00  0.00    -0.354 N 
ATOM     47  C   UNL     1       7.422   8.030  -1.380  1.00  0.00     0.074 A 
ATOM     48  C   UNL     1       6.127   8.662  -1.248  1.00  0.00     0.031 C 
ATOM     49  C   UNL     1       5.929   1.970  -2.874  1.00  0.00     0.029 A 
ATOM     50  C   UNL     1       7.263   2.558  -2.747  1.00  0.00     0.049 A 
ATOM     51  H   UNL     1       7.722   4.509  -2.179  1.00  0.00     0.167 HD
ATOM     52  C   UNL     1       8.600   8.663  -1.165  1.00  0.00     0.037 A 
ATOM     53  C   UNL     1       8.432   1.919  -2.970  1.00  0.00     0.037 A 
ATOM     54  C   UNL     1       9.890   8.040  -1.298  1.00  0.00     0.049 A 
ATOM     55  C   UNL     1       9.737   2.663  -2.801  1.00  0.00     0.074 A 
ATOM     56  C   UNL     1      11.139   8.600  -1.092  1.00  0.00     0.029 A 
ATOM     57  N   UNL     1      10.101   6.724  -1.681  1.00  0.00    -0.354 N 
ATOM     58  N   UNL     1       9.939   3.908  -2.440  1.00  0.00    -0.248 NA
ATOM     59  C   UNL     1      10.974   1.912  -3.068  1.00  0.00     0.031 C 
ATOM     60  C   UNL     1      12.107   7.638  -1.402  1.00  0.00     0.029 A 
ATOM     61  C   UNL     1      11.460   6.460  -1.740  1.00  0.00     0.049 A 
ATOM     62  H   UNL     1       9.390   6.073  -1.881  1.00  0.00     0.167 HD
ATOM     63  C   UNL     1      11.321   4.079  -2.407  1.00  0.00     0.074 A 
ATOM     64  C   UNL     1      11.908   2.808  -2.775  1.00  0.00     0.031 C 
ATOM     65  C   UNL     1      12.039   5.188  -2.096  1.00  0.00     0.037 A 
BRANCH  52  66
ATOM     66  C   UNL     1       8.546  10.119  -0.788  1.00  0.00     0.058 A 
ATOM     67  C   UNL     1       8.079  10.542   0.467  1.00  0.00     0.135 A 
ATOM     68  C   UNL     1       8.990  11.102  -1.687  1.00  0.00     0.135 A 
ATOM     69  F   UNL     1       7.623   9.646   1.357  1.00  0.00    -0.206 F 
ATOM     70  C   UNL     1       8.027  11.890   0.806  1.00  0.00     0.059 A 
ATOM     71  C   UNL     1       8.976  12.454  -1.357  1.00  0.00     0.059 A 
ATOM     72  F   UNL     1       9.444  10.753  -2.901  1.00  0.00    -0.206 F 
ATOM     73  C   UNL     1       8.478  12.839  -0.113  1.00  0.00     0.060 A 
BRANCH  73  74
ATOM     74  S   UNL     1       8.405  14.584   0.343  1.00  0.00     0.124 S 
ATOM     75  O   UNL     1       6.968  14.837   0.292  1.00  0.00    -0.237 OA
ATOM     76  O   UNL     1       9.001  14.582   1.675  1.00  0.00    -0.237 OA
ATOM     77  O   UNL     1       9.195  15.241  -0.693  1.00  0.00    -0.744 OA
ENDBRANCH  73  74
ENDBRANCH  52  66
BRANCH  53  78
ATOM     78  C   UNL     1       8.434   0.492  -3.402  1.00  0.00     0.058 A 
ATOM     79  C   UNL     1       8.921  -0.523  -2.564  1.00  0.00     0.135 A 
ATOM     80  C   UNL     1       7.965   0.117  -4.671  1.00  0.00     0.135 A 
ATOM     81  F   UNL     1       9.402  -0.217  -1.349  1.00  0.00    -0.206 F 
ATOM     82  C   UNL     1       8.954  -1.854  -2.971  1.00  0.00     0.059 A 
ATOM     83  C   UNL     1       7.960  -1.210  -5.090  1.00  0.00     0.059 A 
ATOM     84  F   UNL     1       7.489   1.047  -5.513  1.00  0.00    -0.206 F 
ATOM     85  C   UNL     1       8.465  -2.189  -4.235  1.00  0.00     0.060 A 
BRANCH  85  86
ATOM     86  S   UNL     1       8.461  -3.926  -4.730  1.00  0.00     0.124 S 
ATOM     87  O   UNL     1       9.881  -4.176  -4.944  1.00  0.00    -0.237 OA
ATOM     88  O   UNL     1       7.867  -4.574  -3.564  1.00  0.00    -0.237 OA
ATOM     89  O   UNL     1       7.631  -3.932  -5.931  1.00  0.00    -0.744 OA
ENDBRANCH  85  86
ENDBRANCH  53  78
BRANCH  65  90
ATOM     90  C   UNL     1      13.542   5.079  -2.092  1.00  0.00     0.058 A 
ATOM     91  C   UNL     1      14.284   4.964  -3.278  1.00  0.00     0.135 A 
ATOM     92  C   UNL     1      14.255   5.156  -0.883  1.00  0.00     0.135 A 
ATOM     93  F   UNL     1      13.656   4.883  -4.462  1.00  0.00    -0.206 F 
ATOM     94  C   UNL     1      15.675   4.906  -3.264  1.00  0.00     0.059 A 
ATOM     95  C   UNL     1      15.646   5.130  -0.848  1.00  0.00     0.059 A 
ATOM     96  F   UNL     1      13.598   5.280   0.282  1.00  0.00    -0.206 F 
ATOM     97  C   UNL     1      16.348   4.993  -2.044  1.00  0.00     0.060 A 
BRANCH  97  98
ATOM     98  S   UNL     1      18.154   4.951  -2.044  1.00  0.00     0.124 S 
ATOM     99  O   UNL     1      18.416   3.549  -2.353  1.00  0.00    -0.237 OA
ATOM    100  O   UNL     1      18.488   5.906  -3.096  1.00  0.00    -0.237 OA
ATOM    101  O   UNL     1      18.504   5.370  -0.690  1.00  0.00    -0.744 OA
ENDBRANCH  97  98
ENDBRANCH  65  90
ENDBRANCH  39  40
ENDBRANCH  32  34
ENDBRANCH  31  32
ENDBRANCH  30  31
ENDBRANCH  29  30
ENDBRANCH  28  29
ENDBRANCH   1  28
TORSDOF 23
