REMARK SMILES [NH3+][C@@H](Cc1cccc(O)c1)C(=O)OCCOCCOCCOC(=O)c1ccc(-c2c3nc(c(-c4c(F)cc(S(=O)(=O)[O-])cc4F)c4ccc([nH]4)c(-c4c(F)cc(S(=O)(=O)[O-])cc4F)c4nc(c(-c5c(F)cc(S(=O)(=O)[O-])cc5F)c5ccc2[nH]5)C=C4)C=C3)cc1
REMARK SMILES IDX 17 1 16 2 15 3 14 4 13 5 11 6 12 7 2 8 1 9 3 13 4 14 5 15
REMARK SMILES IDX 10 16 6 17 8 18 7 19 9 20 18 22 19 23 20 24 21 25 22 26
REMARK SMILES IDX 23 27 24 28 25 29 26 30 90 31 27 32 89 33 28 34 29 35 30 36
REMARK SMILES IDX 83 37 31 38 88 39 82 40 84 41 32 42 87 43 81 44 80 45 33 47
REMARK SMILES IDX 67 48 46 49 66 50 47 51 50 52 65 53 85 54 48 55 49 56 64 58
REMARK SMILES IDX 86 59 51 60 34 61 35 62 44 63 36 64 37 65 43 66 45 67 38 68
REMARK SMILES IDX 39 69 40 70 41 71 42 72 68 73 69 74 78 75 70 76 71 77 77 78
REMARK SMILES IDX 79 79 72 80 73 81 74 82 75 83 76 84 52 85 53 86 62 87 54 88
REMARK SMILES IDX 55 89 61 90 63 91 56 92 57 93 58 94 59 95 60 96
REMARK H PARENT 1 10 1 11 1 12 9 21 84 46 50 57
REMARK Flexibility Score: inf
ROOT
ATOM      1  C   UNL     1      -2.344  -1.908  -0.547  1.00  0.00     0.188 C 
ENDROOT
BRANCH   1   2
ATOM      2  O   UNL     1      -3.692  -1.710  -0.153  1.00  0.00    -0.376 OA
BRANCH   2   3
ATOM      3  C   UNL     1      -4.010  -0.605   0.680  1.00  0.00     0.202 C 
BRANCH   3   4
ATOM      4  C   UNL     1      -3.111  -0.218   1.867  1.00  0.00     0.261 C 
BRANCH   4   5
ATOM      5  O   UNL     1      -1.702  -0.116   1.589  1.00  0.00    -0.459 OA
BRANCH   5   6
ATOM      6  C   UNL     1      -0.882  -0.921   2.326  1.00  0.00     0.365 C 
ATOM      7  O   UNL     1      -1.279  -1.732   3.158  1.00  0.00    -0.245 OA
BRANCH   6   8
ATOM      8  C   UNL     1       0.621  -0.650   2.109  1.00  0.00     0.296 C 
BRANCH   8   9
ATOM      9  N   UNL     1       0.952  -0.030   0.804  1.00  0.00    -0.346 N 
ATOM     10  H   UNL     1       1.959   0.115   0.742  1.00  0.00     0.345 HD
ATOM     11  H   UNL     1       0.473   0.867   0.722  1.00  0.00     0.345 HD
ATOM     12  H   UNL     1       0.650  -0.646   0.049  1.00  0.00     0.345 HD
ENDBRANCH   8   9
BRANCH   8  13
ATOM     13  C   UNL     1       1.171   0.168   3.294  1.00  0.00     0.113 C 
BRANCH  13  14
ATOM     14  C   UNL     1       0.680   1.601   3.283  1.00  0.00    -0.038 A 
ATOM     15  C   UNL     1       1.452   2.614   2.696  1.00  0.00     0.004 A 
ATOM     16  C   UNL     1      -0.615   1.901   3.725  1.00  0.00     0.050 A 
ATOM     17  C   UNL     1       0.915   3.889   2.509  1.00  0.00     0.004 A 
ATOM     18  C   UNL     1      -1.154   3.159   3.493  1.00  0.00     0.115 A 
ATOM     19  C   UNL     1      -0.399   4.159   2.891  1.00  0.00     0.046 A 
BRANCH  18  20
ATOM     20  O   UNL     1      -2.459   3.360   3.835  1.00  0.00    -0.508 OA
ATOM     21  H   UNL     1      -2.857   4.196   3.693  1.00  0.00     0.293 HD
ENDBRANCH  18  20
ENDBRANCH  13  14
ENDBRANCH   8  13
ENDBRANCH   6   8
ENDBRANCH   5   6
ENDBRANCH   4   5
ENDBRANCH   3   4
ENDBRANCH   2   3
ENDBRANCH   1   2
BRANCH   1  22
ATOM     22  C   UNL     1      -1.586  -0.750  -1.219  1.00  0.00     0.188 C 
BRANCH  22  23
ATOM     23  O   UNL     1      -2.229   0.500  -1.245  1.00  0.00    -0.376 OA
BRANCH  23  24
ATOM     24  C   UNL     1      -3.044   0.844  -2.351  1.00  0.00     0.202 C 
BRANCH  24  25
ATOM     25  C   UNL     1      -3.499  -0.113  -3.476  1.00  0.00     0.261 C 
BRANCH  25  26
ATOM     26  O   UNL     1      -3.039  -1.468  -3.465  1.00  0.00    -0.460 OA
BRANCH  26  27
ATOM     27  C   UNL     1      -1.959  -1.743  -4.243  1.00  0.00     0.338 C 
ATOM     28  O   UNL     1      -1.344  -0.963  -4.942  1.00  0.00    -0.246 OA
BRANCH  27  29
ATOM     29  C   UNL     1      -1.504  -3.117  -3.928  1.00  0.00     0.060 A 
ATOM     30  C   UNL     1      -0.259  -3.295  -3.304  1.00  0.00     0.016 A 
ATOM     31  C   UNL     1      -2.300  -4.218  -4.240  1.00  0.00     0.016 A 
ATOM     32  C   UNL     1       0.201  -4.580  -3.008  1.00  0.00     0.010 A 
ATOM     33  C   UNL     1      -1.824  -5.505  -3.970  1.00  0.00     0.010 A 
ATOM     34  C   UNL     1      -0.561  -5.694  -3.378  1.00  0.00    -0.014 A 
BRANCH  34  35
ATOM     35  C   UNL     1       0.033  -7.054  -3.333  1.00  0.00     0.031 A 
ATOM     36  C   UNL     1       0.594  -7.625  -4.608  1.00  0.00     0.074 A 
ATOM     37  C   UNL     1       0.069  -7.774  -2.196  1.00  0.00     0.049 A 
ATOM     38  N   UNL     1       1.063  -8.821  -4.848  1.00  0.00    -0.248 NA
ATOM     39  C   UNL     1       0.623  -6.722  -5.771  1.00  0.00     0.031 C 
ATOM     40  C   UNL     1      -0.397  -7.317  -0.888  1.00  0.00     0.029 A 
ATOM     41  N   UNL     1       0.505  -9.057  -1.969  1.00  0.00    -0.354 N 
ATOM     42  C   UNL     1       1.427  -8.821  -6.189  1.00  0.00     0.074 A 
ATOM     43  C   UNL     1       1.104  -7.514  -6.717  1.00  0.00     0.031 C 
ATOM     44  C   UNL     1      -0.244  -8.315   0.001  1.00  0.00     0.029 A 
ATOM     45  C   UNL     1       0.294  -9.491  -0.681  1.00  0.00     0.049 A 
ATOM     46  H   UNL     1       0.928  -9.613  -2.663  1.00  0.00     0.167 HD
ATOM     47  C   UNL     1       1.985  -9.819  -6.915  1.00  0.00     0.037 A 
ATOM     48  C   UNL     1       0.483 -10.707  -0.128  1.00  0.00     0.037 A 
ATOM     49  C   UNL     1       2.304 -11.118  -6.384  1.00  0.00     0.049 A 
ATOM     50  C   UNL     1       1.037 -11.828  -0.976  1.00  0.00     0.074 A 
ATOM     51  C   UNL     1       2.887 -12.192  -7.034  1.00  0.00     0.029 A 
ATOM     52  N   UNL     1       2.061 -11.525  -5.080  1.00  0.00    -0.354 N 
ATOM     53  N   UNL     1       1.396 -11.812  -2.238  1.00  0.00    -0.248 NA
ATOM     54  C   UNL     1       1.214 -13.134  -0.323  1.00  0.00     0.031 C 
ATOM     55  C   UNL     1       2.943 -13.266  -6.141  1.00  0.00     0.029 A 
ATOM     56  C   UNL     1       2.458 -12.842  -4.914  1.00  0.00     0.049 A 
ATOM     57  H   UNL     1       1.665 -10.961  -4.377  1.00  0.00     0.167 HD
ATOM     58  C   UNL     1       1.874 -13.090  -2.518  1.00  0.00     0.074 A 
ATOM     59  C   UNL     1       1.766 -13.852  -1.292  1.00  0.00     0.031 C 
ATOM     60  C   UNL     1       2.362 -13.586  -3.683  1.00  0.00     0.037 A 
BRANCH  47  61
ATOM     61  C   UNL     1       2.260  -9.557  -8.370  1.00  0.00     0.058 A 
ATOM     62  C   UNL     1       3.280  -8.688  -8.788  1.00  0.00     0.135 A 
ATOM     63  C   UNL     1       1.520 -10.223  -9.362  1.00  0.00     0.135 A 
ATOM     64  F   UNL     1       4.004  -8.010  -7.884  1.00  0.00    -0.206 F 
ATOM     65  C   UNL     1       3.545  -8.474 -10.137  1.00  0.00     0.059 A 
ATOM     66  C   UNL     1       1.787 -10.047 -10.716  1.00  0.00     0.059 A 
ATOM     67  F   UNL     1       0.529 -11.061  -9.018  1.00  0.00    -0.206 F 
ATOM     68  C   UNL     1       2.796  -9.162 -11.094  1.00  0.00     0.060 A 
BRANCH  68  69
ATOM     69  S   UNL     1       3.168  -8.890 -12.839  1.00  0.00     0.124 S 
ATOM     70  O   UNL     1       2.677  -7.529 -13.033  1.00  0.00    -0.237 OA
ATOM     71  O   UNL     1       4.618  -9.051 -12.875  1.00  0.00    -0.237 OA
ATOM     72  O   UNL     1       2.407  -9.934 -13.518  1.00  0.00    -0.744 OA
ENDBRANCH  68  69
ENDBRANCH  47  61
BRANCH  48  73
ATOM     73  C   UNL     1       0.128 -10.947   1.299  1.00  0.00     0.058 A 
ATOM     74  C   UNL     1       1.116 -11.220   2.257  1.00  0.00     0.135 A 
ATOM     75  C   UNL     1      -1.208 -10.931   1.729  1.00  0.00     0.135 A 
ATOM     76  F   UNL     1       2.407 -11.264   1.895  1.00  0.00    -0.206 F 
ATOM     77  C   UNL     1       0.792 -11.490   3.584  1.00  0.00     0.059 A 
ATOM     78  C   UNL     1      -1.555 -11.167   3.056  1.00  0.00     0.059 A 
ATOM     79  F   UNL     1      -2.193 -10.670   0.855  1.00  0.00    -0.206 F 
ATOM     80  C   UNL     1      -0.547 -11.458   3.974  1.00  0.00     0.060 A 
BRANCH  80  81
ATOM     81  S   UNL     1      -0.952 -11.776   5.706  1.00  0.00     0.124 S 
ATOM     82  O   UNL     1      -0.692 -13.207   5.811  1.00  0.00    -0.237 OA
ATOM     83  O   UNL     1      -0.013 -10.903   6.404  1.00  0.00    -0.237 OA
ATOM     84  O   UNL     1      -2.354 -11.381   5.802  1.00  0.00    -0.744 OA
ENDBRANCH  80  81
ENDBRANCH  48  73
BRANCH  60  85
ATOM     85  C   UNL     1       2.871 -15.004  -3.685  1.00  0.00     0.058 A 
ATOM     86  C   UNL     1       2.007 -16.107  -3.601  1.00  0.00     0.135 A 
ATOM     87  C   UNL     1       4.244 -15.261  -3.838  1.00  0.00     0.135 A 
ATOM     88  F   UNL     1       0.686 -15.921  -3.451  1.00  0.00    -0.206 F 
ATOM     89  C   UNL     1       2.488 -17.413  -3.645  1.00  0.00     0.059 A 
ATOM     90  C   UNL     1       4.744 -16.558  -3.916  1.00  0.00     0.059 A 
ATOM     91  F   UNL     1       5.116 -14.244  -3.936  1.00  0.00    -0.206 F 
ATOM     92  C   UNL     1       3.858 -17.628  -3.806  1.00  0.00     0.060 A 
BRANCH  92  93
ATOM     93  S   UNL     1       4.464 -19.326  -3.897  1.00  0.00     0.124 S 
ATOM     94  O   UNL     1       4.312 -19.768  -2.515  1.00  0.00    -0.237 OA
ATOM     95  O   UNL     1       3.549 -19.932  -4.860  1.00  0.00    -0.237 OA
ATOM     96  O   UNL     1       5.840 -19.174  -4.360  1.00  0.00    -0.744 OA
ENDBRANCH  92  93
ENDBRANCH  60  85
ENDBRANCH  34  35
ENDBRANCH  27  29
ENDBRANCH  26  27
ENDBRANCH  25  26
ENDBRANCH  24  25
ENDBRANCH  23  24
ENDBRANCH  22  23
ENDBRANCH   1  22
TORSDOF 24
