REMARK SMILES Cc1c(C[NH2+]Cc2cccc(F)c2)c(C(=O)OCCOCCOCCOC(=O)c2ccc(-c3c4nc(c(-c5c(F)cc(S(=O)(=O)[O-])cc5F)c5ccc([nH]5)c(-c5c(F)cc(S(=O)(=O)[O-])cc5F)c5nc(c(-c6c(F)cc(S(=O)(=O)[O-])cc6F)c6ccc3[nH]6)C=C5)C=C4)cc2)c(C)n1Cc1c(F)cccc1Cl
REMARK SMILES IDX 21 1 20 2 19 3 18 4 17 5 15 6 16 7 14 8 1 9 2 10 3 11 97 12
REMARK SMILES IDX 95 13 96 14 4 15 5 16 6 19 7 20 8 21 13 22 9 23 11 24 10 25
REMARK SMILES IDX 12 26 98 27 99 28 100 29 105 30 101 31 102 32 104 33 106 34
REMARK SMILES IDX 103 35 22 36 23 37 24 38 25 39 26 40 27 41 28 42 29 43 30 44
REMARK SMILES IDX 94 45 31 46 93 47 32 48 33 49 34 50 87 51 35 52 92 53 86 54
REMARK SMILES IDX 88 55 36 56 91 57 85 58 84 59 37 61 71 62 50 63 70 64 51 65
REMARK SMILES IDX 54 66 69 67 89 68 52 69 53 70 68 72 90 73 55 74 38 75 39 76
REMARK SMILES IDX 48 77 40 78 41 79 47 80 49 81 42 82 43 83 44 84 45 85 46 86
REMARK SMILES IDX 72 87 73 88 82 89 74 90 75 91 81 92 83 93 76 94 77 95 78 96
REMARK SMILES IDX 79 97 80 98 56 99 57 100 66 101 58 102 59 103 65 104 67 105
REMARK SMILES IDX 60 106 61 107 62 108 63 109 64 110
REMARK H PARENT 5 17 5 18 88 60 54 71
REMARK Flexibility Score: inf
ROOT
ATOM      1  C   UNL     1      -2.971   4.605  -3.245  1.00  0.00     0.188 C 
ENDROOT
BRANCH   1   2
ATOM      2  O   UNL     1      -3.721   5.798  -3.164  1.00  0.00    -0.376 OA
BRANCH   2   3
ATOM      3  C   UNL     1      -3.435   6.837  -2.242  1.00  0.00     0.202 C 
BRANCH   3   4
ATOM      4  C   UNL     1      -2.700   6.676  -0.907  1.00  0.00     0.261 C 
BRANCH   4   5
ATOM      5  O   UNL     1      -1.711   5.660  -0.872  1.00  0.00    -0.460 OA
BRANCH   5   6
ATOM      6  C   UNL     1      -2.011   4.590  -0.067  1.00  0.00     0.340 C 
ATOM      7  O   UNL     1      -3.026   4.463   0.580  1.00  0.00    -0.246 OA
BRANCH   6   8
ATOM      8  C   UNL     1      -0.903   3.640  -0.074  1.00  0.00     0.089 A 
ATOM      9  C   UNL     1       0.835   0.372  -0.335  1.00  0.00     0.065 C 
ATOM     10  C   UNL     1       0.383   1.790  -0.235  1.00  0.00     0.025 A 
ATOM     11  C   UNL     1      -0.904   2.274  -0.478  1.00  0.00     0.042 A 
ATOM     12  N   UNL     1       1.196   2.862   0.133  1.00  0.00    -0.343 N 
ATOM     13  C   UNL     1       0.382   3.965   0.333  1.00  0.00     0.030 A 
ATOM     14  C   UNL     1       0.813   5.290   0.865  1.00  0.00     0.065 C 
BRANCH  11  15
ATOM     15  C   UNL     1      -2.065   1.523  -1.084  1.00  0.00     0.300 C 
BRANCH  15  16
ATOM     16  N   UNL     1      -3.185   1.532  -0.159  1.00  0.00    -0.339 N 
ATOM     17  H   UNL     1      -3.483   2.498  -0.025  1.00  0.00     0.346 HD
ATOM     18  H   UNL     1      -2.859   1.100   0.706  1.00  0.00     0.346 HD
BRANCH  16  19
ATOM     19  C   UNL     1      -4.334   0.755  -0.613  1.00  0.00     0.297 C 
BRANCH  19  20
ATOM     20  C   UNL     1      -4.225  -0.754  -0.500  1.00  0.00     0.009 A 
ATOM     21  C   UNL     1      -3.106  -1.420   0.029  1.00  0.00     0.010 A 
ATOM     22  C   UNL     1      -5.301  -1.535  -0.955  1.00  0.00     0.048 A 
ATOM     23  C   UNL     1      -3.035  -2.816   0.047  1.00  0.00     0.004 A 
ATOM     24  C   UNL     1      -5.231  -2.925  -0.911  1.00  0.00     0.123 A 
ATOM     25  C   UNL     1      -4.101  -3.572  -0.428  1.00  0.00     0.039 A 
ATOM     26  F   UNL     1      -6.269  -3.652  -1.344  1.00  0.00    -0.207 F 
ENDBRANCH  19  20
ENDBRANCH  16  19
ENDBRANCH  15  16
ENDBRANCH  11  15
BRANCH  12  27
ATOM     27  C   UNL     1       2.646   2.808   0.424  1.00  0.00     0.162 C 
BRANCH  27  28
ATOM     28  C   UNL     1       3.540   3.297  -0.699  1.00  0.00     0.026 A 
ATOM     29  C   UNL     1       3.698   4.673  -0.926  1.00  0.00     0.129 A 
ATOM     30  C   UNL     1       4.301   2.453  -1.524  1.00  0.00     0.048 A 
ATOM     31  F   UNL     1       3.229   5.559  -0.044  1.00  0.00    -0.207 F 
ATOM     32  C   UNL     1       4.432   5.193  -1.992  1.00  0.00     0.040 A 
ATOM     33  C   UNL     1       5.075   2.968  -2.581  1.00  0.00     0.021 A 
ATOM     34  Cl  UNL     1       4.451   0.757  -1.237  1.00  0.00    -0.084 Cl
ATOM     35  C   UNL     1       5.113   4.335  -2.838  1.00  0.00     0.005 A 
ENDBRANCH  27  28
ENDBRANCH  12  27
ENDBRANCH   6   8
ENDBRANCH   5   6
ENDBRANCH   4   5
ENDBRANCH   3   4
ENDBRANCH   2   3
ENDBRANCH   1   2
BRANCH   1  36
ATOM     36  C   UNL     1      -1.589   4.587  -3.921  1.00  0.00     0.188 C 
BRANCH  36  37
ATOM     37  O   UNL     1      -1.043   5.812  -4.359  1.00  0.00    -0.376 OA
BRANCH  37  38
ATOM     38  C   UNL     1      -1.784   6.573  -5.316  1.00  0.00     0.202 C 
BRANCH  38  39
ATOM     39  C   UNL     1      -2.205   5.969  -6.697  1.00  0.00     0.261 C 
BRANCH  39  40
ATOM     40  O   UNL     1      -3.570   5.436  -6.954  1.00  0.00    -0.460 OA
BRANCH  40  41
ATOM     41  C   UNL     1      -3.650   4.217  -7.612  1.00  0.00     0.338 C 
ATOM     42  O   UNL     1      -2.749   3.389  -7.516  1.00  0.00    -0.246 OA
BRANCH  41  43
ATOM     43  C   UNL     1      -4.949   3.867  -8.417  1.00  0.00     0.060 A 
ATOM     44  C   UNL     1      -5.684   2.744  -8.055  1.00  0.00     0.016 A 
ATOM     45  C   UNL     1      -5.344   4.379  -9.679  1.00  0.00     0.016 A 
ATOM     46  C   UNL     1      -6.782   2.227  -8.869  1.00  0.00     0.010 A 
ATOM     47  C   UNL     1      -6.436   3.791 -10.550  1.00  0.00     0.010 A 
ATOM     48  C   UNL     1      -7.218   2.676 -10.185  1.00  0.00    -0.014 A 
BRANCH  48  49
ATOM     49  C   UNL     1      -8.216   1.617 -11.107  1.00  0.00     0.031 A 
ATOM     50  C   UNL     1      -7.698   0.298 -10.640  1.00  0.00     0.074 A 
ATOM     51  C   UNL     1      -9.164   1.446 -12.167  1.00  0.00     0.049 A 
ATOM     52  N   UNL     1      -6.422   0.057 -10.758  1.00  0.00    -0.248 NA
ATOM     53  C   UNL     1      -8.394  -0.582  -9.699  1.00  0.00     0.031 C 
ATOM     54  C   UNL     1      -9.687   2.454 -13.117  1.00  0.00     0.029 A 
ATOM     55  N   UNL     1      -9.903   0.287 -12.702  1.00  0.00    -0.354 N 
ATOM     56  C   UNL     1      -6.200  -1.170 -10.200  1.00  0.00     0.074 A 
ATOM     57  C   UNL     1      -7.381  -1.397  -9.372  1.00  0.00     0.031 C 
ATOM     58  C   UNL     1     -10.691   1.974 -13.926  1.00  0.00     0.029 A 
ATOM     59  C   UNL     1     -10.963   0.547 -13.704  1.00  0.00     0.049 A 
ATOM     60  H   UNL     1      -9.700  -0.629 -12.402  1.00  0.00     0.167 HD
ATOM     61  C   UNL     1      -5.541  -2.045 -11.012  1.00  0.00     0.037 A 
ATOM     62  C   UNL     1     -11.880  -0.299 -14.394  1.00  0.00     0.037 A 
ATOM     63  C   UNL     1      -6.447  -2.954 -11.660  1.00  0.00     0.049 A 
ATOM     64  C   UNL     1     -11.135  -1.551 -14.580  1.00  0.00     0.074 A 
ATOM     65  C   UNL     1      -7.576  -3.624 -11.234  1.00  0.00     0.029 A 
ATOM     66  N   UNL     1      -6.519  -2.885 -13.035  1.00  0.00    -0.354 N 
ATOM     67  N   UNL     1     -10.172  -1.649 -15.445  1.00  0.00    -0.248 NA
ATOM     68  C   UNL     1     -11.531  -2.795 -13.929  1.00  0.00     0.031 C 
ATOM     69  C   UNL     1      -8.507  -3.422 -12.272  1.00  0.00     0.029 A 
ATOM     70  C   UNL     1      -7.828  -3.037 -13.422  1.00  0.00     0.049 A 
ATOM     71  H   UNL     1      -5.755  -2.748 -13.641  1.00  0.00     0.167 HD
ATOM     72  C   UNL     1      -9.527  -2.779 -15.056  1.00  0.00     0.074 A 
ATOM     73  C   UNL     1     -10.523  -3.565 -14.343  1.00  0.00     0.031 C 
ATOM     74  C   UNL     1      -8.219  -2.616 -14.747  1.00  0.00     0.037 A 
BRANCH  61  75
ATOM     75  C   UNL     1      -4.330  -1.463 -11.701  1.00  0.00     0.058 A 
ATOM     76  C   UNL     1      -4.394  -0.440 -12.676  1.00  0.00     0.135 A 
ATOM     77  C   UNL     1      -3.061  -1.911 -11.327  1.00  0.00     0.135 A 
ATOM     78  F   UNL     1      -5.577  -0.046 -13.178  1.00  0.00    -0.206 F 
ATOM     79  C   UNL     1      -3.255   0.179 -13.174  1.00  0.00     0.059 A 
ATOM     80  C   UNL     1      -1.904  -1.338 -11.851  1.00  0.00     0.059 A 
ATOM     81  F   UNL     1      -2.935  -2.917 -10.446  1.00  0.00    -0.206 F 
ATOM     82  C   UNL     1      -2.010  -0.268 -12.742  1.00  0.00     0.060 A 
BRANCH  82  83
ATOM     83  S   UNL     1      -0.523   0.536 -13.377  1.00  0.00     0.124 S 
ATOM     84  O   UNL     1      -0.792   0.629 -14.804  1.00  0.00    -0.237 OA
ATOM     85  O   UNL     1      -0.525   1.798 -12.643  1.00  0.00    -0.237 OA
ATOM     86  O   UNL     1       0.542  -0.395 -13.007  1.00  0.00    -0.744 OA
ENDBRANCH  82  83
ENDBRANCH  61  75
BRANCH  62  87
ATOM     87  C   UNL     1     -13.233  -0.470 -15.295  1.00  0.00     0.058 A 
ATOM     88  C   UNL     1     -14.482   0.079 -14.945  1.00  0.00     0.135 A 
ATOM     89  C   UNL     1     -13.396  -1.561 -16.245  1.00  0.00     0.135 A 
ATOM     90  F   UNL     1     -14.534   1.119 -14.101  1.00  0.00    -0.206 F 
ATOM     91  C   UNL     1     -15.744  -0.462 -15.381  1.00  0.00     0.059 A 
ATOM     92  C   UNL     1     -14.631  -2.131 -16.660  1.00  0.00     0.059 A 
ATOM     93  F   UNL     1     -12.334  -2.187 -16.771  1.00  0.00    -0.206 F 
ATOM     94  C   UNL     1     -15.814  -1.603 -16.187  1.00  0.00     0.060 A 
BRANCH  94  95
ATOM     95  S   UNL     1     -17.413  -2.445 -16.504  1.00  0.00     0.124 S 
ATOM     96  O   UNL     1     -17.861  -2.767 -15.152  1.00  0.00    -0.237 OA
ATOM     97  O   UNL     1     -18.187  -1.419 -17.194  1.00  0.00    -0.237 OA
ATOM     98  O   UNL     1     -17.052  -3.603 -17.319  1.00  0.00    -0.744 OA
ENDBRANCH  94  95
ENDBRANCH  62  87
BRANCH  74  99
ATOM     99  C   UNL     1      -7.349  -1.854 -15.735  1.00  0.00     0.058 A 
ATOM    100  C   UNL     1      -6.186  -2.501 -16.185  1.00  0.00     0.135 A 
ATOM    101  C   UNL     1      -7.611  -0.588 -16.315  1.00  0.00     0.135 A 
ATOM    102  F   UNL     1      -5.847  -3.694 -15.670  1.00  0.00    -0.206 F 
ATOM    103  C   UNL     1      -5.349  -1.960 -17.158  1.00  0.00     0.059 A 
ATOM    104  C   UNL     1      -6.814  -0.051 -17.333  1.00  0.00     0.059 A 
ATOM    105  F   UNL     1      -8.631   0.185 -15.914  1.00  0.00    -0.206 F 
ATOM    106  C   UNL     1      -5.688  -0.748 -17.752  1.00  0.00     0.060 A 
BRANCH 106 107
ATOM    107  S   UNL     1      -4.673  -0.145 -19.119  1.00  0.00     0.124 S 
ATOM    108  O   UNL     1      -3.410   0.149 -18.458  1.00  0.00    -0.237 OA
ATOM    109  O   UNL     1      -4.662  -1.297 -20.019  1.00  0.00    -0.237 OA
ATOM    110  O   UNL     1      -5.410   1.014 -19.615  1.00  0.00    -0.744 OA
ENDBRANCH 106 107
ENDBRANCH  74  99
ENDBRANCH  48  49
ENDBRANCH  41  43
ENDBRANCH  40  41
ENDBRANCH  39  40
ENDBRANCH  38  39
ENDBRANCH  37  38
ENDBRANCH  36  37
ENDBRANCH   1  36
TORSDOF 26
