REMARK SMILES CCOc1c(Br)cc(CNc2cccc(C(=O)OCCOCCOCCOC(=O)c3ccc(-c4c5nc(c(-c6c(F)cc(S(=O)(=O)[O-])cc6F)c6ccc([nH]6)c(-c6c(F)cc(S(=O)(=O)[O-])cc6F)c6nc(c(-c7c(F)cc(S(=O)(=O)[O-])cc7F)c7ccc4[nH]7)C=C6)C=C5)cc3)c2C)cc1OC
REMARK SMILES IDX 22 1 21 2 20 3 19 4 18 5 16 6 17 7 15 8 11 9 12 10 96 11
REMARK SMILES IDX 13 12 97 13 14 14 10 15 9 17 8 18 4 19 5 20 99 21 6 22 7 23
REMARK SMILES IDX 98 24 3 25 2 26 1 27 100 28 101 29 23 30 24 31 25 32 26 33
REMARK SMILES IDX 27 34 28 35 29 36 30 37 31 38 95 39 32 40 94 41 33 42 34 43
REMARK SMILES IDX 35 44 88 45 36 46 93 47 87 48 89 49 37 50 92 51 86 52 85 53
REMARK SMILES IDX 38 55 72 56 51 57 71 58 52 59 55 60 70 61 90 62 53 63 54 64
REMARK SMILES IDX 69 66 91 67 56 68 39 69 40 70 49 71 41 72 42 73 48 74 50 75
REMARK SMILES IDX 43 76 44 77 45 78 46 79 47 80 73 81 74 82 83 83 75 84 76 85
REMARK SMILES IDX 82 86 84 87 77 88 78 89 79 90 80 91 81 92 57 93 58 94 67 95
REMARK SMILES IDX 59 96 60 97 66 98 68 99 61 100 62 101 63 102 64 103 65 104
REMARK H PARENT 10 16 89 54 55 65
REMARK Flexibility Score: inf
ROOT
ATOM      1  C   UNL     1       9.816   2.183   5.208  1.00  0.00     0.188 C 
ENDROOT
BRANCH   1   2
ATOM      2  O   UNL     1       9.993   0.901   5.813  1.00  0.00    -0.376 OA
BRANCH   2   3
ATOM      3  C   UNL     1      11.170   0.130   5.531  1.00  0.00     0.202 C 
BRANCH   3   4
ATOM      4  C   UNL     1      11.194  -1.018   4.442  1.00  0.00     0.261 C 
BRANCH   4   5
ATOM      5  O   UNL     1      11.032  -0.630   3.011  1.00  0.00    -0.460 OA
BRANCH   5   6
ATOM      6  C   UNL     1      11.558  -1.021   1.781  1.00  0.00     0.338 C 
ATOM      7  O   UNL     1      12.687  -1.508   1.772  1.00  0.00    -0.246 OA
BRANCH   6   8
ATOM      8  C   UNL     1      10.674  -0.671   0.183  1.00  0.00     0.065 A 
ATOM      9  C   UNL     1       9.060  -0.140  -1.836  1.00  0.00     0.038 A 
ATOM     10  C   UNL     1      10.039  -0.640  -2.673  1.00  0.00     0.026 A 
ATOM     11  C   UNL     1       9.265  -0.315  -0.408  1.00  0.00    -0.013 A 
ATOM     12  C   UNL     1      11.270  -1.082  -2.166  1.00  0.00     0.003 A 
ATOM     13  C   UNL     1       7.805  -0.354   0.194  1.00  0.00     0.047 C 
ATOM     14  C   UNL     1      11.605  -1.017  -0.806  1.00  0.00     0.016 A 
BRANCH   9  15
ATOM     15  N   UNL     1       7.913   0.502  -2.313  1.00  0.00    -0.381 N 
ATOM     16  H   UNL     1       7.663   1.300  -1.793  1.00  0.00     0.160 HD
BRANCH  15  17
ATOM     17  C   UNL     1       7.012   0.226  -3.427  1.00  0.00     0.149 C 
BRANCH  17  18
ATOM     18  C   UNL     1       5.519   0.345  -3.043  1.00  0.00    -0.024 A 
ATOM     19  C   UNL     1       2.691   0.387  -2.452  1.00  0.00     0.175 A 
ATOM     20  C   UNL     1       3.552  -0.582  -1.907  1.00  0.00     0.064 A 
ATOM     21  C   UNL     1       3.233   1.306  -3.363  1.00  0.00     0.162 A 
ATOM     22  Br  UNL     1       2.889  -2.039  -0.884  1.00  0.00    -0.047 Br
ATOM     23  C   UNL     1       4.936  -0.587  -2.176  1.00  0.00     0.025 A 
ATOM     24  C   UNL     1       4.638   1.286  -3.625  1.00  0.00     0.056 A 
BRANCH  19  25
ATOM     25  O   UNL     1       1.343   0.295  -2.194  1.00  0.00    -0.489 OA
BRANCH  25  26
ATOM     26  C   UNL     1       0.873   1.198  -1.181  1.00  0.00     0.226 C 
ATOM     27  C   UNL     1       0.730   0.522   0.170  1.00  0.00     0.049 C 
ENDBRANCH  25  26
ENDBRANCH  19  25
BRANCH  21  28
ATOM     28  O   UNL     1       2.565   2.252  -4.106  1.00  0.00    -0.493 OA
ATOM     29  C   UNL     1       1.150   2.175  -4.237  1.00  0.00     0.278 C 
ENDBRANCH  21  28
ENDBRANCH  17  18
ENDBRANCH  15  17
ENDBRANCH   9  15
ENDBRANCH   6   8
ENDBRANCH   5   6
ENDBRANCH   4   5
ENDBRANCH   3   4
ENDBRANCH   2   3
ENDBRANCH   1   2
BRANCH   1  30
ATOM     30  C   UNL     1      10.976   3.161   5.170  1.00  0.00     0.188 C 
BRANCH  30  31
ATOM     31  O   UNL     1      11.961   2.627   4.291  1.00  0.00    -0.376 OA
BRANCH  31  32
ATOM     32  C   UNL     1      13.232   3.238   4.366  1.00  0.00     0.202 C 
BRANCH  32  33
ATOM     33  C   UNL     1      13.244   4.658   3.792  1.00  0.00     0.261 C 
BRANCH  33  34
ATOM     34  O   UNL     1      13.190   4.688   2.345  1.00  0.00    -0.460 OA
BRANCH  34  35
ATOM     35  C   UNL     1      12.004   5.060   1.756  1.00  0.00     0.338 C 
ATOM     36  O   UNL     1      11.828   6.184   1.286  1.00  0.00    -0.246 OA
BRANCH  35  37
ATOM     37  C   UNL     1      11.116   3.886   1.544  1.00  0.00     0.060 A 
ATOM     38  C   UNL     1       9.726   3.804   1.588  1.00  0.00     0.016 A 
ATOM     39  C   UNL     1      11.750   2.713   1.354  1.00  0.00     0.016 A 
ATOM     40  C   UNL     1       9.010   2.543   1.763  1.00  0.00     0.010 A 
ATOM     41  C   UNL     1      11.048   1.539   1.617  1.00  0.00     0.010 A 
ATOM     42  C   UNL     1       9.661   1.305   1.923  1.00  0.00    -0.014 A 
BRANCH  42  43
ATOM     43  C   UNL     1       8.897  -0.153   2.562  1.00  0.00     0.031 A 
ATOM     44  C   UNL     1       9.029  -1.924   2.224  1.00  0.00     0.074 A 
ATOM     45  C   UNL     1       7.979   0.050   3.541  1.00  0.00     0.049 A 
ATOM     46  N   UNL     1       8.238  -2.820   2.785  1.00  0.00    -0.248 NA
ATOM     47  C   UNL     1       9.914  -2.796   1.323  1.00  0.00     0.031 C 
ATOM     48  C   UNL     1       7.543  -0.903   4.553  1.00  0.00     0.029 A 
ATOM     49  N   UNL     1       7.143   1.147   3.737  1.00  0.00    -0.354 N 
ATOM     50  C   UNL     1       8.804  -4.095   2.626  1.00  0.00     0.074 A 
ATOM     51  C   UNL     1       9.638  -4.069   1.516  1.00  0.00     0.031 C 
ATOM     52  C   UNL     1       6.419  -0.465   5.125  1.00  0.00     0.029 A 
ATOM     53  C   UNL     1       5.990   0.695   4.383  1.00  0.00     0.049 A 
ATOM     54  H   UNL     1       7.332   2.076   3.469  1.00  0.00     0.167 HD
ATOM     55  C   UNL     1       8.735  -5.069   3.563  1.00  0.00     0.037 A 
ATOM     56  C   UNL     1       4.761   0.888   3.833  1.00  0.00     0.037 A 
ATOM     57  C   UNL     1       7.531  -4.871   4.305  1.00  0.00     0.049 A 
ATOM     58  C   UNL     1       4.038  -0.417   3.594  1.00  0.00     0.074 A 
ATOM     59  C   UNL     1       7.204  -4.490   5.583  1.00  0.00     0.029 A 
ATOM     60  N   UNL     1       6.387  -4.761   3.536  1.00  0.00    -0.354 N 
ATOM     61  N   UNL     1       4.630  -1.582   3.678  1.00  0.00    -0.248 NA
ATOM     62  C   UNL     1       2.617  -0.565   3.310  1.00  0.00     0.031 C 
ATOM     63  C   UNL     1       5.858  -4.008   5.529  1.00  0.00     0.029 A 
ATOM     64  C   UNL     1       5.375  -4.162   4.237  1.00  0.00     0.049 A 
ATOM     65  H   UNL     1       6.310  -5.072   2.605  1.00  0.00     0.167 HD
ATOM     66  C   UNL     1       3.738  -2.599   3.480  1.00  0.00     0.074 A 
ATOM     67  C   UNL     1       2.488  -1.906   3.242  1.00  0.00     0.031 C 
ATOM     68  C   UNL     1       4.122  -3.912   3.531  1.00  0.00     0.037 A 
BRANCH  55  69
ATOM     69  C   UNL     1       9.801  -6.134   3.787  1.00  0.00     0.058 A 
ATOM     70  C   UNL     1       9.503  -7.296   4.520  1.00  0.00     0.135 A 
ATOM     71  C   UNL     1      11.172  -6.007   3.424  1.00  0.00     0.135 A 
ATOM     72  F   UNL     1       8.255  -7.522   4.953  1.00  0.00    -0.206 F 
ATOM     73  C   UNL     1      10.472  -8.253   4.861  1.00  0.00     0.059 A 
ATOM     74  C   UNL     1      12.147  -6.974   3.708  1.00  0.00     0.059 A 
ATOM     75  F   UNL     1      11.646  -4.904   2.825  1.00  0.00    -0.206 F 
ATOM     76  C   UNL     1      11.793  -8.088   4.451  1.00  0.00     0.060 A 
BRANCH  76  77
ATOM     77  S   UNL     1      13.035  -9.312   4.931  1.00  0.00     0.124 S 
ATOM     78  O   UNL     1      13.136  -9.091   6.370  1.00  0.00    -0.237 OA
ATOM     79  O   UNL     1      12.414 -10.568   4.524  1.00  0.00    -0.237 OA
ATOM     80  O   UNL     1      14.215  -8.928   4.160  1.00  0.00    -0.744 OA
ENDBRANCH  76  77
ENDBRANCH  55  69
BRANCH  56  81
ATOM     81  C   UNL     1       4.655   2.249   3.220  1.00  0.00     0.058 A 
ATOM     82  C   UNL     1       4.813   3.319   4.137  1.00  0.00     0.135 A 
ATOM     83  C   UNL     1       4.965   2.525   1.877  1.00  0.00     0.135 A 
ATOM     84  F   UNL     1       4.550   3.123   5.440  1.00  0.00    -0.206 F 
ATOM     85  C   UNL     1       5.420   4.520   3.788  1.00  0.00     0.059 A 
ATOM     86  C   UNL     1       5.544   3.752   1.495  1.00  0.00     0.059 A 
ATOM     87  F   UNL     1       4.854   1.564   0.948  1.00  0.00    -0.206 F 
ATOM     88  C   UNL     1       5.824   4.714   2.474  1.00  0.00     0.060 A 
BRANCH  88  89
ATOM     89  S   UNL     1       6.890   6.147   2.158  1.00  0.00     0.124 S 
ATOM     90  O   UNL     1       6.017   7.266   2.485  1.00  0.00    -0.237 OA
ATOM     91  O   UNL     1       7.978   5.908   3.105  1.00  0.00    -0.237 OA
ATOM     92  O   UNL     1       7.234   6.000   0.748  1.00  0.00    -0.744 OA
ENDBRANCH  88  89
ENDBRANCH  56  81
BRANCH  68  93
ATOM     93  C   UNL     1       3.417  -5.102   2.882  1.00  0.00     0.058 A 
ATOM     94  C   UNL     1       2.411  -4.994   1.910  1.00  0.00     0.135 A 
ATOM     95  C   UNL     1       3.888  -6.431   3.095  1.00  0.00     0.135 A 
ATOM     96  F   UNL     1       1.904  -3.812   1.549  1.00  0.00    -0.206 F 
ATOM     97  C   UNL     1       1.884  -6.102   1.239  1.00  0.00     0.059 A 
ATOM     98  C   UNL     1       3.432  -7.537   2.384  1.00  0.00     0.059 A 
ATOM     99  F   UNL     1       4.830  -6.713   4.008  1.00  0.00    -0.206 F 
ATOM    100  C   UNL     1       2.397  -7.369   1.485  1.00  0.00     0.060 A 
BRANCH 100 101
ATOM    101  S   UNL     1       1.686  -8.797   0.657  1.00  0.00     0.124 S 
ATOM    102  O   UNL     1       0.544  -9.085   1.520  1.00  0.00    -0.237 OA
ATOM    103  O   UNL     1       1.361  -8.275  -0.667  1.00  0.00    -0.237 OA
ATOM    104  O   UNL     1       2.764  -9.780   0.688  1.00  0.00    -0.744 OA
ENDBRANCH 100 101
ENDBRANCH  68  93
ENDBRANCH  42  43
ENDBRANCH  35  37
ENDBRANCH  34  35
ENDBRANCH  33  34
ENDBRANCH  32  33
ENDBRANCH  31  32
ENDBRANCH  30  31
ENDBRANCH   1  30
TORSDOF 26
