REMARK SMILES Cc1cc(F)cc(N[C@H](C(=O)OCCOCCOCCOC(=O)c2ccc(-c3c4nc(c(-c5c(F)cc(S(=O)(=O)[O-])cc5F)c5ccc([nH]5)c(-c5c(F)cc(S(=O)(=O)[O-])cc5F)c5nc(c(-c6c(F)cc(S(=O)(=O)[O-])cc6F)c6ccc3[nH]6)C=C5)C=C4)cc2)c2cc(C)cc(C)c2)c1
REMARK SMILES IDX 17 1 16 2 15 3 14 4 13 5 12 6 10 7 11 8 9 9 8 10 7 12 1 13
REMARK SMILES IDX 2 14 3 15 98 16 4 17 5 18 6 19 90 20 91 21 97 22 92 23 95 24
REMARK SMILES IDX 93 25 94 26 96 27 18 28 19 29 20 30 21 31 22 32 23 33 24 34
REMARK SMILES IDX 25 35 89 36 26 37 88 38 27 39 28 40 29 41 82 42 30 43 87 44
REMARK SMILES IDX 81 45 83 46 31 47 86 48 80 49 79 50 32 52 66 53 45 54 65 55
REMARK SMILES IDX 46 56 49 57 64 58 84 59 47 60 48 61 63 63 85 64 50 65 33 66
REMARK SMILES IDX 34 67 43 68 35 69 36 70 42 71 44 72 37 73 38 74 39 75 40 76
REMARK SMILES IDX 41 77 67 78 68 79 77 80 69 81 70 82 76 83 78 84 71 85 72 86
REMARK SMILES IDX 73 87 74 88 75 89 51 90 52 91 61 92 53 93 54 94 60 95 62 96
REMARK SMILES IDX 55 97 56 98 57 99 58 100 59 101
REMARK H PARENT 8 11 83 51 49 62
REMARK Flexibility Score: inf
ROOT
ATOM      1  C   UNL     1      -0.120  -1.342  -1.309  1.00  0.00     0.188 C 
ENDROOT
BRANCH   1   2
ATOM      2  C   UNL     1       0.867  -1.102  -0.144  1.00  0.00     0.188 C 
BRANCH   2   3
ATOM      3  O   UNL     1       2.209  -0.891  -0.547  1.00  0.00    -0.376 OA
BRANCH   3   4
ATOM      4  C   UNL     1       3.115  -1.965  -0.328  1.00  0.00     0.202 C 
BRANCH   4   5
ATOM      5  C   UNL     1       2.827  -3.261  -1.105  1.00  0.00     0.261 C 
BRANCH   5   6
ATOM      6  O   UNL     1       1.524  -3.828  -0.892  1.00  0.00    -0.461 OA
BRANCH   6   7
ATOM      7  C   UNL     1       1.258  -4.259   0.378  1.00  0.00     0.333 C 
ATOM      8  O   UNL     1       2.067  -4.157   1.291  1.00  0.00    -0.249 OA
BRANCH   7   9
ATOM      9  C   UNL     1      -0.217  -4.734   0.492  1.00  0.00     0.221 C 
BRANCH   9  10
ATOM     10  N   UNL     1      -0.615  -5.582  -0.663  1.00  0.00    -0.369 N 
ATOM     11  H   UNL     1      -1.362  -5.253  -1.213  1.00  0.00     0.161 HD
BRANCH  10  12
ATOM     12  C   UNL     1      -0.049  -6.787  -1.049  1.00  0.00     0.038 A 
ATOM     13  C   UNL     1      -0.240  -9.220  -4.017  1.00  0.00     0.044 C 
ATOM     14  C   UNL     1       0.124  -8.610  -2.698  1.00  0.00    -0.046 A 
ATOM     15  C   UNL     1       0.978  -9.315  -1.850  1.00  0.00     0.042 A 
ATOM     16  C   UNL     1      -0.400  -7.366  -2.281  1.00  0.00     0.029 A 
ATOM     17  C   UNL     1       1.319  -8.764  -0.634  1.00  0.00     0.125 A 
ATOM     18  F   UNL     1       2.133  -9.428   0.196  1.00  0.00    -0.207 F 
ATOM     19  C   UNL     1       0.830  -7.522  -0.257  1.00  0.00     0.065 A 
ENDBRANCH  10  12
ENDBRANCH   9  10
BRANCH   9  20
ATOM     20  C   UNL     1      -0.621  -5.339   1.833  1.00  0.00    -0.014 A 
ATOM     21  C   UNL     1       0.301  -6.067   2.593  1.00  0.00     0.010 A 
ATOM     22  C   UNL     1      -1.939  -5.262   2.313  1.00  0.00     0.010 A 
ATOM     23  C   UNL     1      -0.091  -6.895   3.637  1.00  0.00    -0.051 A 
ATOM     24  C   UNL     1      -2.317  -5.951   3.478  1.00  0.00    -0.051 A 
ATOM     25  C   UNL     1       0.872  -7.946   4.097  1.00  0.00     0.044 C 
ATOM     26  C   UNL     1      -1.402  -6.820   4.092  1.00  0.00     0.006 A 
ATOM     27  C   UNL     1      -3.694  -5.819   4.059  1.00  0.00     0.044 C 
ENDBRANCH   9  20
ENDBRANCH   7   9
ENDBRANCH   6   7
ENDBRANCH   5   6
ENDBRANCH   4   5
ENDBRANCH   3   4
ENDBRANCH   2   3
ENDBRANCH   1   2
BRANCH   1  28
ATOM     28  O   UNL     1       0.334  -1.344  -2.655  1.00  0.00    -0.376 OA
BRANCH  28  29
ATOM     29  C   UNL     1       1.288  -0.378  -3.068  1.00  0.00     0.202 C 
BRANCH  29  30
ATOM     30  C   UNL     1       1.072   1.120  -2.776  1.00  0.00     0.261 C 
BRANCH  30  31
ATOM     31  O   UNL     1       0.600   1.465  -1.463  1.00  0.00    -0.460 OA
BRANCH  31  32
ATOM     32  C   UNL     1      -0.701   1.847  -1.385  1.00  0.00     0.338 C 
ATOM     33  O   UNL     1      -1.494   1.929  -2.304  1.00  0.00    -0.246 OA
BRANCH  32  34
ATOM     34  C   UNL     1      -1.102   1.989   0.034  1.00  0.00     0.060 A 
ATOM     35  C   UNL     1      -2.112   1.150   0.528  1.00  0.00     0.016 A 
ATOM     36  C   UNL     1      -0.548   2.975   0.850  1.00  0.00     0.016 A 
ATOM     37  C   UNL     1      -2.590   1.312   1.828  1.00  0.00     0.010 A 
ATOM     38  C   UNL     1      -1.049   3.154   2.147  1.00  0.00     0.010 A 
ATOM     39  C   UNL     1      -2.095   2.346   2.631  1.00  0.00    -0.014 A 
BRANCH  39  40
ATOM     40  C   UNL     1      -2.799   2.696   3.893  1.00  0.00     0.031 A 
ATOM     41  C   UNL     1      -3.768   3.850   3.880  1.00  0.00     0.074 A 
ATOM     42  C   UNL     1      -2.609   1.989   5.022  1.00  0.00     0.049 A 
ATOM     43  N   UNL     1      -4.462   4.364   4.862  1.00  0.00    -0.248 NA
ATOM     44  C   UNL     1      -3.979   4.513   2.583  1.00  0.00     0.031 C 
ATOM     45  C   UNL     1      -1.736   0.825   5.154  1.00  0.00     0.029 A 
ATOM     46  N   UNL     1      -3.138   2.157   6.278  1.00  0.00    -0.354 N 
ATOM     47  C   UNL     1      -5.183   5.415   4.306  1.00  0.00     0.074 A 
ATOM     48  C   UNL     1      -4.819   5.485   2.908  1.00  0.00     0.031 C 
ATOM     49  C   UNL     1      -1.776   0.392   6.426  1.00  0.00     0.029 A 
ATOM     50  C   UNL     1      -2.652   1.266   7.206  1.00  0.00     0.049 A 
ATOM     51  H   UNL     1      -3.803   2.850   6.495  1.00  0.00     0.167 HD
ATOM     52  C   UNL     1      -6.074   6.242   4.904  1.00  0.00     0.037 A 
ATOM     53  C   UNL     1      -2.871   1.180   8.534  1.00  0.00     0.037 A 
ATOM     54  C   UNL     1      -6.432   6.171   6.297  1.00  0.00     0.049 A 
ATOM     55  C   UNL     1      -3.815   2.156   9.194  1.00  0.00     0.074 A 
ATOM     56  C   UNL     1      -7.335   6.955   6.994  1.00  0.00     0.029 A 
ATOM     57  N   UNL     1      -5.901   5.269   7.208  1.00  0.00    -0.354 N 
ATOM     58  N   UNL     1      -4.505   3.133   8.653  1.00  0.00    -0.248 NA
ATOM     59  C   UNL     1      -4.016   2.014  10.643  1.00  0.00     0.031 C 
ATOM     60  C   UNL     1      -7.306   6.566   8.337  1.00  0.00     0.029 A 
ATOM     61  C   UNL     1      -6.438   5.494   8.465  1.00  0.00     0.049 A 
ATOM     62  H   UNL     1      -5.239   4.572   6.992  1.00  0.00     0.167 HD
ATOM     63  C   UNL     1      -5.249   3.694   9.688  1.00  0.00     0.074 A 
ATOM     64  C   UNL     1      -4.929   2.945  10.884  1.00  0.00     0.031 C 
ATOM     65  C   UNL     1      -6.123   4.731   9.648  1.00  0.00     0.037 A 
BRANCH  52  66
ATOM     66  C   UNL     1      -6.703   7.319   4.059  1.00  0.00     0.058 A 
ATOM     67  C   UNL     1      -7.637   7.023   3.054  1.00  0.00     0.135 A 
ATOM     68  C   UNL     1      -6.391   8.670   4.284  1.00  0.00     0.135 A 
ATOM     69  F   UNL     1      -7.960   5.748   2.783  1.00  0.00    -0.206 F 
ATOM     70  C   UNL     1      -8.218   8.025   2.283  1.00  0.00     0.059 A 
ATOM     71  C   UNL     1      -6.984   9.690   3.546  1.00  0.00     0.059 A 
ATOM     72  F   UNL     1      -5.503   9.011   5.231  1.00  0.00    -0.206 F 
ATOM     73  C   UNL     1      -7.886   9.357   2.538  1.00  0.00     0.060 A 
BRANCH  73  74
ATOM     74  S   UNL     1      -8.654  10.645   1.533  1.00  0.00     0.124 S 
ATOM     75  O   UNL     1      -7.992  10.445   0.247  1.00  0.00    -0.237 OA
ATOM     76  O   UNL     1     -10.066  10.277   1.582  1.00  0.00    -0.237 OA
ATOM     77  O   UNL     1      -8.305  11.877   2.232  1.00  0.00    -0.744 OA
ENDBRANCH  73  74
ENDBRANCH  52  66
BRANCH  53  78
ATOM     78  C   UNL     1      -2.179   0.136   9.339  1.00  0.00     0.058 A 
ATOM     79  C   UNL     1      -2.890  -0.921   9.926  1.00  0.00     0.135 A 
ATOM     80  C   UNL     1      -0.790   0.180   9.546  1.00  0.00     0.135 A 
ATOM     81  F   UNL     1      -4.221  -1.002   9.771  1.00  0.00    -0.206 F 
ATOM     82  C   UNL     1      -2.256  -1.887  10.701  1.00  0.00     0.059 A 
ATOM     83  C   UNL     1      -0.129  -0.790  10.293  1.00  0.00     0.059 A 
ATOM     84  F   UNL     1      -0.060   1.166   9.002  1.00  0.00    -0.206 F 
ATOM     85  C   UNL     1      -0.873  -1.815  10.876  1.00  0.00     0.060 A 
BRANCH  85  86
ATOM     86  S   UNL     1      -0.055  -3.099  11.848  1.00  0.00     0.124 S 
ATOM     87  O   UNL     1      -0.499  -2.774  13.198  1.00  0.00    -0.237 OA
ATOM     88  O   UNL     1      -0.610  -4.319  11.270  1.00  0.00    -0.237 OA
ATOM     89  O   UNL     1       1.362  -2.874  11.578  1.00  0.00    -0.744 OA
ENDBRANCH  85  86
ENDBRANCH  53  78
BRANCH  65  90
ATOM     90  C   UNL     1      -6.847   5.088  10.921  1.00  0.00     0.058 A 
ATOM     91  C   UNL     1      -6.197   5.699  12.005  1.00  0.00     0.135 A 
ATOM     92  C   UNL     1      -8.231   4.865  11.032  1.00  0.00     0.135 A 
ATOM     93  F   UNL     1      -4.876   5.933  11.956  1.00  0.00    -0.206 F 
ATOM     94  C   UNL     1      -6.886   6.050  13.163  1.00  0.00     0.059 A 
ATOM     95  C   UNL     1      -8.945   5.237  12.166  1.00  0.00     0.059 A 
ATOM     96  F   UNL     1      -8.907   4.297  10.021  1.00  0.00    -0.206 F 
ATOM     97  C   UNL     1      -8.261   5.817  13.233  1.00  0.00     0.060 A 
BRANCH  97  98
ATOM     98  S   UNL     1      -9.147   6.304  14.729  1.00  0.00     0.124 S 
ATOM     99  O   UNL     1      -8.690   5.298  15.683  1.00  0.00    -0.237 OA
ATOM    100  O   UNL     1      -8.658   7.660  14.954  1.00  0.00    -0.237 OA
ATOM    101  O   UNL     1     -10.551   6.207  14.340  1.00  0.00    -0.744 OA
ENDBRANCH  97  98
ENDBRANCH  65  90
ENDBRANCH  39  40
ENDBRANCH  32  34
ENDBRANCH  31  32
ENDBRANCH  30  31
ENDBRANCH  29  30
ENDBRANCH  28  29
ENDBRANCH   1  28
TORSDOF 23
