REMARK SMILES Cc1cc(OCC(=O)OCCOCCOCCOC(=O)c2ccc(-c3c4nc(c(-c5c(F)cc(S(=O)(=O)[O-])cc5F)c5ccc([nH]5)c(-c5c(F)cc(S(=O)(=O)[O-])cc5F)c5nc(c(-c6c(F)cc(S(=O)(=O)[O-])cc6F)c6ccc3[nH]6)C=C5)C=C4)cc2)ccc1NC(=O)c1ccc(N2C(=O)[C@@H]3[C@H](C2=O)[C@H]2C=C[C@@H]3C2)cc1
REMARK SMILES IDX 13 1 12 2 11 3 10 4 9 5 7 6 8 7 6 8 5 9 4 10 1 11 2 12 3 13
REMARK SMILES IDX 89 14 88 15 87 16 90 17 91 18 92 20 93 21 94 22 110 23 95 24
REMARK SMILES IDX 109 25 96 26 97 27 98 28 102 29 99 30 100 31 101 32 103 33
REMARK SMILES IDX 107 34 104 35 106 36 108 37 105 38 14 39 15 40 16 41 17 42
REMARK SMILES IDX 18 43 19 44 20 45 21 46 22 47 86 48 23 49 85 50 24 51 25 52
REMARK SMILES IDX 26 53 79 54 27 55 84 56 78 57 80 58 28 59 83 60 77 61 76 62
REMARK SMILES IDX 29 64 63 65 42 66 62 67 43 68 46 69 61 70 81 71 44 72 45 73
REMARK SMILES IDX 60 75 82 76 47 77 30 78 31 79 40 80 32 81 33 82 39 83 41 84
REMARK SMILES IDX 34 85 35 86 36 87 37 88 38 89 64 90 65 91 74 92 66 93 67 94
REMARK SMILES IDX 73 95 75 96 68 97 69 98 70 99 71 100 72 101 48 102 49 103
REMARK SMILES IDX 58 104 50 105 51 106 57 107 59 108 52 109 53 110 54 111
REMARK SMILES IDX 55 112 56 113
REMARK H PARENT 90 19 80 63 46 74
REMARK Flexibility Score: inf
ROOT
ATOM      1  C   UNL     1      -3.664   0.955   3.580  1.00  0.00     0.188 C 
ENDROOT
BRANCH   1   2
ATOM      2  O   UNL     1      -4.353  -0.150   4.175  1.00  0.00    -0.376 OA
BRANCH   2   3
ATOM      3  C   UNL     1      -3.739  -1.342   4.738  1.00  0.00     0.202 C 
BRANCH   3   4
ATOM      4  C   UNL     1      -3.283  -2.889   4.010  1.00  0.00     0.261 C 
BRANCH   4   5
ATOM      5  O   UNL     1      -2.311  -3.275   2.601  1.00  0.00    -0.461 OA
BRANCH   5   6
ATOM      6  C   UNL     1      -2.320  -3.783   1.154  1.00  0.00     0.344 C 
ATOM      7  O   UNL     1      -3.210  -4.261   0.428  1.00  0.00    -0.248 OA
BRANCH   6   8
ATOM      8  C   UNL     1      -1.083  -3.611   0.400  1.00  0.00     0.351 C 
BRANCH   8   9
ATOM      9  O   UNL     1      -0.625  -2.472   1.045  1.00  0.00    -0.482 OA
BRANCH   9  10
ATOM     10  C   UNL     1      -0.988  -1.343   0.266  1.00  0.00     0.120 A 
ATOM     11  C   UNL     1       2.581   0.449  -1.183  1.00  0.00     0.047 C 
ATOM     12  C   UNL     1       1.062   0.441  -1.100  1.00  0.00    -0.024 A 
ATOM     13  C   UNL     1       0.539  -1.176  -0.655  1.00  0.00     0.052 A 
ATOM     14  C   UNL     1       0.118   1.929  -0.763  1.00  0.00     0.044 A 
ATOM     15  C   UNL     1      -1.396   1.904   0.051  1.00  0.00     0.030 A 
ATOM     16  C   UNL     1      -2.029   0.358   0.638  1.00  0.00     0.048 A 
BRANCH  14  17
ATOM     17  N   UNL     1       0.745   3.196  -0.880  1.00  0.00    -0.322 N 
ATOM     18  C   UNL     1       0.473   4.430  -0.275  1.00  0.00     0.255 C 
ATOM     19  H   UNL     1       1.510   3.211  -1.500  1.00  0.00     0.170 HD
ATOM     20  O   UNL     1       1.219   5.383  -0.527  1.00  0.00    -0.269 OA
BRANCH  18  21
ATOM     21  C   UNL     1      -0.610   4.688   0.736  1.00  0.00     0.040 A 
ATOM     22  C   UNL     1      -1.826   5.261   0.369  1.00  0.00     0.016 A 
ATOM     23  C   UNL     1      -0.418   4.470   2.101  1.00  0.00     0.016 A 
ATOM     24  C   UNL     1      -2.890   5.412   1.311  1.00  0.00     0.027 A 
ATOM     25  C   UNL     1      -1.481   4.645   3.042  1.00  0.00     0.027 A 
ATOM     26  C   UNL     1      -2.782   5.031   2.661  1.00  0.00     0.052 A 
BRANCH  26  27
ATOM     27  N   UNL     1      -3.928   5.018   3.579  1.00  0.00    -0.250 N 
ATOM     28  C   UNL     1      -5.248   5.248   3.206  1.00  0.00     0.238 C 
ATOM     29  C   UNL     1      -3.855   4.733   4.934  1.00  0.00     0.238 C 
ATOM     30  O   UNL     1      -5.716   5.499   2.104  1.00  0.00    -0.274 OA
ATOM     31  C   UNL     1      -6.154   5.220   4.423  1.00  0.00     0.099 C 
ATOM     32  C   UNL     1      -5.214   4.890   5.582  1.00  0.00     0.099 C 
ATOM     33  O   UNL     1      -2.877   4.437   5.611  1.00  0.00    -0.274 OA
ATOM     34  C   UNL     1      -7.229   4.104   4.504  1.00  0.00     0.025 C 
ATOM     35  C   UNL     1      -5.847   3.622   6.203  1.00  0.00     0.025 C 
ATOM     36  C   UNL     1      -8.010   4.308   5.789  1.00  0.00    -0.027 C 
ATOM     37  C   UNL     1      -6.426   2.902   4.987  1.00  0.00     0.017 C 
ATOM     38  C   UNL     1      -7.180   4.025   6.809  1.00  0.00    -0.027 C 
ENDBRANCH  26  27
ENDBRANCH  18  21
ENDBRANCH  14  17
ENDBRANCH   9  10
ENDBRANCH   8   9
ENDBRANCH   6   8
ENDBRANCH   5   6
ENDBRANCH   4   5
ENDBRANCH   3   4
ENDBRANCH   2   3
ENDBRANCH   1   2
BRANCH   1  39
ATOM     39  C   UNL     1      -2.303   1.472   4.043  1.00  0.00     0.188 C 
BRANCH  39  40
ATOM     40  O   UNL     1      -1.521   0.442   4.601  1.00  0.00    -0.376 OA
BRANCH  40  41
ATOM     41  C   UNL     1      -0.199   0.753   5.017  1.00  0.00     0.202 C 
BRANCH  41  42
ATOM     42  C   UNL     1       0.771   1.440   4.004  1.00  0.00     0.261 C 
BRANCH  42  43
ATOM     43  O   UNL     1       1.206   0.599   2.888  1.00  0.00    -0.460 OA
BRANCH  43  44
ATOM     44  C   UNL     1       1.073   1.091   1.591  1.00  0.00     0.338 C 
ATOM     45  O   UNL     1       1.808   2.007   1.268  1.00  0.00    -0.246 OA
BRANCH  44  46
ATOM     46  C   UNL     1      -0.146   0.293   0.775  1.00  0.00     0.060 A 
ATOM     47  C   UNL     1      -1.184   0.035  -0.960  1.00  0.00     0.016 A 
ATOM     48  C   UNL     1      -0.857  -0.415   2.205  1.00  0.00     0.016 A 
ATOM     49  C   UNL     1      -2.782  -0.942  -0.827  1.00  0.00     0.010 A 
ATOM     50  C   UNL     1      -2.371  -1.128   2.109  1.00  0.00     0.010 A 
ATOM     51  C   UNL     1      -3.375  -1.534   0.764  1.00  0.00    -0.014 A 
BRANCH  51  52
ATOM     52  C   UNL     1      -4.714  -2.477   1.445  1.00  0.00     0.031 A 
ATOM     53  C   UNL     1      -4.789  -4.194   2.087  1.00  0.00     0.074 A 
ATOM     54  C   UNL     1      -5.666  -1.674   2.005  1.00  0.00     0.049 A 
ATOM     55  N   UNL     1      -5.864  -4.926   2.325  1.00  0.00    -0.248 NA
ATOM     56  C   UNL     1      -3.640  -5.243   2.488  1.00  0.00     0.031 C 
ATOM     57  C   UNL     1      -6.478  -1.952   3.200  1.00  0.00     0.029 A 
ATOM     58  N   UNL     1      -6.085  -0.378   1.653  1.00  0.00    -0.354 N 
ATOM     59  C   UNL     1      -5.386  -6.112   2.996  1.00  0.00     0.074 A 
ATOM     60  C   UNL     1      -4.158  -6.454   2.429  1.00  0.00     0.031 C 
ATOM     61  C   UNL     1      -7.405  -0.988   3.367  1.00  0.00     0.029 A 
ATOM     62  C   UNL     1      -7.407  -0.222   2.139  1.00  0.00     0.049 A 
ATOM     63  H   UNL     1      -5.559   0.294   1.161  1.00  0.00     0.167 HD
ATOM     64  C   UNL     1      -5.693  -6.424   4.306  1.00  0.00     0.037 A 
ATOM     65  C   UNL     1      -8.454  -0.205   1.259  1.00  0.00     0.037 A 
ATOM     66  C   UNL     1      -6.880  -5.691   4.637  1.00  0.00     0.049 A 
ATOM     67  C   UNL     1      -9.317  -1.447   1.403  1.00  0.00     0.074 A 
ATOM     68  C   UNL     1      -7.258  -4.721   5.535  1.00  0.00     0.029 A 
ATOM     69  N   UNL     1      -7.864  -5.751   3.678  1.00  0.00    -0.354 N 
ATOM     70  N   UNL     1      -8.911  -2.524   2.026  1.00  0.00    -0.248 NA
ATOM     71  C   UNL     1     -10.710  -1.568   0.986  1.00  0.00     0.031 C 
ATOM     72  C   UNL     1      -8.431  -4.097   4.984  1.00  0.00     0.029 A 
ATOM     73  C   UNL     1      -8.758  -4.728   3.789  1.00  0.00     0.049 A 
ATOM     74  H   UNL     1      -7.916  -6.452   2.989  1.00  0.00     0.167 HD
ATOM     75  C   UNL     1      -9.912  -3.438   2.115  1.00  0.00     0.074 A 
ATOM     76  C   UNL     1     -11.019  -2.801   1.433  1.00  0.00     0.031 C 
ATOM     77  C   UNL     1      -9.759  -4.644   2.733  1.00  0.00     0.037 A 
BRANCH  64  78
ATOM     78  C   UNL     1      -4.879  -7.295   5.319  1.00  0.00     0.058 A 
ATOM     79  C   UNL     1      -5.536  -7.787   6.469  1.00  0.00     0.135 A 
ATOM     80  C   UNL     1      -3.493  -7.644   5.290  1.00  0.00     0.135 A 
ATOM     81  F   UNL     1      -6.825  -7.496   6.689  1.00  0.00    -0.206 F 
ATOM     82  C   UNL     1      -4.915  -8.583   7.451  1.00  0.00     0.059 A 
ATOM     83  C   UNL     1      -2.864  -8.485   6.234  1.00  0.00     0.059 A 
ATOM     84  F   UNL     1      -2.638  -7.138   4.391  1.00  0.00    -0.206 F 
ATOM     85  C   UNL     1      -3.584  -8.955   7.316  1.00  0.00     0.060 A 
BRANCH  85  86
ATOM     86  S   UNL     1      -2.826 -10.031   8.560  1.00  0.00     0.124 S 
ATOM     87  O   UNL     1      -2.885  -9.201   9.759  1.00  0.00    -0.237 OA
ATOM     88  O   UNL     1      -3.712 -11.191   8.547  1.00  0.00    -0.237 OA
ATOM     89  O   UNL     1      -1.484 -10.272   8.037  1.00  0.00    -0.744 OA
ENDBRANCH  85  86
ENDBRANCH  64  78
BRANCH  65  90
ATOM     90  C   UNL     1      -8.103   0.595   0.042  1.00  0.00     0.058 A 
ATOM     91  C   UNL     1      -7.963   1.988   0.249  1.00  0.00     0.135 A 
ATOM     92  C   UNL     1      -7.337   0.022  -0.989  1.00  0.00     0.135 A 
ATOM     93  F   UNL     1      -8.656   2.592   1.230  1.00  0.00    -0.206 F 
ATOM     94  C   UNL     1      -6.978   2.730  -0.393  1.00  0.00     0.059 A 
ATOM     95  C   UNL     1      -6.332   0.749  -1.640  1.00  0.00     0.059 A 
ATOM     96  F   UNL     1      -7.416  -1.295  -1.231  1.00  0.00    -0.206 F 
ATOM     97  C   UNL     1      -6.128   2.084  -1.293  1.00  0.00     0.060 A 
BRANCH  97  98
ATOM     98  S   UNL     1      -4.602   2.938  -1.732  1.00  0.00     0.124 S 
ATOM     99  O   UNL     1      -5.072   4.057  -2.537  1.00  0.00    -0.237 OA
ATOM    100  O   UNL     1      -4.112   3.284  -0.403  1.00  0.00    -0.237 OA
ATOM    101  O   UNL     1      -3.818   1.935  -2.443  1.00  0.00    -0.744 OA
ENDBRANCH  97  98
ENDBRANCH  65  90
BRANCH  77 102
ATOM    102  C   UNL     1     -10.487  -5.907   2.291  1.00  0.00     0.058 A 
ATOM    103  C   UNL     1     -11.148  -6.027   1.057  1.00  0.00     0.135 A 
ATOM    104  C   UNL     1     -10.379  -7.121   3.027  1.00  0.00     0.135 A 
ATOM    105  F   UNL     1     -11.184  -5.024   0.170  1.00  0.00    -0.206 F 
ATOM    106  C   UNL     1     -11.787  -7.199   0.663  1.00  0.00     0.059 A 
ATOM    107  C   UNL     1     -10.902  -8.330   2.591  1.00  0.00     0.059 A 
ATOM    108  F   UNL     1      -9.746  -7.192   4.207  1.00  0.00    -0.206 F 
ATOM    109  C   UNL     1     -11.675  -8.338   1.448  1.00  0.00     0.060 A 
BRANCH 109 110
ATOM    110  S   UNL     1     -12.607  -9.808   1.014  1.00  0.00     0.124 S 
ATOM    111  O   UNL     1     -13.911  -9.487   1.586  1.00  0.00    -0.237 OA
ATOM    112  O   UNL     1     -12.540  -9.814  -0.444  1.00  0.00    -0.237 OA
ATOM    113  O   UNL     1     -11.874 -10.883   1.676  1.00  0.00    -0.744 OA
ENDBRANCH 109 110
ENDBRANCH  77 102
ENDBRANCH  51  52
ENDBRANCH  44  46
ENDBRANCH  43  44
ENDBRANCH  42  43
ENDBRANCH  41  42
ENDBRANCH  40  41
ENDBRANCH  39  40
ENDBRANCH   1  39
TORSDOF 25
