REMARK SMILES C[C@H](SC1CCOCC1)c1ccc(C(=O)OCCOCCOCCOC(=O)c2ccc(-c3c4nc(c(-c5c(F)cc(S(=O)(=O)[O-])cc5F)c5ccc([nH]5)c(-c5c(F)cc(S(=O)(=O)[O-])cc5F)c5nc(c(-c6c(F)cc(S(=O)(=O)[O-])cc6F)c6ccc3[nH]6)C=C5)C=C4)cc2)o1
REMARK SMILES IDX 20 1 19 2 18 3 17 4 16 5 14 6 15 7 13 8 10 9 11 10 94 11
REMARK SMILES IDX 12 12 2 13 1 14 3 15 4 16 5 17 9 18 6 19 8 20 7 21 21 22
REMARK SMILES IDX 22 23 23 24 24 25 25 26 26 27 27 28 28 29 29 30 93 31 30 32
REMARK SMILES IDX 92 33 31 34 32 35 33 36 86 37 34 38 91 39 85 40 87 41 35 42
REMARK SMILES IDX 90 43 84 44 83 45 36 47 70 48 49 49 69 50 50 51 53 52 68 53
REMARK SMILES IDX 88 54 51 55 52 56 67 58 89 59 54 60 37 61 38 62 47 63 39 64
REMARK SMILES IDX 40 65 46 66 48 67 41 68 42 69 43 70 44 71 45 72 71 73 72 74
REMARK SMILES IDX 81 75 73 76 74 77 80 78 82 79 75 80 76 81 77 82 78 83 79 84
REMARK SMILES IDX 55 85 56 86 65 87 57 88 58 89 64 90 66 91 59 92 60 93 61 94
REMARK SMILES IDX 62 95 63 96
REMARK H PARENT 87 46 53 57
REMARK Flexibility Score: inf
ROOT
ATOM      1  C   UNL     1      -4.682   4.237   0.923  1.00  0.00     0.188 C 
ENDROOT
BRANCH   1   2
ATOM      2  O   UNL     1      -5.821   4.895   0.375  1.00  0.00    -0.376 OA
BRANCH   2   3
ATOM      3  C   UNL     1      -6.756   4.137  -0.385  1.00  0.00     0.202 C 
BRANCH   3   4
ATOM      4  C   UNL     1      -6.222   3.515  -1.676  1.00  0.00     0.261 C 
BRANCH   4   5
ATOM      5  O   UNL     1      -5.337   2.417  -1.391  1.00  0.00    -0.457 OA
BRANCH   5   6
ATOM      6  C   UNL     1      -4.167   2.412  -2.093  1.00  0.00     0.374 C 
ATOM      7  O   UNL     1      -3.931   3.134  -3.056  1.00  0.00    -0.242 OA
BRANCH   6   8
ATOM      8  C   UNL     1      -3.223   1.528  -1.452  1.00  0.00     0.211 A 
ATOM      9  C   UNL     1      -1.209   1.042  -0.665  1.00  0.00     0.117 A 
ATOM     10  C   UNL     1      -2.056   0.039  -0.233  1.00  0.00     0.048 A 
ATOM     11  O   UNL     1      -1.915   1.922  -1.432  1.00  0.00    -0.453 OA
ATOM     12  C   UNL     1      -3.347   0.352  -0.736  1.00  0.00     0.058 A 
BRANCH   9  13
ATOM     13  C   UNL     1       0.216   1.416  -0.385  1.00  0.00     0.110 C 
ATOM     14  C   UNL     1       0.779   2.446  -1.357  1.00  0.00     0.028 C 
BRANCH  13  15
ATOM     15  S   UNL     1       1.323  -0.007  -0.029  1.00  0.00    -0.147 SA
BRANCH  15  16
ATOM     16  C   UNL     1       1.672  -0.835  -1.629  1.00  0.00     0.052 C 
ATOM     17  C   UNL     1       2.491  -0.038  -2.643  1.00  0.00     0.043 C 
ATOM     18  C   UNL     1       0.458  -1.476  -2.293  1.00  0.00     0.043 C 
ATOM     19  C   UNL     1       2.837  -0.929  -3.833  1.00  0.00     0.161 C 
ATOM     20  C   UNL     1       0.925  -2.300  -3.489  1.00  0.00     0.161 C 
ATOM     21  O   UNL     1       1.657  -1.492  -4.409  1.00  0.00    -0.381 OA
ENDBRANCH  15  16
ENDBRANCH  13  15
ENDBRANCH   9  13
ENDBRANCH   6   8
ENDBRANCH   5   6
ENDBRANCH   4   5
ENDBRANCH   3   4
ENDBRANCH   2   3
ENDBRANCH   1   2
BRANCH   1  22
ATOM     22  C   UNL     1      -4.900   2.920   1.690  1.00  0.00     0.188 C 
BRANCH  22  23
ATOM     23  O   UNL     1      -6.234   2.726   2.146  1.00  0.00    -0.376 OA
BRANCH  23  24
ATOM     24  C   UNL     1      -6.407   2.734   3.557  1.00  0.00     0.202 C 
BRANCH  24  25
ATOM     25  C   UNL     1      -6.485   4.151   4.130  1.00  0.00     0.261 C 
BRANCH  25  26
ATOM     26  O   UNL     1      -5.262   4.896   4.029  1.00  0.00    -0.460 OA
BRANCH  26  27
ATOM     27  C   UNL     1      -4.204   4.415   4.721  1.00  0.00     0.338 C 
ATOM     28  O   UNL     1      -4.172   3.418   5.419  1.00  0.00    -0.246 OA
BRANCH  27  29
ATOM     29  C   UNL     1      -3.027   5.228   4.369  1.00  0.00     0.060 A 
ATOM     30  C   UNL     1      -1.871   4.582   3.917  1.00  0.00     0.016 A 
ATOM     31  C   UNL     1      -3.064   6.619   4.502  1.00  0.00     0.016 A 
ATOM     32  C   UNL     1      -0.734   5.333   3.618  1.00  0.00     0.010 A 
ATOM     33  C   UNL     1      -1.922   7.366   4.217  1.00  0.00     0.010 A 
ATOM     34  C   UNL     1      -0.745   6.724   3.797  1.00  0.00    -0.014 A 
BRANCH  34  35
ATOM     35  C   UNL     1       0.510   7.501   3.690  1.00  0.00     0.031 A 
ATOM     36  C   UNL     1       1.318   7.744   4.933  1.00  0.00     0.074 A 
ATOM     37  C   UNL     1       0.916   7.999   2.509  1.00  0.00     0.049 A 
ATOM     38  N   UNL     1       2.430   8.414   5.081  1.00  0.00    -0.248 NA
ATOM     39  C   UNL     1       0.798   7.152   6.177  1.00  0.00     0.031 C 
ATOM     40  C   UNL     1       0.224   7.823   1.233  1.00  0.00     0.029 A 
ATOM     41  N   UNL     1       2.009   8.768   2.198  1.00  0.00    -0.354 N 
ATOM     42  C   UNL     1       2.749   8.321   6.429  1.00  0.00     0.074 A 
ATOM     43  C   UNL     1       1.697   7.554   7.063  1.00  0.00     0.031 C 
ATOM     44  C   UNL     1       0.904   8.479   0.276  1.00  0.00     0.029 A 
ATOM     45  C   UNL     1       2.066   9.134   0.876  1.00  0.00     0.049 A 
ATOM     46  H   UNL     1       2.687   9.032   2.861  1.00  0.00     0.167 HD
ATOM     47  C   UNL     1       3.824   8.823   7.082  1.00  0.00     0.037 A 
ATOM     48  C   UNL     1       2.949   9.921   0.230  1.00  0.00     0.037 A 
ATOM     49  C   UNL     1       4.858   9.603   6.459  1.00  0.00     0.049 A 
ATOM     50  C   UNL     1       4.103  10.522   0.987  1.00  0.00     0.074 A 
ATOM     51  C   UNL     1       5.998  10.140   7.032  1.00  0.00     0.029 A 
ATOM     52  N   UNL     1       4.871   9.972   5.122  1.00  0.00    -0.354 N 
ATOM     53  N   UNL     1       4.417  10.390   2.254  1.00  0.00    -0.248 NA
ATOM     54  C   UNL     1       5.024  11.380   0.227  1.00  0.00     0.031 C 
ATOM     55  C   UNL     1       6.682  10.863   6.048  1.00  0.00     0.029 A 
ATOM     56  C   UNL     1       5.986  10.748   4.855  1.00  0.00     0.049 A 
ATOM     57  H   UNL     1       4.187   9.719   4.460  1.00  0.00     0.167 HD
ATOM     58  C   UNL     1       5.582  11.128   2.437  1.00  0.00     0.074 A 
ATOM     59  C   UNL     1       5.919  11.703   1.151  1.00  0.00     0.031 C 
ATOM     60  C   UNL     1       6.309  11.310   3.568  1.00  0.00     0.037 A 
BRANCH  47  61
ATOM     61  C   UNL     1       3.911   8.553   8.555  1.00  0.00     0.058 A 
ATOM     62  C   UNL     1       4.266   7.287   9.046  1.00  0.00     0.135 A 
ATOM     63  C   UNL     1       3.627   9.565   9.485  1.00  0.00     0.135 A 
ATOM     64  F   UNL     1       4.528   6.281   8.195  1.00  0.00    -0.206 F 
ATOM     65  C   UNL     1       4.305   7.023  10.410  1.00  0.00     0.059 A 
ATOM     66  C   UNL     1       3.677   9.328  10.855  1.00  0.00     0.059 A 
ATOM     67  F   UNL     1       3.277  10.790   9.065  1.00  0.00    -0.206 F 
ATOM     68  C   UNL     1       3.999   8.048  11.307  1.00  0.00     0.060 A 
BRANCH  68  69
ATOM     69  S   UNL     1       4.023   7.689  13.076  1.00  0.00     0.124 S 
ATOM     70  O   UNL     1       2.753   6.989  13.246  1.00  0.00    -0.237 OA
ATOM     71  O   UNL     1       5.222   6.868  13.216  1.00  0.00    -0.237 OA
ATOM     72  O   UNL     1       4.099   9.011  13.688  1.00  0.00    -0.744 OA
ENDBRANCH  68  69
ENDBRANCH  47  61
BRANCH  48  73
ATOM     73  C   UNL     1       2.776  10.188  -1.221  1.00  0.00     0.058 A 
ATOM     74  C   UNL     1       3.618   9.589  -2.168  1.00  0.00     0.135 A 
ATOM     75  C   UNL     1       1.763  11.039  -1.687  1.00  0.00     0.135 A 
ATOM     76  F   UNL     1       4.607   8.776  -1.767  1.00  0.00    -0.206 F 
ATOM     77  C   UNL     1       3.467   9.830  -3.530  1.00  0.00     0.059 A 
ATOM     78  C   UNL     1       1.581  11.282  -3.044  1.00  0.00     0.059 A 
ATOM     79  F   UNL     1       0.929  11.630  -0.817  1.00  0.00    -0.206 F 
ATOM     80  C   UNL     1       2.445  10.678  -3.958  1.00  0.00     0.060 A 
BRANCH  80  81
ATOM     81  S   UNL     1       2.221  10.944  -5.731  1.00  0.00     0.124 S 
ATOM     82  O   UNL     1       3.297  11.884  -6.024  1.00  0.00    -0.237 OA
ATOM     83  O   UNL     1       2.386   9.598  -6.270  1.00  0.00    -0.237 OA
ATOM     84  O   UNL     1       0.868  11.484  -5.819  1.00  0.00    -0.744 OA
ENDBRANCH  80  81
ENDBRANCH  48  73
BRANCH  60  85
ATOM     85  C   UNL     1       7.554  12.145   3.465  1.00  0.00     0.058 A 
ATOM     86  C   UNL     1       7.495  13.545   3.397  1.00  0.00     0.135 A 
ATOM     87  C   UNL     1       8.820  11.539   3.493  1.00  0.00     0.135 A 
ATOM     88  F   UNL     1       6.308  14.170   3.361  1.00  0.00    -0.206 F 
ATOM     89  C   UNL     1       8.652  14.317   3.347  1.00  0.00     0.059 A 
ATOM     90  C   UNL     1       9.989  12.293   3.464  1.00  0.00     0.059 A 
ATOM     91  F   UNL     1       8.929  10.203   3.567  1.00  0.00    -0.206 F 
ATOM     92  C   UNL     1       9.895  13.682   3.381  1.00  0.00     0.060 A 
BRANCH  92  93
ATOM     93  S   UNL     1      11.391  14.693   3.359  1.00  0.00     0.124 S 
ATOM     94  O   UNL     1      11.497  15.030   1.944  1.00  0.00    -0.237 OA
ATOM     95  O   UNL     1      11.042  15.796   4.249  1.00  0.00    -0.237 OA
ATOM     96  O   UNL     1      12.417  13.787   3.869  1.00  0.00    -0.744 OA
ENDBRANCH  92  93
ENDBRANCH  60  85
ENDBRANCH  34  35
ENDBRANCH  27  29
ENDBRANCH  26  27
ENDBRANCH  25  26
ENDBRANCH  24  25
ENDBRANCH  23  24
ENDBRANCH  22  23
ENDBRANCH   1  22
TORSDOF 23
