REMARK SMILES Nc1nccc(N2CCC[C@@](Cc3ccc(F)cc3F)(C(=O)OCCOCCOCCOC(=O)c3ccc(-c4c5nc(c(-c6c(F)cc(S(=O)(=O)[O-])cc6F)c6ccc([nH]6)c(-c6c(F)cc(S(=O)(=O)[O-])cc6F)c6nc(c(-c7c(F)cc(S(=O)(=O)[O-])cc7F)c7ccc4[nH]7)C=C6)C=C5)cc3)C2)n1
REMARK SMILES IDX 28 1 27 2 26 3 25 4 24 5 23 6 21 7 22 8 11 9 7 10 8 11
REMARK SMILES IDX 101 12 9 13 10 14 6 15 2 16 3 17 102 18 4 19 5 20 1 21 12 24
REMARK SMILES IDX 13 25 14 26 19 27 15 28 18 29 20 30 16 31 17 32 29 33 30 34
REMARK SMILES IDX 31 35 32 36 33 37 34 38 35 39 36 40 100 41 37 42 99 43 38 44
REMARK SMILES IDX 39 45 40 46 93 47 41 48 98 49 92 50 94 51 42 52 97 53 91 54
REMARK SMILES IDX 90 55 43 57 77 58 56 59 76 60 57 61 60 62 75 63 95 64 58 65
REMARK SMILES IDX 59 66 74 68 96 69 61 70 44 71 45 72 54 73 46 74 47 75 53 76
REMARK SMILES IDX 55 77 48 78 49 79 50 80 51 81 52 82 78 83 79 84 88 85 80 86
REMARK SMILES IDX 81 87 87 88 89 89 82 90 83 91 84 92 85 93 86 94 62 95 63 96
REMARK SMILES IDX 72 97 64 98 65 99 71 100 73 101 66 102 67 103 68 104 69 105
REMARK SMILES IDX 70 106
REMARK H PARENT 1 22 1 23 94 56 60 67
REMARK Flexibility Score: inf
ROOT
ATOM      1  C   UNL     1       1.728  -7.016  -2.060  1.00  0.00     0.188 C 
ENDROOT
BRANCH   1   2
ATOM      2  C   UNL     1       0.652  -6.746  -3.112  1.00  0.00     0.188 C 
BRANCH   2   3
ATOM      3  O   UNL     1       0.859  -7.229  -4.431  1.00  0.00    -0.376 OA
BRANCH   3   4
ATOM      4  C   UNL     1       2.146  -7.091  -5.023  1.00  0.00     0.202 C 
BRANCH   4   5
ATOM      5  C   UNL     1       2.835  -5.718  -5.003  1.00  0.00     0.261 C 
BRANCH   5   6
ATOM      6  O   UNL     1       3.190  -5.193  -3.698  1.00  0.00    -0.463 OA
BRANCH   6   7
ATOM      7  C   UNL     1       2.661  -3.978  -3.401  1.00  0.00     0.314 C 
ATOM      8  O   UNL     1       1.888  -3.392  -4.155  1.00  0.00    -0.252 OA
BRANCH   7   9
ATOM      9  C   UNL     1       3.166  -3.319  -2.106  1.00  0.00     0.090 C 
ATOM     10  N   UNL     1       2.167  -2.086  -0.240  1.00  0.00    -0.355 N 
ATOM     11  C   UNL     1       2.708  -2.889   0.839  1.00  0.00     0.118 C 
ATOM     12  C   UNL     1       1.853  -2.783  -1.477  1.00  0.00     0.137 C 
ATOM     13  C   UNL     1       4.030  -3.483   0.343  1.00  0.00     0.023 C 
ATOM     14  C   UNL     1       3.885  -4.186  -1.026  1.00  0.00     0.023 C 
BRANCH  10  15
ATOM     15  C   UNL     1       1.317  -1.033   0.069  1.00  0.00     0.134 A 
ATOM     16  C   UNL     1      -0.774  -0.102   0.112  1.00  0.00     0.221 A 
ATOM     17  N   UNL     1      -0.302   1.136   0.294  1.00  0.00    -0.222 NA
ATOM     18  N   UNL     1      -0.014  -1.197  -0.014  1.00  0.00    -0.196 NA
ATOM     19  C   UNL     1       1.029   1.262   0.375  1.00  0.00     0.119 A 
ATOM     20  C   UNL     1       1.890   0.202   0.289  1.00  0.00     0.067 A 
BRANCH  16  21
ATOM     21  N   UNL     1      -2.127  -0.244   0.040  1.00  0.00    -0.368 N 
ATOM     22  H   UNL     1      -2.711   0.544   0.129  1.00  0.00     0.159 HD
ATOM     23  H   UNL     1      -2.521  -1.135  -0.102  1.00  0.00     0.159 HD
ENDBRANCH  16  21
ENDBRANCH  10  15
BRANCH   9  24
ATOM     24  C   UNL     1       4.078  -2.131  -2.563  1.00  0.00     0.059 C 
BRANCH  24  25
ATOM     25  C   UNL     1       5.409  -2.583  -3.138  1.00  0.00    -0.011 A 
ATOM     26  C   UNL     1       5.482  -3.141  -4.423  1.00  0.00     0.010 A 
ATOM     27  C   UNL     1       6.573  -2.556  -2.357  1.00  0.00     0.129 A 
ATOM     28  C   UNL     1       6.659  -3.748  -4.862  1.00  0.00     0.040 A 
ATOM     29  C   UNL     1       7.754  -3.141  -2.796  1.00  0.00     0.078 A 
ATOM     30  F   UNL     1       6.553  -1.997  -1.140  1.00  0.00    -0.207 F 
ATOM     31  C   UNL     1       7.778  -3.754  -4.039  1.00  0.00     0.126 A 
ATOM     32  F   UNL     1       8.896  -4.366  -4.452  1.00  0.00    -0.207 F 
ENDBRANCH  24  25
ENDBRANCH   9  24
ENDBRANCH   7   9
ENDBRANCH   6   7
ENDBRANCH   5   6
ENDBRANCH   4   5
ENDBRANCH   3   4
ENDBRANCH   2   3
ENDBRANCH   1   2
BRANCH   1  33
ATOM     33  O   UNL     1       2.829  -7.783  -2.498  1.00  0.00    -0.376 OA
BRANCH  33  34
ATOM     34  C   UNL     1       3.111  -8.997  -1.817  1.00  0.00     0.202 C 
BRANCH  34  35
ATOM     35  C   UNL     1       1.984 -10.041  -1.810  1.00  0.00     0.261 C 
BRANCH  35  36
ATOM     36  O   UNL     1       0.771  -9.626  -1.156  1.00  0.00    -0.460 OA
BRANCH  36  37
ATOM     37  C   UNL     1       0.857  -9.297   0.157  1.00  0.00     0.338 C 
ATOM     38  O   UNL     1       1.828  -9.432   0.881  1.00  0.00    -0.246 OA
BRANCH  37  39
ATOM     39  C   UNL     1      -0.333  -8.471   0.480  1.00  0.00     0.060 A 
ATOM     40  C   UNL     1      -0.139  -7.217   1.081  1.00  0.00     0.016 A 
ATOM     41  C   UNL     1      -1.615  -8.884   0.110  1.00  0.00     0.016 A 
ATOM     42  C   UNL     1      -1.232  -6.386   1.337  1.00  0.00     0.010 A 
ATOM     43  C   UNL     1      -2.710  -8.063   0.391  1.00  0.00     0.010 A 
ATOM     44  C   UNL     1      -2.527  -6.824   1.032  1.00  0.00    -0.014 A 
BRANCH  44  45
ATOM     45  C   UNL     1      -3.702  -6.104   1.581  1.00  0.00     0.031 A 
ATOM     46  C   UNL     1      -4.284  -6.600   2.878  1.00  0.00     0.074 A 
ATOM     47  C   UNL     1      -4.242  -5.040   0.961  1.00  0.00     0.049 A 
ATOM     48  N   UNL     1      -5.338  -6.186   3.530  1.00  0.00    -0.248 NA
ATOM     49  C   UNL     1      -3.576  -7.720   3.522  1.00  0.00     0.031 C 
ATOM     50  C   UNL     1      -3.749  -4.435  -0.275  1.00  0.00     0.029 A 
ATOM     51  N   UNL     1      -5.341  -4.285   1.291  1.00  0.00    -0.354 N 
ATOM     52  C   UNL     1      -5.421  -6.993   4.659  1.00  0.00     0.074 A 
ATOM     53  C   UNL     1      -4.332  -7.942   4.586  1.00  0.00     0.031 C 
ATOM     54  C   UNL     1      -4.552  -3.408  -0.607  1.00  0.00     0.029 A 
ATOM     55  C   UNL     1      -5.630  -3.300   0.377  1.00  0.00     0.049 A 
ATOM     56  H   UNL     1      -5.872  -4.435   2.106  1.00  0.00     0.167 HD
ATOM     57  C   UNL     1      -6.316  -6.942   5.672  1.00  0.00     0.037 A 
ATOM     58  C   UNL     1      -6.657  -2.426   0.333  1.00  0.00     0.037 A 
ATOM     59  C   UNL     1      -7.405  -6.005   5.739  1.00  0.00     0.049 A 
ATOM     60  C   UNL     1      -7.696  -2.442   1.427  1.00  0.00     0.074 A 
ATOM     61  C   UNL     1      -8.363  -5.870   6.728  1.00  0.00     0.029 A 
ATOM     62  N   UNL     1      -7.689  -5.051   4.772  1.00  0.00    -0.354 N 
ATOM     63  N   UNL     1      -7.759  -3.201   2.496  1.00  0.00    -0.248 NA
ATOM     64  C   UNL     1      -8.804  -1.482   1.309  1.00  0.00     0.031 C 
ATOM     65  C   UNL     1      -9.257  -4.868   6.334  1.00  0.00     0.029 A 
ATOM     66  C   UNL     1      -8.824  -4.341   5.128  1.00  0.00     0.049 A 
ATOM     67  H   UNL     1      -7.162  -4.901   3.955  1.00  0.00     0.167 HD
ATOM     68  C   UNL     1      -8.898  -2.797   3.188  1.00  0.00     0.074 A 
ATOM     69  C   UNL     1      -9.489  -1.720   2.421  1.00  0.00     0.031 C 
ATOM     70  C   UNL     1      -9.405  -3.271   4.354  1.00  0.00     0.037 A 
BRANCH  57  71
ATOM     71  C   UNL     1      -6.167  -7.952   6.775  1.00  0.00     0.058 A 
ATOM     72  C   UNL     1      -7.096  -8.995   6.915  1.00  0.00     0.135 A 
ATOM     73  C   UNL     1      -5.112  -7.886   7.699  1.00  0.00     0.135 A 
ATOM     74  F   UNL     1      -8.120  -9.109   6.054  1.00  0.00    -0.206 F 
ATOM     75  C   UNL     1      -6.987  -9.940   7.930  1.00  0.00     0.059 A 
ATOM     76  C   UNL     1      -4.967  -8.836   8.705  1.00  0.00     0.059 A 
ATOM     77  F   UNL     1      -4.182  -6.923   7.597  1.00  0.00    -0.206 F 
ATOM     78  C   UNL     1      -5.909  -9.861   8.811  1.00  0.00     0.060 A 
BRANCH  78  79
ATOM     79  S   UNL     1      -5.698 -11.091  10.114  1.00  0.00     0.124 S 
ATOM     80  O   UNL     1      -4.521 -11.816   9.642  1.00  0.00    -0.237 OA
ATOM     81  O   UNL     1      -5.498 -10.260  11.296  1.00  0.00    -0.237 OA
ATOM     82  O   UNL     1      -6.949 -11.842  10.082  1.00  0.00    -0.744 OA
ENDBRANCH  78  79
ENDBRANCH  57  71
BRANCH  58  83
ATOM     83  C   UNL     1      -6.756  -1.460  -0.794  1.00  0.00     0.058 A 
ATOM     84  C   UNL     1      -7.070  -1.887  -2.094  1.00  0.00     0.135 A 
ATOM     85  C   UNL     1      -6.522  -0.091  -0.596  1.00  0.00     0.135 A 
ATOM     86  F   UNL     1      -7.301  -3.186  -2.337  1.00  0.00    -0.206 F 
ATOM     87  C   UNL     1      -7.126  -0.997  -3.163  1.00  0.00     0.059 A 
ATOM     88  C   UNL     1      -6.595   0.821  -1.644  1.00  0.00     0.059 A 
ATOM     89  F   UNL     1      -6.231   0.368   0.631  1.00  0.00    -0.206 F 
ATOM     90  C   UNL     1      -6.890   0.356  -2.927  1.00  0.00     0.060 A 
BRANCH  90  91
ATOM     91  S   UNL     1      -6.918   1.542  -4.289  1.00  0.00     0.124 S 
ATOM     92  O   UNL     1      -8.109   2.323  -3.977  1.00  0.00    -0.237 OA
ATOM     93  O   UNL     1      -5.641   2.229  -4.119  1.00  0.00    -0.237 OA
ATOM     94  O   UNL     1      -7.013   0.694  -5.473  1.00  0.00    -0.744 OA
ENDBRANCH  90  91
ENDBRANCH  58  83
BRANCH  70  95
ATOM     95  C   UNL     1     -10.651  -2.622   4.896  1.00  0.00     0.058 A 
ATOM     96  C   UNL     1     -10.595  -1.836   6.059  1.00  0.00     0.135 A 
ATOM     97  C   UNL     1     -11.910  -2.838   4.314  1.00  0.00     0.135 A 
ATOM     98  F   UNL     1      -9.419  -1.608   6.665  1.00  0.00    -0.206 F 
ATOM     99  C   UNL     1     -11.742  -1.294   6.633  1.00  0.00     0.059 A 
ATOM    100  C   UNL     1     -13.066  -2.283   4.855  1.00  0.00     0.059 A 
ATOM    101  F   UNL     1     -12.021  -3.579   3.200  1.00  0.00    -0.206 F 
ATOM    102  C   UNL     1     -12.973  -1.516   6.018  1.00  0.00     0.060 A 
BRANCH 102 103
ATOM    103  S   UNL     1     -14.487  -0.834   6.727  1.00  0.00     0.124 S 
ATOM    104  O   UNL     1     -14.837   0.189   5.747  1.00  0.00    -0.237 OA
ATOM    105  O   UNL     1     -15.364  -2.000   6.767  1.00  0.00    -0.237 OA
ATOM    106  O   UNL     1     -14.059  -0.333   8.030  1.00  0.00    -0.744 OA
ENDBRANCH 102 103
ENDBRANCH  70  95
ENDBRANCH  44  45
ENDBRANCH  37  39
ENDBRANCH  36  37
ENDBRANCH  35  36
ENDBRANCH  34  35
ENDBRANCH  33  34
ENDBRANCH   1  33
TORSDOF 24
