REMARK SMILES CC[C@H]1CC(=O)N(CCn2cc(C(=O)OCCOCCOCCOC(=O)c3ccc(-c4c5nc(c(-c6c(F)cc(S(=O)(=O)[O-])cc6F)c6ccc([nH]6)c(-c6c(F)cc(S(=O)(=O)[O-])cc6F)c6nc(c(-c7c(F)cc(S(=O)(=O)[O-])cc7F)c7ccc4[nH]7)C=C6)C=C5)cc3)nn2)C1
REMARK SMILES IDX 19 1 18 2 17 3 16 4 15 5 13 6 14 7 12 8 10 9 11 10 94 11
REMARK SMILES IDX 93 12 9 13 8 14 7 15 3 16 4 17 95 18 5 19 6 20 2 21 1 22
REMARK SMILES IDX 20 23 21 24 22 25 23 26 24 27 25 28 26 29 27 30 28 31 92 32
REMARK SMILES IDX 29 33 91 34 30 35 31 36 32 37 85 38 33 39 90 40 84 41 86 42
REMARK SMILES IDX 34 43 89 44 83 45 82 46 35 48 69 49 48 50 68 51 49 52 52 53
REMARK SMILES IDX 67 54 87 55 50 56 51 57 66 59 88 60 53 61 36 62 37 63 46 64
REMARK SMILES IDX 38 65 39 66 45 67 47 68 40 69 41 70 42 71 43 72 44 73 70 74
REMARK SMILES IDX 71 75 80 76 72 77 73 78 79 79 81 80 74 81 75 82 76 83 77 84
REMARK SMILES IDX 78 85 54 86 55 87 64 88 56 89 57 90 63 91 65 92 58 93 59 94
REMARK SMILES IDX 60 95 61 96 62 97
REMARK H PARENT 86 47 52 58
REMARK Flexibility Score: inf
ROOT
ATOM      1  C   UNL     1      -3.931   1.062  -4.651  1.00  0.00     0.188 C 
ENDROOT
BRANCH   1   2
ATOM      2  O   UNL     1      -3.654  -0.213  -5.212  1.00  0.00    -0.376 OA
BRANCH   2   3
ATOM      3  C   UNL     1      -2.376  -0.801  -5.019  1.00  0.00     0.202 C 
BRANCH   3   4
ATOM      4  C   UNL     1      -1.099   0.021  -5.275  1.00  0.00     0.261 C 
BRANCH   4   5
ATOM      5  O   UNL     1      -1.090   1.333  -4.683  1.00  0.00    -0.458 OA
BRANCH   5   6
ATOM      6  C   UNL     1      -0.978   2.398  -5.544  1.00  0.00     0.360 C 
ATOM      7  O   UNL     1      -0.802   2.285  -6.741  1.00  0.00    -0.244 OA
BRANCH   6   8
ATOM      8  C   UNL     1      -1.068   3.691  -4.858  1.00  0.00     0.190 A 
ATOM      9  N   UNL     1      -0.978   5.282  -3.383  1.00  0.00    -0.250 N 
ATOM     10  C   UNL     1      -1.315   3.973  -3.529  1.00  0.00     0.147 A 
ATOM     11  N   UNL     1      -0.845   5.855  -4.594  1.00  0.00    -0.066 NA
ATOM     12  N   UNL     1      -0.866   4.887  -5.503  1.00  0.00    -0.123 NA
BRANCH   9  13
ATOM     13  C   UNL     1      -0.619   6.044  -2.205  1.00  0.00     0.167 C 
BRANCH  13  14
ATOM     14  C   UNL     1      -0.497   5.335  -0.842  1.00  0.00     0.143 C 
BRANCH  14  15
ATOM     15  N   UNL     1       0.569   4.339  -0.706  1.00  0.00    -0.341 N 
ATOM     16  C   UNL     1       1.565   2.203  -0.590  1.00  0.00     0.017 C 
ATOM     17  C   UNL     1       2.630   3.274  -0.335  1.00  0.00     0.105 C 
ATOM     18  C   UNL     1       0.428   3.000  -1.192  1.00  0.00     0.123 C 
ATOM     19  C   UNL     1       1.832   4.557  -0.182  1.00  0.00     0.222 C 
ATOM     20  O   UNL     1       2.258   5.605   0.274  1.00  0.00    -0.275 OA
BRANCH  16  21
ATOM     21  C   UNL     1       2.004   1.085  -1.546  1.00  0.00     0.002 C 
ATOM     22  C   UNL     1       0.867   0.120  -1.874  1.00  0.00     0.004 C 
ENDBRANCH  16  21
ENDBRANCH  14  15
ENDBRANCH  13  14
ENDBRANCH   9  13
ENDBRANCH   6   8
ENDBRANCH   5   6
ENDBRANCH   4   5
ENDBRANCH   3   4
ENDBRANCH   2   3
ENDBRANCH   1   2
BRANCH   1  23
ATOM     23  C   UNL     1      -3.618   1.341  -3.166  1.00  0.00     0.188 C 
BRANCH  23  24
ATOM     24  O   UNL     1      -2.662   0.494  -2.564  1.00  0.00    -0.376 OA
BRANCH  24  25
ATOM     25  C   UNL     1      -3.058  -0.510  -1.635  1.00  0.00     0.202 C 
BRANCH  25  26
ATOM     26  C   UNL     1      -4.390  -1.264  -1.697  1.00  0.00     0.261 C 
BRANCH  26  27
ATOM     27  O   UNL     1      -5.335  -0.780  -2.625  1.00  0.00    -0.460 OA
BRANCH  27  28
ATOM     28  C   UNL     1      -6.183   0.137  -2.119  1.00  0.00     0.338 C 
ATOM     29  O   UNL     1      -6.083   0.722  -1.049  1.00  0.00    -0.246 OA
BRANCH  28  30
ATOM     30  C   UNL     1      -7.274   0.329  -3.066  1.00  0.00     0.060 A 
ATOM     31  C   UNL     1      -8.042   1.487  -2.937  1.00  0.00     0.016 A 
ATOM     32  C   UNL     1      -7.686  -0.779  -3.816  1.00  0.00     0.016 A 
ATOM     33  C   UNL     1      -9.353   1.430  -3.341  1.00  0.00     0.010 A 
ATOM     34  C   UNL     1      -8.999  -0.845  -4.190  1.00  0.00     0.010 A 
ATOM     35  C   UNL     1      -9.831   0.218  -3.848  1.00  0.00    -0.014 A 
BRANCH  35  36
ATOM     36  C   UNL     1     -11.251   0.076  -4.063  1.00  0.00     0.031 A 
ATOM     37  C   UNL     1     -11.694   0.750  -5.299  1.00  0.00     0.074 A 
ATOM     38  C   UNL     1     -11.999  -0.707  -3.262  1.00  0.00     0.049 A 
ATOM     39  N   UNL     1     -12.424   1.808  -5.396  1.00  0.00    -0.248 NA
ATOM     40  C   UNL     1     -11.065   0.335  -6.566  1.00  0.00     0.031 C 
ATOM     41  C   UNL     1     -11.545  -1.594  -2.185  1.00  0.00     0.029 A 
ATOM     42  N   UNL     1     -13.331  -0.962  -3.314  1.00  0.00    -0.354 N 
ATOM     43  C   UNL     1     -12.572   2.014  -6.762  1.00  0.00     0.074 A 
ATOM     44  C   UNL     1     -11.528   1.263  -7.403  1.00  0.00     0.031 C 
ATOM     45  C   UNL     1     -12.541  -2.452  -1.862  1.00  0.00     0.029 A 
ATOM     46  C   UNL     1     -13.730  -2.099  -2.617  1.00  0.00     0.049 A 
ATOM     47  H   UNL     1     -13.964  -0.390  -3.805  1.00  0.00     0.167 HD
ATOM     48  C   UNL     1     -13.733   2.510  -7.266  1.00  0.00     0.037 A 
ATOM     49  C   UNL     1     -14.927  -2.733  -2.744  1.00  0.00     0.037 A 
ATOM     50  C   UNL     1     -14.506   3.166  -6.240  1.00  0.00     0.049 A 
ATOM     51  C   UNL     1     -15.866  -1.760  -3.372  1.00  0.00     0.074 A 
ATOM     52  C   UNL     1     -14.260   4.210  -5.368  1.00  0.00     0.029 A 
ATOM     53  N   UNL     1     -15.582   2.486  -5.720  1.00  0.00    -0.354 N 
ATOM     54  N   UNL     1     -16.285  -0.675  -2.777  1.00  0.00    -0.248 NA
ATOM     55  C   UNL     1     -15.937  -1.734  -4.826  1.00  0.00     0.031 C 
ATOM     56  C   UNL     1     -14.883   3.829  -4.145  1.00  0.00     0.029 A 
ATOM     57  C   UNL     1     -15.542   2.617  -4.354  1.00  0.00     0.049 A 
ATOM     58  H   UNL     1     -16.260   1.993  -6.235  1.00  0.00     0.167 HD
ATOM     59  C   UNL     1     -16.250   0.307  -3.758  1.00  0.00     0.074 A 
ATOM     60  C   UNL     1     -16.099  -0.421  -5.017  1.00  0.00     0.031 C 
ATOM     61  C   UNL     1     -16.046   1.619  -3.436  1.00  0.00     0.037 A 
BRANCH  48  62
ATOM     62  C   UNL     1     -14.332   2.038  -8.568  1.00  0.00     0.058 A 
ATOM     63  C   UNL     1     -15.431   2.732  -9.107  1.00  0.00     0.135 A 
ATOM     64  C   UNL     1     -14.047   0.787  -9.166  1.00  0.00     0.135 A 
ATOM     65  F   UNL     1     -15.804   3.917  -8.600  1.00  0.00    -0.206 F 
ATOM     66  C   UNL     1     -16.221   2.197 -10.125  1.00  0.00     0.059 A 
ATOM     67  C   UNL     1     -14.782   0.266 -10.221  1.00  0.00     0.059 A 
ATOM     68  F   UNL     1     -13.107  -0.043  -8.699  1.00  0.00    -0.206 F 
ATOM     69  C   UNL     1     -15.891   0.959 -10.668  1.00  0.00     0.060 A 
BRANCH  69  70
ATOM     70  S   UNL     1     -16.953   0.226 -11.922  1.00  0.00     0.124 S 
ATOM     71  O   UNL     1     -18.149  -0.078 -11.146  1.00  0.00    -0.237 OA
ATOM     72  O   UNL     1     -17.072   1.315 -12.886  1.00  0.00    -0.237 OA
ATOM     73  O   UNL     1     -16.185  -0.928 -12.380  1.00  0.00    -0.744 OA
ENDBRANCH  69  70
ENDBRANCH  48  62
BRANCH  49  74
ATOM     74  C   UNL     1     -15.200  -4.198  -2.720  1.00  0.00     0.058 A 
ATOM     75  C   UNL     1     -16.517  -4.695  -2.669  1.00  0.00     0.135 A 
ATOM     76  C   UNL     1     -14.199  -5.139  -3.034  1.00  0.00     0.135 A 
ATOM     77  F   UNL     1     -17.539  -3.869  -2.397  1.00  0.00    -0.206 F 
ATOM     78  C   UNL     1     -16.826  -6.029  -2.965  1.00  0.00     0.059 A 
ATOM     79  C   UNL     1     -14.482  -6.474  -3.322  1.00  0.00     0.059 A 
ATOM     80  F   UNL     1     -12.917  -4.771  -3.167  1.00  0.00    -0.206 F 
ATOM     81  C   UNL     1     -15.802  -6.908  -3.313  1.00  0.00     0.060 A 
BRANCH  81  82
ATOM     82  S   UNL     1     -16.205  -8.580  -3.876  1.00  0.00     0.124 S 
ATOM     83  O   UNL     1     -16.669  -9.210  -2.645  1.00  0.00    -0.237 OA
ATOM     84  O   UNL     1     -17.226  -8.328  -4.888  1.00  0.00    -0.237 OA
ATOM     85  O   UNL     1     -14.933  -9.080  -4.392  1.00  0.00    -0.744 OA
ENDBRANCH  81  82
ENDBRANCH  49  74
BRANCH  61  86
ATOM     86  C   UNL     1     -16.165   2.020  -1.985  1.00  0.00     0.058 A 
ATOM     87  C   UNL     1     -15.355   1.530  -0.943  1.00  0.00     0.135 A 
ATOM     88  C   UNL     1     -17.072   3.039  -1.660  1.00  0.00     0.135 A 
ATOM     89  F   UNL     1     -14.380   0.642  -1.185  1.00  0.00    -0.206 F 
ATOM     90  C   UNL     1     -15.491   1.985   0.371  1.00  0.00     0.059 A 
ATOM     91  C   UNL     1     -17.200   3.533  -0.366  1.00  0.00     0.059 A 
ATOM     92  F   UNL     1     -17.826   3.599  -2.620  1.00  0.00    -0.206 F 
ATOM     93  C   UNL     1     -16.424   2.983   0.651  1.00  0.00     0.060 A 
BRANCH  93  94
ATOM     94  S   UNL     1     -16.590   3.590   2.343  1.00  0.00     0.124 S 
ATOM     95  O   UNL     1     -17.211   2.454   3.016  1.00  0.00    -0.237 OA
ATOM     96  O   UNL     1     -15.208   3.872   2.718  1.00  0.00    -0.237 OA
ATOM     97  O   UNL     1     -17.441   4.770   2.201  1.00  0.00    -0.744 OA
ENDBRANCH  93  94
ENDBRANCH  61  86
ENDBRANCH  35  36
ENDBRANCH  28  30
ENDBRANCH  27  28
ENDBRANCH  26  27
ENDBRANCH  25  26
ENDBRANCH  24  25
ENDBRANCH  23  24
ENDBRANCH   1  23
TORSDOF 24
