REMARK SMILES O=C(OCCOCCOCCOC(=O)[C@H]1[C@H]2CC[C@H](CC2)[C@@H]1C(=O)Nc1sc2c(c1C(=O)N1CCCCC1)CCCC2)c1ccc(-c2c3nc(c(-c4c(F)cc(S(=O)(=O)[O-])cc4F)c4ccc([nH]4)c(-c4c(F)cc(S(=O)(=O)[O-])cc4F)c4nc(c(-c5c(F)cc(S(=O)(=O)[O-])cc5F)c5ccc2[nH]5)C=C4)C=C3)cc1
REMARK SMILES IDX 7 1 6 2 5 3 4 4 3 5 2 6 1 7 43 8 44 9 108 10 45 11 107 12
REMARK SMILES IDX 46 13 47 14 48 15 101 16 49 17 106 18 100 19 102 20 50 21
REMARK SMILES IDX 105 22 99 23 98 24 51 26 85 27 64 28 84 29 65 30 68 31 83 32
REMARK SMILES IDX 103 33 66 34 67 35 82 37 104 38 69 39 52 40 53 41 62 42
REMARK SMILES IDX 54 43 55 44 61 45 63 46 56 47 57 48 58 49 59 50 60 51 86 52
REMARK SMILES IDX 87 53 96 54 88 55 89 56 95 57 97 58 90 59 91 60 92 61 93 62
REMARK SMILES IDX 94 63 70 64 71 65 80 66 72 67 73 68 79 69 81 70 74 71 75 72
REMARK SMILES IDX 76 73 77 74 78 75 8 76 9 77 10 78 11 79 12 80 13 81 14 82
REMARK SMILES IDX 15 83 16 84 22 85 21 86 17 87 19 88 20 89 18 90 23 91 24 92
REMARK SMILES IDX 25 93 26 95 27 96 30 97 28 98 29 99 42 100 39 101 41 102
REMARK SMILES IDX 40 103 31 104 32 105 33 106 34 107 38 108 35 109 37 110
REMARK SMILES IDX 36 111
REMARK H PARENT 102 25 68 36 25 94
REMARK Flexibility Score: inf
ROOT
ATOM      1  C   UNL     1       2.731  -1.242  -1.670  1.00  0.00     0.188 C 
ENDROOT
BRANCH   1   2
ATOM      2  O   UNL     1       4.109  -0.864  -1.553  1.00  0.00    -0.376 OA
BRANCH   2   3
ATOM      3  C   UNL     1       4.872  -1.756  -0.735  1.00  0.00     0.202 C 
BRANCH   3   4
ATOM      4  C   UNL     1       4.735  -1.536   0.779  1.00  0.00     0.261 C 
BRANCH   4   5
ATOM      5  O   UNL     1       3.429  -1.092   1.166  1.00  0.00    -0.460 OA
BRANCH   5   6
ATOM      6  C   UNL     1       2.995   0.178   1.363  1.00  0.00     0.338 C 
ATOM      7  O   UNL     1       1.885   0.320   1.878  1.00  0.00    -0.246 OA
BRANCH   6   8
ATOM      8  C   UNL     1       3.756   1.421   0.982  1.00  0.00     0.060 A 
ATOM      9  C   UNL     1       4.981   1.482   0.315  1.00  0.00     0.016 A 
ATOM     10  C   UNL     1       3.168   2.647   1.336  1.00  0.00     0.016 A 
ATOM     11  C   UNL     1       5.667   2.687   0.132  1.00  0.00     0.010 A 
ATOM     12  C   UNL     1       3.807   3.866   1.073  1.00  0.00     0.010 A 
ATOM     13  C   UNL     1       5.101   3.891   0.528  1.00  0.00    -0.014 A 
BRANCH  13  14
ATOM     14  C   UNL     1       5.882   5.153   0.536  1.00  0.00     0.031 A 
ATOM     15  C   UNL     1       6.172   5.798   1.857  1.00  0.00     0.074 A 
ATOM     16  C   UNL     1       6.402   5.717  -0.572  1.00  0.00     0.049 A 
ATOM     17  N   UNL     1       6.744   6.947   2.091  1.00  0.00    -0.248 NA
ATOM     18  C   UNL     1       5.873   5.013   3.068  1.00  0.00     0.031 C 
ATOM     19  C   UNL     1       6.518   5.101  -1.884  1.00  0.00     0.029 A 
ATOM     20  N   UNL     1       6.829   7.006  -0.792  1.00  0.00    -0.354 N 
ATOM     21  C   UNL     1       6.996   6.959   3.451  1.00  0.00     0.074 A 
ATOM     22  C   UNL     1       6.365   5.790   4.020  1.00  0.00     0.031 C 
ATOM     23  C   UNL     1       6.732   6.057  -2.806  1.00  0.00     0.029 A 
ATOM     24  C   UNL     1       6.799   7.335  -2.133  1.00  0.00     0.049 A 
ATOM     25  H   UNL     1       7.121   7.620  -0.080  1.00  0.00     0.167 HD
ATOM     26  C   UNL     1       7.787   7.817   4.132  1.00  0.00     0.037 A 
ATOM     27  C   UNL     1       6.761   8.539  -2.732  1.00  0.00     0.037 A 
ATOM     28  C   UNL     1       8.384   8.981   3.537  1.00  0.00     0.049 A 
ATOM     29  C   UNL     1       7.218   9.694  -1.906  1.00  0.00     0.074 A 
ATOM     30  C   UNL     1       9.220   9.919   4.110  1.00  0.00     0.029 A 
ATOM     31  N   UNL     1       8.177   9.378   2.221  1.00  0.00    -0.354 N 
ATOM     32  N   UNL     1       7.493   9.706  -0.625  1.00  0.00    -0.248 NA
ATOM     33  C   UNL     1       7.524  10.940  -2.613  1.00  0.00     0.031 C 
ATOM     34  C   UNL     1       9.469  10.916   3.156  1.00  0.00     0.029 A 
ATOM     35  C   UNL     1       8.822  10.577   1.977  1.00  0.00     0.049 A 
ATOM     36  H   UNL     1       7.648   8.877   1.558  1.00  0.00     0.167 HD
ATOM     37  C   UNL     1       8.150  10.900  -0.399  1.00  0.00     0.074 A 
ATOM     38  C   UNL     1       8.133  11.629  -1.656  1.00  0.00     0.031 C 
ATOM     39  C   UNL     1       8.787  11.300   0.728  1.00  0.00     0.037 A 
BRANCH  26  40
ATOM     40  C   UNL     1       8.050   7.482   5.569  1.00  0.00     0.058 A 
ATOM     41  C   UNL     1       8.859   6.387   5.923  1.00  0.00     0.135 A 
ATOM     42  C   UNL     1       7.443   8.211   6.599  1.00  0.00     0.135 A 
ATOM     43  F   UNL     1       9.440   5.638   4.971  1.00  0.00    -0.206 F 
ATOM     44  C   UNL     1       9.021   6.001   7.248  1.00  0.00     0.059 A 
ATOM     45  C   UNL     1       7.608   7.855   7.934  1.00  0.00     0.059 A 
ATOM     46  F   UNL     1       6.650   9.255   6.311  1.00  0.00    -0.206 F 
ATOM     47  C   UNL     1       8.381   6.736   8.246  1.00  0.00     0.060 A 
BRANCH  47  48
ATOM     48  S   UNL     1       8.553   6.193   9.959  1.00  0.00     0.124 S 
ATOM     49  O   UNL     1       7.708   5.003   9.972  1.00  0.00    -0.237 OA
ATOM     50  O   UNL     1       9.988   5.951  10.068  1.00  0.00    -0.237 OA
ATOM     51  O   UNL     1       8.050   7.328  10.727  1.00  0.00    -0.744 OA
ENDBRANCH  47  48
ENDBRANCH  26  40
BRANCH  27  52
ATOM     52  C   UNL     1       6.370   8.697  -4.156  1.00  0.00     0.058 A 
ATOM     53  C   UNL     1       7.314   8.722  -5.188  1.00  0.00     0.135 A 
ATOM     54  C   UNL     1       5.016   8.840  -4.509  1.00  0.00     0.135 A 
ATOM     55  F   UNL     1       8.618   8.598  -4.901  1.00  0.00    -0.206 F 
ATOM     56  C   UNL     1       6.937   8.891  -6.518  1.00  0.00     0.059 A 
ATOM     57  C   UNL     1       4.612   9.004  -5.834  1.00  0.00     0.059 A 
ATOM     58  F   UNL     1       4.068   8.809  -3.559  1.00  0.00    -0.206 F 
ATOM     59  C   UNL     1       5.583   9.033  -6.833  1.00  0.00     0.060 A 
BRANCH  59  60
ATOM     60  S   UNL     1       5.119   9.240  -8.568  1.00  0.00     0.124 S 
ATOM     61  O   UNL     1       5.669  10.558  -8.865  1.00  0.00    -0.237 OA
ATOM     62  O   UNL     1       5.796   8.111  -9.200  1.00  0.00    -0.237 OA
ATOM     63  O   UNL     1       3.662   9.159  -8.542  1.00  0.00    -0.744 OA
ENDBRANCH  59  60
ENDBRANCH  27  52
BRANCH  39  64
ATOM     64  C   UNL     1       9.582  12.563   0.630  1.00  0.00     0.058 A 
ATOM     65  C   UNL     1       8.966  13.819   0.578  1.00  0.00     0.135 A 
ATOM     66  C   UNL     1      10.986  12.507   0.620  1.00  0.00     0.135 A 
ATOM     67  F   UNL     1       7.627  13.915   0.561  1.00  0.00    -0.206 F 
ATOM     68  C   UNL     1       9.717  14.984   0.507  1.00  0.00     0.059 A 
ATOM     69  C   UNL     1      11.756  13.660   0.579  1.00  0.00     0.059 A 
ATOM     70  F   UNL     1      11.618  11.323   0.665  1.00  0.00    -0.206 F 
ATOM     71  C   UNL     1      11.111  14.895   0.514  1.00  0.00     0.060 A 
BRANCH  71  72
ATOM     72  S   UNL     1      12.074  16.418   0.485  1.00  0.00     0.124 S 
ATOM     73  O   UNL     1      11.973  16.802  -0.919  1.00  0.00    -0.237 OA
ATOM     74  O   UNL     1      11.349  17.264   1.428  1.00  0.00    -0.237 OA
ATOM     75  O   UNL     1      13.397  15.990   0.928  1.00  0.00    -0.744 OA
ENDBRANCH  71  72
ENDBRANCH  39  64
ENDBRANCH  13  14
ENDBRANCH   6   8
ENDBRANCH   5   6
ENDBRANCH   4   5
ENDBRANCH   3   4
ENDBRANCH   2   3
ENDBRANCH   1   2
BRANCH   1  76
ATOM     76  C   UNL     1       2.147  -0.984  -3.061  1.00  0.00     0.188 C 
BRANCH  76  77
ATOM     77  O   UNL     1       2.738  -1.659  -4.170  1.00  0.00    -0.376 OA
BRANCH  77  78
ATOM     78  C   UNL     1       4.146  -1.536  -4.344  1.00  0.00     0.202 C 
BRANCH  78  79
ATOM     79  C   UNL     1       4.769  -0.145  -4.586  1.00  0.00     0.261 C 
BRANCH  79  80
ATOM     80  O   UNL     1       3.997   0.948  -4.077  1.00  0.00    -0.463 OA
BRANCH  80  81
ATOM     81  C   UNL     1       3.615   1.899  -4.982  1.00  0.00     0.310 C 
ATOM     82  O   UNL     1       4.030   1.968  -6.128  1.00  0.00    -0.252 OA
BRANCH  81  83
ATOM     83  C   UNL     1       2.515   2.780  -4.367  1.00  0.00     0.115 C 
ATOM     84  C   UNL     1       3.045   3.692  -3.215  1.00  0.00     0.004 C 
ATOM     85  C   UNL     1       1.786   3.645  -5.388  1.00  0.00     0.096 C 
ATOM     86  C   UNL     1       4.203   4.465  -3.822  1.00  0.00     0.005 C 
ATOM     87  C   UNL     1       2.128   4.872  -2.720  1.00  0.00     0.005 C 
ATOM     88  C   UNL     1       2.187   5.138  -5.194  1.00  0.00     0.002 C 
ATOM     89  C   UNL     1       3.731   5.231  -5.058  1.00  0.00     0.005 C 
ATOM     90  C   UNL     1       1.579   5.673  -3.897  1.00  0.00     0.005 C 
BRANCH  85  91
ATOM     91  C   UNL     1       0.275   3.386  -5.618  1.00  0.00     0.229 C 
ATOM     92  O   UNL     1      -0.181   3.794  -6.705  1.00  0.00    -0.274 OA
ATOM     93  N   UNL     1      -0.661   2.737  -4.864  1.00  0.00    -0.317 N 
ATOM     94  H   UNL     1      -1.427   2.469  -5.421  1.00  0.00     0.170 HD
BRANCH  93  95
ATOM     95  C   UNL     1      -0.858   2.343  -3.550  1.00  0.00     0.108 A 
ATOM     96  S   UNL     1       0.290   2.508  -2.350  1.00  0.00    -0.122 S 
ATOM     97  C   UNL     1      -1.926   1.657  -2.963  1.00  0.00     0.078 A 
ATOM     98  C   UNL     1      -0.834   2.616  -1.141  1.00  0.00     0.011 A 
ATOM     99  C   UNL     1      -1.911   1.846  -1.503  1.00  0.00    -0.019 A 
ATOM    100  C   UNL     1      -0.525   3.195   0.187  1.00  0.00     0.047 C 
ATOM    101  C   UNL     1      -2.785   1.297  -0.421  1.00  0.00     0.037 C 
ATOM    102  C   UNL     1      -1.075   2.260   1.253  1.00  0.00     0.006 C 
ATOM    103  C   UNL     1      -2.552   1.951   0.963  1.00  0.00     0.005 C 
BRANCH  97 104
ATOM    104  C   UNL     1      -2.839   0.845  -3.762  1.00  0.00     0.257 C 
ATOM    105  O   UNL     1      -3.191   1.135  -4.894  1.00  0.00    -0.269 OA
ATOM    106  N   UNL     1      -3.081  -0.390  -3.182  1.00  0.00    -0.339 N 
ATOM    107  C   UNL     1      -2.325  -1.527  -3.678  1.00  0.00     0.120 C 
ATOM    108  C   UNL     1      -4.403  -0.694  -2.678  1.00  0.00     0.120 C 
ATOM    109  C   UNL     1      -2.129  -2.541  -2.558  1.00  0.00     0.022 C 
ATOM    110  C   UNL     1      -4.317  -1.718  -1.547  1.00  0.00     0.022 C 
ATOM    111  C   UNL     1      -3.468  -2.934  -1.927  1.00  0.00     0.004 C 
ENDBRANCH  97 104
ENDBRANCH  93  95
ENDBRANCH  85  91
ENDBRANCH  81  83
ENDBRANCH  80  81
ENDBRANCH  79  80
ENDBRANCH  78  79
ENDBRANCH  77  78
ENDBRANCH  76  77
ENDBRANCH   1  76
TORSDOF 23
