REMARK SMILES O=C(OCCOCCOCCOC(=O)c1ccc(-c2c3nc(c(-c4c(F)cc(S(=O)(=O)[O-])cc4F)c4ccc([nH]4)c(-c4c(F)cc(S(=O)(=O)[O-])cc4F)c4nc(c(-c5c(F)cc(S(=O)(=O)[O-])cc5F)c5ccc2[nH]5)C=C4)C=C3)cc1)C1=Cc2cc(Cl)cc(-c3ccc(O)cc3)c2O[C@@H]1C(F)(F)F
REMARK SMILES IDX 8 1 7 2 6 3 5 4 4 5 3 6 2 7 1 8 81 9 82 10 98 11 83 12 97 13
REMARK SMILES IDX 84 14 96 15 85 16 88 17 86 18 87 19 99 20 100 21 101 22
REMARK SMILES IDX 102 23 89 24 90 25 95 26 91 27 94 28 92 29 93 30 9 32 10 33
REMARK SMILES IDX 11 34 12 35 13 36 14 37 15 38 16 39 80 40 17 41 79 42 18 43
REMARK SMILES IDX 19 44 20 45 73 46 21 47 78 48 72 49 74 50 22 51 77 52 71 53
REMARK SMILES IDX 70 54 23 56 57 57 36 58 56 59 37 60 40 61 55 62 75 63 38 64
REMARK SMILES IDX 39 65 54 67 76 68 41 69 24 70 25 71 34 72 26 73 27 74 33 75
REMARK SMILES IDX 35 76 28 77 29 78 30 79 31 80 32 81 58 82 59 83 68 84 60 85
REMARK SMILES IDX 61 86 67 87 69 88 62 89 63 90 64 91 65 92 66 93 42 94 43 95
REMARK SMILES IDX 52 96 44 97 45 98 51 99 53 100 46 101 47 102 48 103 49 104
REMARK SMILES IDX 50 105
REMARK H PARENT 93 31 74 55 40 66
REMARK Flexibility Score: inf
ROOT
ATOM      1  C   UNL     1       1.639   0.898  -3.240  1.00  0.00     0.188 C 
ENDROOT
BRANCH   1   2
ATOM      2  C   UNL     1       2.152   1.152  -1.817  1.00  0.00     0.188 C 
BRANCH   2   3
ATOM      3  O   UNL     1       3.606   1.477  -1.441  1.00  0.00    -0.376 OA
BRANCH   3   4
ATOM      4  C   UNL     1       4.511   0.839  -0.042  1.00  0.00     0.202 C 
BRANCH   4   5
ATOM      5  C   UNL     1       3.812  -0.909   1.047  1.00  0.00     0.261 C 
BRANCH   5   6
ATOM      6  O   UNL     1       2.780  -0.932   2.149  1.00  0.00    -0.460 OA
BRANCH   6   7
ATOM      7  C   UNL     1       2.904   0.130   2.958  1.00  0.00     0.338 C 
ATOM      8  O   UNL     1       2.142   0.480   3.826  1.00  0.00    -0.246 OA
BRANCH   7   9
ATOM      9  C   UNL     1       3.838   0.900   2.140  1.00  0.00     0.087 C 
ATOM     10  C   UNL     1       5.220   0.480   2.158  1.00  0.00     0.027 C 
ATOM     11  C   UNL     1       2.708   0.770   0.616  1.00  0.00     0.316 C 
ATOM     12  C   UNL     1       6.008  -0.502   0.900  1.00  0.00     0.019 A 
ATOM     13  O   UNL     1       3.464  -0.474  -0.723  1.00  0.00    -0.475 OA
ATOM     14  C   UNL     1       7.269  -0.959   1.180  1.00  0.00     0.032 A 
ATOM     15  C   UNL     1       5.188  -1.079  -0.512  1.00  0.00     0.135 A 
ATOM     16  C   UNL     1       7.803  -1.844   0.242  1.00  0.00     0.042 A 
ATOM     17  C   UNL     1       5.828  -1.907  -1.423  1.00  0.00     0.026 A 
ATOM     18  Cl  UNL     1       9.370  -2.505   0.576  1.00  0.00    -0.084 Cl
ATOM     19  C   UNL     1       7.141  -2.264  -0.972  1.00  0.00     0.033 A 
BRANCH  11  20
ATOM     20  C   UNL     1       2.548   2.518   0.659  1.00  0.00     0.430 C 
ATOM     21  F   UNL     1       2.392   3.248  -0.450  1.00  0.00    -0.167 F 
ATOM     22  F   UNL     1       1.466   2.795   1.440  1.00  0.00    -0.167 F 
ATOM     23  F   UNL     1       3.591   3.131   1.303  1.00  0.00    -0.167 F 
ENDBRANCH  11  20
BRANCH  17  24
ATOM     24  C   UNL     1       5.442  -2.423  -2.732  1.00  0.00    -0.014 A 
ATOM     25  C   UNL     1       4.746  -3.629  -2.863  1.00  0.00     0.012 A 
ATOM     26  C   UNL     1       5.963  -1.837  -3.906  1.00  0.00     0.012 A 
ATOM     27  C   UNL     1       4.463  -4.160  -4.127  1.00  0.00     0.047 A 
ATOM     28  C   UNL     1       5.652  -2.345  -5.175  1.00  0.00     0.047 A 
ATOM     29  C   UNL     1       4.866  -3.483  -5.270  1.00  0.00     0.115 A 
BRANCH  29  30
ATOM     30  O   UNL     1       4.452  -3.953  -6.480  1.00  0.00    -0.508 OA
ATOM     31  H   UNL     1       3.921  -4.723  -6.526  1.00  0.00     0.293 HD
ENDBRANCH  29  30
ENDBRANCH  17  24
ENDBRANCH   7   9
ENDBRANCH   6   7
ENDBRANCH   5   6
ENDBRANCH   4   5
ENDBRANCH   3   4
ENDBRANCH   2   3
ENDBRANCH   1   2
BRANCH   1  32
ATOM     32  O   UNL     1       2.326  -0.010  -4.051  1.00  0.00    -0.376 OA
BRANCH  32  33
ATOM     33  C   UNL     1       3.710   0.241  -4.136  1.00  0.00     0.202 C 
BRANCH  33  34
ATOM     34  C   UNL     1       4.227   1.579  -4.674  1.00  0.00     0.261 C 
BRANCH  34  35
ATOM     35  O   UNL     1       3.817   2.736  -3.930  1.00  0.00    -0.460 OA
BRANCH  35  36
ATOM     36  C   UNL     1       2.854   3.499  -4.501  1.00  0.00     0.338 C 
ATOM     37  O   UNL     1       2.334   3.334  -5.591  1.00  0.00    -0.246 OA
BRANCH  36  38
ATOM     38  C   UNL     1       2.364   4.470  -3.505  1.00  0.00     0.060 A 
ATOM     39  C   UNL     1       1.059   4.351  -3.003  1.00  0.00     0.016 A 
ATOM     40  C   UNL     1       3.179   5.533  -3.120  1.00  0.00     0.016 A 
ATOM     41  C   UNL     1       0.567   5.292  -2.105  1.00  0.00     0.010 A 
ATOM     42  C   UNL     1       2.665   6.506  -2.261  1.00  0.00     0.010 A 
ATOM     43  C   UNL     1       1.351   6.400  -1.773  1.00  0.00    -0.014 A 
BRANCH  43  44
ATOM     44  C   UNL     1       0.700   7.551  -1.112  1.00  0.00     0.031 A 
ATOM     45  C   UNL     1       0.165   8.650  -1.987  1.00  0.00     0.074 A 
ATOM     46  C   UNL     1       0.537   7.585   0.222  1.00  0.00     0.049 A 
ATOM     47  N   UNL     1      -0.442   9.756  -1.650  1.00  0.00    -0.248 NA
ATOM     48  C   UNL     1       0.336   8.475  -3.441  1.00  0.00     0.031 C 
ATOM     49  C   UNL     1       0.975   6.548   1.153  1.00  0.00     0.029 A 
ATOM     50  N   UNL     1      -0.042   8.536   1.023  1.00  0.00    -0.354 N 
ATOM     51  C   UNL     1      -0.734  10.402  -2.845  1.00  0.00     0.074 A 
ATOM     52  C   UNL     1      -0.199   9.590  -3.914  1.00  0.00     0.031 C 
ATOM     53  C   UNL     1       0.665   6.927   2.405  1.00  0.00     0.029 A 
ATOM     54  C   UNL     1       0.033   8.245   2.365  1.00  0.00     0.049 A 
ATOM     55  H   UNL     1      -0.472   9.349   0.671  1.00  0.00     0.167 HD
ATOM     56  C   UNL     1      -1.402  11.564  -3.030  1.00  0.00     0.037 A 
ATOM     57  C   UNL     1      -0.343   8.978   3.433  1.00  0.00     0.037 A 
ATOM     58  C   UNL     1      -1.911  12.371  -1.954  1.00  0.00     0.049 A 
ATOM     59  C   UNL     1      -1.002  10.316   3.197  1.00  0.00     0.074 A 
ATOM     60  C   UNL     1      -2.597  13.570  -2.030  1.00  0.00     0.029 A 
ATOM     61  N   UNL     1      -1.783  12.069  -0.605  1.00  0.00    -0.354 N 
ATOM     62  N   UNL     1      -1.299  10.907   2.062  1.00  0.00    -0.248 NA
ATOM     63  C   UNL     1      -1.389  11.084   4.389  1.00  0.00     0.031 C 
ATOM     64  C   UNL     1      -2.822  14.026  -0.728  1.00  0.00     0.029 A 
ATOM     65  C   UNL     1      -2.349  13.074   0.161  1.00  0.00     0.049 A 
ATOM     66  H   UNL     1      -1.352  11.260  -0.247  1.00  0.00     0.167 HD
ATOM     67  C   UNL     1      -1.936  12.097   2.405  1.00  0.00     0.074 A 
ATOM     68  C   UNL     1      -2.008  12.124   3.851  1.00  0.00     0.031 C 
ATOM     69  C   UNL     1      -2.414  13.081   1.602  1.00  0.00     0.037 A 
BRANCH  56  70
ATOM     70  C   UNL     1      -1.603  12.041  -4.442  1.00  0.00     0.058 A 
ATOM     71  C   UNL     1      -2.471  11.383  -5.328  1.00  0.00     0.135 A 
ATOM     72  C   UNL     1      -0.969  13.209  -4.895  1.00  0.00     0.135 A 
ATOM     73  F   UNL     1      -3.083  10.246  -4.958  1.00  0.00    -0.206 F 
ATOM     74  C   UNL     1      -2.700  11.863  -6.613  1.00  0.00     0.059 A 
ATOM     75  C   UNL     1      -1.208  13.726  -6.165  1.00  0.00     0.059 A 
ATOM     76  F   UNL     1      -0.119  13.871  -4.095  1.00  0.00    -0.206 F 
ATOM     77  C   UNL     1      -2.074  13.044  -7.018  1.00  0.00     0.060 A 
BRANCH  77  78
ATOM     78  S   UNL     1      -2.431  13.682  -8.667  1.00  0.00     0.124 S 
ATOM     79  O   UNL     1      -1.814  12.667  -9.516  1.00  0.00    -0.237 OA
ATOM     80  O   UNL     1      -3.890  13.714  -8.676  1.00  0.00    -0.237 OA
ATOM     81  O   UNL     1      -1.777  14.987  -8.678  1.00  0.00    -0.744 OA
ENDBRANCH  77  78
ENDBRANCH  56  70
BRANCH  57  82
ATOM     82  C   UNL     1      -0.081   8.492   4.817  1.00  0.00     0.058 A 
ATOM     83  C   UNL     1      -1.128   8.228   5.715  1.00  0.00     0.135 A 
ATOM     84  C   UNL     1       1.232   8.334   5.291  1.00  0.00     0.135 A 
ATOM     85  F   UNL     1      -2.402   8.373   5.321  1.00  0.00    -0.206 F 
ATOM     86  C   UNL     1      -0.885   7.866   7.037  1.00  0.00     0.059 A 
ATOM     87  C   UNL     1       1.500   7.934   6.596  1.00  0.00     0.059 A 
ATOM     88  F   UNL     1       2.275   8.565   4.477  1.00  0.00    -0.206 F 
ATOM     89  C   UNL     1       0.435   7.722   7.468  1.00  0.00     0.060 A 
BRANCH  89  90
ATOM     90  S   UNL     1       0.741   7.244   9.182  1.00  0.00     0.124 S 
ATOM     91  O   UNL     1       0.317   8.439   9.902  1.00  0.00    -0.237 OA
ATOM     92  O   UNL     1      -0.117   6.072   9.329  1.00  0.00    -0.237 OA
ATOM     93  O   UNL     1       2.175   6.970   9.205  1.00  0.00    -0.744 OA
ENDBRANCH  89  90
ENDBRANCH  57  82
BRANCH  69  94
ATOM     94  C   UNL     1      -3.094  14.249   2.271  1.00  0.00     0.058 A 
ATOM     95  C   UNL     1      -2.391  15.157   3.079  1.00  0.00     0.135 A 
ATOM     96  C   UNL     1      -4.469  14.473   2.084  1.00  0.00     0.135 A 
ATOM     97  F   UNL     1      -1.075  14.995   3.292  1.00  0.00    -0.206 F 
ATOM     98  C   UNL     1      -3.034  16.209   3.723  1.00  0.00     0.059 A 
ATOM     99  C   UNL     1      -5.124  15.546   2.680  1.00  0.00     0.059 A 
ATOM    100  F   UNL     1      -5.191  13.650   1.306  1.00  0.00    -0.206 F 
ATOM    101  C   UNL     1      -4.402  16.394   3.517  1.00  0.00     0.060 A 
BRANCH 101 102
ATOM    102  S   UNL     1      -5.222  17.764   4.359  1.00  0.00     0.124 S 
ATOM    103  O   UNL     1      -5.193  17.316   5.747  1.00  0.00    -0.237 OA
ATOM    104  O   UNL     1      -4.352  18.890   4.037  1.00  0.00    -0.237 OA
ATOM    105  O   UNL     1      -6.544  17.802   3.740  1.00  0.00    -0.744 OA
ENDBRANCH 101 102
ENDBRANCH  69  94
ENDBRANCH  43  44
ENDBRANCH  36  38
ENDBRANCH  35  36
ENDBRANCH  34  35
ENDBRANCH  33  34
ENDBRANCH  32  33
ENDBRANCH   1  32
TORSDOF 23
