REMARK SMILES Cc1ccc(O[C@H](C)C(=O)NNC(=O)[C@@H]2[C@@H](C(=O)OCCOCCOCCOC(=O)c3ccc(-c4c5nc(c(-c6c(F)cc(S(=O)(=O)[O-])cc6F)c6ccc([nH]6)c(-c6c(F)cc(S(=O)(=O)[O-])cc6F)c6nc(c(-c7c(F)cc(S(=O)(=O)[O-])cc7F)c7ccc4[nH]7)C=C6)C=C5)cc3)[C@@H]3C=C[C@H]2C3)cc1C
REMARK SMILES IDX 23 1 22 2 21 3 20 4 19 5 17 6 18 7 16 8 15 9 100 10 97 11
REMARK SMILES IDX 99 12 101 13 98 14 13 15 12 16 14 18 11 19 9 20 10 21 7 23
REMARK SMILES IDX 8 24 6 25 5 26 1 27 2 28 3 29 103 30 4 31 102 32 104 33
REMARK SMILES IDX 24 34 25 35 26 36 27 37 28 38 29 39 30 40 31 41 32 42 96 43
REMARK SMILES IDX 33 44 95 45 34 46 35 47 36 48 89 49 37 50 94 51 88 52 90 53
REMARK SMILES IDX 38 54 93 55 87 56 86 57 39 59 73 60 52 61 72 62 53 63 56 64
REMARK SMILES IDX 71 65 91 66 54 67 55 68 70 70 92 71 57 72 40 73 41 74 50 75
REMARK SMILES IDX 42 76 43 77 49 78 51 79 44 80 45 81 46 82 47 83 48 84 74 85
REMARK SMILES IDX 75 86 84 87 76 88 77 89 83 90 85 91 78 92 79 93 80 94 81 95
REMARK SMILES IDX 82 96 58 97 59 98 68 99 60 100 61 101 67 102 69 103 62 104
REMARK SMILES IDX 63 105 64 106 65 107 66 108
REMARK H PARENT 12 17 11 22 90 58 56 69
REMARK Flexibility Score: inf
ROOT
ATOM      1  C   UNL     1       0.430   6.401  -3.820  1.00  0.00     0.188 C 
ENDROOT
BRANCH   1   2
ATOM      2  O   UNL     1       1.503   7.215  -3.371  1.00  0.00    -0.376 OA
BRANCH   2   3
ATOM      3  C   UNL     1       2.233   6.721  -2.249  1.00  0.00     0.202 C 
BRANCH   3   4
ATOM      4  C   UNL     1       1.447   6.503  -0.943  1.00  0.00     0.261 C 
BRANCH   4   5
ATOM      5  O   UNL     1       0.361   5.541  -1.007  1.00  0.00    -0.463 OA
BRANCH   5   6
ATOM      6  C   UNL     1      -0.864   6.027  -0.663  1.00  0.00     0.310 C 
ATOM      7  O   UNL     1      -1.071   7.197  -0.352  1.00  0.00    -0.252 OA
BRANCH   6   8
ATOM      8  C   UNL     1      -1.994   5.011  -0.648  1.00  0.00     0.119 C 
ATOM      9  C   UNL     1      -1.817   3.604  -1.341  1.00  0.00     0.102 C 
ATOM     10  C   UNL     1      -3.031   3.572  -2.309  1.00  0.00     0.025 C 
ATOM     11  C   UNL     1      -3.220   5.602  -1.404  1.00  0.00     0.027 C 
ATOM     12  C   UNL     1      -4.328   3.595  -1.535  1.00  0.00    -0.027 C 
ATOM     13  C   UNL     1      -3.055   5.017  -2.806  1.00  0.00     0.017 C 
ATOM     14  C   UNL     1      -4.438   4.812  -0.985  1.00  0.00    -0.027 C 
BRANCH   9  15
ATOM     15  C   UNL     1      -1.703   2.527  -0.253  1.00  0.00     0.242 C 
ATOM     16  N   UNL     1      -2.165   1.246  -0.394  1.00  0.00    -0.267 N 
ATOM     17  H   UNL     1      -1.933   0.614   0.324  1.00  0.00     0.191 HD
ATOM     18  O   UNL     1      -1.083   2.774   0.790  1.00  0.00    -0.273 OA
BRANCH  16  19
ATOM     19  N   UNL     1      -2.924   0.745  -1.436  1.00  0.00    -0.264 N 
ATOM     20  C   UNL     1      -3.946  -0.164  -1.288  1.00  0.00     0.279 C 
ATOM     21  O   UNL     1      -4.702  -0.367  -2.241  1.00  0.00    -0.269 OA
ATOM     22  H   UNL     1      -2.718   1.060  -2.346  1.00  0.00     0.191 HD
BRANCH  20  23
ATOM     23  C   UNL     1      -4.043  -1.015  -0.007  1.00  0.00     0.260 C 
ATOM     24  C   UNL     1      -2.814  -1.935   0.030  1.00  0.00     0.064 C 
BRANCH  23  25
ATOM     25  O   UNL     1      -4.146  -0.210   1.167  1.00  0.00    -0.481 OA
BRANCH  25  26
ATOM     26  C   UNL     1      -4.472  -0.821   2.352  1.00  0.00     0.120 A 
ATOM     27  C   UNL     1      -5.141  -2.481   6.298  1.00  0.00     0.044 C 
ATOM     28  C   UNL     1      -4.940  -1.862   4.942  1.00  0.00    -0.048 A 
ATOM     29  C   UNL     1      -4.987  -2.686   3.809  1.00  0.00     0.007 A 
ATOM     30  C   UNL     1      -4.705  -0.486   4.770  1.00  0.00    -0.045 A 
ATOM     31  C   UNL     1      -4.771  -2.170   2.528  1.00  0.00     0.047 A 
ATOM     32  C   UNL     1      -4.469   0.014   3.472  1.00  0.00     0.050 A 
ATOM     33  C   UNL     1      -4.697   0.493   5.912  1.00  0.00     0.045 C 
ENDBRANCH  25  26
ENDBRANCH  23  25
ENDBRANCH  20  23
ENDBRANCH  16  19
ENDBRANCH   9  15
ENDBRANCH   6   8
ENDBRANCH   5   6
ENDBRANCH   4   5
ENDBRANCH   3   4
ENDBRANCH   2   3
ENDBRANCH   1   2
BRANCH   1  34
ATOM     34  C   UNL     1       0.820   5.010  -4.325  1.00  0.00     0.188 C 
BRANCH  34  35
ATOM     35  O   UNL     1       1.679   4.277  -3.464  1.00  0.00    -0.376 OA
BRANCH  35  36
ATOM     36  C   UNL     1       2.086   2.978  -3.898  1.00  0.00     0.202 C 
BRANCH  36  37
ATOM     37  C   UNL     1       2.586   2.832  -5.350  1.00  0.00     0.261 C 
BRANCH  37  38
ATOM     38  O   UNL     1       1.651   3.202  -6.385  1.00  0.00    -0.460 OA
BRANCH  38  39
ATOM     39  C   UNL     1       0.401   2.687  -6.336  1.00  0.00     0.338 C 
ATOM     40  O   UNL     1       0.021   1.774  -5.620  1.00  0.00    -0.246 OA
BRANCH  39  41
ATOM     41  C   UNL     1      -0.511   3.595  -7.085  1.00  0.00     0.060 A 
ATOM     42  C   UNL     1      -1.794   3.821  -6.562  1.00  0.00     0.016 A 
ATOM     43  C   UNL     1      -0.105   4.273  -8.238  1.00  0.00     0.016 A 
ATOM     44  C   UNL     1      -2.683   4.684  -7.209  1.00  0.00     0.010 A 
ATOM     45  C   UNL     1      -1.001   5.127  -8.894  1.00  0.00     0.010 A 
ATOM     46  C   UNL     1      -2.307   5.309  -8.404  1.00  0.00    -0.014 A 
BRANCH  46  47
ATOM     47  C   UNL     1      -3.336   5.957  -9.260  1.00  0.00     0.031 A 
ATOM     48  C   UNL     1      -3.897   5.159 -10.409  1.00  0.00     0.074 A 
ATOM     49  C   UNL     1      -3.791   7.202  -9.026  1.00  0.00     0.049 A 
ATOM     50  N   UNL     1      -4.728   5.522 -11.350  1.00  0.00    -0.248 NA
ATOM     51  C   UNL     1      -3.454   3.757 -10.504  1.00  0.00     0.031 C 
ATOM     52  C   UNL     1      -3.387   8.060  -7.914  1.00  0.00     0.029 A 
ATOM     53  N   UNL     1      -4.695   7.965  -9.727  1.00  0.00    -0.354 N 
ATOM     54  C   UNL     1      -4.895   4.403 -12.157  1.00  0.00     0.074 A 
ATOM     55  C   UNL     1      -4.062   3.355 -11.609  1.00  0.00     0.031 C 
ATOM     56  C   UNL     1      -4.032   9.237  -8.015  1.00  0.00     0.029 A 
ATOM     57  C   UNL     1      -4.861   9.233  -9.221  1.00  0.00     0.049 A 
ATOM     58  H   UNL     1      -5.179   7.634 -10.518  1.00  0.00     0.167 HD
ATOM     59  C   UNL     1      -5.676   4.256 -13.253  1.00  0.00     0.037 A 
ATOM     60  C   UNL     1      -5.575  10.277  -9.693  1.00  0.00     0.037 A 
ATOM     61  C   UNL     1      -6.507   5.296 -13.797  1.00  0.00     0.049 A 
ATOM     62  C   UNL     1      -6.373  10.119 -10.966  1.00  0.00     0.074 A 
ATOM     63  C   UNL     1      -7.330   5.245 -14.909  1.00  0.00     0.029 A 
ATOM     64  N   UNL     1      -6.621   6.575 -13.274  1.00  0.00    -0.354 N 
ATOM     65  N   UNL     1      -6.516   9.059 -11.727  1.00  0.00    -0.248 NA
ATOM     66  C   UNL     1      -7.104  11.301 -11.449  1.00  0.00     0.031 C 
ATOM     67  C   UNL     1      -7.901   6.508 -15.088  1.00  0.00     0.029 A 
ATOM     68  C   UNL     1      -7.483   7.329 -14.052  1.00  0.00     0.049 A 
ATOM     69  H   UNL     1      -6.157   6.899 -12.468  1.00  0.00     0.167 HD
ATOM     70  C   UNL     1      -7.378   9.437 -12.754  1.00  0.00     0.074 A 
ATOM     71  C   UNL     1      -7.728  10.821 -12.517  1.00  0.00     0.031 C 
ATOM     72  C   UNL     1      -7.842   8.702 -13.795  1.00  0.00     0.037 A 
BRANCH  59  73
ATOM     73  C   UNL     1      -5.634   2.930 -13.960  1.00  0.00     0.058 A 
ATOM     74  C   UNL     1      -6.207   1.774 -13.406  1.00  0.00     0.135 A 
ATOM     75  C   UNL     1      -5.024   2.820 -15.220  1.00  0.00     0.135 A 
ATOM     76  F   UNL     1      -6.782   1.819 -12.194  1.00  0.00    -0.206 F 
ATOM     77  C   UNL     1      -6.150   0.549 -14.063  1.00  0.00     0.059 A 
ATOM     78  C   UNL     1      -4.982   1.611 -15.909  1.00  0.00     0.059 A 
ATOM     79  F   UNL     1      -4.456   3.893 -15.793  1.00  0.00    -0.206 F 
ATOM     80  C   UNL     1      -5.534   0.478 -15.314  1.00  0.00     0.060 A 
BRANCH  80  81
ATOM     81  S   UNL     1      -5.464  -1.119 -16.151  1.00  0.00     0.124 S 
ATOM     82  O   UNL     1      -4.472  -1.825 -15.345  1.00  0.00    -0.237 OA
ATOM     83  O   UNL     1      -6.837  -1.597 -16.028  1.00  0.00    -0.237 OA
ATOM     84  O   UNL     1      -5.041  -0.776 -17.505  1.00  0.00    -0.744 OA
ENDBRANCH  80  81
ENDBRANCH  59  73
BRANCH  60  85
ATOM     85  C   UNL     1      -5.553  11.586  -8.979  1.00  0.00     0.058 A 
ATOM     86  C   UNL     1      -6.700  12.093  -8.349  1.00  0.00     0.135 A 
ATOM     87  C   UNL     1      -4.388  12.368  -8.935  1.00  0.00     0.135 A 
ATOM     88  F   UNL     1      -7.845  11.394  -8.379  1.00  0.00    -0.206 F 
ATOM     89  C   UNL     1      -6.698  13.332  -7.714  1.00  0.00     0.059 A 
ATOM     90  C   UNL     1      -4.353  13.597  -8.282  1.00  0.00     0.059 A 
ATOM     91  F   UNL     1      -3.262  11.932  -9.520  1.00  0.00    -0.206 F 
ATOM     92  C   UNL     1      -5.518  14.076  -7.684  1.00  0.00     0.060 A 
BRANCH  92  93
ATOM     93  S   UNL     1      -5.515  15.664  -6.822  1.00  0.00     0.124 S 
ATOM     94  O   UNL     1      -6.295  16.494  -7.731  1.00  0.00    -0.237 OA
ATOM     95  O   UNL     1      -6.157  15.325  -5.556  1.00  0.00    -0.237 OA
ATOM     96  O   UNL     1      -4.095  15.992  -6.728  1.00  0.00    -0.744 OA
ENDBRANCH  92  93
ENDBRANCH  60  85
BRANCH  72  97
ATOM     97  C   UNL     1      -8.824   9.348 -14.736  1.00  0.00     0.058 A 
ATOM     98  C   UNL     1      -8.433  10.323 -15.666  1.00  0.00     0.135 A 
ATOM     99  C   UNL     1     -10.163   8.922 -14.760  1.00  0.00     0.135 A 
ATOM    100  F   UNL     1      -7.167  10.769 -15.686  1.00  0.00    -0.206 F 
ATOM    101  C   UNL     1      -9.337  10.864 -16.577  1.00  0.00     0.059 A 
ATOM    102  C   UNL     1     -11.077   9.428 -15.679  1.00  0.00     0.059 A 
ATOM    103  F   UNL     1     -10.589   7.982 -13.900  1.00  0.00    -0.206 F 
ATOM    104  C   UNL     1     -10.657  10.405 -16.579  1.00  0.00     0.060 A 
BRANCH 104 105
ATOM    105  S   UNL     1     -11.806  11.078 -17.799  1.00  0.00     0.124 S 
ATOM    106  O   UNL     1     -12.040  12.420 -17.275  1.00  0.00    -0.237 OA
ATOM    107  O   UNL     1     -11.031  11.005 -19.033  1.00  0.00    -0.237 OA
ATOM    108  O   UNL     1     -12.948  10.170 -17.728  1.00  0.00    -0.744 OA
ENDBRANCH 104 105
ENDBRANCH  72  97
ENDBRANCH  46  47
ENDBRANCH  39  41
ENDBRANCH  38  39
ENDBRANCH  37  38
ENDBRANCH  36  37
ENDBRANCH  35  36
ENDBRANCH  34  35
ENDBRANCH   1  34
TORSDOF 25
