REMARK SMILES Cc1noc(C)c1[C@H](C)NC(=O)NC[C@@](C)(O)C(=O)OCCOCCOCCOC(=O)c1ccc(-c2c3nc(c(-c4c(F)cc(S(=O)(=O)[O-])cc4F)c4ccc([nH]4)c(-c4c(F)cc(S(=O)(=O)[O-])cc4F)c4nc(c(-c5c(F)cc(S(=O)(=O)[O-])cc5F)c5ccc2[nH]5)C=C4)C=C3)cc1
REMARK SMILES IDX 24 1 23 2 22 3 21 4 20 5 18 6 19 7 15 8 16 9 14 10 13 11
REMARK SMILES IDX 10 12 11 13 12 15 8 17 9 18 7 19 1 20 2 21 3 22 4 23 5 24
REMARK SMILES IDX 6 25 17 26 25 28 26 29 27 30 28 31 29 32 30 33 31 34 32 35
REMARK SMILES IDX 33 36 97 37 34 38 96 39 35 40 36 41 37 42 90 43 38 44 95 45
REMARK SMILES IDX 89 46 91 47 39 48 94 49 88 50 87 51 40 53 74 54 53 55 73 56
REMARK SMILES IDX 54 57 57 58 72 59 92 60 55 61 56 62 71 64 93 65 58 66 41 67
REMARK SMILES IDX 42 68 51 69 43 70 44 71 50 72 52 73 45 74 46 75 47 76 48 77
REMARK SMILES IDX 49 78 75 79 76 80 85 81 77 82 78 83 84 84 86 85 79 86 80 87
REMARK SMILES IDX 81 88 82 89 83 90 59 91 60 92 69 93 61 94 62 95 68 96 70 97
REMARK SMILES IDX 63 98 64 99 65 100 66 101 67 102
REMARK H PARENT 10 14 13 16 17 27 91 52 57 63
REMARK Flexibility Score: inf
ROOT
ATOM      1  C   UNL     1       0.419   5.215  -2.403  1.00  0.00     0.188 C 
ENDROOT
BRANCH   1   2
ATOM      2  O   UNL     1      -0.419   6.354  -2.507  1.00  0.00    -0.376 OA
BRANCH   2   3
ATOM      3  C   UNL     1       0.129   7.662  -2.432  1.00  0.00     0.202 C 
BRANCH   3   4
ATOM      4  C   UNL     1       0.960   8.050  -1.206  1.00  0.00     0.261 C 
BRANCH   4   5
ATOM      5  O   UNL     1       1.959   7.074  -0.898  1.00  0.00    -0.461 OA
BRANCH   5   6
ATOM      6  C   UNL     1       2.203   6.867   0.427  1.00  0.00     0.339 C 
ATOM      7  O   UNL     1       1.715   7.539   1.328  1.00  0.00    -0.249 OA
BRANCH   6   8
ATOM      8  C   UNL     1       3.179   5.689   0.655  1.00  0.00     0.176 C 
ATOM      9  C   UNL     1       4.295   6.180   1.576  1.00  0.00     0.057 C 
BRANCH   8  10
ATOM     10  C   UNL     1       2.427   4.468   1.235  1.00  0.00     0.164 C 
BRANCH  10  11
ATOM     11  N   UNL     1       1.620   4.699   2.422  1.00  0.00    -0.335 N 
ATOM     12  N   UNL     1      -0.596   3.924   2.059  1.00  0.00    -0.331 N 
ATOM     13  C   UNL     1       0.374   4.428   2.826  1.00  0.00     0.315 C 
ATOM     14  H   UNL     1      -1.424   3.730   2.556  1.00  0.00     0.165 HD
ATOM     15  O   UNL     1       0.104   4.678   4.002  1.00  0.00    -0.249 OA
ATOM     16  H   UNL     1       2.126   5.184   3.113  1.00  0.00     0.165 HD
BRANCH  12  17
ATOM     17  C   UNL     1      -0.687   3.605   0.653  1.00  0.00     0.116 C 
ATOM     18  C   UNL     1      -0.138   2.224   0.387  1.00  0.00     0.036 C 
BRANCH  17  19
ATOM     19  C   UNL     1      -2.051   3.984   0.122  1.00  0.00     0.040 A 
ATOM     20  C   UNL     1      -1.841   6.535   0.649  1.00  0.00     0.071 C 
ATOM     21  C   UNL     1      -2.507   5.345   0.083  1.00  0.00     0.086 A 
ATOM     22  N   UNL     1      -3.679   5.478  -0.536  1.00  0.00    -0.085 NA
ATOM     23  O   UNL     1      -4.056   4.207  -0.874  1.00  0.00    -0.361 OA
ATOM     24  C   UNL     1      -3.117   3.313  -0.460  1.00  0.00     0.139 A 
ATOM     25  C   UNL     1      -3.521   1.932  -0.756  1.00  0.00     0.091 C 
ENDBRANCH  17  19
ENDBRANCH  12  17
ENDBRANCH  10  11
ENDBRANCH   8  10
BRANCH   8  26
ATOM     26  O   UNL     1       3.810   5.258  -0.565  1.00  0.00    -0.377 OA
ATOM     27  H   UNL     1       4.412   4.521  -0.376  1.00  0.00     0.212 HD
ENDBRANCH   8  26
ENDBRANCH   6   8
ENDBRANCH   5   6
ENDBRANCH   4   5
ENDBRANCH   3   4
ENDBRANCH   2   3
ENDBRANCH   1   2
BRANCH   1  28
ATOM     28  C   UNL     1       1.673   5.027  -3.271  1.00  0.00     0.188 C 
BRANCH  28  29
ATOM     29  O   UNL     1       1.684   5.211  -4.678  1.00  0.00    -0.376 OA
BRANCH  29  30
ATOM     30  C   UNL     1       0.495   5.586  -5.337  1.00  0.00     0.202 C 
BRANCH  30  31
ATOM     31  C   UNL     1      -0.449   4.441  -5.714  1.00  0.00     0.261 C 
BRANCH  31  32
ATOM     32  O   UNL     1      -0.660   3.444  -4.706  1.00  0.00    -0.460 OA
BRANCH  32  33
ATOM     33  C   UNL     1       0.124   2.342  -4.786  1.00  0.00     0.338 C 
ATOM     34  O   UNL     1       1.067   2.160  -5.552  1.00  0.00    -0.246 OA
BRANCH  33  35
ATOM     35  C   UNL     1      -0.300   1.353  -3.771  1.00  0.00     0.060 A 
ATOM     36  C   UNL     1       0.644   0.789  -2.908  1.00  0.00     0.016 A 
ATOM     37  C   UNL     1      -1.623   0.914  -3.728  1.00  0.00     0.016 A 
ATOM     38  C   UNL     1       0.261  -0.197  -1.978  1.00  0.00     0.010 A 
ATOM     39  C   UNL     1      -2.003  -0.080  -2.812  1.00  0.00     0.010 A 
ATOM     40  C   UNL     1      -1.074  -0.636  -1.908  1.00  0.00    -0.014 A 
BRANCH  40  41
ATOM     41  C   UNL     1      -1.454  -1.818  -1.066  1.00  0.00     0.031 A 
ATOM     42  C   UNL     1      -1.575  -3.135  -1.776  1.00  0.00     0.074 A 
ATOM     43  C   UNL     1      -1.728  -1.779   0.258  1.00  0.00     0.049 A 
ATOM     44  N   UNL     1      -1.908  -4.303  -1.297  1.00  0.00    -0.248 NA
ATOM     45  C   UNL     1      -1.351  -3.113  -3.230  1.00  0.00     0.031 C 
ATOM     46  C   UNL     1      -1.802  -0.583   1.074  1.00  0.00     0.029 A 
ATOM     47  N   UNL     1      -2.016  -2.776   1.166  1.00  0.00    -0.354 N 
ATOM     48  C   UNL     1      -1.944  -5.151  -2.393  1.00  0.00     0.074 A 
ATOM     49  C   UNL     1      -1.684  -4.346  -3.566  1.00  0.00     0.031 C 
ATOM     50  C   UNL     1      -2.041  -0.890   2.357  1.00  0.00     0.029 A 
ATOM     51  C   UNL     1      -2.189  -2.330   2.464  1.00  0.00     0.049 A 
ATOM     52  H   UNL     1      -2.091  -3.725   0.913  1.00  0.00     0.167 HD
ATOM     53  C   UNL     1      -2.136  -6.489  -2.425  1.00  0.00     0.037 A 
ATOM     54  C   UNL     1      -2.443  -2.989   3.613  1.00  0.00     0.037 A 
ATOM     55  C   UNL     1      -2.385  -7.299  -1.269  1.00  0.00     0.049 A 
ATOM     56  C   UNL     1      -2.604  -4.483   3.562  1.00  0.00     0.074 A 
ATOM     57  C   UNL     1      -2.576  -8.667  -1.203  1.00  0.00     0.029 A 
ATOM     58  N   UNL     1      -2.474  -6.817   0.028  1.00  0.00    -0.354 N 
ATOM     59  N   UNL     1      -2.556  -5.277   2.519  1.00  0.00    -0.248 NA
ATOM     60  C   UNL     1      -2.854  -5.174   4.835  1.00  0.00     0.031 C 
ATOM     61  C   UNL     1      -2.791  -9.012   0.136  1.00  0.00     0.029 A 
ATOM     62  C   UNL     1      -2.700  -7.863   0.905  1.00  0.00     0.049 A 
ATOM     63  H   UNL     1      -2.388  -5.871   0.287  1.00  0.00     0.167 HD
ATOM     64  C   UNL     1      -2.746  -6.561   3.014  1.00  0.00     0.074 A 
ATOM     65  C   UNL     1      -2.887  -6.441   4.450  1.00  0.00     0.031 C 
ATOM     66  C   UNL     1      -2.809  -7.732   2.336  1.00  0.00     0.037 A 
BRANCH  53  67
ATOM     67  C   UNL     1      -2.048  -7.129  -3.777  1.00  0.00     0.058 A 
ATOM     68  C   UNL     1      -0.821  -7.206  -4.457  1.00  0.00     0.135 A 
ATOM     69  C   UNL     1      -3.199  -7.588  -4.432  1.00  0.00     0.135 A 
ATOM     70  F   UNL     1       0.302  -6.745  -3.881  1.00  0.00    -0.206 F 
ATOM     71  C   UNL     1      -0.747  -7.661  -5.765  1.00  0.00     0.059 A 
ATOM     72  C   UNL     1      -3.142  -8.080  -5.731  1.00  0.00     0.059 A 
ATOM     73  F   UNL     1      -4.395  -7.525  -3.826  1.00  0.00    -0.206 F 
ATOM     74  C   UNL     1      -1.916  -8.086  -6.398  1.00  0.00     0.060 A 
BRANCH  74  75
ATOM     75  S   UNL     1      -1.811  -8.628  -8.114  1.00  0.00     0.124 S 
ATOM     76  O   UNL     1      -1.685  -7.352  -8.812  1.00  0.00    -0.237 OA
ATOM     77  O   UNL     1      -0.617  -9.466  -8.106  1.00  0.00    -0.237 OA
ATOM     78  O   UNL     1      -3.070  -9.336  -8.322  1.00  0.00    -0.744 OA
ENDBRANCH  74  75
ENDBRANCH  53  67
BRANCH  54  79
ATOM     79  C   UNL     1      -2.542  -2.272   4.921  1.00  0.00     0.058 A 
ATOM     80  C   UNL     1      -1.567  -2.457   5.915  1.00  0.00     0.135 A 
ATOM     81  C   UNL     1      -3.632  -1.445   5.232  1.00  0.00     0.135 A 
ATOM     82  F   UNL     1      -0.505  -3.241   5.673  1.00  0.00    -0.206 F 
ATOM     83  C   UNL     1      -1.691  -1.890   7.181  1.00  0.00     0.059 A 
ATOM     84  C   UNL     1      -3.765  -0.844   6.483  1.00  0.00     0.059 A 
ATOM     85  F   UNL     1      -4.584  -1.214   4.314  1.00  0.00    -0.206 F 
ATOM     86  C   UNL     1      -2.801  -1.093   7.460  1.00  0.00     0.060 A 
BRANCH  86  87
ATOM     87  S   UNL     1      -2.962  -0.377   9.112  1.00  0.00     0.124 S 
ATOM     88  O   UNL     1      -3.355  -1.542   9.898  1.00  0.00    -0.237 OA
ATOM     89  O   UNL     1      -1.617   0.134   9.360  1.00  0.00    -0.237 OA
ATOM     90  O   UNL     1      -3.992   0.642   8.936  1.00  0.00    -0.744 OA
ENDBRANCH  86  87
ENDBRANCH  54  79
BRANCH  66  91
ATOM     91  C   UNL     1      -2.983  -8.986   3.141  1.00  0.00     0.058 A 
ATOM     92  C   UNL     1      -4.205  -9.314   3.745  1.00  0.00     0.135 A 
ATOM     93  C   UNL     1      -1.920  -9.895   3.264  1.00  0.00     0.135 A 
ATOM     94  F   UNL     1      -5.248  -8.472   3.663  1.00  0.00    -0.206 F 
ATOM     95  C   UNL     1      -4.364 -10.495   4.462  1.00  0.00     0.059 A 
ATOM     96  C   UNL     1      -2.065 -11.094   3.953  1.00  0.00     0.059 A 
ATOM     97  F   UNL     1      -0.733  -9.629   2.698  1.00  0.00    -0.206 F 
ATOM     98  C   UNL     1      -3.288 -11.380   4.558  1.00  0.00     0.060 A 
BRANCH  98  99
ATOM     99  S   UNL     1      -3.518 -12.931   5.450  1.00  0.00     0.124 S 
ATOM    100  O   UNL     1      -3.471 -12.481   6.838  1.00  0.00    -0.237 OA
ATOM    101  O   UNL     1      -4.822 -13.378   4.972  1.00  0.00    -0.237 OA
ATOM    102  O   UNL     1      -2.386 -13.743   5.014  1.00  0.00    -0.744 OA
ENDBRANCH  98  99
ENDBRANCH  66  91
ENDBRANCH  40  41
ENDBRANCH  33  35
ENDBRANCH  32  33
ENDBRANCH  31  32
ENDBRANCH  30  31
ENDBRANCH  29  30
ENDBRANCH  28  29
ENDBRANCH   1  28
TORSDOF 25
