REMARK SMILES O=C(OCCOCCOCCOC(=O)[C@H]1CCCN(c2cc(-c3ccccn3)nc(-c3ccccc3F)n2)C1)c1ccc(-c2c3nc(c(-c4c(F)cc(S(=O)(=O)[O-])cc4F)c4ccc([nH]4)c(-c4c(F)cc(S(=O)(=O)[O-])cc4F)c4nc(c(-c5c(F)cc(S(=O)(=O)[O-])cc5F)c5ccc2[nH]5)C=C4)C=C3)cc1
REMARK SMILES IDX 7 1 6 2 5 3 4 4 3 5 2 6 1 7 40 8 41 9 105 10 42 11 104 12
REMARK SMILES IDX 43 13 44 14 45 15 98 16 46 17 103 18 97 19 99 20 47 21
REMARK SMILES IDX 102 22 96 23 95 24 48 26 82 27 61 28 81 29 62 30 65 31 80 32
REMARK SMILES IDX 100 33 63 34 64 35 79 37 101 38 66 39 49 40 50 41 59 42
REMARK SMILES IDX 51 43 52 44 58 45 60 46 53 47 54 48 55 49 56 50 57 51 83 52
REMARK SMILES IDX 84 53 93 54 85 55 86 56 92 57 94 58 87 59 88 60 89 61 90 62
REMARK SMILES IDX 91 63 67 64 68 65 77 66 69 67 70 68 76 69 78 70 71 71 72 72
REMARK SMILES IDX 73 73 74 74 75 75 8 76 9 77 10 78 11 79 12 80 13 81 14 82
REMARK SMILES IDX 15 83 16 84 39 85 17 86 19 87 18 88 20 89 21 90 38 91 22 92
REMARK SMILES IDX 30 93 29 94 23 95 24 96 28 97 25 98 27 99 26 100 31 101
REMARK SMILES IDX 32 102 36 103 33 104 35 105 37 106 34 107
REMARK H PARENT 99 25 65 36
REMARK Flexibility Score: inf
ROOT
ATOM      1  C   UNL     1      -0.368   4.141   3.023  1.00  0.00     0.188 C 
ENDROOT
BRANCH   1   2
ATOM      2  O   UNL     1       0.223   2.842   3.183  1.00  0.00    -0.376 OA
BRANCH   2   3
ATOM      3  C   UNL     1      -0.291   2.116   4.301  1.00  0.00     0.202 C 
BRANCH   3   4
ATOM      4  C   UNL     1       0.532   2.276   5.586  1.00  0.00     0.261 C 
BRANCH   4   5
ATOM      5  O   UNL     1       1.138   3.572   5.698  1.00  0.00    -0.460 OA
BRANCH   5   6
ATOM      6  C   UNL     1       2.321   4.007   5.194  1.00  0.00     0.338 C 
ATOM      7  O   UNL     1       2.612   5.191   5.371  1.00  0.00    -0.246 OA
BRANCH   6   8
ATOM      8  C   UNL     1       3.314   3.148   4.463  1.00  0.00     0.060 A 
ATOM      9  C   UNL     1       3.080   1.869   3.961  1.00  0.00     0.016 A 
ATOM     10  C   UNL     1       4.589   3.706   4.236  1.00  0.00     0.016 A 
ATOM     11  C   UNL     1       4.083   1.134   3.337  1.00  0.00     0.010 A 
ATOM     12  C   UNL     1       5.582   2.999   3.545  1.00  0.00     0.010 A 
ATOM     13  C   UNL     1       5.335   1.696   3.109  1.00  0.00    -0.014 A 
BRANCH  13  14
ATOM     14  C   UNL     1       6.342   0.895   2.399  1.00  0.00     0.031 A 
ATOM     15  C   UNL     1       7.634   0.467   3.064  1.00  0.00     0.074 A 
ATOM     16  C   UNL     1       6.106   0.510   1.131  1.00  0.00     0.049 A 
ATOM     17  N   UNL     1       8.650  -0.194   2.557  1.00  0.00    -0.248 NA
ATOM     18  C   UNL     1       7.773   0.792   4.486  1.00  0.00     0.031 C 
ATOM     19  C   UNL     1       4.983   0.765   0.285  1.00  0.00     0.029 A 
ATOM     20  N   UNL     1       6.974  -0.186   0.354  1.00  0.00    -0.354 N 
ATOM     21  C   UNL     1       9.524  -0.427   3.608  1.00  0.00     0.074 A 
ATOM     22  C   UNL     1       8.946   0.243   4.765  1.00  0.00     0.031 C 
ATOM     23  C   UNL     1       5.292   0.432  -0.978  1.00  0.00     0.029 A 
ATOM     24  C   UNL     1       6.900   0.005  -1.172  1.00  0.00     0.049 A 
ATOM     25  H   UNL     1       7.635  -0.796   0.755  1.00  0.00     0.167 HD
ATOM     26  C   UNL     1      10.653  -1.183   3.671  1.00  0.00     0.037 A 
ATOM     27  C   UNL     1       8.160  -0.102  -2.575  1.00  0.00     0.037 A 
ATOM     28  C   UNL     1      11.389  -1.800   2.585  1.00  0.00     0.049 A 
ATOM     29  C   UNL     1       9.921  -0.632  -2.591  1.00  0.00     0.074 A 
ATOM     30  C   UNL     1      12.378  -2.764   2.712  1.00  0.00     0.029 A 
ATOM     31  N   UNL     1      11.345  -1.472   1.224  1.00  0.00    -0.354 N 
ATOM     32  N   UNL     1      10.748  -0.690  -1.558  1.00  0.00    -0.248 NA
ATOM     33  C   UNL     1      10.553  -1.244  -3.784  1.00  0.00     0.031 C 
ATOM     34  C   UNL     1      12.943  -3.005   1.456  1.00  0.00     0.029 A 
ATOM     35  C   UNL     1      12.267  -2.253   0.507  1.00  0.00     0.049 A 
ATOM     36  H   UNL     1      10.754  -0.793   0.828  1.00  0.00     0.167 HD
ATOM     37  C   UNL     1      11.735  -1.589  -1.849  1.00  0.00     0.074 A 
ATOM     38  C   UNL     1      11.665  -1.788  -3.278  1.00  0.00     0.031 C 
ATOM     39  C   UNL     1      12.446  -2.308  -0.945  1.00  0.00     0.037 A 
BRANCH  26  40
ATOM     40  C   UNL     1      11.095  -1.493   5.086  1.00  0.00     0.058 A 
ATOM     41  C   UNL     1      12.195  -0.861   5.678  1.00  0.00     0.135 A 
ATOM     42  C   UNL     1      10.345  -2.388   5.878  1.00  0.00     0.135 A 
ATOM     43  F   UNL     1      12.940   0.002   4.972  1.00  0.00    -0.206 F 
ATOM     44  C   UNL     1      12.509  -1.066   7.020  1.00  0.00     0.059 A 
ATOM     45  C   UNL     1      10.632  -2.594   7.223  1.00  0.00     0.059 A 
ATOM     46  F   UNL     1       9.272  -3.009   5.362  1.00  0.00    -0.206 F 
ATOM     47  C   UNL     1      11.712  -1.919   7.789  1.00  0.00     0.060 A 
BRANCH  47  48
ATOM     48  S   UNL     1      12.019  -2.044   9.566  1.00  0.00     0.124 S 
ATOM     49  O   UNL     1      13.154  -2.957   9.614  1.00  0.00    -0.237 OA
ATOM     50  O   UNL     1      12.298  -0.658   9.932  1.00  0.00    -0.237 OA
ATOM     51  O   UNL     1      10.760  -2.571  10.087  1.00  0.00    -0.744 OA
ENDBRANCH  47  48
ENDBRANCH  26  40
BRANCH  27  52
ATOM     52  C   UNL     1       8.139   0.138  -4.300  1.00  0.00     0.058 A 
ATOM     53  C   UNL     1       8.386   1.397  -4.889  1.00  0.00     0.135 A 
ATOM     54  C   UNL     1       7.771  -0.910  -5.185  1.00  0.00     0.135 A 
ATOM     55  F   UNL     1       8.879   2.410  -4.164  1.00  0.00    -0.206 F 
ATOM     56  C   UNL     1       8.029   1.656  -6.213  1.00  0.00     0.059 A 
ATOM     57  C   UNL     1       7.427  -0.672  -6.511  1.00  0.00     0.059 A 
ATOM     58  F   UNL     1       7.696  -2.178  -4.752  1.00  0.00    -0.206 F 
ATOM     59  C   UNL     1       7.486   0.630  -6.991  1.00  0.00     0.060 A 
BRANCH  59  60
ATOM     60  S   UNL     1       6.758   1.036  -8.594  1.00  0.00     0.124 S 
ATOM     61  O   UNL     1       5.636   1.883  -8.197  1.00  0.00    -0.237 OA
ATOM     62  O   UNL     1       7.856   1.710  -9.275  1.00  0.00    -0.237 OA
ATOM     63  O   UNL     1       6.386  -0.267  -9.138  1.00  0.00    -0.744 OA
ENDBRANCH  59  60
ENDBRANCH  27  52
BRANCH  39  64
ATOM     64  C   UNL     1      13.374  -3.356  -1.495  1.00  0.00     0.058 A 
ATOM     65  C   UNL     1      13.068  -4.723  -1.368  1.00  0.00     0.135 A 
ATOM     66  C   UNL     1      14.607  -3.014  -2.067  1.00  0.00     0.135 A 
ATOM     67  F   UNL     1      11.896  -5.108  -0.836  1.00  0.00    -0.206 F 
ATOM     68  C   UNL     1      13.966  -5.712  -1.754  1.00  0.00     0.059 A 
ATOM     69  C   UNL     1      15.514  -3.988  -2.479  1.00  0.00     0.059 A 
ATOM     70  F   UNL     1      14.943  -1.724  -2.226  1.00  0.00    -0.206 F 
ATOM     71  C   UNL     1      15.195  -5.335  -2.297  1.00  0.00     0.060 A 
BRANCH  71  72
ATOM     72  S   UNL     1      16.364  -6.621  -2.791  1.00  0.00     0.124 S 
ATOM     73  O   UNL     1      16.977  -6.972  -1.515  1.00  0.00    -0.237 OA
ATOM     74  O   UNL     1      15.493  -7.636  -3.376  1.00  0.00    -0.237 OA
ATOM     75  O   UNL     1      17.234  -5.934  -3.740  1.00  0.00    -0.744 OA
ENDBRANCH  71  72
ENDBRANCH  39  64
ENDBRANCH  13  14
ENDBRANCH   6   8
ENDBRANCH   5   6
ENDBRANCH   4   5
ENDBRANCH   3   4
ENDBRANCH   2   3
ENDBRANCH   1   2
BRANCH   1  76
ATOM     76  C   UNL     1      -0.233   4.610   1.569  1.00  0.00     0.188 C 
BRANCH  76  77
ATOM     77  O   UNL     1      -1.192   4.029   0.677  1.00  0.00    -0.376 OA
BRANCH  77  78
ATOM     78  C   UNL     1      -1.059   2.630   0.448  1.00  0.00     0.202 C 
BRANCH  78  79
ATOM     79  C   UNL     1      -0.057   2.202  -0.633  1.00  0.00     0.261 C 
BRANCH  79  80
ATOM     80  O   UNL     1       1.196   2.909  -0.638  1.00  0.00    -0.463 OA
BRANCH  80  81
ATOM     81  C   UNL     1       1.282   3.887  -1.582  1.00  0.00     0.310 C 
ATOM     82  O   UNL     1       0.343   4.221  -2.300  1.00  0.00    -0.252 OA
BRANCH  81  83
ATOM     83  C   UNL     1       2.674   4.497  -1.725  1.00  0.00     0.118 C 
ATOM     84  C   UNL     1       2.484   5.967  -2.145  1.00  0.00     0.019 C 
ATOM     85  C   UNL     1       3.552   4.384  -0.473  1.00  0.00     0.133 C 
ATOM     86  C   UNL     1       3.806   6.713  -2.238  1.00  0.00     0.022 C 
ATOM     87  N   UNL     1       4.732   5.254  -0.539  1.00  0.00    -0.356 N 
ATOM     88  C   UNL     1       4.543   6.649  -0.908  1.00  0.00     0.118 C 
BRANCH  87  89
ATOM     89  C   UNL     1       6.021   4.743  -0.510  1.00  0.00     0.133 A 
ATOM     90  C   UNL     1       6.979   5.376   0.252  1.00  0.00     0.077 A 
ATOM     91  N   UNL     1       6.330   3.633  -1.192  1.00  0.00    -0.211 NA
ATOM     92  C   UNL     1       8.252   4.835   0.300  1.00  0.00     0.095 A 
ATOM     93  C   UNL     1       7.606   3.159  -1.113  1.00  0.00     0.165 A 
ATOM     94  N   UNL     1       8.581   3.717  -0.384  1.00  0.00    -0.226 NA
BRANCH  92  95
ATOM     95  C   UNL     1       9.277   5.444   1.168  1.00  0.00     0.089 A 
ATOM     96  C   UNL     1       9.033   5.686   2.526  1.00  0.00     0.030 A 
ATOM     97  N   UNL     1      10.432   5.840   0.577  1.00  0.00    -0.255 NA
ATOM     98  C   UNL     1      10.000   6.327   3.296  1.00  0.00     0.004 A 
ATOM     99  C   UNL     1      11.365   6.433   1.353  1.00  0.00     0.112 A 
ATOM    100  C   UNL     1      11.194   6.704   2.700  1.00  0.00     0.020 A 
ENDBRANCH  92  95
BRANCH  93 101
ATOM    101  C   UNL     1       7.810   1.806  -1.676  1.00  0.00     0.055 A 
ATOM    102  C   UNL     1       6.507   1.192  -2.846  1.00  0.00     0.015 A 
ATOM    103  C   UNL     1       8.826   0.576  -0.738  1.00  0.00     0.134 A 
ATOM    104  C   UNL     1       6.162  -0.640  -3.010  1.00  0.00     0.001 A 
ATOM    105  C   UNL     1       8.478  -1.289  -0.904  1.00  0.00     0.040 A 
ATOM    106  F   UNL     1       9.637   0.997   0.247  1.00  0.00    -0.206 F 
ATOM    107  C   UNL     1       7.148  -1.867  -2.046  1.00  0.00     0.003 A 
ENDBRANCH  93 101
ENDBRANCH  87  89
ENDBRANCH  81  83
ENDBRANCH  80  81
ENDBRANCH  79  80
ENDBRANCH  78  79
ENDBRANCH  77  78
ENDBRANCH  76  77
ENDBRANCH   1  76
TORSDOF 23
