REMARK SMILES COc1ccc(/C=C(\NC(=O)c2ccccc2Br)C(=O)OCCOCCOCCOC(=O)c2ccc(-c3c4nc(c(-c5c(F)cc(S(=O)(=O)[O-])cc5F)c5ccc([nH]5)c(-c5c(F)cc(S(=O)(=O)[O-])cc5F)c5nc(c(-c6c(F)cc(S(=O)(=O)[O-])cc6F)c6ccc3[nH]6)C=C5)C=C4)cc2)cc1
REMARK SMILES IDX 26 1 25 2 24 3 23 4 22 5 21 6 19 7 20 8 8 9 7 10 6 11 3 12
REMARK SMILES IDX 4 13 100 14 5 15 99 16 2 17 1 18 9 19 10 20 11 22 12 23
REMARK SMILES IDX 13 24 17 25 14 26 16 27 18 28 15 29 27 30 28 31 29 32 30 33
REMARK SMILES IDX 31 34 32 35 33 36 34 37 98 38 35 39 97 40 36 41 37 42 38 43
REMARK SMILES IDX 91 44 39 45 96 46 90 47 92 48 40 49 95 50 89 51 88 52 41 54
REMARK SMILES IDX 75 55 54 56 74 57 55 58 58 59 73 60 93 61 56 62 57 63 72 65
REMARK SMILES IDX 94 66 59 67 42 68 43 69 52 70 44 71 45 72 51 73 53 74 46 75
REMARK SMILES IDX 47 76 48 77 49 78 50 79 76 80 77 81 86 82 78 83 79 84 85 85
REMARK SMILES IDX 87 86 80 87 81 88 82 89 83 90 84 91 60 92 61 93 70 94 62 95
REMARK SMILES IDX 63 96 69 97 71 98 64 99 65 100 66 101 67 102 68 103
REMARK H PARENT 9 21 92 53 58 64
REMARK Flexibility Score: inf
ROOT
ATOM      1  C   UNL     1       1.332   7.277  -5.590  1.00  0.00     0.188 C 
ENDROOT
BRANCH   1   2
ATOM      2  C   UNL     1       2.848   7.161  -5.854  1.00  0.00     0.188 C 
BRANCH   2   3
ATOM      3  O   UNL     1       3.426   7.950  -6.888  1.00  0.00    -0.376 OA
BRANCH   3   4
ATOM      4  C   UNL     1       2.868   7.856  -8.196  1.00  0.00     0.202 C 
BRANCH   4   5
ATOM      5  C   UNL     1       2.716   6.446  -8.771  1.00  0.00     0.261 C 
BRANCH   5   6
ATOM      6  O   UNL     1       1.780   5.669  -8.001  1.00  0.00    -0.459 OA
BRANCH   6   7
ATOM      7  C   UNL     1       2.086   4.358  -7.846  1.00  0.00     0.354 C 
ATOM      8  O   UNL     1       3.011   3.780  -8.397  1.00  0.00    -0.244 OA
BRANCH   7   9
ATOM      9  C   UNL     1       1.238   3.736  -6.772  1.00  0.00     0.128 C 
ATOM     10  C   UNL     1       1.969   3.055  -5.856  1.00  0.00     0.042 C 
BRANCH  10  11
ATOM     11  C   UNL     1       1.548   2.290  -4.659  1.00  0.00    -0.023 A 
ATOM     12  C   UNL     1       0.913   0.759  -2.356  1.00  0.00     0.118 A 
ATOM     13  C   UNL     1       0.055   0.790  -3.455  1.00  0.00     0.047 A 
ATOM     14  C   UNL     1       2.109   1.470  -2.418  1.00  0.00     0.047 A 
ATOM     15  C   UNL     1       0.377   1.526  -4.602  1.00  0.00     0.012 A 
ATOM     16  C   UNL     1       2.420   2.230  -3.558  1.00  0.00     0.012 A 
BRANCH  12  17
ATOM     17  O   UNL     1       0.487  -0.022  -1.319  1.00  0.00    -0.497 OA
ATOM     18  C   UNL     1       1.190   0.105  -0.088  1.00  0.00     0.278 C 
ENDBRANCH  12  17
ENDBRANCH  10  11
BRANCH   9  19
ATOM     19  N   UNL     1      -0.132   3.858  -6.666  1.00  0.00    -0.316 N 
ATOM     20  C   UNL     1      -1.150   4.377  -7.426  1.00  0.00     0.257 C 
ATOM     21  H   UNL     1      -0.468   3.471  -5.825  1.00  0.00     0.170 HD
ATOM     22  O   UNL     1      -2.307   4.255  -7.017  1.00  0.00    -0.269 OA
BRANCH  20  23
ATOM     23  C   UNL     1      -0.957   5.147  -8.659  1.00  0.00     0.054 A 
ATOM     24  C   UNL     1      -1.392   6.483  -8.607  1.00  0.00     0.015 A 
ATOM     25  C   UNL     1      -0.481   4.620  -9.861  1.00  0.00     0.030 A 
ATOM     26  C   UNL     1      -1.284   7.307  -9.725  1.00  0.00     0.001 A 
ATOM     27  C   UNL     1      -0.345   5.461 -10.973  1.00  0.00     0.016 A 
ATOM     28  Br  UNL     1      -0.063   2.784 -10.088  1.00  0.00    -0.050 Br
ATOM     29  C   UNL     1      -0.740   6.801 -10.902  1.00  0.00     0.001 A 
ENDBRANCH  20  23
ENDBRANCH   9  19
ENDBRANCH   7   9
ENDBRANCH   6   7
ENDBRANCH   5   6
ENDBRANCH   4   5
ENDBRANCH   3   4
ENDBRANCH   2   3
ENDBRANCH   1   2
BRANCH   1  30
ATOM     30  O   UNL     1       0.655   8.237  -6.391  1.00  0.00    -0.376 OA
BRANCH  30  31
ATOM     31  C   UNL     1       0.102   9.335  -5.673  1.00  0.00     0.202 C 
BRANCH  31  32
ATOM     32  C   UNL     1       1.142  10.393  -5.284  1.00  0.00     0.261 C 
BRANCH  32  33
ATOM     33  O   UNL     1       2.186   9.914  -4.420  1.00  0.00    -0.460 OA
BRANCH  33  34
ATOM     34  C   UNL     1       1.819   9.504  -3.184  1.00  0.00     0.338 C 
ATOM     35  O   UNL     1       0.701   9.554  -2.701  1.00  0.00    -0.246 OA
BRANCH  34  36
ATOM     36  C   UNL     1       2.961   8.770  -2.595  1.00  0.00     0.060 A 
ATOM     37  C   UNL     1       2.733   7.498  -2.055  1.00  0.00     0.016 A 
ATOM     38  C   UNL     1       4.255   9.301  -2.631  1.00  0.00     0.016 A 
ATOM     39  C   UNL     1       3.798   6.763  -1.530  1.00  0.00     0.010 A 
ATOM     40  C   UNL     1       5.317   8.572  -2.088  1.00  0.00     0.010 A 
ATOM     41  C   UNL     1       5.090   7.311  -1.512  1.00  0.00    -0.014 A 
BRANCH  41  42
ATOM     42  C   UNL     1       6.152   6.654  -0.712  1.00  0.00     0.031 A 
ATOM     43  C   UNL     1       6.321   7.082   0.722  1.00  0.00     0.074 A 
ATOM     44  C   UNL     1       6.930   5.684  -1.226  1.00  0.00     0.049 A 
ATOM     45  N   UNL     1       7.155   6.640   1.627  1.00  0.00    -0.248 NA
ATOM     46  C   UNL     1       5.424   8.149   1.199  1.00  0.00     0.031 C 
ATOM     47  C   UNL     1       6.862   5.173  -2.594  1.00  0.00     0.029 A 
ATOM     48  N   UNL     1       7.940   4.956  -0.646  1.00  0.00    -0.354 N 
ATOM     49  C   UNL     1       6.865   7.352   2.784  1.00  0.00     0.074 A 
ATOM     50  C   UNL     1       5.813   8.289   2.457  1.00  0.00     0.031 C 
ATOM     51  C   UNL     1       7.800   4.219  -2.751  1.00  0.00     0.029 A 
ATOM     52  C   UNL     1       8.542   4.062  -1.500  1.00  0.00     0.049 A 
ATOM     53  H   UNL     1       8.209   5.064   0.295  1.00  0.00     0.167 HD
ATOM     54  C   UNL     1       7.410   7.226   4.016  1.00  0.00     0.037 A 
ATOM     55  C   UNL     1       9.578   3.223  -1.293  1.00  0.00     0.037 A 
ATOM     56  C   UNL     1       8.477   6.319   4.342  1.00  0.00     0.049 A 
ATOM     57  C   UNL     1      10.223   3.160   0.072  1.00  0.00     0.074 A 
ATOM     58  C   UNL     1       9.111   6.137   5.559  1.00  0.00     0.029 A 
ATOM     59  N   UNL     1       9.073   5.447   3.445  1.00  0.00    -0.354 N 
ATOM     60  N   UNL     1       9.912   3.815   1.165  1.00  0.00    -0.248 NA
ATOM     61  C   UNL     1      11.355   2.234   0.231  1.00  0.00     0.031 C 
ATOM     62  C   UNL     1      10.112   5.174   5.390  1.00  0.00     0.029 A 
ATOM     63  C   UNL     1      10.072   4.729   4.079  1.00  0.00     0.049 A 
ATOM     64  H   UNL     1       8.822   5.351   2.498  1.00  0.00     0.167 HD
ATOM     65  C   UNL     1      10.788   3.355   2.146  1.00  0.00     0.074 A 
ATOM     66  C   UNL     1      11.631   2.358   1.521  1.00  0.00     0.031 C 
ATOM     67  C   UNL     1      10.889   3.725   3.447  1.00  0.00     0.037 A 
BRANCH  54  68
ATOM     68  C   UNL     1       6.851   8.088   5.110  1.00  0.00     0.058 A 
ATOM     69  C   UNL     1       5.598   7.812   5.680  1.00  0.00     0.135 A 
ATOM     70  C   UNL     1       7.586   9.167   5.624  1.00  0.00     0.135 A 
ATOM     71  F   UNL     1       4.846   6.807   5.205  1.00  0.00    -0.206 F 
ATOM     72  C   UNL     1       5.089   8.581   6.719  1.00  0.00     0.059 A 
ATOM     73  C   UNL     1       7.105   9.937   6.679  1.00  0.00     0.059 A 
ATOM     74  F   UNL     1       8.784   9.477   5.106  1.00  0.00    -0.206 F 
ATOM     75  C   UNL     1       5.853   9.640   7.215  1.00  0.00     0.060 A 
BRANCH  75  76
ATOM     76  S   UNL     1       5.190  10.608   8.587  1.00  0.00     0.124 S 
ATOM     77  O   UNL     1       4.139  11.372   7.923  1.00  0.00    -0.237 OA
ATOM     78  O   UNL     1       4.734   9.572   9.508  1.00  0.00    -0.237 OA
ATOM     79  O   UNL     1       6.340  11.385   9.041  1.00  0.00    -0.744 OA
ENDBRANCH  75  76
ENDBRANCH  54  68
BRANCH  55  80
ATOM     80  C   UNL     1      10.098   2.368  -2.396  1.00  0.00     0.058 A 
ATOM     81  C   UNL     1       9.966   0.971  -2.356  1.00  0.00     0.135 A 
ATOM     82  C   UNL     1      10.806   2.926  -3.471  1.00  0.00     0.135 A 
ATOM     83  F   UNL     1       9.308   0.390  -1.341  1.00  0.00    -0.206 F 
ATOM     84  C   UNL     1      10.553   0.155  -3.317  1.00  0.00     0.059 A 
ATOM     85  C   UNL     1      11.380   2.132  -4.460  1.00  0.00     0.059 A 
ATOM     86  F   UNL     1      10.952   4.257  -3.562  1.00  0.00    -0.206 F 
ATOM     87  C   UNL     1      11.268   0.746  -4.361  1.00  0.00     0.060 A 
BRANCH  87  88
ATOM     88  S   UNL     1      12.040  -0.318  -5.601  1.00  0.00     0.124 S 
ATOM     89  O   UNL     1      13.215  -0.796  -4.883  1.00  0.00    -0.237 OA
ATOM     90  O   UNL     1      10.997  -1.308  -5.851  1.00  0.00    -0.237 OA
ATOM     91  O   UNL     1      12.303   0.598  -6.707  1.00  0.00    -0.744 OA
ENDBRANCH  87  88
ENDBRANCH  55  80
BRANCH  67  92
ATOM     92  C   UNL     1      11.910   3.016   4.294  1.00  0.00     0.058 A 
ATOM     93  C   UNL     1      13.284   3.263   4.157  1.00  0.00     0.135 A 
ATOM     94  C   UNL     1      11.503   2.103   5.281  1.00  0.00     0.135 A 
ATOM     95  F   UNL     1      13.726   4.125   3.228  1.00  0.00    -0.206 F 
ATOM     96  C   UNL     1      14.223   2.605   4.947  1.00  0.00     0.059 A 
ATOM     97  C   UNL     1      12.422   1.454   6.099  1.00  0.00     0.059 A 
ATOM     98  F   UNL     1      10.199   1.841   5.464  1.00  0.00    -0.206 F 
ATOM     99  C   UNL     1      13.782   1.699   5.913  1.00  0.00     0.060 A 
BRANCH  99 100
ATOM    100  S   UNL     1      15.006   0.860   6.941  1.00  0.00     0.124 S 
ATOM    101  O   UNL     1      15.517  -0.151   6.023  1.00  0.00    -0.237 OA
ATOM    102  O   UNL     1      15.931   1.939   7.274  1.00  0.00    -0.237 OA
ATOM    103  O   UNL     1      14.218   0.353   8.060  1.00  0.00    -0.744 OA
ENDBRANCH  99 100
ENDBRANCH  67  92
ENDBRANCH  41  42
ENDBRANCH  34  36
ENDBRANCH  33  34
ENDBRANCH  32  33
ENDBRANCH  31  32
ENDBRANCH  30  31
ENDBRANCH   1  30
TORSDOF 24
