REMARK SMILES Cc1cc2cc(-c3ccc([C@@H](C)C(=O)OCCOCCOCCOC(=O)c4ccc(-c5c6nc(c(-c7c(F)cc(S(=O)(=O)[O-])cc7F)c7ccc([nH]7)c(-c7c(F)cc(S(=O)(=O)[O-])cc7F)c7nc(c(-c8c(F)cc(S(=O)(=O)[O-])cc8F)c8ccc5[nH]8)C=C7)C=C6)cc4)cc3)ccc2[nH]1
REMARK SMILES IDX 20 1 19 2 18 3 17 4 16 5 15 6 13 7 14 8 11 9 12 10 10 11
REMARK SMILES IDX 7 12 8 13 94 14 9 15 93 16 6 17 1 18 2 19 3 20 98 21 4 22
REMARK SMILES IDX 97 23 5 25 96 26 95 27 21 28 22 29 23 30 24 31 25 32 26 33
REMARK SMILES IDX 27 34 28 35 92 36 29 37 91 38 30 39 31 40 32 41 85 42 33 43
REMARK SMILES IDX 90 44 84 45 86 46 34 47 89 48 83 49 82 50 35 52 69 53 48 54
REMARK SMILES IDX 68 55 49 56 52 57 67 58 87 59 50 60 51 61 66 63 88 64 53 65
REMARK SMILES IDX 36 66 37 67 46 68 38 69 39 70 45 71 47 72 40 73 41 74 42 75
REMARK SMILES IDX 43 76 44 77 70 78 71 79 80 80 72 81 73 82 79 83 81 84 74 85
REMARK SMILES IDX 75 86 76 87 77 88 78 89 54 90 55 91 64 92 56 93 57 94 63 95
REMARK SMILES IDX 65 96 58 97 59 98 60 99 61 100 62 101
REMARK H PARENT 98 24 86 51 52 62
REMARK Flexibility Score: inf
ROOT
ATOM      1  C   UNL     1       7.653  -1.139  -2.034  1.00  0.00     0.188 C 
ENDROOT
BRANCH   1   2
ATOM      2  C   UNL     1       9.173  -1.339  -1.951  1.00  0.00     0.188 C 
BRANCH   2   3
ATOM      3  O   UNL     1       9.890  -1.698  -3.128  1.00  0.00    -0.376 OA
BRANCH   3   4
ATOM      4  C   UNL     1       9.299  -2.605  -4.050  1.00  0.00     0.202 C 
BRANCH   4   5
ATOM      5  C   UNL     1       8.818  -3.972  -3.535  1.00  0.00     0.261 C 
BRANCH   5   6
ATOM      6  O   UNL     1       7.882  -3.933  -2.433  1.00  0.00    -0.463 OA
BRANCH   6   7
ATOM      7  C   UNL     1       8.252  -4.583  -1.300  1.00  0.00     0.313 C 
ATOM      8  O   UNL     1       9.288  -5.241  -1.215  1.00  0.00    -0.252 OA
BRANCH   7   9
ATOM      9  C   UNL     1       7.313  -4.449  -0.094  1.00  0.00     0.126 C 
ATOM     10  C   UNL     1       6.900  -5.851   0.351  1.00  0.00     0.025 C 
BRANCH   9  11
ATOM     11  C   UNL     1       6.088  -3.535  -0.131  1.00  0.00    -0.034 A 
ATOM     12  C   UNL     1       3.813  -1.799  -0.088  1.00  0.00    -0.018 A 
ATOM     13  C   UNL     1       4.007  -2.739  -1.116  1.00  0.00     0.009 A 
ATOM     14  C   UNL     1       4.785  -1.732   0.916  1.00  0.00     0.009 A 
ATOM     15  C   UNL     1       5.115  -3.602  -1.134  1.00  0.00     0.005 A 
ATOM     16  C   UNL     1       5.897  -2.591   0.900  1.00  0.00     0.005 A 
BRANCH  12  17
ATOM     17  C   UNL     1       2.588  -0.977  -0.043  1.00  0.00    -0.018 A 
ATOM     18  C   UNL     1      -3.442   0.161   0.013  1.00  0.00     0.064 C 
ATOM     19  C   UNL     1      -1.975  -0.051   0.013  1.00  0.00     0.013 A 
ATOM     20  C   UNL     1      -1.239  -1.217   0.014  1.00  0.00     0.031 A 
ATOM     21  N   UNL     1      -1.079   0.994   0.016  1.00  0.00    -0.359 N 
ATOM     22  C   UNL     1       0.138  -0.870   0.000  1.00  0.00     0.000 A 
ATOM     23  C   UNL     1       0.216   0.519   0.003  1.00  0.00     0.046 A 
ATOM     24  H   UNL     1      -1.327   1.947   0.025  1.00  0.00     0.166 HD
ATOM     25  C   UNL     1       1.332  -1.616  -0.016  1.00  0.00     0.019 A 
ATOM     26  C   UNL     1       1.441   1.198  -0.005  1.00  0.00     0.027 A 
ATOM     27  C   UNL     1       2.619   0.427  -0.028  1.00  0.00     0.011 A 
ENDBRANCH  12  17
ENDBRANCH   9  11
ENDBRANCH   7   9
ENDBRANCH   6   7
ENDBRANCH   5   6
ENDBRANCH   4   5
ENDBRANCH   3   4
ENDBRANCH   2   3
ENDBRANCH   1   2
BRANCH   1  28
ATOM     28  O   UNL     1       7.133  -1.150  -3.346  1.00  0.00    -0.376 OA
BRANCH  28  29
ATOM     29  C   UNL     1       6.398  -0.012  -3.747  1.00  0.00     0.202 C 
BRANCH  29  30
ATOM     30  C   UNL     1       7.201   1.293  -3.839  1.00  0.00     0.261 C 
BRANCH  30  31
ATOM     31  O   UNL     1       8.005   1.625  -2.692  1.00  0.00    -0.460 OA
BRANCH  31  32
ATOM     32  C   UNL     1       7.356   2.041  -1.581  1.00  0.00     0.338 C 
ATOM     33  O   UNL     1       6.147   2.188  -1.454  1.00  0.00    -0.246 OA
BRANCH  32  34
ATOM     34  C   UNL     1       8.329   2.081  -0.465  1.00  0.00     0.060 A 
ATOM     35  C   UNL     1       8.102   1.289   0.671  1.00  0.00     0.016 A 
ATOM     36  C   UNL     1       9.457   2.900  -0.534  1.00  0.00     0.016 A 
ATOM     37  C   UNL     1       8.978   1.352   1.758  1.00  0.00     0.010 A 
ATOM     38  C   UNL     1      10.323   2.975   0.563  1.00  0.00     0.010 A 
ATOM     39  C   UNL     1      10.067   2.233   1.730  1.00  0.00    -0.014 A 
BRANCH  39  40
ATOM     40  C   UNL     1      10.810   2.541   2.982  1.00  0.00     0.031 A 
ATOM     41  C   UNL     1      10.463   3.808   3.722  1.00  0.00     0.074 A 
ATOM     42  C   UNL     1      11.762   1.721   3.465  1.00  0.00     0.049 A 
ATOM     43  N   UNL     1      11.009   4.325   4.792  1.00  0.00    -0.248 NA
ATOM     44  C   UNL     1       9.351   4.601   3.172  1.00  0.00     0.031 C 
ATOM     45  C   UNL     1      12.168   0.450   2.870  1.00  0.00     0.029 A 
ATOM     46  N   UNL     1      12.570   1.849   4.569  1.00  0.00    -0.354 N 
ATOM     47  C   UNL     1      10.318   5.507   5.035  1.00  0.00     0.074 A 
ATOM     48  C   UNL     1       9.335   5.647   3.983  1.00  0.00     0.031 C 
ATOM     49  C   UNL     1      13.161  -0.079   3.607  1.00  0.00     0.029 A 
ATOM     50  C   UNL     1      13.484   0.831   4.707  1.00  0.00     0.049 A 
ATOM     51  H   UNL     1      12.502   2.600   5.203  1.00  0.00     0.167 HD
ATOM     52  C   UNL     1      10.480   6.392   6.048  1.00  0.00     0.037 A 
ATOM     53  C   UNL     1      14.480   0.664   5.601  1.00  0.00     0.037 A 
ATOM     54  C   UNL     1      11.459   6.251   7.094  1.00  0.00     0.049 A 
ATOM     55  C   UNL     1      14.684   1.695   6.686  1.00  0.00     0.074 A 
ATOM     56  C   UNL     1      11.690   7.085   8.174  1.00  0.00     0.029 A 
ATOM     57  N   UNL     1      12.376   5.214   7.189  1.00  0.00    -0.354 N 
ATOM     58  N   UNL     1      14.010   2.797   6.918  1.00  0.00    -0.248 NA
ATOM     59  C   UNL     1      15.779   1.454   7.637  1.00  0.00     0.031 C 
ATOM     60  C   UNL     1      12.783   6.585   8.888  1.00  0.00     0.029 A 
ATOM     61  C   UNL     1      13.189   5.400   8.295  1.00  0.00     0.049 A 
ATOM     62  H   UNL     1      12.439   4.457   6.562  1.00  0.00     0.167 HD
ATOM     63  C   UNL     1      14.576   3.359   8.060  1.00  0.00     0.074 A 
ATOM     64  C   UNL     1      15.640   2.471   8.476  1.00  0.00     0.031 C 
ATOM     65  C   UNL     1      14.241   4.504   8.709  1.00  0.00     0.037 A 
BRANCH  52  66
ATOM     66  C   UNL     1       9.596   7.611   6.057  1.00  0.00     0.058 A 
ATOM     67  C   UNL     1       8.220   7.530   6.325  1.00  0.00     0.135 A 
ATOM     68  C   UNL     1      10.141   8.885   5.823  1.00  0.00     0.135 A 
ATOM     69  F   UNL     1       7.641   6.337   6.535  1.00  0.00    -0.206 F 
ATOM     70  C   UNL     1       7.412   8.662   6.335  1.00  0.00     0.059 A 
ATOM     71  C   UNL     1       9.358  10.034   5.859  1.00  0.00     0.059 A 
ATOM     72  F   UNL     1      11.450   9.022   5.558  1.00  0.00    -0.206 F 
ATOM     73  C   UNL     1       7.991   9.911   6.102  1.00  0.00     0.060 A 
BRANCH  73  74
ATOM     74  S   UNL     1       6.929  11.371   6.126  1.00  0.00     0.124 S 
ATOM     75  O   UNL     1       6.162  11.193   4.897  1.00  0.00    -0.237 OA
ATOM     76  O   UNL     1       6.185  11.193   7.368  1.00  0.00    -0.237 OA
ATOM     77  O   UNL     1       7.876  12.482   6.118  1.00  0.00    -0.744 OA
ENDBRANCH  73  74
ENDBRANCH  52  66
BRANCH  53  78
ATOM     78  C   UNL     1      15.376  -0.523   5.512  1.00  0.00     0.058 A 
ATOM     79  C   UNL     1      15.359  -1.523   6.496  1.00  0.00     0.135 A 
ATOM     80  C   UNL     1      16.277  -0.675   4.445  1.00  0.00     0.135 A 
ATOM     81  F   UNL     1      14.529  -1.418   7.545  1.00  0.00    -0.206 F 
ATOM     82  C   UNL     1      16.213  -2.621   6.437  1.00  0.00     0.059 A 
ATOM     83  C   UNL     1      17.119  -1.778   4.348  1.00  0.00     0.059 A 
ATOM     84  F   UNL     1      16.331   0.250   3.474  1.00  0.00    -0.206 F 
ATOM     85  C   UNL     1      17.087  -2.742   5.355  1.00  0.00     0.060 A 
BRANCH  85  86
ATOM     86  S   UNL     1      18.155  -4.195   5.264  1.00  0.00     0.124 S 
ATOM     87  O   UNL     1      19.107  -3.929   6.337  1.00  0.00    -0.237 OA
ATOM     88  O   UNL     1      17.212  -5.282   5.504  1.00  0.00    -0.237 OA
ATOM     89  O   UNL     1      18.696  -4.131   3.910  1.00  0.00    -0.744 OA
ENDBRANCH  85  86
ENDBRANCH  53  78
BRANCH  65  90
ATOM     90  C   UNL     1      14.992   4.839   9.972  1.00  0.00     0.058 A 
ATOM     91  C   UNL     1      16.338   5.236   9.960  1.00  0.00     0.135 A 
ATOM     92  C   UNL     1      14.335   4.800  11.215  1.00  0.00     0.135 A 
ATOM     93  F   UNL     1      17.016   5.291   8.802  1.00  0.00    -0.206 F 
ATOM     94  C   UNL     1      17.017   5.547  11.135  1.00  0.00     0.059 A 
ATOM     95  C   UNL     1      14.984   5.139  12.398  1.00  0.00     0.059 A 
ATOM     96  F   UNL     1      13.043   4.442  11.287  1.00  0.00    -0.206 F 
ATOM     97  C   UNL     1      16.331   5.495  12.350  1.00  0.00     0.060 A 
BRANCH  97  98
ATOM     98  S   UNL     1      17.219   5.912  13.866  1.00  0.00     0.124 S 
ATOM     99  O   UNL     1      18.081   4.747  14.032  1.00  0.00    -0.237 OA
ATOM    100  O   UNL     1      17.894   7.153  13.501  1.00  0.00    -0.237 OA
ATOM    101  O   UNL     1      16.155   6.052  14.857  1.00  0.00    -0.744 OA
ENDBRANCH  97  98
ENDBRANCH  65  90
ENDBRANCH  39  40
ENDBRANCH  32  34
ENDBRANCH  31  32
ENDBRANCH  30  31
ENDBRANCH  29  30
ENDBRANCH  28  29
ENDBRANCH   1  28
TORSDOF 22
