REMARK SMILES O=C(CC1(NC(=O)C2(c3ccccc3)CC2)CCC1)OCCOCCOCCOC(=O)c1ccc(-c2c3nc(c(-c4c(F)cc(S(=O)(=O)[O-])cc4F)c4ccc([nH]4)c(-c4c(F)cc(S(=O)(=O)[O-])cc4F)c4nc(c(-c5c(F)cc(S(=O)(=O)[O-])cc5F)c5ccc2[nH]5)C=C4)C=C3)cc1
REMARK SMILES IDX 24 1 23 2 22 3 21 4 20 5 2 6 1 7 3 8 4 9 17 10 19 11 18 12
REMARK SMILES IDX 5 13 6 14 7 16 8 17 15 18 16 19 9 20 10 21 14 22 11 23 13 24
REMARK SMILES IDX 12 25 25 26 26 27 27 28 28 29 29 30 30 31 31 32 32 33 33 34
REMARK SMILES IDX 97 35 34 36 96 37 35 38 36 39 37 40 90 41 38 42 95 43 89 44
REMARK SMILES IDX 91 45 39 46 94 47 88 48 87 49 40 51 74 52 53 53 73 54 54 55
REMARK SMILES IDX 57 56 72 57 92 58 55 59 56 60 71 62 93 63 58 64 41 65 42 66
REMARK SMILES IDX 51 67 43 68 44 69 50 70 52 71 45 72 46 73 47 74 48 75 49 76
REMARK SMILES IDX 75 77 76 78 85 79 77 80 78 81 84 82 86 83 79 84 80 85 81 86
REMARK SMILES IDX 82 87 83 88 59 89 60 90 69 91 61 92 62 93 68 94 70 95 63 96
REMARK SMILES IDX 64 97 65 98 66 99 67 100
REMARK H PARENT 5 15 91 50 57 61
REMARK Flexibility Score: inf
ROOT
ATOM      1  C   UNL     1       3.125   2.596   0.740  1.00  0.00     0.188 C 
ENDROOT
BRANCH   1   2
ATOM      2  O   UNL     1       4.107   2.460  -0.283  1.00  0.00    -0.376 OA
BRANCH   2   3
ATOM      3  C   UNL     1       5.050   1.404  -0.408  1.00  0.00     0.202 C 
BRANCH   3   4
ATOM      4  C   UNL     1       4.658   0.131  -1.210  1.00  0.00     0.261 C 
BRANCH   4   5
ATOM      5  O   UNL     1       3.481  -0.964  -0.686  1.00  0.00    -0.463 OA
BRANCH   5   6
ATOM      6  C   UNL     1       1.624  -1.016   0.104  1.00  0.00     0.308 C 
ATOM      7  O   UNL     1       0.562  -1.376  -0.419  1.00  0.00    -0.252 OA
BRANCH   6   8
ATOM      8  C   UNL     1       2.244  -1.141   2.120  1.00  0.00     0.151 C 
BRANCH   8   9
ATOM      9  C   UNL     1       3.982  -2.154   1.111  1.00  0.00     0.051 C 
ATOM     10  C   UNL     1       5.675  -1.991   1.031  1.00  0.00     0.029 C 
ATOM     11  C   UNL     1       4.552  -3.897   1.260  1.00  0.00     0.029 C 
ATOM     12  C   UNL     1       5.974  -3.449   1.378  1.00  0.00     0.005 C 
BRANCH   9  13
ATOM     13  N   UNL     1       3.341  -2.724  -0.777  1.00  0.00    -0.349 N 
ATOM     14  C   UNL     1       2.411  -1.586  -1.893  1.00  0.00     0.231 C 
ATOM     15  H   UNL     1       3.541  -3.636  -1.089  1.00  0.00     0.164 HD
ATOM     16  O   UNL     1       2.226  -1.744  -3.094  1.00  0.00    -0.274 OA
BRANCH  14  17
ATOM     17  C   UNL     1       2.334   0.240  -1.018  1.00  0.00     0.074 C 
ATOM     18  C   UNL     1       2.220   1.484  -1.889  1.00  0.00     0.023 C 
ATOM     19  C   UNL     1       0.981   1.002  -1.216  1.00  0.00     0.023 C 
BRANCH  17  20
ATOM     20  C   UNL     1       3.089  -0.471   0.830  1.00  0.00    -0.032 A 
ATOM     21  C   UNL     1       4.114   0.050   2.012  1.00  0.00     0.005 A 
ATOM     22  C   UNL     1       2.293  -2.417   1.040  1.00  0.00     0.005 A 
ATOM     23  C   UNL     1       4.288  -0.902   3.299  1.00  0.00     0.000 A 
ATOM     24  C   UNL     1       2.608  -3.172   2.563  1.00  0.00     0.000 A 
ATOM     25  C   UNL     1       3.592  -2.365   3.571  1.00  0.00     0.000 A 
ENDBRANCH  17  20
ENDBRANCH  14  17
ENDBRANCH   9  13
ENDBRANCH   8   9
ENDBRANCH   6   8
ENDBRANCH   5   6
ENDBRANCH   4   5
ENDBRANCH   3   4
ENDBRANCH   2   3
ENDBRANCH   1   2
BRANCH   1  26
ATOM     26  C   UNL     1       2.283   3.881   0.572  1.00  0.00     0.188 C 
BRANCH  26  27
ATOM     27  O   UNL     1       2.905   5.039   0.045  1.00  0.00    -0.376 OA
BRANCH  27  28
ATOM     28  C   UNL     1       4.309   5.150   0.171  1.00  0.00     0.202 C 
BRANCH  28  29
ATOM     29  C   UNL     1       4.933   5.153   1.586  1.00  0.00     0.261 C 
BRANCH  29  30
ATOM     30  O   UNL     1       4.451   4.216   2.583  1.00  0.00    -0.460 OA
BRANCH  30  31
ATOM     31  C   UNL     1       3.434   4.630   3.385  1.00  0.00     0.338 C 
ATOM     32  O   UNL     1       2.910   5.731   3.358  1.00  0.00    -0.246 OA
BRANCH  31  33
ATOM     33  C   UNL     1       2.948   3.549   4.298  1.00  0.00     0.060 A 
ATOM     34  C   UNL     1       1.726   2.889   4.070  1.00  0.00     0.016 A 
ATOM     35  C   UNL     1       3.592   3.369   5.521  1.00  0.00     0.016 A 
ATOM     36  C   UNL     1       1.114   2.128   5.082  1.00  0.00     0.010 A 
ATOM     37  C   UNL     1       2.978   2.612   6.533  1.00  0.00     0.010 A 
ATOM     38  C   UNL     1       1.705   2.040   6.348  1.00  0.00    -0.014 A 
BRANCH  38  39
ATOM     39  C   UNL     1       0.936   1.549   7.534  1.00  0.00     0.031 A 
ATOM     40  C   UNL     1       0.432   2.559   8.543  1.00  0.00     0.074 A 
ATOM     41  C   UNL     1       0.702   0.239   7.744  1.00  0.00     0.049 A 
ATOM     42  N   UNL     1      -0.157   2.369   9.697  1.00  0.00    -0.248 NA
ATOM     43  C   UNL     1       0.637   3.977   8.205  1.00  0.00     0.031 C 
ATOM     44  C   UNL     1       1.082  -0.843   6.839  1.00  0.00     0.029 A 
ATOM     45  N   UNL     1       0.102  -0.405   8.802  1.00  0.00    -0.354 N 
ATOM     46  C   UNL     1      -0.367   3.638  10.233  1.00  0.00     0.074 A 
ATOM     47  C   UNL     1       0.190   4.585   9.293  1.00  0.00     0.031 C 
ATOM     48  C   UNL     1       0.716  -2.017   7.385  1.00  0.00     0.029 A 
ATOM     49  C   UNL     1       0.113  -1.777   8.696  1.00  0.00     0.049 A 
ATOM     50  H   UNL     1      -0.299   0.072   9.564  1.00  0.00     0.167 HD
ATOM     51  C   UNL     1      -0.970   3.985  11.398  1.00  0.00     0.037 A 
ATOM     52  C   UNL     1      -0.295  -2.730   9.562  1.00  0.00     0.037 A 
ATOM     53  C   UNL     1      -1.521   3.037  12.336  1.00  0.00     0.049 A 
ATOM     54  C   UNL     1      -0.894  -2.325  10.888  1.00  0.00     0.074 A 
ATOM     55  C   UNL     1      -2.180   3.289  13.527  1.00  0.00     0.029 A 
ATOM     56  N   UNL     1      -1.462   1.658  12.201  1.00  0.00    -0.354 N 
ATOM     57  N   UNL     1      -1.112  -1.123  11.367  1.00  0.00    -0.248 NA
ATOM     58  C   UNL     1      -1.308  -3.410  11.790  1.00  0.00     0.031 C 
ATOM     59  C   UNL     1      -2.440   2.066  14.152  1.00  0.00     0.029 A 
ATOM     60  C   UNL     1      -2.034   1.047  13.306  1.00  0.00     0.049 A 
ATOM     61  H   UNL     1      -1.071   1.182  11.432  1.00  0.00     0.167 HD
ATOM     62  C   UNL     1      -1.732  -1.308  12.601  1.00  0.00     0.074 A 
ATOM     63  C   UNL     1      -1.859  -2.738  12.790  1.00  0.00     0.031 C 
ATOM     64  C   UNL     1      -2.164  -0.379  13.491  1.00  0.00     0.037 A 
BRANCH  51  65
ATOM     65  C   UNL     1      -1.026   5.452  11.754  1.00  0.00     0.058 A 
ATOM     66  C   UNL     1      -1.784   6.377  11.016  1.00  0.00     0.135 A 
ATOM     67  C   UNL     1      -0.330   5.936  12.876  1.00  0.00     0.135 A 
ATOM     68  F   UNL     1      -2.465   5.980   9.929  1.00  0.00    -0.206 F 
ATOM     69  C   UNL     1      -1.813   7.729  11.348  1.00  0.00     0.059 A 
ATOM     70  C   UNL     1      -0.378   7.276  13.251  1.00  0.00     0.059 A 
ATOM     71  F   UNL     1       0.408   5.103  13.625  1.00  0.00    -0.206 F 
ATOM     72  C   UNL     1      -1.107   8.169  12.469  1.00  0.00     0.060 A 
BRANCH  72  73
ATOM     73  S   UNL     1      -1.152   9.925  12.883  1.00  0.00     0.124 S 
ATOM     74  O   UNL     1      -0.399  10.506  11.775  1.00  0.00    -0.237 OA
ATOM     75  O   UNL     1      -2.584  10.205  12.890  1.00  0.00    -0.237 OA
ATOM     76  O   UNL     1      -0.497   9.987  14.185  1.00  0.00    -0.744 OA
ENDBRANCH  72  73
ENDBRANCH  51  65
BRANCH  52  77
ATOM     77  C   UNL     1      -0.163  -4.173   9.207  1.00  0.00     0.058 A 
ATOM     78  C   UNL     1      -1.297  -4.978   9.018  1.00  0.00     0.135 A 
ATOM     79  C   UNL     1       1.095  -4.782   9.065  1.00  0.00     0.135 A 
ATOM     80  F   UNL     1      -2.524  -4.452   9.161  1.00  0.00    -0.206 F 
ATOM     81  C   UNL     1      -1.193  -6.332   8.713  1.00  0.00     0.059 A 
ATOM     82  C   UNL     1       1.225  -6.125   8.726  1.00  0.00     0.059 A 
ATOM     83  F   UNL     1       2.215  -4.061   9.230  1.00  0.00    -0.206 F 
ATOM     84  C   UNL     1       0.075  -6.894   8.559  1.00  0.00     0.060 A 
BRANCH  84  85
ATOM     85  S   UNL     1       0.197  -8.635   8.095  1.00  0.00     0.124 S 
ATOM     86  O   UNL     1      -0.301  -9.297   9.295  1.00  0.00    -0.237 OA
ATOM     87  O   UNL     1      -0.670  -8.695   6.923  1.00  0.00    -0.237 OA
ATOM     88  O   UNL     1       1.621  -8.810   7.823  1.00  0.00    -0.744 OA
ENDBRANCH  84  85
ENDBRANCH  52  77
BRANCH  64  89
ATOM     89  C   UNL     1      -2.875  -0.868  14.730  1.00  0.00     0.058 A 
ATOM     90  C   UNL     1      -2.221  -1.598  15.736  1.00  0.00     0.135 A 
ATOM     91  C   UNL     1      -4.235  -0.569  14.927  1.00  0.00     0.135 A 
ATOM     92  F   UNL     1      -0.923  -1.916  15.606  1.00  0.00    -0.206 F 
ATOM     93  C   UNL     1      -2.897  -2.050  16.866  1.00  0.00     0.059 A 
ATOM     94  C   UNL     1      -4.919  -0.972  16.069  1.00  0.00     0.059 A 
ATOM     95  F   UNL     1      -4.913   0.137  14.008  1.00  0.00    -0.206 F 
ATOM     96  C   UNL     1      -4.246  -1.729  17.025  1.00  0.00     0.060 A 
BRANCH  96  97
ATOM     97  S   UNL     1      -5.104  -2.308  18.504  1.00  0.00     0.124 S 
ATOM     98  O   UNL     1      -5.160  -3.747  18.269  1.00  0.00    -0.237 OA
ATOM     99  O   UNL     1      -4.209  -1.874  19.571  1.00  0.00    -0.237 OA
ATOM    100  O   UNL     1      -6.388  -1.614  18.448  1.00  0.00    -0.744 OA
ENDBRANCH  96  97
ENDBRANCH  64  89
ENDBRANCH  38  39
ENDBRANCH  31  33
ENDBRANCH  30  31
ENDBRANCH  29  30
ENDBRANCH  28  29
ENDBRANCH  27  28
ENDBRANCH  26  27
ENDBRANCH   1  26
TORSDOF 24
