REMARK SMILES COc1ccc(/C=C2\SC(=O)N(CC(=O)N[C@H](C)C(=O)OCCOCCOCCOC(=O)c3ccc(-c4c5nc(c(-c6c(F)cc(S(=O)(=O)[O-])cc6F)c6ccc([nH]6)c(-c6c(F)cc(S(=O)(=O)[O-])cc6F)c6nc(c(-c7c(F)cc(S(=O)(=O)[O-])cc7F)c7ccc4[nH]7)C=C6)C=C5)cc3)C2=O)cc1OC
REMARK SMILES IDX 25 1 24 2 23 3 22 4 21 5 19 6 20 7 17 8 18 9 16 10 14 11
REMARK SMILES IDX 15 12 13 14 12 15 7 16 8 17 9 18 99 19 10 20 100 21 11 22
REMARK SMILES IDX 6 23 3 24 4 25 102 26 5 27 101 28 2 29 1 30 103 31 104 32
REMARK SMILES IDX 26 33 27 34 28 35 29 36 30 37 31 38 32 39 33 40 34 41 98 42
REMARK SMILES IDX 35 43 97 44 36 45 37 46 38 47 91 48 39 49 96 50 90 51 92 52
REMARK SMILES IDX 40 53 95 54 89 55 88 56 41 58 75 59 54 60 74 61 55 62 58 63
REMARK SMILES IDX 73 64 93 65 56 66 57 67 72 69 94 70 59 71 42 72 43 73 52 74
REMARK SMILES IDX 44 75 45 76 51 77 53 78 46 79 47 80 48 81 49 82 50 83 76 84
REMARK SMILES IDX 77 85 86 86 78 87 79 88 85 89 87 90 80 91 81 92 82 93 83 94
REMARK SMILES IDX 84 95 60 96 61 97 70 98 62 99 63 100 69 101 71 102 64 103
REMARK SMILES IDX 65 104 66 105 67 106 68 107
REMARK H PARENT 16 13 92 57 58 68
REMARK Flexibility Score: inf
ROOT
ATOM      1  C   UNL     1       5.312 -13.211  -0.724  1.00  0.00     0.188 C 
ENDROOT
BRANCH   1   2
ATOM      2  O   UNL     1       5.463 -13.807   0.559  1.00  0.00    -0.376 OA
BRANCH   2   3
ATOM      3  C   UNL     1       4.350 -14.437   1.167  1.00  0.00     0.202 C 
BRANCH   3   4
ATOM      4  C   UNL     1       3.108 -13.581   1.452  1.00  0.00     0.261 C 
BRANCH   4   5
ATOM      5  O   UNL     1       2.761 -12.609   0.440  1.00  0.00    -0.462 OA
BRANCH   5   6
ATOM      6  C   UNL     1       2.905 -11.304   0.797  1.00  0.00     0.328 C 
ATOM      7  O   UNL     1       3.256 -10.926   1.909  1.00  0.00    -0.250 OA
BRANCH   6   8
ATOM      8  C   UNL     1       2.422 -10.315  -0.285  1.00  0.00     0.189 C 
ATOM      9  C   UNL     1       2.974 -10.453  -1.688  1.00  0.00     0.043 C 
BRANCH   8  10
ATOM     10  N   UNL     1       0.982 -10.063  -0.190  1.00  0.00    -0.341 N 
ATOM     11  C   UNL     1      -0.136 -10.682  -0.641  1.00  0.00     0.240 C 
ATOM     12  O   UNL     1      -1.198 -10.331  -0.112  1.00  0.00    -0.273 OA
ATOM     13  H   UNL     1       0.778  -9.250   0.325  1.00  0.00     0.164 HD
BRANCH  11  14
ATOM     14  C   UNL     1      -0.150 -11.831  -1.650  1.00  0.00     0.229 C 
BRANCH  14  15
ATOM     15  N   UNL     1       0.339 -11.561  -2.990  1.00  0.00    -0.259 N 
ATOM     16  C   UNL     1       0.416  -9.518  -5.980  1.00  0.00     0.029 C 
ATOM     17  C   UNL     1       0.551 -10.519  -5.093  1.00  0.00     0.083 C 
ATOM     18  S   UNL     1       1.459 -11.973  -5.254  1.00  0.00    -0.022 SA
ATOM     19  C   UNL     1      -0.081 -10.483  -3.736  1.00  0.00     0.268 C 
ATOM     20  C   UNL     1       0.948 -12.560  -3.695  1.00  0.00     0.294 C 
ATOM     21  O   UNL     1      -0.863  -9.618  -3.376  1.00  0.00    -0.268 OA
ATOM     22  O   UNL     1       1.102 -13.724  -3.341  1.00  0.00    -0.261 OA
BRANCH  16  23
ATOM     23  C   UNL     1       1.031  -9.413  -7.320  1.00  0.00    -0.020 A 
ATOM     24  C   UNL     1       2.319  -9.207  -9.825  1.00  0.00     0.160 A 
ATOM     25  C   UNL     1       2.228  -8.096  -8.975  1.00  0.00     0.051 A 
ATOM     26  C   UNL     1       1.747 -10.422  -9.443  1.00  0.00     0.161 A 
ATOM     27  C   UNL     1       1.584  -8.197  -7.734  1.00  0.00     0.012 A 
ATOM     28  C   UNL     1       1.077 -10.493  -8.210  1.00  0.00     0.058 A 
BRANCH  24  29
ATOM     29  O   UNL     1       3.088  -9.074 -10.948  1.00  0.00    -0.493 OA
ATOM     30  C   UNL     1       2.353  -8.544 -12.050  1.00  0.00     0.278 C 
ENDBRANCH  24  29
BRANCH  26  31
ATOM     31  O   UNL     1       1.750 -11.626 -10.092  1.00  0.00    -0.493 OA
ATOM     32  C   UNL     1       2.397 -11.741 -11.347  1.00  0.00     0.278 C 
ENDBRANCH  26  31
ENDBRANCH  16  23
ENDBRANCH  14  15
ENDBRANCH  11  14
ENDBRANCH   8  10
ENDBRANCH   6   8
ENDBRANCH   5   6
ENDBRANCH   4   5
ENDBRANCH   3   4
ENDBRANCH   2   3
ENDBRANCH   1   2
BRANCH   1  33
ATOM     33  C   UNL     1       4.271 -13.757  -1.719  1.00  0.00     0.188 C 
BRANCH  33  34
ATOM     34  O   UNL     1       3.865 -15.083  -1.446  1.00  0.00    -0.376 OA
BRANCH  34  35
ATOM     35  C   UNL     1       3.764 -15.928  -2.578  1.00  0.00     0.202 C 
BRANCH  35  36
ATOM     36  C   UNL     1       5.129 -16.520  -2.946  1.00  0.00     0.261 C 
BRANCH  36  37
ATOM     37  O   UNL     1       6.181 -15.549  -3.128  1.00  0.00    -0.460 OA
BRANCH  37  38
ATOM     38  C   UNL     1       6.114 -14.778  -4.240  1.00  0.00     0.338 C 
ATOM     39  O   UNL     1       5.272 -14.846  -5.118  1.00  0.00    -0.246 OA
BRANCH  38  40
ATOM     40  C   UNL     1       7.099 -13.675  -4.106  1.00  0.00     0.060 A 
ATOM     41  C   UNL     1       6.651 -12.347  -4.189  1.00  0.00     0.016 A 
ATOM     42  C   UNL     1       8.453 -13.941  -3.900  1.00  0.00     0.016 A 
ATOM     43  C   UNL     1       7.559 -11.286  -4.089  1.00  0.00     0.010 A 
ATOM     44  C   UNL     1       9.363 -12.878  -3.824  1.00  0.00     0.010 A 
ATOM     45  C   UNL     1       8.929 -11.544  -3.946  1.00  0.00    -0.014 A 
BRANCH  45  46
ATOM     46  C   UNL     1       9.931 -10.455  -4.119  1.00  0.00     0.031 A 
ATOM     47  C   UNL     1      10.633 -10.337  -5.449  1.00  0.00     0.074 A 
ATOM     48  C   UNL     1      10.232  -9.591  -3.130  1.00  0.00     0.049 A 
ATOM     49  N   UNL     1      11.624  -9.560  -5.803  1.00  0.00    -0.248 NA
ATOM     50  C   UNL     1      10.151 -11.223  -6.522  1.00  0.00     0.031 C 
ATOM     51  C   UNL     1       9.605  -9.559  -1.811  1.00  0.00     0.029 A 
ATOM     52  N   UNL     1      11.167  -8.582  -3.080  1.00  0.00    -0.354 N 
ATOM     53  C   UNL     1      11.891  -9.870  -7.133  1.00  0.00     0.074 A 
ATOM     54  C   UNL     1      10.979 -10.926  -7.512  1.00  0.00     0.031 C 
ATOM     55  C   UNL     1      10.191  -8.599  -1.072  1.00  0.00     0.029 A 
ATOM     56  C   UNL     1      11.261  -7.973  -1.850  1.00  0.00     0.049 A 
ATOM     57  H   UNL     1      11.718  -8.321  -3.853  1.00  0.00     0.167 HD
ATOM     58  C   UNL     1      12.807  -9.320  -7.966  1.00  0.00     0.037 A 
ATOM     59  C   UNL     1      12.131  -7.047  -1.392  1.00  0.00     0.037 A 
ATOM     60  C   UNL     1      13.717  -8.270  -7.590  1.00  0.00     0.049 A 
ATOM     61  C   UNL     1      13.198  -6.504  -2.316  1.00  0.00     0.074 A 
ATOM     62  C   UNL     1      14.678  -7.646  -8.368  1.00  0.00     0.029 A 
ATOM     63  N   UNL     1      13.786  -7.689  -6.332  1.00  0.00    -0.354 N 
ATOM     64  N   UNL     1      13.432  -6.797  -3.574  1.00  0.00    -0.248 NA
ATOM     65  C   UNL     1      14.121  -5.502  -1.758  1.00  0.00     0.031 C 
ATOM     66  C   UNL     1      15.363  -6.728  -7.568  1.00  0.00     0.029 A 
ATOM     67  C   UNL     1      14.785  -6.730  -6.308  1.00  0.00     0.049 A 
ATOM     68  H   UNL     1      13.209  -7.924  -5.570  1.00  0.00     0.167 HD
ATOM     69  C   UNL     1      14.499  -5.990  -3.963  1.00  0.00     0.074 A 
ATOM     70  C   UNL     1      14.859  -5.190  -2.813  1.00  0.00     0.031 C 
ATOM     71  C   UNL     1      15.124  -5.919  -5.166  1.00  0.00     0.037 A 
BRANCH  58  72
ATOM     72  C   UNL     1      12.886  -9.854  -9.370  1.00  0.00     0.058 A 
ATOM     73  C   UNL     1      11.879  -9.600 -10.314  1.00  0.00     0.135 A 
ATOM     74  C   UNL     1      14.013 -10.578  -9.795  1.00  0.00     0.135 A 
ATOM     75  F   UNL     1      10.771  -8.930  -9.958  1.00  0.00    -0.206 F 
ATOM     76  C   UNL     1      11.977 -10.058 -11.624  1.00  0.00     0.059 A 
ATOM     77  C   UNL     1      14.146 -11.020 -11.108  1.00  0.00     0.059 A 
ATOM     78  F   UNL     1      15.004 -10.852  -8.933  1.00  0.00    -0.206 F 
ATOM     79  C   UNL     1      13.118 -10.762 -12.013  1.00  0.00     0.060 A 
BRANCH  79  80
ATOM     80  S   UNL     1      13.240 -11.322 -13.725  1.00  0.00     0.124 S 
ATOM     81  O   UNL     1      12.226 -12.372 -13.762  1.00  0.00    -0.237 OA
ATOM     82  O   UNL     1      12.923 -10.109 -14.471  1.00  0.00    -0.237 OA
ATOM     83  O   UNL     1      14.621 -11.782 -13.836  1.00  0.00    -0.744 OA
ENDBRANCH  79  80
ENDBRANCH  58  72
BRANCH  59  84
ATOM     84  C   UNL     1      12.066  -6.583   0.025  1.00  0.00     0.058 A 
ATOM     85  C   UNL     1      11.737  -5.257   0.345  1.00  0.00     0.135 A 
ATOM     86  C   UNL     1      12.377  -7.449   1.086  1.00  0.00     0.135 A 
ATOM     87  F   UNL     1      11.449  -4.383  -0.632  1.00  0.00    -0.206 F 
ATOM     88  C   UNL     1      11.746  -4.797   1.659  1.00  0.00     0.059 A 
ATOM     89  C   UNL     1      12.360  -7.022   2.411  1.00  0.00     0.059 A 
ATOM     90  F   UNL     1      12.694  -8.729   0.840  1.00  0.00    -0.206 F 
ATOM     91  C   UNL     1      12.059  -5.689   2.686  1.00  0.00     0.060 A 
BRANCH  91  92
ATOM     92  S   UNL     1      12.042  -5.088   4.390  1.00  0.00     0.124 S 
ATOM     93  O   UNL     1      13.232  -4.246   4.416  1.00  0.00    -0.237 OA
ATOM     94  O   UNL     1      10.763  -4.389   4.454  1.00  0.00    -0.237 OA
ATOM     95  O   UNL     1      12.119  -6.314   5.179  1.00  0.00    -0.744 OA
ENDBRANCH  91  92
ENDBRANCH  59  84
BRANCH  71  96
ATOM     96  C   UNL     1      16.224  -4.901  -5.332  1.00  0.00     0.058 A 
ATOM     97  C   UNL     1      17.474  -5.044  -4.710  1.00  0.00     0.135 A 
ATOM     98  C   UNL     1      16.041  -3.796  -6.182  1.00  0.00     0.135 A 
ATOM     99  F   UNL     1      17.705  -6.078  -3.886  1.00  0.00    -0.206 F 
ATOM    100  C   UNL     1      18.494  -4.116  -4.904  1.00  0.00     0.059 A 
ATOM    101  C   UNL     1      17.058  -2.874  -6.415  1.00  0.00     0.059 A 
ATOM    102  F   UNL     1      14.871  -3.615  -6.814  1.00  0.00    -0.206 F 
ATOM    103  C   UNL     1      18.278  -3.036  -5.762  1.00  0.00     0.060 A 
BRANCH 103 104
ATOM    104  S   UNL     1      19.622  -1.861  -6.032  1.00  0.00     0.124 S 
ATOM    105  O   UNL     1      19.663  -1.161  -4.752  1.00  0.00    -0.237 OA
ATOM    106  O   UNL     1      20.753  -2.740  -6.311  1.00  0.00    -0.237 OA
ATOM    107  O   UNL     1      19.158  -1.066  -7.166  1.00  0.00    -0.744 OA
ENDBRANCH 103 104
ENDBRANCH  71  96
ENDBRANCH  45  46
ENDBRANCH  38  40
ENDBRANCH  37  38
ENDBRANCH  36  37
ENDBRANCH  35  36
ENDBRANCH  34  35
ENDBRANCH  33  34
ENDBRANCH   1  33
TORSDOF 26
