REMARK SMILES CC(C)(C)c1cc(Nc2ccccc2C(=O)OCCOCCOCCOC(=O)c2ccc(-c3c4nc(c(-c5c(F)cc(S(=O)(=O)[O-])cc5F)c5ccc([nH]5)c(-c5c(F)cc(S(=O)(=O)[O-])cc5F)c5nc(c(-c6c(F)cc(S(=O)(=O)[O-])cc6F)c6ccc3[nH]6)C=C5)C=C4)cc2)cc2c1OCC2(C)C
REMARK SMILES IDX 21 1 20 2 19 3 18 4 17 5 15 6 16 7 14 8 9 9 10 10 11 11
REMARK SMILES IDX 13 12 12 13 8 14 7 16 5 17 6 18 97 19 96 20 98 21 95 22
REMARK SMILES IDX 100 23 99 24 101 25 102 26 2 27 1 28 3 29 4 30 22 31 23 32
REMARK SMILES IDX 24 33 25 34 26 35 27 36 28 37 29 38 30 39 94 40 31 41 93 42
REMARK SMILES IDX 32 43 33 44 34 45 87 46 35 47 92 48 86 49 88 50 36 51 91 52
REMARK SMILES IDX 85 53 84 54 37 56 71 57 50 58 70 59 51 60 54 61 69 62 89 63
REMARK SMILES IDX 52 64 53 65 68 67 90 68 55 69 38 70 39 71 48 72 40 73 41 74
REMARK SMILES IDX 47 75 49 76 42 77 43 78 44 79 45 80 46 81 72 82 73 83 82 84
REMARK SMILES IDX 74 85 75 86 81 87 83 88 76 89 77 90 78 91 79 92 80 93 56 94
REMARK SMILES IDX 57 95 66 96 58 97 59 98 65 99 67 100 60 101 61 102 62 103
REMARK SMILES IDX 63 104 64 105
REMARK H PARENT 8 15 88 55 54 66
REMARK Flexibility Score: inf
ROOT
ATOM      1  C   UNL     1       2.045   7.294   2.259  1.00  0.00     0.188 C 
ENDROOT
BRANCH   1   2
ATOM      2  O   UNL     1       1.569   6.874   3.521  1.00  0.00    -0.376 OA
BRANCH   2   3
ATOM      3  C   UNL     1       0.409   6.065   3.621  1.00  0.00     0.202 C 
BRANCH   3   4
ATOM      4  C   UNL     1      -0.797   6.211   2.686  1.00  0.00     0.261 C 
BRANCH   4   5
ATOM      5  O   UNL     1      -0.476   6.338   1.294  1.00  0.00    -0.460 OA
BRANCH   5   6
ATOM      6  C   UNL     1      -0.893   7.494   0.717  1.00  0.00     0.340 C 
ATOM      7  O   UNL     1      -1.579   8.353   1.248  1.00  0.00    -0.246 OA
BRANCH   6   8
ATOM      8  C   UNL     1      -0.281   7.697  -0.617  1.00  0.00     0.083 A 
ATOM      9  C   UNL     1      -0.118   6.687  -1.584  1.00  0.00     0.053 A 
ATOM     10  C   UNL     1       0.359   7.080  -2.850  1.00  0.00     0.027 A 
ATOM     11  C   UNL     1       0.822   8.375  -3.097  1.00  0.00     0.002 A 
ATOM     12  C   UNL     1       0.183   9.003  -0.871  1.00  0.00     0.018 A 
ATOM     13  C   UNL     1       0.770   9.329  -2.091  1.00  0.00     0.001 A 
BRANCH   9  14
ATOM     14  N   UNL     1      -0.258   5.310  -1.283  1.00  0.00    -0.355 N 
ATOM     15  H   UNL     1      -1.058   5.063  -0.764  1.00  0.00     0.167 HD
BRANCH  14  16
ATOM     16  C   UNL     1       0.606   4.242  -1.632  1.00  0.00     0.039 A 
ATOM     17  C   UNL     1       0.983   1.784  -1.807  1.00  0.00     0.002 A 
ATOM     18  C   UNL     1       0.202   2.906  -1.412  1.00  0.00     0.034 A 
ATOM     19  C   UNL     1       2.188   2.084  -2.447  1.00  0.00     0.127 A 
ATOM     20  C   UNL     1       2.602   3.386  -2.668  1.00  0.00     0.006 A 
ATOM     21  O   UNL     1       3.083   1.167  -2.929  1.00  0.00    -0.492 OA
ATOM     22  C   UNL     1       1.839   4.459  -2.248  1.00  0.00     0.034 A 
ATOM     23  C   UNL     1       3.886   3.430  -3.421  1.00  0.00     0.028 C 
ATOM     24  C   UNL     1       4.187   1.923  -3.484  1.00  0.00     0.240 C 
ATOM     25  C   UNL     1       3.673   4.028  -4.818  1.00  0.00     0.020 C 
ATOM     26  C   UNL     1       4.983   4.199  -2.679  1.00  0.00     0.020 C 
BRANCH  17  27
ATOM     27  C   UNL     1       0.531   0.348  -1.482  1.00  0.00    -0.009 C 
ATOM     28  C   UNL     1       1.095  -0.027  -0.096  1.00  0.00     0.016 C 
ATOM     29  C   UNL     1       1.012  -0.708  -2.504  1.00  0.00     0.016 C 
ATOM     30  C   UNL     1      -1.011   0.213  -1.431  1.00  0.00     0.016 C 
ENDBRANCH  17  27
ENDBRANCH  14  16
ENDBRANCH   9  14
ENDBRANCH   6   8
ENDBRANCH   5   6
ENDBRANCH   4   5
ENDBRANCH   3   4
ENDBRANCH   2   3
ENDBRANCH   1   2
BRANCH   1  31
ATOM     31  C   UNL     1       2.511   6.257   1.217  1.00  0.00     0.188 C 
BRANCH  31  32
ATOM     32  O   UNL     1       2.363   4.877   1.467  1.00  0.00    -0.376 OA
BRANCH  32  33
ATOM     33  C   UNL     1       3.093   4.251   2.507  1.00  0.00     0.202 C 
BRANCH  33  34
ATOM     34  C   UNL     1       4.499   4.682   2.951  1.00  0.00     0.261 C 
BRANCH  34  35
ATOM     35  O   UNL     1       4.755   6.088   2.989  1.00  0.00    -0.460 OA
BRANCH  35  36
ATOM     36  C   UNL     1       5.646   6.539   2.069  1.00  0.00     0.338 C 
ATOM     37  O   UNL     1       6.222   5.886   1.214  1.00  0.00    -0.246 OA
BRANCH  36  38
ATOM     38  C   UNL     1       5.680   8.011   2.130  1.00  0.00     0.060 A 
ATOM     39  C   UNL     1       6.075   8.661   3.299  1.00  0.00     0.016 A 
ATOM     40  C   UNL     1       5.308   8.745   0.995  1.00  0.00     0.016 A 
ATOM     41  C   UNL     1       6.112  10.056   3.325  1.00  0.00     0.010 A 
ATOM     42  C   UNL     1       5.332  10.140   1.029  1.00  0.00     0.010 A 
ATOM     43  C   UNL     1       5.752  10.805   2.189  1.00  0.00    -0.014 A 
BRANCH  43  44
ATOM     44  C   UNL     1       5.964  12.274   2.181  1.00  0.00     0.031 A 
ATOM     45  C   UNL     1       4.831  13.239   2.361  1.00  0.00     0.074 A 
ATOM     46  C   UNL     1       7.221  12.728   2.013  1.00  0.00     0.049 A 
ATOM     47  N   UNL     1       4.878  14.542   2.477  1.00  0.00    -0.248 NA
ATOM     48  C   UNL     1       3.474  12.677   2.412  1.00  0.00     0.031 C 
ATOM     49  C   UNL     1       8.394  11.879   1.794  1.00  0.00     0.029 A 
ATOM     50  N   UNL     1       7.725  14.002   2.015  1.00  0.00    -0.354 N 
ATOM     51  C   UNL     1       3.564  14.959   2.645  1.00  0.00     0.074 A 
ATOM     52  C   UNL     1       2.736  13.772   2.559  1.00  0.00     0.031 C 
ATOM     53  C   UNL     1       9.486  12.654   1.715  1.00  0.00     0.029 A 
ATOM     54  C   UNL     1       9.089  14.053   1.855  1.00  0.00     0.049 A 
ATOM     55  H   UNL     1       7.164  14.805   2.120  1.00  0.00     0.167 HD
ATOM     56  C   UNL     1       3.100  16.212   2.871  1.00  0.00     0.037 A 
ATOM     57  C   UNL     1       9.931  15.104   1.833  1.00  0.00     0.037 A 
ATOM     58  C   UNL     1       3.934  17.389   2.937  1.00  0.00     0.049 A 
ATOM     59  C   UNL     1       9.383  16.488   2.041  1.00  0.00     0.074 A 
ATOM     60  C   UNL     1       3.557  18.695   3.201  1.00  0.00     0.029 A 
ATOM     61  N   UNL     1       5.306  17.409   2.725  1.00  0.00    -0.354 N 
ATOM     62  N   UNL     1       8.147  16.858   2.277  1.00  0.00    -0.248 NA
ATOM     63  C   UNL     1      10.344  17.599   1.984  1.00  0.00     0.031 C 
ATOM     64  C   UNL     1       4.689  19.511   3.095  1.00  0.00     0.029 A 
ATOM     65  C   UNL     1       5.783  18.708   2.819  1.00  0.00     0.049 A 
ATOM     66  H   UNL     1       5.859  16.617   2.536  1.00  0.00     0.167 HD
ATOM     67  C   UNL     1       8.184  18.241   2.413  1.00  0.00     0.074 A 
ATOM     68  C   UNL     1       9.567  18.640   2.252  1.00  0.00     0.031 C 
ATOM     69  C   UNL     1       7.161  19.101   2.647  1.00  0.00     0.037 A 
BRANCH  56  70
ATOM     70  C   UNL     1       1.620  16.390   3.081  1.00  0.00     0.058 A 
ATOM     71  C   UNL     1       0.993  15.954   4.259  1.00  0.00     0.135 A 
ATOM     72  C   UNL     1       0.836  17.079   2.141  1.00  0.00     0.135 A 
ATOM     73  F   UNL     1       1.693  15.284   5.189  1.00  0.00    -0.206 F 
ATOM     74  C   UNL     1      -0.360  16.181   4.492  1.00  0.00     0.059 A 
ATOM     75  C   UNL     1      -0.514  17.340   2.364  1.00  0.00     0.059 A 
ATOM     76  F   UNL     1       1.384  17.523   0.999  1.00  0.00    -0.206 F 
ATOM     77  C   UNL     1      -1.105  16.879   3.540  1.00  0.00     0.060 A 
BRANCH  77  78
ATOM     78  S   UNL     1      -2.853  17.183   3.873  1.00  0.00     0.124 S 
ATOM     79  O   UNL     1      -3.407  15.836   3.780  1.00  0.00    -0.237 OA
ATOM     80  O   UNL     1      -2.818  17.762   5.212  1.00  0.00    -0.237 OA
ATOM     81  O   UNL     1      -3.250  18.098   2.807  1.00  0.00    -0.744 OA
ENDBRANCH  77  78
ENDBRANCH  56  70
BRANCH  57  82
ATOM     82  C   UNL     1      11.386  14.874   1.643  1.00  0.00     0.058 A 
ATOM     83  C   UNL     1      12.290  15.068   2.697  1.00  0.00     0.135 A 
ATOM     84  C   UNL     1      11.897  14.420   0.417  1.00  0.00     0.135 A 
ATOM     85  F   UNL     1      11.849  15.505   3.887  1.00  0.00    -0.206 F 
ATOM     86  C   UNL     1      13.651  14.828   2.542  1.00  0.00     0.059 A 
ATOM     87  C   UNL     1      13.249  14.148   0.245  1.00  0.00     0.059 A 
ATOM     88  F   UNL     1      11.069  14.204  -0.618  1.00  0.00    -0.206 F 
ATOM     89  C   UNL     1      14.120  14.362   1.312  1.00  0.00     0.060 A 
BRANCH  89  90
ATOM     90  S   UNL     1      15.881  14.001   1.143  1.00  0.00     0.124 S 
ATOM     91  O   UNL     1      16.461  15.338   1.186  1.00  0.00    -0.237 OA
ATOM     92  O   UNL     1      16.131  13.157   2.307  1.00  0.00    -0.237 OA
ATOM     93  O   UNL     1      15.961  13.319  -0.146  1.00  0.00    -0.744 OA
ENDBRANCH  89  90
ENDBRANCH  57  82
BRANCH  69  94
ATOM     94  C   UNL     1       7.492  20.566   2.744  1.00  0.00     0.058 A 
ATOM     95  C   UNL     1       7.840  21.316   1.609  1.00  0.00     0.135 A 
ATOM     96  C   UNL     1       7.398  21.243   3.971  1.00  0.00     0.135 A 
ATOM     97  F   UNL     1       7.953  20.717   0.413  1.00  0.00    -0.206 F 
ATOM     98  C   UNL     1       8.095  22.681   1.689  1.00  0.00     0.059 A 
ATOM     99  C   UNL     1       7.623  22.614   4.069  1.00  0.00     0.059 A 
ATOM    100  F   UNL     1       7.064  20.577   5.088  1.00  0.00    -0.206 F 
ATOM    101  C   UNL     1       7.978  23.323   2.923  1.00  0.00     0.060 A 
BRANCH 101 102
ATOM    102  S   UNL     1       8.267  25.104   2.998  1.00  0.00     0.124 S 
ATOM    103  O   UNL     1       9.708  25.179   2.776  1.00  0.00    -0.237 OA
ATOM    104  O   UNL     1       7.432  25.600   1.909  1.00  0.00    -0.237 OA
ATOM    105  O   UNL     1       7.820  25.466   4.340  1.00  0.00    -0.744 OA
ENDBRANCH 101 102
ENDBRANCH  69  94
ENDBRANCH  43  44
ENDBRANCH  36  38
ENDBRANCH  35  36
ENDBRANCH  34  35
ENDBRANCH  33  34
ENDBRANCH  32  33
ENDBRANCH  31  32
ENDBRANCH   1  31
TORSDOF 23
