REMARK SMILES CCN(CCC(=O)OCCOCCOCCOC(=O)c1ccc(-c2c3nc(c(-c4c(F)cc(S(=O)(=O)[O-])cc4F)c4ccc([nH]4)c(-c4c(F)cc(S(=O)(=O)[O-])cc4F)c4nc(c(-c5c(F)cc(S(=O)(=O)[O-])cc5F)c5ccc2[nH]5)C=C4)C=C3)cc1)S(=O)(=O)c1cn(CC)cn1
REMARK SMILES IDX 12 1 11 2 10 3 9 4 8 5 6 6 7 7 5 8 4 9 3 10 2 11 1 12 86 13
REMARK SMILES IDX 87 14 88 15 89 16 90 17 95 18 91 19 94 20 92 21 93 22 13 23
REMARK SMILES IDX 14 24 15 25 16 26 17 27 18 28 19 29 20 30 21 31 85 32 22 33
REMARK SMILES IDX 84 34 23 35 24 36 25 37 78 38 26 39 83 40 77 41 79 42 27 43
REMARK SMILES IDX 82 44 76 45 75 46 28 48 62 49 41 50 61 51 42 52 45 53 60 54
REMARK SMILES IDX 80 55 43 56 44 57 59 59 81 60 46 61 29 62 30 63 39 64 31 65
REMARK SMILES IDX 32 66 38 67 40 68 33 69 34 70 35 71 36 72 37 73 63 74 64 75
REMARK SMILES IDX 73 76 65 77 66 78 72 79 74 80 67 81 68 82 69 83 70 84 71 85
REMARK SMILES IDX 47 86 48 87 57 88 49 89 50 90 56 91 58 92 51 93 52 94 53 95
REMARK SMILES IDX 54 96 55 97
REMARK H PARENT 79 47 45 58
REMARK Flexibility Score: inf
ROOT
ATOM      1  C   UNL     1       4.110  -5.356   2.435  1.00  0.00     0.188 C 
ENDROOT
BRANCH   1   2
ATOM      2  O   UNL     1       5.147  -5.415   1.457  1.00  0.00    -0.376 OA
BRANCH   2   3
ATOM      3  C   UNL     1       5.380  -4.297   0.605  1.00  0.00     0.202 C 
BRANCH   3   4
ATOM      4  C   UNL     1       4.241  -3.873  -0.329  1.00  0.00     0.261 C 
BRANCH   4   5
ATOM      5  O   UNL     1       3.029  -3.465   0.343  1.00  0.00    -0.463 OA
BRANCH   5   6
ATOM      6  C   UNL     1       1.880  -4.005  -0.117  1.00  0.00     0.307 C 
ATOM      7  O   UNL     1       1.819  -4.779  -1.069  1.00  0.00    -0.252 OA
BRANCH   6   8
ATOM      8  C   UNL     1       0.623  -3.642   0.648  1.00  0.00     0.139 C 
BRANCH   8   9
ATOM      9  C   UNL     1       0.575  -2.562   1.727  1.00  0.00     0.114 C 
BRANCH   9  10
ATOM     10  N   UNL     1       0.755  -1.136   1.339  1.00  0.00    -0.196 NA
BRANCH  10  11
ATOM     11  C   UNL     1       0.403  -0.814  -0.067  1.00  0.00     0.099 C 
ATOM     12  C   UNL     1       0.596   0.627  -0.498  1.00  0.00     0.022 C 
ENDBRANCH  10  11
BRANCH  10  13
ATOM     13  S   UNL     1       1.946  -0.219   2.143  1.00  0.00     0.262 S 
ATOM     14  O   UNL     1       3.228  -0.556   1.559  1.00  0.00    -0.205 OA
ATOM     15  O   UNL     1       1.504   1.163   2.179  1.00  0.00    -0.205 OA
BRANCH  13  16
ATOM     16  C   UNL     1       2.142  -0.587   3.849  1.00  0.00     0.188 A 
ATOM     17  C   UNL     1       3.016   0.079   4.691  1.00  0.00     0.129 A 
ATOM     18  N   UNL     1       1.476  -1.581   4.554  1.00  0.00    -0.224 NA
ATOM     19  N   UNL     1       2.918  -0.553   5.905  1.00  0.00    -0.336 N 
ATOM     20  C   UNL     1       1.971  -1.531   5.776  1.00  0.00     0.201 A 
BRANCH  19  21
ATOM     21  C   UNL     1       3.795  -0.286   7.031  1.00  0.00     0.120 C 
ATOM     22  C   UNL     1       3.335  -0.759   8.401  1.00  0.00     0.027 C 
ENDBRANCH  19  21
ENDBRANCH  13  16
ENDBRANCH  10  13
ENDBRANCH   9  10
ENDBRANCH   8   9
ENDBRANCH   6   8
ENDBRANCH   5   6
ENDBRANCH   4   5
ENDBRANCH   3   4
ENDBRANCH   2   3
ENDBRANCH   1   2
BRANCH   1  23
ATOM     23  C   UNL     1       3.791  -4.006   3.087  1.00  0.00     0.188 C 
BRANCH  23  24
ATOM     24  O   UNL     1       4.867  -3.098   3.017  1.00  0.00    -0.376 OA
BRANCH  24  25
ATOM     25  C   UNL     1       5.457  -2.650   4.210  1.00  0.00     0.202 C 
BRANCH  25  26
ATOM     26  C   UNL     1       6.086  -3.714   5.105  1.00  0.00     0.261 C 
BRANCH  26  27
ATOM     27  O   UNL     1       5.236  -4.827   5.416  1.00  0.00    -0.460 OA
BRANCH  27  28
ATOM     28  C   UNL     1       4.255  -4.606   6.320  1.00  0.00     0.338 C 
ATOM     29  O   UNL     1       4.014  -3.573   6.909  1.00  0.00    -0.246 OA
BRANCH  28  30
ATOM     30  C   UNL     1       3.455  -5.838   6.410  1.00  0.00     0.060 A 
ATOM     31  C   UNL     1       2.143  -5.874   5.918  1.00  0.00     0.016 A 
ATOM     32  C   UNL     1       4.029  -6.955   7.016  1.00  0.00     0.016 A 
ATOM     33  C   UNL     1       1.388  -7.041   6.053  1.00  0.00     0.010 A 
ATOM     34  C   UNL     1       3.271  -8.110   7.163  1.00  0.00     0.010 A 
ATOM     35  C   UNL     1       1.942  -8.149   6.707  1.00  0.00    -0.014 A 
BRANCH  35  36
ATOM     36  C   UNL     1       1.122  -9.323   7.070  1.00  0.00     0.031 A 
ATOM     37  C   UNL     1       0.617  -9.423   8.480  1.00  0.00     0.074 A 
ATOM     38  C   UNL     1       0.936 -10.315   6.184  1.00  0.00     0.049 A 
ATOM     39  N   UNL     1       0.069 -10.433   9.098  1.00  0.00    -0.248 NA
ATOM     40  C   UNL     1       0.780  -8.220   9.314  1.00  0.00     0.031 C 
ATOM     41  C   UNL     1       1.373 -10.291   4.788  1.00  0.00     0.029 A 
ATOM     42  N   UNL     1       0.363 -11.549   6.338  1.00  0.00    -0.354 N 
ATOM     43  C   UNL     1      -0.151 -10.002  10.402  1.00  0.00     0.074 A 
ATOM     44  C   UNL     1       0.336  -8.643  10.488  1.00  0.00     0.031 C 
ATOM     45  C   UNL     1       1.074 -11.471   4.218  1.00  0.00     0.029 A 
ATOM     46  C   UNL     1       0.465 -12.341   5.220  1.00  0.00     0.049 A 
ATOM     47  H   UNL     1      -0.078 -11.840   7.169  1.00  0.00     0.167 HD
ATOM     48  C   UNL     1      -0.702 -10.688  11.431  1.00  0.00     0.037 A 
ATOM     49  C   UNL     1       0.130 -13.634   5.044  1.00  0.00     0.037 A 
ATOM     50  C   UNL     1      -1.167 -12.046  11.312  1.00  0.00     0.049 A 
ATOM     51  C   UNL     1      -0.464 -14.386   6.205  1.00  0.00     0.074 A 
ATOM     52  C   UNL     1      -1.760 -12.846  12.272  1.00  0.00     0.029 A 
ATOM     53  N   UNL     1      -1.082 -12.808  10.152  1.00  0.00    -0.354 N 
ATOM     54  N   UNL     1      -0.678 -13.971   7.433  1.00  0.00    -0.248 NA
ATOM     55  C   UNL     1      -0.865 -15.776   5.960  1.00  0.00     0.031 C 
ATOM     56  C   UNL     1      -1.996 -14.104  11.703  1.00  0.00     0.029 A 
ATOM     57  C   UNL     1      -1.600 -14.071  10.374  1.00  0.00     0.049 A 
ATOM     58  H   UNL     1      -0.708 -12.493   9.298  1.00  0.00     0.167 HD
ATOM     59  C   UNL     1      -1.273 -15.036   8.098  1.00  0.00     0.074 A 
ATOM     60  C   UNL     1      -1.383 -16.114   7.133  1.00  0.00     0.031 C 
ATOM     61  C   UNL     1      -1.699 -15.118   9.384  1.00  0.00     0.037 A 
BRANCH  48  62
ATOM     62  C   UNL     1      -0.782  -9.994  12.765  1.00  0.00     0.058 A 
ATOM     63  C   UNL     1      -1.637  -8.900  12.985  1.00  0.00     0.135 A 
ATOM     64  C   UNL     1       0.025 -10.413  13.835  1.00  0.00     0.135 A 
ATOM     65  F   UNL     1      -2.417  -8.442  11.994  1.00  0.00    -0.206 F 
ATOM     66  C   UNL     1      -1.655  -8.220  14.200  1.00  0.00     0.059 A 
ATOM     67  C   UNL     1       0.002  -9.766  15.069  1.00  0.00     0.059 A 
ATOM     68  F   UNL     1       0.864 -11.450  13.684  1.00  0.00    -0.206 F 
ATOM     69  C   UNL     1      -0.824  -8.656  15.234  1.00  0.00     0.060 A 
BRANCH  69  70
ATOM     70  S   UNL     1      -0.830  -7.744  16.792  1.00  0.00     0.124 S 
ATOM     71  O   UNL     1      -0.087  -6.541  16.427  1.00  0.00    -0.237 OA
ATOM     72  O   UNL     1      -2.256  -7.555  17.041  1.00  0.00    -0.237 OA
ATOM     73  O   UNL     1      -0.149  -8.645  17.717  1.00  0.00    -0.744 OA
ENDBRANCH  69  70
ENDBRANCH  48  62
BRANCH  49  74
ATOM     74  C   UNL     1       0.324 -14.272   3.716  1.00  0.00     0.058 A 
ATOM     75  C   UNL     1      -0.776 -14.560   2.895  1.00  0.00     0.135 A 
ATOM     76  C   UNL     1       1.605 -14.551   3.213  1.00  0.00     0.135 A 
ATOM     77  F   UNL     1      -2.020 -14.318   3.334  1.00  0.00    -0.206 F 
ATOM     78  C   UNL     1      -0.616 -15.098   1.622  1.00  0.00     0.059 A 
ATOM     79  C   UNL     1       1.792 -15.069   1.934  1.00  0.00     0.059 A 
ATOM     80  F   UNL     1       2.691 -14.281   3.954  1.00  0.00    -0.206 F 
ATOM     81  C   UNL     1       0.674 -15.341   1.147  1.00  0.00     0.060 A 
BRANCH  81  82
ATOM     82  S   UNL     1       0.869 -15.962  -0.539  1.00  0.00     0.124 S 
ATOM     83  O   UNL     1       0.406 -17.338  -0.401  1.00  0.00    -0.237 OA
ATOM     84  O   UNL     1      -0.003 -15.068  -1.296  1.00  0.00    -0.237 OA
ATOM     85  O   UNL     1       2.297 -15.798  -0.794  1.00  0.00    -0.744 OA
ENDBRANCH  81  82
ENDBRANCH  49  74
BRANCH  61  86
ATOM     86  C   UNL     1      -2.372 -16.396   9.798  1.00  0.00     0.058 A 
ATOM     87  C   UNL     1      -1.651 -17.581  10.007  1.00  0.00     0.135 A 
ATOM     88  C   UNL     1      -3.759 -16.419  10.021  1.00  0.00     0.135 A 
ATOM     89  F   UNL     1      -0.325 -17.611   9.802  1.00  0.00    -0.206 F 
ATOM     90  C   UNL     1      -2.287 -18.756  10.393  1.00  0.00     0.059 A 
ATOM     91  C   UNL     1      -4.411 -17.575  10.434  1.00  0.00     0.059 A 
ATOM     92  F   UNL     1      -4.490 -15.307   9.847  1.00  0.00    -0.206 F 
ATOM     93  C   UNL     1      -3.668 -18.743  10.601  1.00  0.00     0.060 A 
BRANCH  93  94
ATOM     94  S   UNL     1      -4.482 -20.269  11.117  1.00  0.00     0.124 S 
ATOM     95  O   UNL     1      -4.511 -21.022   9.868  1.00  0.00    -0.237 OA
ATOM     96  O   UNL     1      -3.576 -20.776  12.143  1.00  0.00    -0.237 OA
ATOM     97  O   UNL     1      -5.780 -19.812  11.606  1.00  0.00    -0.744 OA
ENDBRANCH  93  94
ENDBRANCH  61  86
ENDBRANCH  35  36
ENDBRANCH  28  30
ENDBRANCH  27  28
ENDBRANCH  26  27
ENDBRANCH  25  26
ENDBRANCH  24  25
ENDBRANCH  23  24
ENDBRANCH   1  23
TORSDOF 26
