REMARK SMILES CC[C@H](C)[C@H](NC(=O)[C@H](C(C)C)n1c(=O)[nH]c2ccccc2c1=O)C(=O)OCCOCCOCCOC(=O)c1ccc(-c2c3nc(c(-c4c(F)cc(S(=O)(=O)[O-])cc4F)c4ccc([nH]4)c(-c4c(F)cc(S(=O)(=O)[O-])cc4F)c4nc(c(-c5c(F)cc(S(=O)(=O)[O-])cc5F)c5ccc2[nH]5)C=C4)C=C3)cc1
REMARK SMILES IDX 31 1 30 2 29 3 28 4 27 5 25 6 26 7 5 8 3 9 4 10 2 11 1 12
REMARK SMILES IDX 6 13 7 14 8 16 9 17 13 18 14 19 23 20 15 21 16 22 22 23
REMARK SMILES IDX 24 24 17 25 21 27 18 28 20 29 19 30 10 31 11 32 12 33 32 34
REMARK SMILES IDX 33 35 34 36 35 37 36 38 37 39 38 40 39 41 40 42 104 43 41 44
REMARK SMILES IDX 103 45 42 46 43 47 44 48 97 49 45 50 102 51 96 52 98 53
REMARK SMILES IDX 46 54 101 55 95 56 94 57 47 59 81 60 60 61 80 62 61 63 64 64
REMARK SMILES IDX 79 65 99 66 62 67 63 68 78 70 100 71 65 72 48 73 49 74 58 75
REMARK SMILES IDX 50 76 51 77 57 78 59 79 52 80 53 81 54 82 55 83 56 84 82 85
REMARK SMILES IDX 83 86 92 87 84 88 85 89 91 90 93 91 86 92 87 93 88 94 89 95
REMARK SMILES IDX 90 96 66 97 67 98 76 99 68 100 69 101 75 102 77 103 70 104
REMARK SMILES IDX 71 105 72 106 73 107 74 108
REMARK H PARENT 6 15 16 26 98 58 64 69
REMARK Flexibility Score: inf
ROOT
ATOM      1  C   UNL     1      -1.457   6.964   1.751  1.00  0.00     0.188 C 
ENDROOT
BRANCH   1   2
ATOM      2  O   UNL     1      -1.467   6.338   3.036  1.00  0.00    -0.376 OA
BRANCH   2   3
ATOM      3  C   UNL     1      -0.442   6.776   3.932  1.00  0.00     0.202 C 
BRANCH   3   4
ATOM      4  C   UNL     1       1.011   6.368   3.609  1.00  0.00     0.261 C 
BRANCH   4   5
ATOM      5  O   UNL     1       1.113   5.782   2.311  1.00  0.00    -0.462 OA
BRANCH   5   6
ATOM      6  C   UNL     1       2.057   4.825   2.096  1.00  0.00     0.328 C 
ATOM      7  O   UNL     1       2.928   4.524   2.899  1.00  0.00    -0.250 OA
BRANCH   6   8
ATOM      8  C   UNL     1       1.996   4.364   0.624  1.00  0.00     0.195 C 
BRANCH   8   9
ATOM      9  C   UNL     1       3.161   5.040  -0.164  1.00  0.00     0.019 C 
ATOM     10  C   UNL     1       3.055   4.817  -1.678  1.00  0.00     0.010 C 
BRANCH   9  11
ATOM     11  C   UNL     1       3.441   6.523   0.173  1.00  0.00     0.002 C 
ATOM     12  C   UNL     1       2.359   7.523  -0.202  1.00  0.00     0.004 C 
ENDBRANCH   9  11
ENDBRANCH   8   9
BRANCH   8  13
ATOM     13  N   UNL     1       0.691   4.566  -0.018  1.00  0.00    -0.341 N 
ATOM     14  C   UNL     1      -0.501   3.929   0.064  1.00  0.00     0.244 C 
ATOM     15  H   UNL     1       0.680   5.328  -0.642  1.00  0.00     0.164 HD
ATOM     16  O   UNL     1      -1.335   4.348  -0.755  1.00  0.00    -0.273 OA
BRANCH  14  17
ATOM     17  C   UNL     1      -0.904   2.791   1.053  1.00  0.00     0.187 C 
BRANCH  17  18
ATOM     18  N   UNL     1      -0.428   1.460   0.651  1.00  0.00    -0.247 N 
ATOM     19  C   UNL     1      -1.108   0.797  -0.364  1.00  0.00     0.329 A 
ATOM     20  C   UNL     1       0.762   0.963   1.133  1.00  0.00     0.264 A 
ATOM     21  O   UNL     1      -1.934   1.319  -1.108  1.00  0.00    -0.248 OA
ATOM     22  N   UNL     1      -0.842  -0.539  -0.514  1.00  0.00    -0.307 N 
ATOM     23  C   UNL     1       0.963  -0.481   1.048  1.00  0.00     0.064 A 
ATOM     24  O   UNL     1       1.652   1.632   1.641  1.00  0.00    -0.268 OA
ATOM     25  C   UNL     1       0.113  -1.216   0.237  1.00  0.00     0.055 A 
ATOM     26  H   UNL     1      -1.352  -1.045  -1.187  1.00  0.00     0.171 HD
ATOM     27  C   UNL     1       1.965  -1.096   1.797  1.00  0.00     0.016 A 
ATOM     28  C   UNL     1       0.240  -2.598   0.176  1.00  0.00     0.027 A 
ATOM     29  C   UNL     1       2.097  -2.476   1.739  1.00  0.00     0.001 A 
ATOM     30  C   UNL     1       1.230  -3.226   0.941  1.00  0.00     0.002 A 
ENDBRANCH  17  18
BRANCH  17  31
ATOM     31  C   UNL     1      -0.915   3.183   2.581  1.00  0.00     0.016 C 
ATOM     32  C   UNL     1      -2.347   3.357   3.110  1.00  0.00     0.010 C 
ATOM     33  C   UNL     1      -0.211   2.317   3.623  1.00  0.00     0.010 C 
ENDBRANCH  17  31
ENDBRANCH  14  17
ENDBRANCH   8  13
ENDBRANCH   6   8
ENDBRANCH   5   6
ENDBRANCH   4   5
ENDBRANCH   3   4
ENDBRANCH   2   3
ENDBRANCH   1   2
BRANCH   1  34
ATOM     34  C   UNL     1      -2.742   6.662   0.969  1.00  0.00     0.188 C 
BRANCH  34  35
ATOM     35  O   UNL     1      -3.873   7.346   1.517  1.00  0.00    -0.376 OA
BRANCH  35  36
ATOM     36  C   UNL     1      -4.624   6.550   2.446  1.00  0.00     0.202 C 
BRANCH  36  37
ATOM     37  C   UNL     1      -5.563   5.553   1.741  1.00  0.00     0.261 C 
BRANCH  37  38
ATOM     38  O   UNL     1      -5.367   4.209   2.246  1.00  0.00    -0.460 OA
BRANCH  38  39
ATOM     39  C   UNL     1      -5.689   3.221   1.361  1.00  0.00     0.338 C 
ATOM     40  O   UNL     1      -6.177   3.374   0.264  1.00  0.00    -0.246 OA
BRANCH  39  41
ATOM     41  C   UNL     1      -5.224   1.895   1.857  1.00  0.00     0.060 A 
ATOM     42  C   UNL     1      -5.684   1.301   3.035  1.00  0.00     0.016 A 
ATOM     43  C   UNL     1      -4.322   1.195   1.054  1.00  0.00     0.016 A 
ATOM     44  C   UNL     1      -5.224   0.014   3.406  1.00  0.00     0.010 A 
ATOM     45  C   UNL     1      -3.841  -0.062   1.445  1.00  0.00     0.010 A 
ATOM     46  C   UNL     1      -4.281  -0.678   2.622  1.00  0.00    -0.014 A 
BRANCH  46  47
ATOM     47  C   UNL     1      -3.931  -2.119   2.833  1.00  0.00     0.031 A 
ATOM     48  C   UNL     1      -2.644  -2.592   3.470  1.00  0.00     0.074 A 
ATOM     49  C   UNL     1      -4.727  -3.040   2.254  1.00  0.00     0.049 A 
ATOM     50  N   UNL     1      -2.226  -3.818   3.686  1.00  0.00    -0.248 NA
ATOM     51  C   UNL     1      -1.685  -1.562   3.876  1.00  0.00     0.031 C 
ATOM     52  C   UNL     1      -5.917  -2.732   1.458  1.00  0.00     0.029 A 
ATOM     53  N   UNL     1      -4.642  -4.409   2.213  1.00  0.00    -0.354 N 
ATOM     54  C   UNL     1      -0.959  -3.710   4.256  1.00  0.00     0.074 A 
ATOM     55  C   UNL     1      -0.661  -2.292   4.311  1.00  0.00     0.031 C 
ATOM     56  C   UNL     1      -6.459  -3.878   1.021  1.00  0.00     0.029 A 
ATOM     57  C   UNL     1      -5.670  -5.001   1.519  1.00  0.00     0.049 A 
ATOM     58  H   UNL     1      -3.916  -4.918   2.640  1.00  0.00     0.167 HD
ATOM     59  C   UNL     1      -0.136  -4.696   4.704  1.00  0.00     0.037 A 
ATOM     60  C   UNL     1      -5.974  -6.299   1.332  1.00  0.00     0.037 A 
ATOM     61  C   UNL     1      -0.455  -6.109   4.673  1.00  0.00     0.049 A 
ATOM     62  C   UNL     1      -5.128  -7.369   1.960  1.00  0.00     0.074 A 
ATOM     63  C   UNL     1       0.258  -7.167   5.221  1.00  0.00     0.029 A 
ATOM     64  N   UNL     1      -1.571  -6.666   4.068  1.00  0.00    -0.354 N 
ATOM     65  N   UNL     1      -4.010  -7.244   2.632  1.00  0.00    -0.248 NA
ATOM     66  C   UNL     1      -5.602  -8.754   1.831  1.00  0.00     0.031 C 
ATOM     67  C   UNL     1      -0.405  -8.360   4.917  1.00  0.00     0.029 A 
ATOM     68  C   UNL     1      -1.559  -8.045   4.222  1.00  0.00     0.049 A 
ATOM     69  H   UNL     1      -2.270  -6.157   3.598  1.00  0.00     0.167 HD
ATOM     70  C   UNL     1      -3.665  -8.531   3.031  1.00  0.00     0.074 A 
ATOM     71  C   UNL     1      -4.699  -9.417   2.540  1.00  0.00     0.031 C 
ATOM     72  C   UNL     1      -2.584  -8.936   3.741  1.00  0.00     0.037 A 
BRANCH  59  73
ATOM     73  C   UNL     1       1.183  -4.325   5.348  1.00  0.00     0.058 A 
ATOM     74  C   UNL     1       1.225  -3.717   6.612  1.00  0.00     0.135 A 
ATOM     75  C   UNL     1       2.405  -4.752   4.795  1.00  0.00     0.135 A 
ATOM     76  F   UNL     1       0.093  -3.295   7.197  1.00  0.00    -0.206 F 
ATOM     77  C   UNL     1       2.422  -3.547   7.304  1.00  0.00     0.059 A 
ATOM     78  C   UNL     1       3.612  -4.615   5.481  1.00  0.00     0.059 A 
ATOM     79  F   UNL     1       2.431  -5.350   3.593  1.00  0.00    -0.206 F 
ATOM     80  C   UNL     1       3.610  -4.012   6.737  1.00  0.00     0.060 A 
BRANCH  80  81
ATOM     81  S   UNL     1       5.137  -3.854   7.690  1.00  0.00     0.124 S 
ATOM     82  O   UNL     1       5.354  -2.411   7.655  1.00  0.00    -0.237 OA
ATOM     83  O   UNL     1       4.753  -4.405   8.985  1.00  0.00    -0.237 OA
ATOM     84  O   UNL     1       6.096  -4.650   6.931  1.00  0.00    -0.744 OA
ENDBRANCH  80  81
ENDBRANCH  59  73
BRANCH  60  85
ATOM     85  C   UNL     1      -7.228  -6.649   0.622  1.00  0.00     0.058 A 
ATOM     86  C   UNL     1      -8.343  -7.088   1.352  1.00  0.00     0.135 A 
ATOM     87  C   UNL     1      -7.358  -6.515  -0.767  1.00  0.00     0.135 A 
ATOM     88  F   UNL     1      -8.261  -7.223   2.684  1.00  0.00    -0.206 F 
ATOM     89  C   UNL     1      -9.539  -7.408   0.726  1.00  0.00     0.059 A 
ATOM     90  C   UNL     1      -8.554  -6.806  -1.414  1.00  0.00     0.059 A 
ATOM     91  F   UNL     1      -6.325  -6.069  -1.499  1.00  0.00    -0.206 F 
ATOM     92  C   UNL     1      -9.635  -7.263  -0.658  1.00  0.00     0.060 A 
BRANCH  92  93
ATOM     93  S   UNL     1     -11.210  -7.649  -1.450  1.00  0.00     0.124 S 
ATOM     94  O   UNL     1     -11.237  -9.104  -1.350  1.00  0.00    -0.237 OA
ATOM     95  O   UNL     1     -12.160  -6.934  -0.604  1.00  0.00    -0.237 OA
ATOM     96  O   UNL     1     -11.050  -7.111  -2.797  1.00  0.00    -0.744 OA
ENDBRANCH  92  93
ENDBRANCH  60  85
BRANCH  72  97
ATOM     97  C   UNL     1      -2.461 -10.404   4.052  1.00  0.00     0.058 A 
ATOM     98  C   UNL     1      -2.138 -11.342   3.058  1.00  0.00     0.135 A 
ATOM     99  C   UNL     1      -2.625 -10.874   5.365  1.00  0.00     0.135 A 
ATOM    100  F   UNL     1      -1.976 -10.949   1.785  1.00  0.00    -0.206 F 
ATOM    101  C   UNL     1      -2.006 -12.697   3.351  1.00  0.00     0.059 A 
ATOM    102  C   UNL     1      -2.473 -12.221   5.685  1.00  0.00     0.059 A 
ATOM    103  F   UNL     1      -2.927 -10.020   6.356  1.00  0.00    -0.206 F 
ATOM    104  C   UNL     1      -2.173 -13.127   4.668  1.00  0.00     0.060 A 
BRANCH 104 105
ATOM    105  S   UNL     1      -1.966 -14.883   5.035  1.00  0.00     0.124 S 
ATOM    106  O   UNL     1      -3.157 -15.456   4.416  1.00  0.00    -0.237 OA
ATOM    107  O   UNL     1      -0.701 -15.191   4.376  1.00  0.00    -0.237 OA
ATOM    108  O   UNL     1      -1.935 -14.927   6.493  1.00  0.00    -0.744 OA
ENDBRANCH 104 105
ENDBRANCH  72  97
ENDBRANCH  46  47
ENDBRANCH  39  41
ENDBRANCH  38  39
ENDBRANCH  37  38
ENDBRANCH  36  37
ENDBRANCH  35  36
ENDBRANCH  34  35
ENDBRANCH   1  34
TORSDOF 26
