REMARK SMILES O=C(CCc1ccco1)N[C@H]1CCCCC[C@H]1C(=O)OCCOCCOCCOC(=O)c1ccc(-c2c3nc(c(-c4c(F)cc(S(=O)(=O)[O-])cc4F)c4ccc([nH]4)c(-c4c(F)cc(S(=O)(=O)[O-])cc4F)c4nc(c(-c5c(F)cc(S(=O)(=O)[O-])cc5F)c5ccc2[nH]5)C=C4)C=C3)cc1
REMARK SMILES IDX 24 1 23 2 22 3 21 4 20 5 18 6 19 7 17 8 11 9 10 11 1 12 2 13
REMARK SMILES IDX 3 15 4 16 5 17 6 18 9 19 7 20 8 21 16 22 15 23 14 24 13 25
REMARK SMILES IDX 12 26 25 28 26 29 27 30 28 31 29 32 30 33 31 34 32 35 33 36
REMARK SMILES IDX 97 37 34 38 96 39 35 40 36 41 37 42 90 43 38 44 95 45 89 46
REMARK SMILES IDX 91 47 39 48 94 49 88 50 87 51 40 53 74 54 53 55 73 56 54 57
REMARK SMILES IDX 57 58 72 59 92 60 55 61 56 62 71 64 93 65 58 66 41 67 42 68
REMARK SMILES IDX 51 69 43 70 44 71 50 72 52 73 45 74 46 75 47 76 48 77 49 78
REMARK SMILES IDX 75 79 76 80 85 81 77 82 78 83 84 84 86 85 79 86 80 87 81 88
REMARK SMILES IDX 82 89 83 90 59 91 60 92 69 93 61 94 62 95 68 96 70 97 63 98
REMARK SMILES IDX 64 99 65 100 66 101 67 102
REMARK H PARENT 10 14 91 52 57 63
REMARK Flexibility Score: 90.00
ROOT
ATOM      1  C   UNL     1       1.205   0.464  -6.427  1.00  0.00     0.188 C 
ENDROOT
BRANCH   1   2
ATOM      2  O   UNL     1      -0.030   0.602  -7.119  1.00  0.00    -0.376 OA
BRANCH   2   3
ATOM      3  C   UNL     1      -1.028   1.439  -6.555  1.00  0.00     0.202 C 
BRANCH   3   4
ATOM      4  C   UNL     1      -1.654   1.042  -5.198  1.00  0.00     0.261 C 
BRANCH   4   5
ATOM      5  O   UNL     1      -0.860   1.301  -4.004  1.00  0.00    -0.463 OA
BRANCH   5   6
ATOM      6  C   UNL     1      -0.327   0.232  -3.350  1.00  0.00     0.311 C 
ATOM      7  O   UNL     1      -0.335  -0.901  -3.816  1.00  0.00    -0.252 OA
BRANCH   6   8
ATOM      8  C   UNL     1       0.136   0.519  -1.911  1.00  0.00     0.121 C 
BRANCH   8   9
ATOM      9  C   UNL     1       1.386   1.348  -1.513  1.00  0.00     0.096 CG0
ATOM     10  G   UNL     1       1.141   2.780  -1.024  1.00  0.00     0.000 G0
BRANCH   9  11
ATOM     11  N   UNL     1       2.495   1.424  -2.440  1.00  0.00    -0.352 N 
ATOM     12  O   UNL     1       3.813  -0.197  -1.491  1.00  0.00    -0.275 OA
ATOM     13  C   UNL     1       3.674   0.744  -2.263  1.00  0.00     0.220 C 
ATOM     14  H   UNL     1       2.398   1.993  -3.238  1.00  0.00     0.163 HD
BRANCH  13  15
ATOM     15  C   UNL     1       4.840   1.344  -3.017  1.00  0.00     0.108 C 
BRANCH  15  16
ATOM     16  C   UNL     1       4.705   1.254  -4.517  1.00  0.00     0.085 C 
BRANCH  16  17
ATOM     17  C   UNL     1       4.007   2.337  -5.216  1.00  0.00     0.104 A 
ATOM     18  C   UNL     1       3.501   3.997  -4.892  1.00  0.00     0.045 A 
ATOM     19  O   UNL     1       3.267   1.907  -6.923  1.00  0.00    -0.469 OA
ATOM     20  C   UNL     1       2.490   4.656  -6.372  1.00  0.00     0.042 A 
ATOM     21  C   UNL     1       2.310   3.394  -7.588  1.00  0.00     0.195 A 
ENDBRANCH  16  17
ENDBRANCH  15  16
ENDBRANCH  13  15
ENDBRANCH   9  11
ENDBRANCH   8   9
BRANCH   8  22
ATOM     22  C   UNL     1      -1.070   0.871  -1.020  1.00  0.00     0.017 C 
BRANCH  22  23
ATOM     23  C   UNL     1      -1.891   2.110  -1.397  1.00  0.00     0.001 C 
BRANCH  23  24
ATOM     24  C   UNL     1      -1.219   3.483  -1.509  1.00  0.00     0.000 C 
BRANCH  24  25
ATOM     25  C   UNL     1       0.233   3.564  -1.954  1.00  0.00     0.002 C 
BRANCH  25  26
ATOM     26  C   UNL     1       1.141   2.780  -1.024  1.00  0.00     0.026 CG0
ATOM     27  G   UNL     1       1.386   1.348  -1.513  1.00  0.00     0.000 G0
ENDBRANCH  25  26
ENDBRANCH  24  25
ENDBRANCH  23  24
ENDBRANCH  22  23
ENDBRANCH   8  22
ENDBRANCH   6   8
ENDBRANCH   5   6
ENDBRANCH   4   5
ENDBRANCH   3   4
ENDBRANCH   2   3
ENDBRANCH   1   2
BRANCH   1  28
ATOM     28  C   UNL     1       1.648   1.612  -5.497  1.00  0.00     0.188 C 
BRANCH  28  29
ATOM     29  O   UNL     1       2.400   2.872  -5.871  1.00  0.00    -0.376 OA
BRANCH  29  30
ATOM     30  C   UNL     1       4.181   3.426  -6.830  1.00  0.00     0.202 C 
BRANCH  30  31
ATOM     31  C   UNL     1       5.289   2.369  -7.672  1.00  0.00     0.261 C 
BRANCH  31  32
ATOM     32  O   UNL     1       5.343   0.946  -7.382  1.00  0.00    -0.460 OA
BRANCH  32  33
ATOM     33  C   UNL     1       6.537   0.369  -7.103  1.00  0.00     0.338 C 
ATOM     34  O   UNL     1       7.618   0.925  -7.026  1.00  0.00    -0.246 OA
BRANCH  33  35
ATOM     35  C   UNL     1       6.320  -1.067  -6.794  1.00  0.00     0.060 A 
ATOM     36  C   UNL     1       5.978  -1.460  -5.495  1.00  0.00     0.016 A 
ATOM     37  C   UNL     1       6.549  -2.046  -7.758  1.00  0.00     0.016 A 
ATOM     38  C   UNL     1       5.737  -2.785  -5.168  1.00  0.00     0.010 A 
ATOM     39  C   UNL     1       6.411  -3.399  -7.410  1.00  0.00     0.010 A 
ATOM     40  C   UNL     1       6.001  -3.768  -6.114  1.00  0.00    -0.014 A 
BRANCH  40  41
ATOM     41  C   UNL     1       6.129  -5.157  -5.628  1.00  0.00     0.031 A 
ATOM     42  C   UNL     1       7.494  -5.613  -5.207  1.00  0.00     0.074 A 
ATOM     43  C   UNL     1       5.056  -5.942  -5.434  1.00  0.00     0.049 A 
ATOM     44  N   UNL     1       7.928  -6.817  -4.958  1.00  0.00    -0.248 NA
ATOM     45  C   UNL     1       8.507  -4.557  -5.027  1.00  0.00     0.031 C 
ATOM     46  C   UNL     1       3.662  -5.530  -5.588  1.00  0.00     0.029 A 
ATOM     47  N   UNL     1       4.980  -7.259  -5.058  1.00  0.00    -0.354 N 
ATOM     48  C   UNL     1       9.275  -6.670  -4.651  1.00  0.00     0.074 A 
ATOM     49  C   UNL     1       9.581  -5.260  -4.707  1.00  0.00     0.031 C 
ATOM     50  C   UNL     1       2.867  -6.586  -5.338  1.00  0.00     0.029 A 
ATOM     51  C   UNL     1       3.700  -7.760  -5.088  1.00  0.00     0.049 A 
ATOM     52  H   UNL     1       5.763  -7.792  -4.793  1.00  0.00     0.167 HD
ATOM     53  C   UNL     1      10.177  -7.640  -4.380  1.00  0.00     0.037 A 
ATOM     54  C   UNL     1       3.272  -9.035  -4.997  1.00  0.00     0.037 A 
ATOM     55  C   UNL     1       9.830  -9.034  -4.320  1.00  0.00     0.049 A 
ATOM     56  C   UNL     1       4.305 -10.124  -4.827  1.00  0.00     0.074 A 
ATOM     57  C   UNL     1      10.657 -10.125  -4.133  1.00  0.00     0.029 A 
ATOM     58  N   UNL     1       8.536  -9.522  -4.439  1.00  0.00    -0.354 N 
ATOM     59  N   UNL     1       5.607 -10.013  -4.685  1.00  0.00    -0.248 NA
ATOM     60  C   UNL     1       3.820 -11.510  -4.835  1.00  0.00     0.031 C 
ATOM     61  C   UNL     1       9.866 -11.278  -4.183  1.00  0.00     0.029 A 
ATOM     62  C   UNL     1       8.540 -10.901  -4.343  1.00  0.00     0.049 A 
ATOM     63  H   UNL     1       7.733  -8.968  -4.571  1.00  0.00     0.167 HD
ATOM     64  C   UNL     1       6.092 -11.311  -4.563  1.00  0.00     0.074 A 
ATOM     65  C   UNL     1       4.942 -12.190  -4.639  1.00  0.00     0.031 C 
ATOM     66  C   UNL     1       7.369 -11.742  -4.405  1.00  0.00     0.037 A 
BRANCH  53  67
ATOM     67  C   UNL     1      11.614  -7.228  -4.242  1.00  0.00     0.058 A 
ATOM     68  C   UNL     1      12.096  -6.528  -3.126  1.00  0.00     0.135 A 
ATOM     69  C   UNL     1      12.523  -7.523  -5.272  1.00  0.00     0.135 A 
ATOM     70  F   UNL     1      11.263  -6.187  -2.130  1.00  0.00    -0.206 F 
ATOM     71  C   UNL     1      13.423  -6.115  -3.045  1.00  0.00     0.059 A 
ATOM     72  C   UNL     1      13.859  -7.144  -5.201  1.00  0.00     0.059 A 
ATOM     73  F   UNL     1      12.111  -8.175  -6.371  1.00  0.00    -0.206 F 
ATOM     74  C   UNL     1      14.297  -6.427  -4.089  1.00  0.00     0.060 A 
BRANCH  74  75
ATOM     75  S   UNL     1      16.015  -5.885  -3.974  1.00  0.00     0.124 S 
ATOM     76  O   UNL     1      15.884  -4.448  -4.197  1.00  0.00    -0.237 OA
ATOM     77  O   UNL     1      16.379  -6.285  -2.619  1.00  0.00    -0.237 OA
ATOM     78  O   UNL     1      16.679  -6.626  -5.042  1.00  0.00    -0.744 OA
ENDBRANCH  74  75
ENDBRANCH  53  67
BRANCH  54  79
ATOM     79  C   UNL     1       1.828  -9.363  -5.162  1.00  0.00     0.058 A 
ATOM     80  C   UNL     1       1.079  -9.924  -4.117  1.00  0.00     0.135 A 
ATOM     81  C   UNL     1       1.168  -9.140  -6.383  1.00  0.00     0.135 A 
ATOM     82  F   UNL     1       1.661 -10.179  -2.936  1.00  0.00    -0.206 F 
ATOM     83  C   UNL     1      -0.263 -10.263  -4.279  1.00  0.00     0.059 A 
ATOM     84  C   UNL     1      -0.179  -9.441  -6.560  1.00  0.00     0.059 A 
ATOM     85  F   UNL     1       1.834  -8.609  -7.421  1.00  0.00    -0.206 F 
ATOM     86  C   UNL     1      -0.884 -10.014  -5.504  1.00  0.00     0.060 A 
BRANCH  86  87
ATOM     87  S   UNL     1      -2.633 -10.427  -5.695  1.00  0.00     0.124 S 
ATOM     88  O   UNL     1      -2.588 -11.884  -5.745  1.00  0.00    -0.237 OA
ATOM     89  O   UNL     1      -3.219  -9.848  -4.490  1.00  0.00    -0.237 OA
ATOM     90  O   UNL     1      -3.002  -9.765  -6.943  1.00  0.00    -0.744 OA
ENDBRANCH  86  87
ENDBRANCH  54  79
BRANCH  66  91
ATOM     91  C   UNL     1       7.586 -13.220  -4.250  1.00  0.00     0.058 A 
ATOM     92  C   UNL     1       7.489 -14.100  -5.338  1.00  0.00     0.135 A 
ATOM     93  C   UNL     1       7.975 -13.747  -3.008  1.00  0.00     0.135 A 
ATOM     94  F   UNL     1       7.117 -13.646  -6.545  1.00  0.00    -0.206 F 
ATOM     95  C   UNL     1       7.753 -15.458  -5.195  1.00  0.00     0.059 A 
ATOM     96  C   UNL     1       8.272 -15.096  -2.849  1.00  0.00     0.059 A 
ATOM     97  F   UNL     1       8.096 -12.943  -1.940  1.00  0.00    -0.206 F 
ATOM     98  C   UNL     1       8.149 -15.945  -3.948  1.00  0.00     0.060 A 
BRANCH  98  99
ATOM     99  S   UNL     1       8.537 -17.701  -3.787  1.00  0.00     0.124 S 
ATOM    100  O   UNL     1       7.207 -18.300  -3.829  1.00  0.00    -0.237 OA
ATOM    101  O   UNL     1       9.379 -17.943  -4.954  1.00  0.00    -0.237 OA
ATOM    102  O   UNL     1       9.221 -17.782  -2.500  1.00  0.00    -0.744 OA
ENDBRANCH  98  99
ENDBRANCH  66  91
ENDBRANCH  40  41
ENDBRANCH  33  35
ENDBRANCH  32  33
ENDBRANCH  31  32
ENDBRANCH  30  31
ENDBRANCH  29  30
ENDBRANCH  28  29
ENDBRANCH   1  28
TORSDOF 24
