REMARK SMILES N#CCc1ccc(OCC(=O)OCCOCCOCCOC(=O)c2ccc(-c3c4nc(c(-c5c(F)cc(S(=O)(=O)[O-])cc5F)c5ccc([nH]5)c(-c5c(F)cc(S(=O)(=O)[O-])cc5F)c5nc(c(-c6c(F)cc(S(=O)(=O)[O-])cc6F)c6ccc3[nH]6)C=C5)C=C4)cc2)cc1
REMARK SMILES IDX 16 1 15 2 14 3 13 4 12 5 10 6 11 7 9 8 8 9 7 10 4 11 5 12
REMARK SMILES IDX 91 13 6 14 90 15 3 16 2 17 1 18 17 19 18 20 19 21 20 22
REMARK SMILES IDX 21 23 22 24 23 25 24 26 25 27 89 28 26 29 88 30 27 31 28 32
REMARK SMILES IDX 29 33 82 34 30 35 87 36 81 37 83 38 31 39 86 40 80 41 79 42
REMARK SMILES IDX 32 44 66 45 45 46 65 47 46 48 49 49 64 50 84 51 47 52 48 53
REMARK SMILES IDX 63 55 85 56 50 57 33 58 34 59 43 60 35 61 36 62 42 63 44 64
REMARK SMILES IDX 37 65 38 66 39 67 40 68 41 69 67 70 68 71 77 72 69 73 70 74
REMARK SMILES IDX 76 75 78 76 71 77 72 78 73 79 74 80 75 81 51 82 52 83 61 84
REMARK SMILES IDX 53 85 54 86 60 87 62 88 55 89 56 90 57 91 58 92 59 93
REMARK H PARENT 83 43 49 54
REMARK Flexibility Score: inf
ROOT
ATOM      1  C   UNL     1       6.637   4.971   1.603  1.00  0.00     0.188 C 
ENDROOT
BRANCH   1   2
ATOM      2  O   UNL     1       7.703   5.896   1.795  1.00  0.00    -0.376 OA
BRANCH   2   3
ATOM      3  C   UNL     1       8.646   5.617   2.824  1.00  0.00     0.202 C 
BRANCH   3   4
ATOM      4  C   UNL     1       8.085   5.685   4.246  1.00  0.00     0.261 C 
BRANCH   4   5
ATOM      5  O   UNL     1       7.226   4.557   4.518  1.00  0.00    -0.461 OA
BRANCH   5   6
ATOM      6  C   UNL     1       6.093   4.812   5.220  1.00  0.00     0.344 C 
ATOM      7  O   UNL     1       5.825   5.895   5.729  1.00  0.00    -0.248 OA
BRANCH   6   8
ATOM      8  C   UNL     1       5.120   3.623   5.258  1.00  0.00     0.351 C 
BRANCH   8   9
ATOM      9  O   UNL     1       5.585   2.342   4.835  1.00  0.00    -0.482 OA
BRANCH   9  10
ATOM     10  C   UNL     1       4.998   1.722   3.763  1.00  0.00     0.120 A 
ATOM     11  C   UNL     1       4.191   0.493   1.307  1.00  0.00    -0.034 A 
ATOM     12  C   UNL     1       5.334   0.056   1.981  1.00  0.00     0.008 A 
ATOM     13  C   UNL     1       3.415   1.480   1.958  1.00  0.00     0.008 A 
ATOM     14  C   UNL     1       5.722   0.659   3.198  1.00  0.00     0.047 A 
ATOM     15  C   UNL     1       3.800   2.077   3.165  1.00  0.00     0.047 A 
BRANCH  11  16
ATOM     16  C   UNL     1       3.773  -0.067  -0.073  1.00  0.00     0.155 C 
BRANCH  16  17
ATOM     17  C   UNL     1       2.253  -0.067  -0.073  1.00  0.00     0.067 C 
ATOM     18  N   UNL     1       0.992  -0.067  -0.073  1.00  0.00    -0.198 NA
ENDBRANCH  16  17
ENDBRANCH  11  16
ENDBRANCH   9  10
ENDBRANCH   8   9
ENDBRANCH   6   8
ENDBRANCH   5   6
ENDBRANCH   4   5
ENDBRANCH   3   4
ENDBRANCH   2   3
ENDBRANCH   1   2
BRANCH   1  19
ATOM     19  C   UNL     1       6.968   3.478   1.708  1.00  0.00     0.188 C 
BRANCH  19  20
ATOM     20  O   UNL     1       8.211   3.128   1.108  1.00  0.00    -0.376 OA
BRANCH  20  21
ATOM     21  C   UNL     1       8.096   2.155   0.078  1.00  0.00     0.202 C 
BRANCH  21  22
ATOM     22  C   UNL     1       7.693   2.825  -1.229  1.00  0.00     0.261 C 
BRANCH  22  23
ATOM     23  O   UNL     1       6.324   3.278  -1.160  1.00  0.00    -0.460 OA
BRANCH  23  24
ATOM     24  C   UNL     1       5.443   2.659  -1.973  1.00  0.00     0.338 C 
ATOM     25  O   UNL     1       5.688   1.742  -2.737  1.00  0.00    -0.246 OA
BRANCH  24  26
ATOM     26  C   UNL     1       4.079   3.219  -1.796  1.00  0.00     0.060 A 
ATOM     27  C   UNL     1       3.596   3.638  -0.553  1.00  0.00     0.016 A 
ATOM     28  C   UNL     1       3.217   3.206  -2.893  1.00  0.00     0.016 A 
ATOM     29  C   UNL     1       2.245   3.977  -0.395  1.00  0.00     0.010 A 
ATOM     30  C   UNL     1       1.889   3.623  -2.748  1.00  0.00     0.010 A 
ATOM     31  C   UNL     1       1.374   3.990  -1.493  1.00  0.00    -0.014 A 
BRANCH  31  32
ATOM     32  C   UNL     1      -0.065   4.379  -1.375  1.00  0.00     0.031 A 
ATOM     33  C   UNL     1      -1.146   3.446  -1.868  1.00  0.00     0.074 A 
ATOM     34  C   UNL     1      -0.419   5.593  -0.905  1.00  0.00     0.049 A 
ATOM     35  N   UNL     1      -2.399   3.697  -2.151  1.00  0.00    -0.248 NA
ATOM     36  C   UNL     1      -0.759   2.044  -2.076  1.00  0.00     0.031 C 
ATOM     37  C   UNL     1       0.489   6.590  -0.336  1.00  0.00     0.029 A 
ATOM     38  N   UNL     1      -1.648   6.211  -0.871  1.00  0.00    -0.354 N 
ATOM     39  C   UNL     1      -2.933   2.497  -2.615  1.00  0.00     0.074 A 
ATOM     40  C   UNL     1      -1.875   1.514  -2.557  1.00  0.00     0.031 C 
ATOM     41  C   UNL     1      -0.206   7.695  -0.027  1.00  0.00     0.029 A 
ATOM     42  C   UNL     1      -1.587   7.524  -0.463  1.00  0.00     0.049 A 
ATOM     43  H   UNL     1      -2.488   5.759  -1.115  1.00  0.00     0.167 HD
ATOM     44  C   UNL     1      -4.184   2.244  -3.068  1.00  0.00     0.037 A 
ATOM     45  C   UNL     1      -2.506   8.509  -0.508  1.00  0.00     0.037 A 
ATOM     46  C   UNL     1      -5.247   3.214  -3.098  1.00  0.00     0.049 A 
ATOM     47  C   UNL     1      -3.866   8.233  -1.089  1.00  0.00     0.074 A 
ATOM     48  C   UNL     1      -6.554   3.046  -3.524  1.00  0.00     0.029 A 
ATOM     49  N   UNL     1      -5.128   4.531  -2.686  1.00  0.00    -0.354 N 
ATOM     50  N   UNL     1      -4.345   7.112  -1.570  1.00  0.00    -0.248 NA
ATOM     51  C   UNL     1      -4.801   9.365  -1.156  1.00  0.00     0.031 C 
ATOM     52  C   UNL     1      -7.213   4.275  -3.411  1.00  0.00     0.029 A 
ATOM     53  C   UNL     1      -6.328   5.195  -2.874  1.00  0.00     0.049 A 
ATOM     54  H   UNL     1      -4.310   4.935  -2.315  1.00  0.00     0.167 HD
ATOM     55  C   UNL     1      -5.641   7.401  -1.985  1.00  0.00     0.074 A 
ATOM     56  C   UNL     1      -5.877   8.797  -1.685  1.00  0.00     0.031 C 
ATOM     57  C   UNL     1      -6.553   6.584  -2.566  1.00  0.00     0.037 A 
BRANCH  44  58
ATOM     58  C   UNL     1      -4.470   0.879  -3.627  1.00  0.00     0.058 A 
ATOM     59  C   UNL     1      -4.694  -0.235  -2.804  1.00  0.00     0.135 A 
ATOM     60  C   UNL     1      -4.594   0.704  -5.016  1.00  0.00     0.135 A 
ATOM     61  F   UNL     1      -4.577  -0.125  -1.472  1.00  0.00    -0.206 F 
ATOM     62  C   UNL     1      -5.022  -1.478  -3.340  1.00  0.00     0.059 A 
ATOM     63  C   UNL     1      -4.941  -0.523  -5.571  1.00  0.00     0.059 A 
ATOM     64  F   UNL     1      -4.389   1.738  -5.847  1.00  0.00    -0.206 F 
ATOM     65  C   UNL     1      -5.146  -1.611  -4.725  1.00  0.00     0.060 A 
BRANCH  65  66
ATOM     66  S   UNL     1      -5.607  -3.219  -5.407  1.00  0.00     0.124 S 
ATOM     67  O   UNL     1      -4.361  -3.966  -5.263  1.00  0.00    -0.237 OA
ATOM     68  O   UNL     1      -6.698  -3.633  -4.531  1.00  0.00    -0.237 OA
ATOM     69  O   UNL     1      -5.995  -2.908  -6.780  1.00  0.00    -0.744 OA
ENDBRANCH  65  66
ENDBRANCH  44  58
BRANCH  45  70
ATOM     70  C   UNL     1      -2.140   9.883  -0.071  1.00  0.00     0.058 A 
ATOM     71  C   UNL     1      -2.695  10.449   1.084  1.00  0.00     0.135 A 
ATOM     72  C   UNL     1      -1.230  10.658  -0.809  1.00  0.00     0.135 A 
ATOM     73  F   UNL     1      -3.581   9.753   1.813  1.00  0.00    -0.206 F 
ATOM     74  C   UNL     1      -2.372  11.741   1.489  1.00  0.00     0.059 A 
ATOM     75  C   UNL     1      -0.870  11.940  -0.409  1.00  0.00     0.059 A 
ATOM     76  F   UNL     1      -0.663  10.159  -1.918  1.00  0.00    -0.206 F 
ATOM     77  C   UNL     1      -1.457  12.478   0.735  1.00  0.00     0.060 A 
BRANCH  77  78
ATOM     78  S   UNL     1      -1.005  14.136   1.287  1.00  0.00     0.124 S 
ATOM     79  O   UNL     1      -2.149  14.917   0.832  1.00  0.00    -0.237 OA
ATOM     80  O   UNL     1      -0.884  13.962   2.731  1.00  0.00    -0.237 OA
ATOM     81  O   UNL     1       0.252  14.388   0.588  1.00  0.00    -0.744 OA
ENDBRANCH  77  78
ENDBRANCH  45  70
BRANCH  57  82
ATOM     82  C   UNL     1      -7.899   7.166  -2.886  1.00  0.00     0.058 A 
ATOM     83  C   UNL     1      -8.087   8.027  -3.978  1.00  0.00     0.135 A 
ATOM     84  C   UNL     1      -9.023   6.824  -2.117  1.00  0.00     0.135 A 
ATOM     85  F   UNL     1      -7.043   8.390  -4.740  1.00  0.00    -0.206 F 
ATOM     86  C   UNL     1      -9.340   8.548  -4.284  1.00  0.00     0.059 A 
ATOM     87  C   UNL     1     -10.289   7.316  -2.418  1.00  0.00     0.059 A 
ATOM     88  F   UNL     1      -8.897   5.997  -1.067  1.00  0.00    -0.206 F 
ATOM     89  C   UNL     1     -10.436   8.187  -3.496  1.00  0.00     0.060 A 
BRANCH  89  90
ATOM     90  S   UNL     1     -12.063   8.846  -3.916  1.00  0.00     0.124 S 
ATOM     91  O   UNL     1     -11.969  10.209  -3.404  1.00  0.00    -0.237 OA
ATOM     92  O   UNL     1     -12.091   8.716  -5.370  1.00  0.00    -0.237 OA
ATOM     93  O   UNL     1     -12.980   7.966  -3.198  1.00  0.00    -0.744 OA
ENDBRANCH  89  90
ENDBRANCH  57  82
ENDBRANCH  31  32
ENDBRANCH  24  26
ENDBRANCH  23  24
ENDBRANCH  22  23
ENDBRANCH  21  22
ENDBRANCH  20  21
ENDBRANCH  19  20
ENDBRANCH   1  19
TORSDOF 24
