REMARK SMILES O=C(OCCOCCOCCOC(=O)c1nn(-c2ccc([N+](=O)[O-])cc2)cc1CCO)c1ccc(-c2c3nc(c(-c4c(F)cc(S(=O)(=O)[O-])cc4F)c4ccc([nH]4)c(-c4c(F)cc(S(=O)(=O)[O-])cc4F)c4nc(c(-c5c(F)cc(S(=O)(=O)[O-])cc5F)c5ccc2[nH]5)C=C4)C=C3)cc1
REMARK SMILES IDX 7 1 6 2 5 3 4 4 3 5 2 6 1 7 32 8 33 9 97 10 34 11 96 12
REMARK SMILES IDX 35 13 36 14 37 15 90 16 38 17 95 18 89 19 91 20 39 21 94 22
REMARK SMILES IDX 88 23 87 24 40 26 74 27 53 28 73 29 54 30 57 31 72 32 92 33
REMARK SMILES IDX 55 34 56 35 71 37 93 38 58 39 41 40 42 41 51 42 43 43 44 44
REMARK SMILES IDX 50 45 52 46 45 47 46 48 47 49 48 50 49 51 75 52 76 53 85 54
REMARK SMILES IDX 77 55 78 56 84 57 86 58 79 59 80 60 81 61 82 62 83 63 59 64
REMARK SMILES IDX 60 65 69 66 61 67 62 68 68 69 70 70 63 71 64 72 65 73 66 74
REMARK SMILES IDX 67 75 8 76 9 77 10 78 11 79 12 80 13 81 14 82 15 83 16 84
REMARK SMILES IDX 28 85 17 86 27 87 29 88 30 89 31 90 18 92 19 93 26 94 20 95
REMARK SMILES IDX 25 96 21 97 22 98 23 99 24 100
REMARK H PARENT 91 25 57 36 31 91
REMARK Flexibility Score: inf
ROOT
ATOM      1  C   UNL     1       3.734   1.470   0.781  1.00  0.00     0.188 C 
ENDROOT
BRANCH   1   2
ATOM      2  O   UNL     1       4.958   0.852   0.406  1.00  0.00    -0.376 OA
BRANCH   2   3
ATOM      3  C   UNL     1       5.386   0.776  -0.941  1.00  0.00     0.202 C 
BRANCH   3   4
ATOM      4  C   UNL     1       4.662  -0.188  -1.877  1.00  0.00     0.261 C 
BRANCH   4   5
ATOM      5  O   UNL     1       3.272   0.110  -2.013  1.00  0.00    -0.460 OA
BRANCH   5   6
ATOM      6  C   UNL     1       2.192  -0.477  -1.459  1.00  0.00     0.338 C 
ATOM      7  O   UNL     1       1.086  -0.170  -1.905  1.00  0.00    -0.246 OA
BRANCH   6   8
ATOM      8  C   UNL     1       2.229  -1.406  -0.290  1.00  0.00     0.060 A 
ATOM      9  C   UNL     1       3.358  -2.026   0.252  1.00  0.00     0.016 A 
ATOM     10  C   UNL     1       0.974  -1.695   0.282  1.00  0.00     0.016 A 
ATOM     11  C   UNL     1       3.224  -3.085   1.135  1.00  0.00     0.010 A 
ATOM     12  C   UNL     1       0.838  -2.707   1.218  1.00  0.00     0.010 A 
ATOM     13  C   UNL     1       1.954  -3.480   1.530  1.00  0.00    -0.014 A 
BRANCH  13  14
ATOM     14  C   UNL     1       1.819  -4.812   2.104  1.00  0.00     0.031 A 
ATOM     15  C   UNL     1       2.374  -5.046   3.466  1.00  0.00     0.074 A 
ATOM     16  C   UNL     1       1.132  -5.744   1.410  1.00  0.00     0.049 A 
ATOM     17  N   UNL     1       3.143  -6.003   3.882  1.00  0.00    -0.248 NA
ATOM     18  C   UNL     1       2.068  -4.038   4.494  1.00  0.00     0.031 C 
ATOM     19  C   UNL     1       0.357  -5.545   0.175  1.00  0.00     0.029 A 
ATOM     20  N   UNL     1       0.856  -7.034   1.736  1.00  0.00    -0.354 N 
ATOM     21  C   UNL     1       3.251  -5.834   5.262  1.00  0.00     0.074 A 
ATOM     22  C   UNL     1       2.672  -4.551   5.566  1.00  0.00     0.031 C 
ATOM     23  C   UNL     1      -0.502  -6.571   0.022  1.00  0.00     0.029 A 
ATOM     24  C   UNL     1      -0.242  -7.547   1.063  1.00  0.00     0.049 A 
ATOM     25  H   UNL     1       1.383  -7.553   2.386  1.00  0.00     0.167 HD
ATOM     26  C   UNL     1       3.620  -6.839   6.104  1.00  0.00     0.037 A 
ATOM     27  C   UNL     1      -0.976  -8.626   1.421  1.00  0.00     0.037 A 
ATOM     28  C   UNL     1       4.356  -7.875   5.436  1.00  0.00     0.049 A 
ATOM     29  C   UNL     1      -0.136  -9.457   2.319  1.00  0.00     0.074 A 
ATOM     30  C   UNL     1       5.556  -7.930   4.755  1.00  0.00     0.029 A 
ATOM     31  N   UNL     1       3.721  -9.059   5.157  1.00  0.00    -0.354 N 
ATOM     32  N   UNL     1       0.961 -10.061   1.948  1.00  0.00    -0.248 NA
ATOM     33  C   UNL     1      -0.295  -9.290   3.755  1.00  0.00     0.031 C 
ATOM     34  C   UNL     1       5.369  -8.914   3.742  1.00  0.00     0.029 A 
ATOM     35  C   UNL     1       4.070  -9.407   3.876  1.00  0.00     0.049 A 
ATOM     36  H   UNL     1       3.128  -9.563   5.760  1.00  0.00     0.167 HD
ATOM     37  C   UNL     1       1.801  -9.997   3.051  1.00  0.00     0.074 A 
ATOM     38  C   UNL     1       0.935  -9.615   4.162  1.00  0.00     0.031 C 
ATOM     39  C   UNL     1       3.160  -9.992   2.914  1.00  0.00     0.037 A 
BRANCH  26  40
ATOM     40  C   UNL     1       3.028  -7.016   7.481  1.00  0.00     0.058 A 
ATOM     41  C   UNL     1       3.624  -7.896   8.406  1.00  0.00     0.135 A 
ATOM     42  C   UNL     1       1.734  -6.558   7.818  1.00  0.00     0.135 A 
ATOM     43  F   UNL     1       4.844  -8.406   8.175  1.00  0.00    -0.206 F 
ATOM     44  C   UNL     1       2.956  -8.336   9.552  1.00  0.00     0.059 A 
ATOM     45  C   UNL     1       1.073  -6.941   8.978  1.00  0.00     0.059 A 
ATOM     46  F   UNL     1       1.013  -5.794   6.985  1.00  0.00    -0.206 F 
ATOM     47  C   UNL     1       1.671  -7.868   9.815  1.00  0.00     0.060 A 
BRANCH  47  48
ATOM     48  S   UNL     1       0.743  -8.538  11.207  1.00  0.00     0.124 S 
ATOM     49  O   UNL     1       0.413  -9.871  10.715  1.00  0.00    -0.237 OA
ATOM     50  O   UNL     1       1.723  -8.479  12.287  1.00  0.00    -0.237 OA
ATOM     51  O   UNL     1      -0.379  -7.614  11.336  1.00  0.00    -0.744 OA
ENDBRANCH  47  48
ENDBRANCH  26  40
BRANCH  27  52
ATOM     52  C   UNL     1      -2.457  -8.705   1.349  1.00  0.00     0.058 A 
ATOM     53  C   UNL     1      -3.132  -9.932   1.415  1.00  0.00     0.135 A 
ATOM     54  C   UNL     1      -3.263  -7.546   1.433  1.00  0.00     0.135 A 
ATOM     55  F   UNL     1      -2.440 -11.082   1.389  1.00  0.00    -0.206 F 
ATOM     56  C   UNL     1      -4.522 -10.008   1.564  1.00  0.00     0.059 A 
ATOM     57  C   UNL     1      -4.647  -7.596   1.558  1.00  0.00     0.059 A 
ATOM     58  F   UNL     1      -2.718  -6.321   1.483  1.00  0.00    -0.206 F 
ATOM     59  C   UNL     1      -5.270  -8.832   1.641  1.00  0.00     0.060 A 
BRANCH  59  60
ATOM     60  S   UNL     1      -7.046  -8.919   1.962  1.00  0.00     0.124 S 
ATOM     61  O   UNL     1      -7.546  -9.507   0.724  1.00  0.00    -0.237 OA
ATOM     62  O   UNL     1      -7.101  -9.774   3.143  1.00  0.00    -0.237 OA
ATOM     63  O   UNL     1      -7.420  -7.525   2.186  1.00  0.00    -0.744 OA
ENDBRANCH  59  60
ENDBRANCH  27  52
BRANCH  39  64
ATOM     64  C   UNL     1       3.740 -10.323   1.562  1.00  0.00     0.058 A 
ATOM     65  C   UNL     1       3.603  -9.483   0.442  1.00  0.00     0.135 A 
ATOM     66  C   UNL     1       4.615 -11.412   1.438  1.00  0.00     0.135 A 
ATOM     67  F   UNL     1       2.881  -8.358   0.515  1.00  0.00    -0.206 F 
ATOM     68  C   UNL     1       4.273  -9.730  -0.755  1.00  0.00     0.059 A 
ATOM     69  C   UNL     1       5.320 -11.662   0.260  1.00  0.00     0.059 A 
ATOM     70  F   UNL     1       4.848 -12.210   2.493  1.00  0.00    -0.206 F 
ATOM     71  C   UNL     1       5.138 -10.819  -0.836  1.00  0.00     0.060 A 
BRANCH  71  72
ATOM     72  S   UNL     1       6.102 -11.055  -2.345  1.00  0.00     0.124 S 
ATOM     73  O   UNL     1       5.104 -11.580  -3.270  1.00  0.00    -0.237 OA
ATOM     74  O   UNL     1       6.582  -9.706  -2.632  1.00  0.00    -0.237 OA
ATOM     75  O   UNL     1       7.140 -12.001  -1.942  1.00  0.00    -0.744 OA
ENDBRANCH  71  72
ENDBRANCH  39  64
ENDBRANCH  13  14
ENDBRANCH   6   8
ENDBRANCH   5   6
ENDBRANCH   4   5
ENDBRANCH   3   4
ENDBRANCH   2   3
ENDBRANCH   1   2
BRANCH   1  76
ATOM     76  C   UNL     1       2.968   2.484  -0.092  1.00  0.00     0.188 C 
BRANCH  76  77
ATOM     77  O   UNL     1       3.673   3.489  -0.798  1.00  0.00    -0.376 OA
BRANCH  77  78
ATOM     78  C   UNL     1       4.736   4.154  -0.142  1.00  0.00     0.202 C 
BRANCH  78  79
ATOM     79  C   UNL     1       4.369   5.059   1.034  1.00  0.00     0.261 C 
BRANCH  79  80
ATOM     80  O   UNL     1       3.892   4.330   2.173  1.00  0.00    -0.458 OA
BRANCH  80  81
ATOM     81  C   UNL     1       2.584   4.511   2.529  1.00  0.00     0.359 C 
ATOM     82  O   UNL     1       1.771   5.202   1.931  1.00  0.00    -0.244 OA
BRANCH  81  83
ATOM     83  C   UNL     1       2.237   3.742   3.726  1.00  0.00     0.174 A 
ATOM     84  N   UNL     1       2.734   4.122   4.913  1.00  0.00    -0.161 NA
ATOM     85  C   UNL     1       1.364   2.620   3.867  1.00  0.00     0.008 A 
ATOM     86  N   UNL     1       2.274   3.220   5.801  1.00  0.00    -0.240 N 
ATOM     87  C   UNL     1       1.491   2.268   5.199  1.00  0.00     0.119 A 
BRANCH  85  88
ATOM     88  C   UNL     1       0.522   1.905   2.852  1.00  0.00     0.068 C 
BRANCH  88  89
ATOM     89  C   UNL     1      -0.676   2.705   2.343  1.00  0.00     0.161 C 
BRANCH  89  90
ATOM     90  O   UNL     1      -0.312   3.598   1.300  1.00  0.00    -0.396 OA
ATOM     91  H   UNL     1       0.340   4.235   1.633  1.00  0.00     0.210 HD
ENDBRANCH  89  90
ENDBRANCH  88  89
ENDBRANCH  85  88
BRANCH  86  92
ATOM     92  C   UNL     1       2.585   3.357   7.177  1.00  0.00     0.065 A 
ATOM     93  C   UNL     1       2.942   4.628   7.658  1.00  0.00     0.035 A 
ATOM     94  C   UNL     1       2.532   2.262   8.048  1.00  0.00     0.035 A 
ATOM     95  C   UNL     1       3.223   4.814   9.011  1.00  0.00     0.088 A 
ATOM     96  C   UNL     1       2.853   2.438   9.399  1.00  0.00     0.088 A 
ATOM     97  C   UNL     1       3.187   3.714   9.876  1.00  0.00     0.269 A 
BRANCH  97  98
ATOM     98  N   UNL     1       3.508   3.906  11.294  1.00  0.00     0.062 N 
ATOM     99  O   UNL     1       3.617   5.071  11.706  1.00  0.00    -0.258 OA
ATOM    100  O   UNL     1       3.655   2.897  11.995  1.00  0.00    -0.258 OA
ENDBRANCH  97  98
ENDBRANCH  86  92
ENDBRANCH  81  83
ENDBRANCH  80  81
ENDBRANCH  79  80
ENDBRANCH  78  79
ENDBRANCH  77  78
ENDBRANCH  76  77
ENDBRANCH   1  76
TORSDOF 25
