REMARK SMILES COc1ccc(O[C@H]2CC[C@@]([NH2+]C(C)C)(C(=O)OCCOCCOCCOC(=O)c3ccc(-c4c5nc(c(-c6c(F)cc(S(=O)(=O)[O-])cc6F)c6ccc([nH]6)c(-c6c(F)cc(S(=O)(=O)[O-])cc6F)c6nc(c(-c7c(F)cc(S(=O)(=O)[O-])cc7F)c7ccc4[nH]7)C=C6)C=C5)cc3)C2)cc1
REMARK SMILES IDX 22 1 21 2 20 3 19 4 18 5 16 6 17 7 11 8 8 9 9 10 96 11 10 12
REMARK SMILES IDX 7 13 6 14 3 15 4 16 98 17 5 18 97 19 2 20 1 21 12 22 13 25
REMARK SMILES IDX 14 26 15 27 23 28 24 29 25 30 26 31 27 32 28 33 29 34 30 35
REMARK SMILES IDX 31 36 95 37 32 38 94 39 33 40 34 41 35 42 88 43 36 44 93 45
REMARK SMILES IDX 87 46 89 47 37 48 92 49 86 50 85 51 38 53 72 54 51 55 71 56
REMARK SMILES IDX 52 57 55 58 70 59 90 60 53 61 54 62 69 64 91 65 56 66 39 67
REMARK SMILES IDX 40 68 49 69 41 70 42 71 48 72 50 73 43 74 44 75 45 76 46 77
REMARK SMILES IDX 47 78 73 79 74 80 83 81 75 82 76 83 82 84 84 85 77 86 78 87
REMARK SMILES IDX 79 88 80 89 81 90 57 91 58 92 67 93 59 94 60 95 66 96 68 97
REMARK SMILES IDX 61 98 62 99 63 100 64 101 65 102
REMARK H PARENT 12 23 12 24 89 52 55 63
REMARK Flexibility Score: inf
ROOT
ATOM      1  C   UNL     1       5.876   7.442  -4.757  1.00  0.00     0.188 C 
ENDROOT
BRANCH   1   2
ATOM      2  O   UNL     1       6.258   8.583  -4.016  1.00  0.00    -0.376 OA
BRANCH   2   3
ATOM      3  C   UNL     1       7.460   8.568  -3.275  1.00  0.00     0.202 C 
BRANCH   3   4
ATOM      4  C   UNL     1       7.674   7.498  -2.203  1.00  0.00     0.261 C 
BRANCH   4   5
ATOM      5  O   UNL     1       7.170   6.192  -2.510  1.00  0.00    -0.459 OA
BRANCH   5   6
ATOM      6  C   UNL     1       5.862   6.012  -2.167  1.00  0.00     0.368 C 
ATOM      7  O   UNL     1       5.154   6.910  -1.713  1.00  0.00    -0.245 OA
BRANCH   6   8
ATOM      8  C   UNL     1       5.368   4.541  -2.325  1.00  0.00     0.198 C 
ATOM      9  C   UNL     1       3.958   3.872  -4.325  1.00  0.00     0.180 C 
ATOM     10  C   UNL     1       5.196   2.995  -4.274  1.00  0.00     0.052 C 
ATOM     11  C   UNL     1       3.919   4.517  -2.916  1.00  0.00     0.126 C 
ATOM     12  C   UNL     1       6.180   3.687  -3.328  1.00  0.00     0.085 C 
BRANCH   9  13
ATOM     13  O   UNL     1       4.085   4.894  -5.313  1.00  0.00    -0.490 OA
BRANCH  13  14
ATOM     14  C   UNL     1       3.718   4.698  -6.617  1.00  0.00     0.119 A 
ATOM     15  C   UNL     1       3.215   4.766  -9.416  1.00  0.00     0.119 A 
ATOM     16  C   UNL     1       3.108   3.576  -8.681  1.00  0.00     0.050 A 
ATOM     17  C   UNL     1       3.507   5.929  -8.734  1.00  0.00     0.050 A 
ATOM     18  C   UNL     1       3.355   3.537  -7.283  1.00  0.00     0.050 A 
ATOM     19  C   UNL     1       3.772   5.868  -7.370  1.00  0.00     0.050 A 
BRANCH  15  20
ATOM     20  O   UNL     1       3.030   4.699 -10.771  1.00  0.00    -0.497 OA
ATOM     21  C   UNL     1       3.511   5.824 -11.517  1.00  0.00     0.278 C 
ENDBRANCH  15  20
ENDBRANCH  13  14
ENDBRANCH   9  13
BRANCH   8  22
ATOM     22  N   UNL     1       5.495   3.852  -1.004  1.00  0.00    -0.330 N 
ATOM     23  H   UNL     1       6.431   3.449  -0.958  1.00  0.00     0.347 HD
ATOM     24  H   UNL     1       4.729   3.178  -0.987  1.00  0.00     0.347 HD
BRANCH  22  25
ATOM     25  C   UNL     1       5.305   4.667   0.208  1.00  0.00     0.176 C 
ATOM     26  C   UNL     1       3.833   4.936   0.503  1.00  0.00     0.075 C 
ATOM     27  C   UNL     1       5.975   3.940   1.374  1.00  0.00     0.075 C 
ENDBRANCH  22  25
ENDBRANCH   8  22
ENDBRANCH   6   8
ENDBRANCH   5   6
ENDBRANCH   4   5
ENDBRANCH   3   4
ENDBRANCH   2   3
ENDBRANCH   1   2
BRANCH   1  28
ATOM     28  C   UNL     1       6.824   6.668  -5.662  1.00  0.00     0.188 C 
BRANCH  28  29
ATOM     29  O   UNL     1       8.088   7.232  -5.897  1.00  0.00    -0.376 OA
BRANCH  29  30
ATOM     30  C   UNL     1       8.141   8.432  -6.660  1.00  0.00     0.202 C 
BRANCH  30  31
ATOM     31  C   UNL     1       6.965   8.878  -7.557  1.00  0.00     0.261 C 
BRANCH  31  32
ATOM     32  O   UNL     1       5.726   9.237  -6.887  1.00  0.00    -0.460 OA
BRANCH  32  33
ATOM     33  C   UNL     1       4.696   9.472  -7.753  1.00  0.00     0.338 C 
ATOM     34  O   UNL     1       4.872   9.592  -8.962  1.00  0.00    -0.246 OA
BRANCH  33  35
ATOM     35  C   UNL     1       3.281   9.367  -7.217  1.00  0.00     0.060 A 
ATOM     36  C   UNL     1       2.910   8.778  -6.010  1.00  0.00     0.016 A 
ATOM     37  C   UNL     1       2.253   9.606  -8.137  1.00  0.00     0.016 A 
ATOM     38  C   UNL     1       1.659   8.139  -5.889  1.00  0.00     0.010 A 
ATOM     39  C   UNL     1       0.940   9.149  -7.915  1.00  0.00     0.010 A 
ATOM     40  C   UNL     1       0.629   8.334  -6.819  1.00  0.00    -0.014 A 
BRANCH  40  41
ATOM     41  C   UNL     1      -0.757   7.768  -6.647  1.00  0.00     0.031 A 
ATOM     42  C   UNL     1      -1.509   7.150  -7.816  1.00  0.00     0.074 A 
ATOM     43  C   UNL     1      -1.402   7.847  -5.459  1.00  0.00     0.049 A 
ATOM     44  N   UNL     1      -2.799   6.982  -7.981  1.00  0.00    -0.248 NA
ATOM     45  C   UNL     1      -0.703   6.654  -8.945  1.00  0.00     0.031 C 
ATOM     46  C   UNL     1      -0.824   8.304  -4.194  1.00  0.00     0.029 A 
ATOM     47  N   UNL     1      -2.713   7.571  -5.127  1.00  0.00    -0.354 N 
ATOM     48  C   UNL     1      -2.967   6.431  -9.252  1.00  0.00     0.074 A 
ATOM     49  C   UNL     1      -1.639   6.265  -9.806  1.00  0.00     0.031 C 
ATOM     50  C   UNL     1      -1.750   8.257  -3.231  1.00  0.00     0.029 A 
ATOM     51  C   UNL     1      -3.031   7.937  -3.838  1.00  0.00     0.049 A 
ATOM     52  H   UNL     1      -3.354   7.155  -5.748  1.00  0.00     0.167 HD
ATOM     53  C   UNL     1      -4.121   6.115  -9.896  1.00  0.00     0.037 A 
ATOM     54  C   UNL     1      -4.213   8.125  -3.219  1.00  0.00     0.037 A 
ATOM     55  C   UNL     1      -5.437   6.239  -9.306  1.00  0.00     0.049 A 
ATOM     56  C   UNL     1      -5.483   7.907  -3.982  1.00  0.00     0.074 A 
ATOM     57  C   UNL     1      -6.667   5.945  -9.873  1.00  0.00     0.029 A 
ATOM     58  N   UNL     1      -5.696   6.686  -8.019  1.00  0.00    -0.354 N 
ATOM     59  N   UNL     1      -5.639   7.502  -5.218  1.00  0.00    -0.248 NA
ATOM     60  C   UNL     1      -6.737   8.198  -3.275  1.00  0.00     0.031 C 
ATOM     61  C   UNL     1      -7.669   6.274  -8.954  1.00  0.00     0.029 A 
ATOM     62  C   UNL     1      -7.064   6.708  -7.787  1.00  0.00     0.049 A 
ATOM     63  H   UNL     1      -5.009   6.949  -7.364  1.00  0.00     0.167 HD
ATOM     64  C   UNL     1      -7.011   7.467  -5.431  1.00  0.00     0.074 A 
ATOM     65  C   UNL     1      -7.639   7.881  -4.193  1.00  0.00     0.031 C 
ATOM     66  C   UNL     1      -7.686   7.121  -6.554  1.00  0.00     0.037 A 
BRANCH  53  67
ATOM     67  C   UNL     1      -4.056   5.666 -11.338  1.00  0.00     0.058 A 
ATOM     68  C   UNL     1      -3.619   4.389 -11.719  1.00  0.00     0.135 A 
ATOM     69  C   UNL     1      -4.554   6.507 -12.351  1.00  0.00     0.135 A 
ATOM     70  F   UNL     1      -3.131   3.540 -10.801  1.00  0.00    -0.206 F 
ATOM     71  C   UNL     1      -3.665   3.967 -13.049  1.00  0.00     0.059 A 
ATOM     72  C   UNL     1      -4.635   6.098 -13.680  1.00  0.00     0.059 A 
ATOM     73  F   UNL     1      -4.998   7.738 -12.048  1.00  0.00    -0.206 F 
ATOM     74  C   UNL     1      -4.180   4.827 -14.023  1.00  0.00     0.060 A 
BRANCH  74  75
ATOM     75  S   UNL     1      -4.259   4.259 -15.737  1.00  0.00     0.124 S 
ATOM     76  O   UNL     1      -2.847   4.242 -16.106  1.00  0.00    -0.237 OA
ATOM     77  O   UNL     1      -4.895   2.952 -15.605  1.00  0.00    -0.237 OA
ATOM     78  O   UNL     1      -5.065   5.280 -16.400  1.00  0.00    -0.744 OA
ENDBRANCH  74  75
ENDBRANCH  53  67
BRANCH  54  79
ATOM     79  C   UNL     1      -4.235   8.654  -1.826  1.00  0.00     0.058 A 
ATOM     80  C   UNL     1      -4.678   7.865  -0.757  1.00  0.00     0.135 A 
ATOM     81  C   UNL     1      -3.769   9.949  -1.533  1.00  0.00     0.135 A 
ATOM     82  F   UNL     1      -5.149   6.629  -0.985  1.00  0.00    -0.206 F 
ATOM     83  C   UNL     1      -4.656   8.336   0.552  1.00  0.00     0.059 A 
ATOM     84  C   UNL     1      -3.700  10.427  -0.230  1.00  0.00     0.059 A 
ATOM     85  F   UNL     1      -3.326  10.745  -2.519  1.00  0.00    -0.206 F 
ATOM     86  C   UNL     1      -4.154   9.614   0.806  1.00  0.00     0.060 A 
BRANCH  86  87
ATOM     87  S   UNL     1      -4.058  10.190   2.514  1.00  0.00     0.124 S 
ATOM     88  O   UNL     1      -5.465  10.451   2.813  1.00  0.00    -0.237 OA
ATOM     89  O   UNL     1      -3.470   9.034   3.193  1.00  0.00    -0.237 OA
ATOM     90  O   UNL     1      -3.202  11.360   2.430  1.00  0.00    -0.744 OA
ENDBRANCH  86  87
ENDBRANCH  54  79
BRANCH  66  91
ATOM     91  C   UNL     1      -9.188   7.125  -6.476  1.00  0.00     0.058 A 
ATOM     92  C   UNL     1      -9.924   8.318  -6.413  1.00  0.00     0.135 A 
ATOM     93  C   UNL     1      -9.899   5.914  -6.470  1.00  0.00     0.135 A 
ATOM     94  F   UNL     1      -9.293   9.502  -6.401  1.00  0.00    -0.206 F 
ATOM     95  C   UNL     1     -11.312   8.310  -6.314  1.00  0.00     0.059 A 
ATOM     96  C   UNL     1     -11.288   5.883  -6.402  1.00  0.00     0.059 A 
ATOM     97  F   UNL     1      -9.244   4.744  -6.533  1.00  0.00    -0.206 F 
ATOM     98  C   UNL     1     -11.985   7.086  -6.309  1.00  0.00     0.060 A 
BRANCH  98  99
ATOM     99  S   UNL     1     -13.786   7.090  -6.193  1.00  0.00     0.124 S 
ATOM    100  O   UNL     1     -13.991   7.472  -4.800  1.00  0.00    -0.237 OA
ATOM    101  O   UNL     1     -14.161   8.092  -7.187  1.00  0.00    -0.237 OA
ATOM    102  O   UNL     1     -14.152   5.717  -6.527  1.00  0.00    -0.744 OA
ENDBRANCH  98  99
ENDBRANCH  66  91
ENDBRANCH  40  41
ENDBRANCH  33  35
ENDBRANCH  32  33
ENDBRANCH  31  32
ENDBRANCH  30  31
ENDBRANCH  29  30
ENDBRANCH  28  29
ENDBRANCH   1  28
TORSDOF 25
