REMARK SMILES C[N@@H+]1CCN(C(=O)c2cc(-n3cccn3)ccc2Cl)C[C@H]1C(=O)OCCOCCOCCOC(=O)c1ccc(-c2c3nc(c(-c4c(F)cc(S(=O)(=O)[O-])cc4F)c4ccc([nH]4)c(-c4c(F)cc(S(=O)(=O)[O-])cc4F)c4nc(c(-c5c(F)cc(S(=O)(=O)[O-])cc5F)c5ccc2[nH]5)C=C4)C=C3)cc1
REMARK SMILES IDX 28 1 27 2 26 3 25 4 24 5 22 6 23 7 21 8 1 9 2 10 3 11 4 13
REMARK SMILES IDX 20 14 5 15 6 16 7 17 8 18 9 19 18 20 10 21 17 22 19 23 16 24
REMARK SMILES IDX 11 25 12 26 15 27 13 28 14 29 29 30 30 31 31 32 32 33 33 34
REMARK SMILES IDX 34 35 35 36 36 37 37 38 101 39 38 40 100 41 39 42 40 43
REMARK SMILES IDX 41 44 94 45 42 46 99 47 93 48 95 49 43 50 98 51 92 52 91 53
REMARK SMILES IDX 44 55 78 56 57 57 77 58 58 59 61 60 76 61 96 62 59 63 60 64
REMARK SMILES IDX 75 66 97 67 62 68 45 69 46 70 55 71 47 72 48 73 54 74 56 75
REMARK SMILES IDX 49 76 50 77 51 78 52 79 53 80 79 81 80 82 89 83 81 84 82 85
REMARK SMILES IDX 88 86 90 87 83 88 84 89 85 90 86 91 87 92 63 93 64 94 73 95
REMARK SMILES IDX 65 96 66 97 72 98 74 99 67 100 68 101 69 102 70 103 71 104
REMARK H PARENT 2 12 95 54 61 65
REMARK Flexibility Score: inf
ROOT
ATOM      1  C   UNL     1       2.963  -3.655   0.428  1.00  0.00     0.188 C 
ENDROOT
BRANCH   1   2
ATOM      2  O   UNL     1       2.453  -4.891  -0.064  1.00  0.00    -0.376 OA
BRANCH   2   3
ATOM      3  C   UNL     1       2.183  -4.961  -1.459  1.00  0.00     0.202 C 
BRANCH   3   4
ATOM      4  C   UNL     1       1.005  -4.133  -2.022  1.00  0.00     0.261 C 
BRANCH   4   5
ATOM      5  O   UNL     1       0.852  -2.760  -1.591  1.00  0.00    -0.459 OA
BRANCH   5   6
ATOM      6  C   UNL     1       0.064  -2.595  -0.506  1.00  0.00     0.366 C 
ATOM      7  O   UNL     1      -0.422  -3.542   0.120  1.00  0.00    -0.245 OA
BRANCH   6   8
ATOM      8  C   UNL     1      -0.314  -1.171  -0.120  1.00  0.00     0.314 C 
ATOM      9  C   UNL     1       1.831   0.041  -0.303  1.00  0.00     0.333 C 
ATOM     10  N   UNL     1       0.413   0.030  -0.657  1.00  0.00    -0.323 N 
ATOM     11  C   UNL     1      -0.211   1.250  -0.047  1.00  0.00     0.284 C 
ATOM     12  H   UNL     1       0.341   0.007  -1.674  1.00  0.00     0.348 HD
ATOM     13  C   UNL     1      -1.736   1.360  -0.273  1.00  0.00     0.181 C 
ATOM     14  C   UNL     1      -1.791  -1.069  -0.544  1.00  0.00     0.197 C 
ATOM     15  N   UNL     1      -2.409   0.108   0.058  1.00  0.00    -0.326 N 
BRANCH  15  16
ATOM     16  C   UNL     1      -3.475   0.082   0.940  1.00  0.00     0.255 C 
ATOM     17  O   UNL     1      -4.015   1.080   1.408  1.00  0.00    -0.269 OA
BRANCH  16  18
ATOM     18  C   UNL     1      -4.024  -1.231   1.321  1.00  0.00     0.060 A 
ATOM     19  C   UNL     1      -5.185  -1.663   0.666  1.00  0.00     0.043 A 
ATOM     20  C   UNL     1      -3.438  -2.013   2.323  1.00  0.00     0.053 A 
ATOM     21  C   UNL     1      -5.789  -2.864   1.057  1.00  0.00     0.065 A 
ATOM     22  C   UNL     1      -4.009  -3.243   2.659  1.00  0.00     0.023 A 
ATOM     23  Cl  UNL     1      -2.029  -1.517   3.185  1.00  0.00    -0.083 Cl
ATOM     24  C   UNL     1      -5.194  -3.661   2.045  1.00  0.00     0.030 A 
BRANCH  21  25
ATOM     25  N   UNL     1      -7.021  -3.245   0.471  1.00  0.00    -0.241 N 
ATOM     26  C   UNL     1      -7.990  -4.056   1.023  1.00  0.00     0.115 A 
ATOM     27  N   UNL     1      -7.398  -2.782  -0.747  1.00  0.00    -0.177 NA
ATOM     28  C   UNL     1      -9.014  -4.136   0.111  1.00  0.00     0.042 A 
ATOM     29  C   UNL     1      -8.577  -3.362  -0.974  1.00  0.00     0.135 A 
ENDBRANCH  21  25
ENDBRANCH  16  18
ENDBRANCH  15  16
ENDBRANCH   6   8
ENDBRANCH   5   6
ENDBRANCH   4   5
ENDBRANCH   3   4
ENDBRANCH   2   3
ENDBRANCH   1   2
BRANCH   1  30
ATOM     30  C   UNL     1       3.982  -2.915  -0.452  1.00  0.00     0.188 C 
BRANCH  30  31
ATOM     31  O   UNL     1       3.501  -2.687  -1.769  1.00  0.00    -0.376 OA
BRANCH  31  32
ATOM     32  C   UNL     1       4.185  -1.847  -2.689  1.00  0.00     0.202 C 
BRANCH  32  33
ATOM     33  C   UNL     1       5.704  -1.911  -2.721  1.00  0.00     0.261 C 
BRANCH  33  34
ATOM     34  O   UNL     1       6.335  -1.514  -1.509  1.00  0.00    -0.460 OA
BRANCH  34  35
ATOM     35  C   UNL     1       5.863  -0.478  -0.787  1.00  0.00     0.338 C 
ATOM     36  O   UNL     1       5.113   0.417  -1.133  1.00  0.00    -0.246 OA
BRANCH  35  37
ATOM     37  C   UNL     1       6.384  -0.689   0.571  1.00  0.00     0.060 A 
ATOM     38  C   UNL     1       6.520   0.415   1.405  1.00  0.00     0.016 A 
ATOM     39  C   UNL     1       6.881  -1.962   0.925  1.00  0.00     0.016 A 
ATOM     40  C   UNL     1       7.420   0.312   2.442  1.00  0.00     0.010 A 
ATOM     41  C   UNL     1       7.754  -2.074   1.965  1.00  0.00     0.010 A 
ATOM     42  C   UNL     1       8.113  -0.894   2.597  1.00  0.00    -0.014 A 
BRANCH  42  43
ATOM     43  C   UNL     1       9.437  -0.833   3.166  1.00  0.00     0.031 A 
ATOM     44  C   UNL     1       9.526  -1.087   4.609  1.00  0.00     0.074 A 
ATOM     45  C   UNL     1      10.495  -0.701   2.341  1.00  0.00     0.049 A 
ATOM     46  N   UNL     1       9.837  -0.249   5.538  1.00  0.00    -0.248 NA
ATOM     47  C   UNL     1       9.077  -2.399   5.096  1.00  0.00     0.031 C 
ATOM     48  C   UNL     1      10.532  -0.829   0.876  1.00  0.00     0.029 A 
ATOM     49  N   UNL     1      11.799  -0.542   2.663  1.00  0.00    -0.354 N 
ATOM     50  C   UNL     1       9.827  -0.987   6.715  1.00  0.00     0.074 A 
ATOM     51  C   UNL     1       9.162  -2.227   6.414  1.00  0.00     0.031 C 
ATOM     52  C   UNL     1      11.815  -0.969   0.477  1.00  0.00     0.029 A 
ATOM     53  C   UNL     1      12.681  -0.822   1.633  1.00  0.00     0.049 A 
ATOM     54  H   UNL     1      12.096  -0.251   3.555  1.00  0.00     0.167 HD
ATOM     55  C   UNL     1      10.575  -0.623   7.790  1.00  0.00     0.037 A 
ATOM     56  C   UNL     1      14.010  -1.042   1.781  1.00  0.00     0.037 A 
ATOM     57  C   UNL     1      11.044   0.734   7.673  1.00  0.00     0.049 A 
ATOM     58  C   UNL     1      14.400  -0.471   3.104  1.00  0.00     0.074 A 
ATOM     59  C   UNL     1      10.417   1.959   7.546  1.00  0.00     0.029 A 
ATOM     60  N   UNL     1      12.349   0.941   7.288  1.00  0.00    -0.354 N 
ATOM     61  N   UNL     1      14.363   0.805   3.393  1.00  0.00    -0.248 NA
ATOM     62  C   UNL     1      14.379  -1.361   4.258  1.00  0.00     0.031 C 
ATOM     63  C   UNL     1      11.239   2.709   6.656  1.00  0.00     0.029 A 
ATOM     64  C   UNL     1      12.339   1.918   6.322  1.00  0.00     0.049 A 
ATOM     65  H   UNL     1      13.142   0.475   7.640  1.00  0.00     0.167 HD
ATOM     66  C   UNL     1      13.923   0.872   4.711  1.00  0.00     0.074 A 
ATOM     67  C   UNL     1      14.029  -0.495   5.213  1.00  0.00     0.031 C 
ATOM     68  C   UNL     1      13.245   1.959   5.190  1.00  0.00     0.037 A 
BRANCH  55  69
ATOM     69  C   UNL     1      11.138  -1.601   8.786  1.00  0.00     0.058 A 
ATOM     70  C   UNL     1      11.673  -1.124   9.996  1.00  0.00     0.135 A 
ATOM     71  C   UNL     1      11.399  -2.960   8.494  1.00  0.00     0.135 A 
ATOM     72  F   UNL     1      11.496   0.155  10.364  1.00  0.00    -0.206 F 
ATOM     73  C   UNL     1      12.464  -1.919  10.824  1.00  0.00     0.059 A 
ATOM     74  C   UNL     1      12.127  -3.788   9.336  1.00  0.00     0.059 A 
ATOM     75  F   UNL     1      11.051  -3.523   7.330  1.00  0.00    -0.206 F 
ATOM     76  C   UNL     1      12.699  -3.246  10.473  1.00  0.00     0.060 A 
BRANCH  76  77
ATOM     77  S   UNL     1      13.833  -4.237  11.458  1.00  0.00     0.124 S 
ATOM     78  O   UNL     1      15.117  -3.655  11.086  1.00  0.00    -0.237 OA
ATOM     79  O   UNL     1      13.376  -3.967  12.817  1.00  0.00    -0.237 OA
ATOM     80  O   UNL     1      13.591  -5.596  10.980  1.00  0.00    -0.744 OA
ENDBRANCH  76  77
ENDBRANCH  55  69
BRANCH  56  81
ATOM     81  C   UNL     1      14.806  -2.069   1.054  1.00  0.00     0.058 A 
ATOM     82  C   UNL     1      16.209  -2.062   1.086  1.00  0.00     0.135 A 
ATOM     83  C   UNL     1      14.206  -3.224   0.503  1.00  0.00     0.135 A 
ATOM     84  F   UNL     1      16.864  -1.022   1.625  1.00  0.00    -0.206 F 
ATOM     85  C   UNL     1      16.971  -3.142   0.623  1.00  0.00     0.059 A 
ATOM     86  C   UNL     1      14.942  -4.301   0.018  1.00  0.00     0.059 A 
ATOM     87  F   UNL     1      12.875  -3.385   0.498  1.00  0.00    -0.206 F 
ATOM     88  C   UNL     1      16.326  -4.264   0.100  1.00  0.00     0.060 A 
BRANCH  88  89
ATOM     89  S   UNL     1      17.292  -5.718  -0.367  1.00  0.00     0.124 S 
ATOM     90  O   UNL     1      18.024  -5.232  -1.532  1.00  0.00    -0.237 OA
ATOM     91  O   UNL     1      18.087  -5.957   0.833  1.00  0.00    -0.237 OA
ATOM     92  O   UNL     1      16.274  -6.727  -0.647  1.00  0.00    -0.744 OA
ENDBRANCH  88  89
ENDBRANCH  56  81
BRANCH  68  93
ATOM     93  C   UNL     1      13.203   3.214   4.351  1.00  0.00     0.058 A 
ATOM     94  C   UNL     1      12.571   3.294   3.097  1.00  0.00     0.135 A 
ATOM     95  C   UNL     1      13.641   4.420   4.920  1.00  0.00     0.135 A 
ATOM     96  F   UNL     1      12.023   2.210   2.533  1.00  0.00    -0.206 F 
ATOM     97  C   UNL     1      12.413   4.508   2.426  1.00  0.00     0.059 A 
ATOM     98  C   UNL     1      13.465   5.648   4.283  1.00  0.00     0.059 A 
ATOM     99  F   UNL     1      14.192   4.424   6.146  1.00  0.00    -0.206 F 
ATOM    100  C   UNL     1      12.857   5.683   3.030  1.00  0.00     0.060 A 
BRANCH 100 101
ATOM    101  S   UNL     1      12.544   7.262   2.210  1.00  0.00     0.124 S 
ATOM    102  O   UNL     1      13.513   7.238   1.120  1.00  0.00    -0.237 OA
ATOM    103  O   UNL     1      11.143   7.144   1.815  1.00  0.00    -0.237 OA
ATOM    104  O   UNL     1      12.805   8.247   3.256  1.00  0.00    -0.744 OA
ENDBRANCH 100 101
ENDBRANCH  68  93
ENDBRANCH  42  43
ENDBRANCH  35  37
ENDBRANCH  34  35
ENDBRANCH  33  34
ENDBRANCH  32  33
ENDBRANCH  31  32
ENDBRANCH  30  31
ENDBRANCH   1  30
TORSDOF 23
