REMARK SMILES Cc1cc(/C=C2/C(=O)NC(=S)N=C2OCCOCCOCCOC(=O)c2ccc(-c3c4nc(c(-c5c(F)cc(S(=O)(=O)[O-])cc5F)c5ccc([nH]5)c(-c5c(F)cc(S(=O)(=O)[O-])cc5F)c5nc(c(-c6c(F)cc(S(=O)(=O)[O-])cc6F)c6ccc3[nH]6)C=C5)C=C4)cc2)c(C)n1-c1cccc(C(=O)[O-])c1
REMARK SMILES IDX 19 1 18 2 17 3 16 4 15 5 14 6 13 7 5 8 6 9 7 10 8 11 9 12
REMARK SMILES IDX 12 13 10 14 11 16 4 17 1 18 2 19 3 20 94 21 92 22 93 23
REMARK SMILES IDX 95 24 96 25 103 26 97 27 99 28 98 29 100 30 101 31 102 32
REMARK SMILES IDX 20 33 21 34 22 35 23 36 24 37 25 38 26 39 27 40 91 41 28 42
REMARK SMILES IDX 90 43 29 44 30 45 31 46 84 47 32 48 89 49 83 50 85 51 33 52
REMARK SMILES IDX 88 53 82 54 81 55 34 57 68 58 47 59 67 60 48 61 51 62 66 63
REMARK SMILES IDX 86 64 49 65 50 66 65 68 87 69 52 70 35 71 36 72 45 73 37 74
REMARK SMILES IDX 38 75 44 76 46 77 39 78 40 79 41 80 42 81 43 82 69 83 70 84
REMARK SMILES IDX 79 85 71 86 72 87 78 88 80 89 73 90 74 91 75 92 76 93 77 94
REMARK SMILES IDX 53 95 54 96 63 97 55 98 56 99 62 100 64 101 57 102 58 103
REMARK SMILES IDX 59 104 60 105 61 106
REMARK H PARENT 9 15 85 56 51 67
REMARK Flexibility Score: inf
ROOT
ATOM      1  C   UNL     1       2.454   5.824  -4.795  1.00  0.00     0.188 C 
ENDROOT
BRANCH   1   2
ATOM      2  C   UNL     1       1.335   6.561  -4.061  1.00  0.00     0.188 C 
BRANCH   2   3
ATOM      3  O   UNL     1       1.670   7.648  -3.207  1.00  0.00    -0.376 OA
BRANCH   3   4
ATOM      4  C   UNL     1       1.606   7.381  -1.799  1.00  0.00     0.201 C 
BRANCH   4   5
ATOM      5  C   UNL     1       0.193   7.305  -1.151  1.00  0.00     0.260 C 
BRANCH   5   6
ATOM      6  O   UNL     1      -0.542   6.066  -1.412  1.00  0.00    -0.475 OA
BRANCH   6   7
ATOM      7  C   UNL     1      -1.293   6.017  -2.527  1.00  0.00     0.229 C 
ATOM      8  C   UNL     1      -1.144   3.385  -2.800  1.00  0.00     0.029 C 
ATOM      9  C   UNL     1      -1.474   4.661  -3.128  1.00  0.00     0.103 C 
ATOM     10  C   UNL     1      -2.122   4.744  -4.491  1.00  0.00     0.262 C 
ATOM     11  O   UNL     1      -2.439   3.771  -5.171  1.00  0.00    -0.269 OA
ATOM     12  N   UNL     1      -2.346   6.002  -4.972  1.00  0.00    -0.297 N 
ATOM     13  N   UNL     1      -1.675   7.133  -3.042  1.00  0.00    -0.184 NA
ATOM     14  C   UNL     1      -2.179   7.176  -4.299  1.00  0.00     0.203 C 
ATOM     15  H   UNL     1      -2.663   6.069  -5.902  1.00  0.00     0.172 HD
ATOM     16  S   UNL     1      -2.539   8.605  -5.094  1.00  0.00    -0.038 S 
BRANCH   8  17
ATOM     17  C   UNL     1      -0.479   2.668  -1.739  1.00  0.00    -0.003 A 
ATOM     18  C   UNL     1       0.671  -0.551  -0.165  1.00  0.00     0.065 C 
ATOM     19  C   UNL     1       0.316   0.823  -0.607  1.00  0.00     0.020 A 
ATOM     20  C   UNL     1      -0.548   1.239  -1.610  1.00  0.00     0.031 A 
ATOM     21  N   UNL     1       0.795   1.968  -0.011  1.00  0.00    -0.318 N 
ATOM     22  C   UNL     1       0.500   3.042  -0.843  1.00  0.00     0.027 A 
ATOM     23  C   UNL     1       1.334   4.255  -0.754  1.00  0.00     0.065 C 
BRANCH  21  24
ATOM     24  C   UNL     1       1.639   2.104   1.123  1.00  0.00     0.046 A 
ATOM     25  C   UNL     1       1.242   3.024   2.109  1.00  0.00     0.026 A 
ATOM     26  C   UNL     1       2.962   1.657   1.051  1.00  0.00     0.036 A 
ATOM     27  C   UNL     1       2.178   3.534   3.004  1.00  0.00     0.003 A 
ATOM     28  C   UNL     1       3.906   2.195   1.941  1.00  0.00    -0.001 A 
ATOM     29  C   UNL     1       3.509   3.135   2.907  1.00  0.00     0.010 A 
BRANCH  28  30
ATOM     30  C   UNL     1       5.343   1.882   1.829  1.00  0.00     0.072 C 
ATOM     31  O   UNL     1       6.242   2.382   2.524  1.00  0.00    -0.545 OA
ATOM     32  O   UNL     1       5.628   0.994   0.875  1.00  0.00    -0.545 OA
ENDBRANCH  28  30
ENDBRANCH  21  24
ENDBRANCH   8  17
ENDBRANCH   6   7
ENDBRANCH   5   6
ENDBRANCH   4   5
ENDBRANCH   3   4
ENDBRANCH   2   3
ENDBRANCH   1   2
BRANCH   1  33
ATOM     33  O   UNL     1       3.547   5.448  -3.976  1.00  0.00    -0.376 OA
BRANCH  33  34
ATOM     34  C   UNL     1       4.518   6.485  -3.760  1.00  0.00     0.202 C 
BRANCH  34  35
ATOM     35  C   UNL     1       5.212   7.075  -5.027  1.00  0.00     0.261 C 
BRANCH  35  36
ATOM     36  O   UNL     1       4.949   8.489  -5.386  1.00  0.00    -0.460 OA
BRANCH  36  37
ATOM     37  C   UNL     1       4.606   8.753  -6.699  1.00  0.00     0.338 C 
ATOM     38  O   UNL     1       4.130   7.897  -7.433  1.00  0.00    -0.246 OA
BRANCH  37  39
ATOM     39  C   UNL     1       4.811  10.200  -7.205  1.00  0.00     0.060 A 
ATOM     40  C   UNL     1       3.707  11.000  -7.487  1.00  0.00     0.016 A 
ATOM     41  C   UNL     1       6.028  10.711  -7.712  1.00  0.00     0.016 A 
ATOM     42  C   UNL     1       3.834  12.264  -8.187  1.00  0.00     0.010 A 
ATOM     43  C   UNL     1       6.144  11.978  -8.478  1.00  0.00     0.010 A 
ATOM     44  C   UNL     1       5.046  12.820  -8.752  1.00  0.00    -0.014 A 
BRANCH  44  45
ATOM     45  C   UNL     1       4.873  13.960  -9.946  1.00  0.00     0.031 A 
ATOM     46  C   UNL     1       3.760  13.385 -10.757  1.00  0.00     0.074 A 
ATOM     47  C   UNL     1       5.396  15.142 -10.519  1.00  0.00     0.049 A 
ATOM     48  N   UNL     1       3.832  12.167 -11.223  1.00  0.00    -0.248 NA
ATOM     49  C   UNL     1       2.417  13.966 -10.774  1.00  0.00     0.031 C 
ATOM     50  C   UNL     1       6.618  15.880 -10.142  1.00  0.00     0.029 A 
ATOM     51  N   UNL     1       4.957  16.002 -11.609  1.00  0.00    -0.354 N 
ATOM     52  C   UNL     1       2.670  11.976 -11.921  1.00  0.00     0.074 A 
ATOM     53  C   UNL     1       1.758  12.977 -11.386  1.00  0.00     0.031 C 
ATOM     54  C   UNL     1       6.749  17.064 -10.821  1.00  0.00     0.029 A 
ATOM     55  C   UNL     1       5.673  17.262 -11.797  1.00  0.00     0.049 A 
ATOM     56  H   UNL     1       4.209  15.745 -12.195  1.00  0.00     0.167 HD
ATOM     57  C   UNL     1       2.814  11.580 -13.218  1.00  0.00     0.037 A 
ATOM     58  C   UNL     1       5.502  18.333 -12.700  1.00  0.00     0.037 A 
ATOM     59  C   UNL     1       2.525  12.627 -14.159  1.00  0.00     0.049 A 
ATOM     60  C   UNL     1       4.864  17.758 -13.894  1.00  0.00     0.074 A 
ATOM     61  C   UNL     1       1.545  13.594 -14.242  1.00  0.00     0.029 A 
ATOM     62  N   UNL     1       3.564  13.043 -14.965  1.00  0.00    -0.354 N 
ATOM     63  N   UNL     1       5.546  17.059 -14.746  1.00  0.00    -0.248 NA
ATOM     64  C   UNL     1       3.502  18.089 -14.305  1.00  0.00     0.031 C 
ATOM     65  C   UNL     1       2.210  14.753 -14.694  1.00  0.00     0.029 A 
ATOM     66  C   UNL     1       3.471  14.402 -15.159  1.00  0.00     0.049 A 
ATOM     67  H   UNL     1       4.261  12.460 -15.343  1.00  0.00     0.167 HD
ATOM     68  C   UNL     1       4.596  16.467 -15.512  1.00  0.00     0.074 A 
ATOM     69  C   UNL     1       3.430  17.324 -15.398  1.00  0.00     0.031 C 
ATOM     70  C   UNL     1       4.661  15.115 -15.561  1.00  0.00     0.037 A 
BRANCH  57  71
ATOM     71  C   UNL     1       3.865  10.531 -13.442  1.00  0.00     0.058 A 
ATOM     72  C   UNL     1       3.466   9.219 -13.708  1.00  0.00     0.135 A 
ATOM     73  C   UNL     1       5.249  10.781 -13.315  1.00  0.00     0.135 A 
ATOM     74  F   UNL     1       2.165   8.931 -13.876  1.00  0.00    -0.206 F 
ATOM     75  C   UNL     1       4.393   8.186 -13.796  1.00  0.00     0.059 A 
ATOM     76  C   UNL     1       6.191   9.759 -13.362  1.00  0.00     0.059 A 
ATOM     77  F   UNL     1       5.697  12.037 -13.149  1.00  0.00    -0.206 F 
ATOM     78  C   UNL     1       5.749   8.460 -13.596  1.00  0.00     0.060 A 
BRANCH  78  79
ATOM     79  S   UNL     1       6.909   7.077 -13.595  1.00  0.00     0.124 S 
ATOM     80  O   UNL     1       6.226   6.103 -12.746  1.00  0.00    -0.237 OA
ATOM     81  O   UNL     1       6.963   6.735 -15.012  1.00  0.00    -0.237 OA
ATOM     82  O   UNL     1       8.124   7.642 -13.020  1.00  0.00    -0.744 OA
ENDBRANCH  78  79
ENDBRANCH  57  71
BRANCH  58  83
ATOM     83  C   UNL     1       5.895  19.837 -13.071  1.00  0.00     0.058 A 
ATOM     84  C   UNL     1       5.897  20.301 -14.444  1.00  0.00     0.135 A 
ATOM     85  C   UNL     1       5.858  20.906 -12.160  1.00  0.00     0.135 A 
ATOM     86  F   UNL     1       5.996  19.447 -15.472  1.00  0.00    -0.206 F 
ATOM     87  C   UNL     1       5.720  21.639 -14.858  1.00  0.00     0.059 A 
ATOM     88  C   UNL     1       5.721  22.277 -12.559  1.00  0.00     0.059 A 
ATOM     89  F   UNL     1       5.871  20.656 -10.843  1.00  0.00    -0.206 F 
ATOM     90  C   UNL     1       5.593  22.629 -13.906  1.00  0.00     0.060 A 
BRANCH  90  91
ATOM     91  S   UNL     1       5.133  24.310 -14.455  1.00  0.00     0.124 S 
ATOM     92  O   UNL     1       6.289  24.723 -15.243  1.00  0.00    -0.237 OA
ATOM     93  O   UNL     1       3.910  24.067 -15.217  1.00  0.00    -0.237 OA
ATOM     94  O   UNL     1       4.940  25.036 -13.203  1.00  0.00    -0.744 OA
ENDBRANCH  90  91
ENDBRANCH  58  83
BRANCH  70  95
ATOM     95  C   UNL     1       6.034  14.497 -15.803  1.00  0.00     0.058 A 
ATOM     96  C   UNL     1       7.246  14.806 -15.137  1.00  0.00     0.135 A 
ATOM     97  C   UNL     1       6.137  13.570 -16.854  1.00  0.00     0.135 A 
ATOM     98  F   UNL     1       7.285  15.568 -14.034  1.00  0.00    -0.206 F 
ATOM     99  C   UNL     1       8.482  14.314 -15.565  1.00  0.00     0.059 A 
ATOM    100  C   UNL     1       7.353  13.018 -17.257  1.00  0.00     0.059 A 
ATOM    101  F   UNL     1       5.031  13.184 -17.511  1.00  0.00    -0.206 F 
ATOM    102  C   UNL     1       8.528  13.431 -16.637  1.00  0.00     0.060 A 
BRANCH 102 103
ATOM    103  S   UNL     1      10.131  12.819 -17.200  1.00  0.00     0.124 S 
ATOM    104  O   UNL     1      10.668  13.985 -17.896  1.00  0.00    -0.237 OA
ATOM    105  O   UNL     1      10.801  12.473 -15.950  1.00  0.00    -0.237 OA
ATOM    106  O   UNL     1       9.779  11.695 -18.061  1.00  0.00    -0.744 OA
ENDBRANCH 102 103
ENDBRANCH  70  95
ENDBRANCH  44  45
ENDBRANCH  37  39
ENDBRANCH  36  37
ENDBRANCH  35  36
ENDBRANCH  34  35
ENDBRANCH  33  34
ENDBRANCH   1  33
TORSDOF 22
