REMARK SMILES [NH3+][C@@]1(C(=O)OCCOCCOCCOC(=O)c2ccc(-c3c4nc(c(-c5c(F)cc(S(=O)(=O)[O-])cc5F)c5ccc([nH]5)c(-c5c(F)cc(S(=O)(=O)[O-])cc5F)c5nc(c(-c6c(F)cc(S(=O)(=O)[O-])cc6F)c6ccc3[nH]6)C=C5)C=C4)cc2)CCC[C@H]1CCOC1CCCCCC1
REMARK SMILES IDX 7 1 6 2 5 3 3 4 4 5 2 6 83 7 86 8 84 9 85 10 1 11 87 15
REMARK SMILES IDX 88 16 89 17 90 18 91 19 92 20 96 22 95 23 94 24 93 25 8 27
REMARK SMILES IDX 9 28 10 29 11 30 12 31 13 32 14 33 15 34 16 35 17 36 18 37
REMARK SMILES IDX 82 38 19 39 81 40 20 41 21 42 22 43 75 44 23 45 80 46 74 47
REMARK SMILES IDX 76 48 24 49 79 50 73 51 72 52 25 54 59 55 38 56 58 57 39 58
REMARK SMILES IDX 42 59 57 60 77 61 40 62 41 63 56 65 78 66 43 67 26 68 27 69
REMARK SMILES IDX 36 70 28 71 29 72 35 73 37 74 30 75 31 76 32 77 33 78 34 79
REMARK SMILES IDX 60 80 61 81 70 82 62 83 63 84 69 85 71 86 64 87 65 88 66 89
REMARK SMILES IDX 67 90 68 91 44 92 45 93 54 94 46 95 47 96 53 97 55 98 48 99
REMARK SMILES IDX 49 100 50 101 51 102 52 103
REMARK H PARENT 1 12 1 13 1 14 76 53 42 64
REMARK Flexibility Score: 80.00
ROOT
ATOM      1  C   UNL     1       0.347  -0.352  -5.847  1.00  0.00     0.202 C 
ENDROOT
BRANCH   1   2
ATOM      2  C   UNL     1       1.217  -0.848  -4.678  1.00  0.00     0.261 C 
BRANCH   2   3
ATOM      3  O   UNL     1       0.526  -1.323  -3.457  1.00  0.00    -0.459 OA
BRANCH   3   4
ATOM      4  C   UNL     1       0.733  -0.695  -2.178  1.00  0.00     0.368 C 
ATOM      5  O   UNL     1       0.886   0.470  -2.548  1.00  0.00    -0.245 OA
BRANCH   4   6
ATOM      6  C   UNL     1       0.660  -1.614  -0.309  1.00  0.00     0.195 C 
ATOM      7  C   UNL     1       1.526  -2.973   0.280  1.00  0.00     0.081 C 
ATOM      8  C   UNL     1      -0.753  -2.095   0.586  1.00  0.00     0.065 C 
ATOM      9  C   UNL     1       0.617  -4.163   0.486  1.00  0.00     0.008 C 
ATOM     10  C   UNL     1      -0.599  -3.550   1.121  1.00  0.00     0.011 C 
BRANCH   6  11
ATOM     11  N   UNL     1       1.313  -0.798   0.826  1.00  0.00    -0.343 N 
ATOM     12  H   UNL     1       2.197  -0.408   0.500  1.00  0.00     0.345 HD
ATOM     13  H   UNL     1       1.485  -1.407   1.627  1.00  0.00     0.345 HD
ATOM     14  H   UNL     1       0.688  -0.041   1.103  1.00  0.00     0.345 HD
ENDBRANCH   6  11
BRANCH   8  15
ATOM     15  C   UNL     1      -1.300  -1.208   1.739  1.00  0.00     0.039 C 
BRANCH  15  16
ATOM     16  C   UNL     1      -1.417   0.281   1.477  1.00  0.00     0.161 C 
BRANCH  16  17
ATOM     17  O   UNL     1      -1.833   0.580   0.163  1.00  0.00    -0.378 OA
BRANCH  17  18
ATOM     18  C   UNL     1      -0.875   0.326  -0.876  1.00  0.00     0.118 C 
BRANCH  18  19
ATOM     19  C   UNL     1       0.807   1.049  -0.533  1.00  0.00     0.032 C 
BRANCH  19  20
ATOM     20  C   UNL     1       2.460   0.270  -1.020  1.00  0.00     0.003 CG0
ATOM     21  G   UNL     1       2.752  -1.433  -1.729  1.00  0.00     0.000 G0
ENDBRANCH  19  20
ENDBRANCH  18  19
BRANCH  18  22
ATOM     22  C   UNL     1      -1.383  -1.221  -1.788  1.00  0.00     0.032 C 
BRANCH  22  23
ATOM     23  C   UNL     1      -0.353  -2.751  -2.120  1.00  0.00     0.003 C 
BRANCH  23  24
ATOM     24  C   UNL     1       1.547  -2.808  -2.232  1.00  0.00     0.000 C 
BRANCH  24  25
ATOM     25  C   UNL     1       2.752  -1.433  -1.729  1.00  0.00     0.000 CG0
ATOM     26  G   UNL     1       2.460   0.270  -1.020  1.00  0.00     0.000 G0
ENDBRANCH  24  25
ENDBRANCH  23  24
ENDBRANCH  22  23
ENDBRANCH  18  22
ENDBRANCH  17  18
ENDBRANCH  16  17
ENDBRANCH  15  16
ENDBRANCH   8  15
ENDBRANCH   4   6
ENDBRANCH   3   4
ENDBRANCH   2   3
ENDBRANCH   1   2
BRANCH   1  27
ATOM     27  O   UNL     1       0.269   1.059  -6.059  1.00  0.00    -0.376 OA
BRANCH  27  28
ATOM     28  C   UNL     1      -0.363   1.850  -5.058  1.00  0.00     0.188 C 
BRANCH  28  29
ATOM     29  C   UNL     1      -1.476   1.169  -4.281  1.00  0.00     0.188 C 
BRANCH  29  30
ATOM     30  O   UNL     1      -2.522   0.476  -4.942  1.00  0.00    -0.376 OA
BRANCH  30  31
ATOM     31  C   UNL     1      -3.119   1.143  -6.033  1.00  0.00     0.202 C 
BRANCH  31  32
ATOM     32  C   UNL     1      -3.931   2.397  -5.686  1.00  0.00     0.261 C 
BRANCH  32  33
ATOM     33  O   UNL     1      -3.255   3.318  -4.803  1.00  0.00    -0.460 OA
BRANCH  33  34
ATOM     34  C   UNL     1      -3.709   3.325  -3.516  1.00  0.00     0.338 C 
ATOM     35  O   UNL     1      -4.663   2.692  -3.092  1.00  0.00    -0.246 OA
BRANCH  34  36
ATOM     36  C   UNL     1      -2.797   4.094  -2.618  1.00  0.00     0.060 A 
ATOM     37  C   UNL     1      -2.623   3.629  -1.305  1.00  0.00     0.016 A 
ATOM     38  C   UNL     1      -2.160   5.272  -3.014  1.00  0.00     0.016 A 
ATOM     39  C   UNL     1      -1.883   4.367  -0.373  1.00  0.00     0.010 A 
ATOM     40  C   UNL     1      -1.440   6.029  -2.070  1.00  0.00     0.010 A 
ATOM     41  C   UNL     1      -1.342   5.608  -0.729  1.00  0.00    -0.014 A 
BRANCH  41  42
ATOM     42  C   UNL     1      -0.974   6.575   0.350  1.00  0.00     0.031 A 
ATOM     43  C   UNL     1      -2.062   7.494   0.858  1.00  0.00     0.074 A 
ATOM     44  C   UNL     1       0.245   6.624   0.922  1.00  0.00     0.049 A 
ATOM     45  N   UNL     1      -2.016   8.420   1.782  1.00  0.00    -0.248 NA
ATOM     46  C   UNL     1      -3.389   7.334   0.238  1.00  0.00     0.031 C 
ATOM     47  C   UNL     1       1.375   5.759   0.596  1.00  0.00     0.029 A 
ATOM     48  N   UNL     1       0.731   7.448   1.915  1.00  0.00    -0.354 N 
ATOM     49  C   UNL     1      -3.302   8.946   1.857  1.00  0.00     0.074 A 
ATOM     50  C   UNL     1      -4.098   8.258   0.866  1.00  0.00     0.031 C 
ATOM     51  C   UNL     1       2.426   6.104   1.365  1.00  0.00     0.029 A 
ATOM     52  C   UNL     1       2.056   7.232   2.222  1.00  0.00     0.049 A 
ATOM     53  H   UNL     1       0.180   8.130   2.363  1.00  0.00     0.167 HD
ATOM     54  C   UNL     1      -3.787   9.909   2.678  1.00  0.00     0.037 A 
ATOM     55  C   UNL     1       2.876   7.878   3.081  1.00  0.00     0.037 A 
ATOM     56  C   UNL     1      -3.000  10.620   3.650  1.00  0.00     0.049 A 
ATOM     57  C   UNL     1       2.339   9.021   3.917  1.00  0.00     0.074 A 
ATOM     58  C   UNL     1      -3.401  11.629   4.510  1.00  0.00     0.029 A 
ATOM     59  N   UNL     1      -1.650  10.411   3.885  1.00  0.00    -0.354 N 
ATOM     60  N   UNL     1       1.119   9.503   3.980  1.00  0.00    -0.248 NA
ATOM     61  C   UNL     1       3.294   9.707   4.803  1.00  0.00     0.031 C 
ATOM     62  C   UNL     1      -2.280  12.070   5.221  1.00  0.00     0.029 A 
ATOM     63  C   UNL     1      -1.195  11.290   4.856  1.00  0.00     0.049 A 
ATOM     64  H   UNL     1      -1.095   9.736   3.431  1.00  0.00     0.167 HD
ATOM     65  C   UNL     1       1.157  10.522   4.931  1.00  0.00     0.074 A 
ATOM     66  C   UNL     1       2.513  10.575   5.431  1.00  0.00     0.031 C 
ATOM     67  C   UNL     1       0.158  11.340   5.353  1.00  0.00     0.037 A 
BRANCH  54  68
ATOM     68  C   UNL     1      -5.236  10.284   2.517  1.00  0.00     0.058 A 
ATOM     69  C   UNL     1      -6.274   9.421   2.905  1.00  0.00     0.135 A 
ATOM     70  C   UNL     1      -5.590  11.528   1.972  1.00  0.00     0.135 A 
ATOM     71  F   UNL     1      -5.994   8.210   3.413  1.00  0.00    -0.206 F 
ATOM     72  C   UNL     1      -7.611   9.766   2.729  1.00  0.00     0.059 A 
ATOM     73  C   UNL     1      -6.919  11.907   1.815  1.00  0.00     0.059 A 
ATOM     74  F   UNL     1      -4.638  12.390   1.580  1.00  0.00    -0.206 F 
ATOM     75  C   UNL     1      -7.923  11.012   2.182  1.00  0.00     0.060 A 
BRANCH  75  76
ATOM     76  S   UNL     1      -9.661  11.444   1.955  1.00  0.00     0.124 S 
ATOM     77  O   UNL     1     -10.041  10.562   0.856  1.00  0.00    -0.237 OA
ATOM     78  O   UNL     1     -10.235  11.119   3.257  1.00  0.00    -0.237 OA
ATOM     79  O   UNL     1      -9.619  12.867   1.629  1.00  0.00    -0.744 OA
ENDBRANCH  75  76
ENDBRANCH  54  68
BRANCH  55  80
ATOM     80  C   UNL     1       4.314   7.489   3.195  1.00  0.00     0.058 A 
ATOM     81  C   UNL     1       4.840   6.952   4.381  1.00  0.00     0.135 A 
ATOM     82  C   UNL     1       5.207   7.695   2.130  1.00  0.00     0.135 A 
ATOM     83  F   UNL     1       4.040   6.759   5.442  1.00  0.00    -0.206 F 
ATOM     84  C   UNL     1       6.194   6.649   4.514  1.00  0.00     0.059 A 
ATOM     85  C   UNL     1       6.558   7.371   2.227  1.00  0.00     0.059 A 
ATOM     86  F   UNL     1       4.765   8.213   0.973  1.00  0.00    -0.206 F 
ATOM     87  C   UNL     1       7.045   6.857   3.428  1.00  0.00     0.060 A 
BRANCH  87  88
ATOM     88  S   UNL     1       8.788   6.411   3.592  1.00  0.00     0.124 S 
ATOM     89  O   UNL     1       9.274   7.441   4.503  1.00  0.00    -0.237 OA
ATOM     90  O   UNL     1       8.707   5.061   4.140  1.00  0.00    -0.237 OA
ATOM     91  O   UNL     1       9.287   6.494   2.222  1.00  0.00    -0.744 OA
ENDBRANCH  87  88
ENDBRANCH  55  80
BRANCH  67  92
ATOM     92  C   UNL     1       0.477  12.339   6.438  1.00  0.00     0.058 A 
ATOM     93  C   UNL     1       1.316  13.443   6.213  1.00  0.00     0.135 A 
ATOM     94  C   UNL     1      -0.092  12.208   7.717  1.00  0.00     0.135 A 
ATOM     95  F   UNL     1       1.886  13.625   5.011  1.00  0.00    -0.206 F 
ATOM     96  C   UNL     1       1.615  14.352   7.226  1.00  0.00     0.059 A 
ATOM     97  C   UNL     1       0.165  13.123   8.734  1.00  0.00     0.059 A 
ATOM     98  F   UNL     1      -0.918  11.184   7.988  1.00  0.00    -0.206 F 
ATOM     99  C   UNL     1       1.038  14.181   8.485  1.00  0.00     0.060 A 
BRANCH  99 100
ATOM    100  S   UNL     1       1.438  15.362   9.791  1.00  0.00     0.124 S 
ATOM    101  O   UNL     1       2.811  14.989  10.115  1.00  0.00    -0.237 OA
ATOM    102  O   UNL     1       1.272  16.645   9.115  1.00  0.00    -0.237 OA
ATOM    103  O   UNL     1       0.449  15.074  10.826  1.00  0.00    -0.744 OA
ENDBRANCH  99 100
ENDBRANCH  67  92
ENDBRANCH  41  42
ENDBRANCH  34  36
ENDBRANCH  33  34
ENDBRANCH  32  33
ENDBRANCH  31  32
ENDBRANCH  30  31
ENDBRANCH  29  30
ENDBRANCH  28  29
ENDBRANCH  27  28
ENDBRANCH   1  27
TORSDOF 25
