REMARK SMILES O=C(OCCOCCOCCOC(=O)c1cn(C2CC2)c2cc(N3CC[NH2+]CC3)ccc2c1=O)c1ccc(-c2c3nc(c(-c4c(F)cc(S(=O)(=O)[O-])cc4F)c4ccc([nH]4)c(-c4c(F)cc(S(=O)(=O)[O-])cc4F)c4nc(c(-c5c(F)cc(S(=O)(=O)[O-])cc5F)c5ccc2[nH]5)C=C4)C=C3)cc1
REMARK SMILES IDX 7 1 6 2 5 3 4 4 3 5 2 6 1 7 35 8 36 9 100 10 37 11 99 12
REMARK SMILES IDX 38 13 39 14 40 15 93 16 41 17 98 18 92 19 94 20 42 21 97 22
REMARK SMILES IDX 91 23 90 24 43 26 77 27 56 28 76 29 57 30 60 31 75 32 95 33
REMARK SMILES IDX 58 34 59 35 74 37 96 38 61 39 44 40 45 41 54 42 46 43 47 44
REMARK SMILES IDX 53 45 55 46 48 47 49 48 50 49 51 50 52 51 78 52 79 53 88 54
REMARK SMILES IDX 80 55 81 56 87 57 89 58 82 59 83 60 84 61 85 62 86 63 62 64
REMARK SMILES IDX 63 65 72 66 64 67 65 68 71 69 73 70 66 71 67 72 68 73 69 74
REMARK SMILES IDX 70 75 8 76 9 77 10 78 11 79 12 80 13 81 14 82 15 83 16 84
REMARK SMILES IDX 33 85 17 86 32 87 34 88 21 89 31 90 22 91 30 92 23 93 18 94
REMARK SMILES IDX 19 95 20 96 24 97 25 98 29 99 26 100 28 101 27 102
REMARK H PARENT 94 25 60 36 27 103 27 104
REMARK Flexibility Score: inf
ROOT
ATOM      1  C   UNL     1       2.617   1.008   1.585  1.00  0.00     0.188 C 
ENDROOT
BRANCH   1   2
ATOM      2  O   UNL     1       3.881   0.341   1.447  1.00  0.00    -0.376 OA
BRANCH   2   3
ATOM      3  C   UNL     1       4.859   1.135   0.774  1.00  0.00     0.202 C 
BRANCH   3   4
ATOM      4  C   UNL     1       4.732   1.171  -0.753  1.00  0.00     0.261 C 
BRANCH   4   5
ATOM      5  O   UNL     1       3.399   0.952  -1.230  1.00  0.00    -0.460 OA
BRANCH   5   6
ATOM      6  C   UNL     1       2.773  -0.213  -1.530  1.00  0.00     0.338 C 
ATOM      7  O   UNL     1       1.673  -0.128  -2.079  1.00  0.00    -0.246 OA
BRANCH   6   8
ATOM      8  C   UNL     1       3.307  -1.593  -1.243  1.00  0.00     0.060 A 
ATOM      9  C   UNL     1       2.490  -2.673  -1.637  1.00  0.00     0.016 A 
ATOM     10  C   UNL     1       4.529  -1.912  -0.647  1.00  0.00     0.016 A 
ATOM     11  C   UNL     1       2.901  -4.004  -1.480  1.00  0.00     0.010 A 
ATOM     12  C   UNL     1       4.957  -3.236  -0.508  1.00  0.00     0.010 A 
ATOM     13  C   UNL     1       4.155  -4.294  -0.934  1.00  0.00    -0.014 A 
BRANCH  13  14
ATOM     14  C   UNL     1       4.729  -5.656  -0.986  1.00  0.00     0.031 A 
ATOM     15  C   UNL     1       4.919  -6.499   0.240  1.00  0.00     0.074 A 
ATOM     16  C   UNL     1       5.220  -6.073  -2.169  1.00  0.00     0.049 A 
ATOM     17  N   UNL     1       5.276  -7.756   0.322  1.00  0.00    -0.248 NA
ATOM     18  C   UNL     1       4.706  -5.854   1.542  1.00  0.00     0.031 C 
ATOM     19  C   UNL     1       5.218  -5.287  -3.407  1.00  0.00     0.029 A 
ATOM     20  N   UNL     1       5.857  -7.234  -2.512  1.00  0.00    -0.354 N 
ATOM     21  C   UNL     1       5.233  -8.077   1.674  1.00  0.00     0.074 A 
ATOM     22  C   UNL     1       4.929  -6.859   2.381  1.00  0.00     0.031 C 
ATOM     23  C   UNL     1       5.847  -5.981  -4.367  1.00  0.00     0.029 A 
ATOM     24  C   UNL     1       6.286  -7.258  -3.816  1.00  0.00     0.049 A 
ATOM     25  H   UNL     1       5.994  -7.980  -1.885  1.00  0.00     0.167 HD
ATOM     26  C   UNL     1       5.408  -9.287   2.253  1.00  0.00     0.037 A 
ATOM     27  C   UNL     1       6.956  -8.209  -4.491  1.00  0.00     0.037 A 
ATOM     28  C   UNL     1       5.876 -10.443   1.545  1.00  0.00     0.049 A 
ATOM     29  C   UNL     1       7.263  -9.507  -3.803  1.00  0.00     0.074 A 
ATOM     30  C   UNL     1       6.085 -11.721   2.032  1.00  0.00     0.029 A 
ATOM     31  N   UNL     1       6.283 -10.437   0.223  1.00  0.00    -0.354 N 
ATOM     32  N   UNL     1       6.976  -9.873  -2.577  1.00  0.00    -0.248 NA
ATOM     33  C   UNL     1       7.959 -10.530  -4.593  1.00  0.00     0.031 C 
ATOM     34  C   UNL     1       6.684 -12.472   1.019  1.00  0.00     0.029 A 
ATOM     35  C   UNL     1       6.801 -11.673  -0.108  1.00  0.00     0.049 A 
ATOM     36  H   UNL     1       6.214  -9.669  -0.388  1.00  0.00     0.167 HD
ATOM     37  C   UNL     1       7.429 -11.181  -2.457  1.00  0.00     0.074 A 
ATOM     38  C   UNL     1       8.007 -11.542  -3.735  1.00  0.00     0.031 C 
ATOM     39  C   UNL     1       7.365 -12.009  -1.388  1.00  0.00     0.037 A 
BRANCH  26  40
ATOM     40  C   UNL     1       5.068  -9.482   3.702  1.00  0.00     0.058 A 
ATOM     41  C   UNL     1       3.779  -9.915   4.057  1.00  0.00     0.135 A 
ATOM     42  C   UNL     1       6.037  -9.418   4.712  1.00  0.00     0.135 A 
ATOM     43  F   UNL     1       2.820 -10.018   3.124  1.00  0.00    -0.206 F 
ATOM     44  C   UNL     1       3.449 -10.234   5.371  1.00  0.00     0.059 A 
ATOM     45  C   UNL     1       5.734  -9.749   6.034  1.00  0.00     0.059 A 
ATOM     46  F   UNL     1       7.288  -9.027   4.423  1.00  0.00    -0.206 F 
ATOM     47  C   UNL     1       4.429 -10.133   6.357  1.00  0.00     0.060 A 
BRANCH  47  48
ATOM     48  S   UNL     1       3.984 -10.474   8.075  1.00  0.00     0.124 S 
ATOM     49  O   UNL     1       3.471  -9.177   8.503  1.00  0.00    -0.237 OA
ATOM     50  O   UNL     1       2.987 -11.532   7.946  1.00  0.00    -0.237 OA
ATOM     51  O   UNL     1       5.252 -10.876   8.672  1.00  0.00    -0.744 OA
ENDBRANCH  47  48
ENDBRANCH  26  40
BRANCH  27  52
ATOM     52  C   UNL     1       7.310  -7.978  -5.912  1.00  0.00     0.058 A 
ATOM     53  C   UNL     1       6.605  -8.624  -6.936  1.00  0.00     0.135 A 
ATOM     54  C   UNL     1       8.313  -7.066  -6.276  1.00  0.00     0.135 A 
ATOM     55  F   UNL     1       5.635  -9.500  -6.631  1.00  0.00    -0.206 F 
ATOM     56  C   UNL     1       6.886  -8.383  -8.275  1.00  0.00     0.059 A 
ATOM     57  C   UNL     1       8.600  -6.793  -7.610  1.00  0.00     0.059 A 
ATOM     58  F   UNL     1       8.999  -6.406  -5.330  1.00  0.00    -0.206 F 
ATOM     59  C   UNL     1       7.883  -7.461  -8.602  1.00  0.00     0.060 A 
BRANCH  59  60
ATOM     60  S   UNL     1       8.195  -7.117 -10.346  1.00  0.00     0.124 S 
ATOM     61  O   UNL     1       8.837  -8.353 -10.778  1.00  0.00    -0.237 OA
ATOM     62  O   UNL     1       6.848  -6.883 -10.857  1.00  0.00    -0.237 OA
ATOM     63  O   UNL     1       9.056  -5.938 -10.306  1.00  0.00    -0.744 OA
ENDBRANCH  59  60
ENDBRANCH  27  52
BRANCH  39  64
ATOM     64  C   UNL     1       7.923 -13.390  -1.538  1.00  0.00     0.058 A 
ATOM     65  C   UNL     1       9.306 -13.618  -1.538  1.00  0.00     0.135 A 
ATOM     66  C   UNL     1       7.065 -14.501  -1.560  1.00  0.00     0.135 A 
ATOM     67  F   UNL     1      10.162 -12.584  -1.514  1.00  0.00    -0.206 F 
ATOM     68  C   UNL     1       9.823 -14.906  -1.564  1.00  0.00     0.059 A 
ATOM     69  C   UNL     1       7.561 -15.799  -1.559  1.00  0.00     0.059 A 
ATOM     70  F   UNL     1       5.734 -14.329  -1.540  1.00  0.00    -0.206 F 
ATOM     71  C   UNL     1       8.942 -15.990  -1.567  1.00  0.00     0.060 A 
BRANCH  71  72
ATOM     72  S   UNL     1       9.629 -17.657  -1.536  1.00  0.00     0.124 S 
ATOM     73  O   UNL     1      10.120 -17.796  -2.902  1.00  0.00    -0.237 OA
ATOM     74  O   UNL     1      10.652 -17.554  -0.500  1.00  0.00    -0.237 OA
ATOM     75  O   UNL     1       8.480 -18.491  -1.192  1.00  0.00    -0.744 OA
ENDBRANCH  71  72
ENDBRANCH  39  64
ENDBRANCH  13  14
ENDBRANCH   6   8
ENDBRANCH   5   6
ENDBRANCH   4   5
ENDBRANCH   3   4
ENDBRANCH   2   3
ENDBRANCH   1   2
BRANCH   1  76
ATOM     76  C   UNL     1       2.024   0.888   2.990  1.00  0.00     0.188 C 
BRANCH  76  77
ATOM     77  O   UNL     1       2.751   1.502   4.057  1.00  0.00    -0.376 OA
BRANCH  77  78
ATOM     78  C   UNL     1       4.096   1.089   4.270  1.00  0.00     0.202 C 
BRANCH  78  79
ATOM     79  C   UNL     1       4.353  -0.332   4.783  1.00  0.00     0.261 C 
BRANCH  79  80
ATOM     80  O   UNL     1       3.755  -1.376   4.006  1.00  0.00    -0.459 OA
BRANCH  80  81
ATOM     81  C   UNL     1       2.625  -1.899   4.551  1.00  0.00     0.343 C 
ATOM     82  O   UNL     1       2.065  -1.513   5.566  1.00  0.00    -0.246 OA
BRANCH  81  83
ATOM     83  C   UNL     1       2.255  -3.127   3.860  1.00  0.00     0.124 A 
ATOM     84  C   UNL     1       2.557  -4.235   4.532  1.00  0.00     0.106 A 
ATOM     85  C   UNL     1       1.516  -3.249   2.600  1.00  0.00     0.203 A 
ATOM     86  N   UNL     1       2.266  -5.530   4.165  1.00  0.00    -0.343 N 
ATOM     87  C   UNL     1       1.178  -4.633   2.156  1.00  0.00     0.047 A 
ATOM     88  O   UNL     1       1.174  -2.265   1.952  1.00  0.00    -0.288 OA
ATOM     89  C   UNL     1       1.548  -5.751   2.943  1.00  0.00     0.054 A 
ATOM     90  C   UNL     1       0.493  -4.793   0.949  1.00  0.00     0.016 A 
ATOM     91  C   UNL     1       1.195  -7.027   2.456  1.00  0.00     0.053 A 
ATOM     92  C   UNL     1       0.189  -6.072   0.490  1.00  0.00     0.027 A 
ATOM     93  C   UNL     1       0.528  -7.212   1.229  1.00  0.00     0.039 A 
BRANCH  86  94
ATOM     94  C   UNL     1       2.702  -6.611   5.087  1.00  0.00     0.087 C 
ATOM     95  C   UNL     1       3.938  -6.489   5.955  1.00  0.00     0.027 C 
ATOM     96  C   UNL     1       2.577  -6.495   6.584  1.00  0.00     0.027 C 
ENDBRANCH  86  94
BRANCH  93  97
ATOM     97  N   UNL     1       0.170  -8.454   0.752  1.00  0.00    -0.360 N 
ATOM     98  C   UNL     1      -0.355  -9.511   1.619  1.00  0.00     0.178 C 
ATOM     99  C   UNL     1       0.621  -8.907  -0.573  1.00  0.00     0.178 C 
ATOM    100  C   UNL     1      -1.484 -10.262   0.865  1.00  0.00     0.282 C 
ATOM    101  C   UNL     1      -0.522  -9.683  -1.271  1.00  0.00     0.282 C 
ATOM    102  N   UNL     1      -1.088 -10.790  -0.463  1.00  0.00    -0.343 N 
ATOM    103  H   UNL     1      -1.905 -11.176  -0.935  1.00  0.00     0.346 HD
ATOM    104  H   UNL     1      -0.390 -11.525  -0.348  1.00  0.00     0.346 HD
ENDBRANCH  93  97
ENDBRANCH  81  83
ENDBRANCH  80  81
ENDBRANCH  79  80
ENDBRANCH  78  79
ENDBRANCH  77  78
ENDBRANCH  76  77
ENDBRANCH   1  76
TORSDOF 22
