REMARK SMILES O=C(COc1ccccc1/C=C1/SC(=O)N(c2ccc(F)cc2)C1=O)OCCOCCOCCOC(=O)c1ccc(-c2c3nc(c(-c4c(F)cc(S(=O)(=O)[O-])cc4F)c4ccc([nH]4)c(-c4c(F)cc(S(=O)(=O)[O-])cc4F)c4nc(c(-c5c(F)cc(S(=O)(=O)[O-])cc5F)c5ccc2[nH]5)C=C4)C=C3)cc1
REMARK SMILES IDX 30 1 29 2 28 3 27 4 26 5 2 6 1 7 3 8 4 9 5 10 6 11 10 12
REMARK SMILES IDX 7 13 9 14 8 15 11 16 12 17 13 18 24 19 14 20 16 21 25 22
REMARK SMILES IDX 15 23 17 24 18 25 23 26 19 27 22 28 20 29 21 30 31 31 32 32
REMARK SMILES IDX 33 33 34 34 35 35 36 36 37 37 38 38 39 39 103 40 40 41
REMARK SMILES IDX 102 42 41 43 42 44 43 45 96 46 44 47 101 48 95 49 97 50
REMARK SMILES IDX 45 51 100 52 94 53 93 54 46 56 80 57 59 58 79 59 60 60 63 61
REMARK SMILES IDX 78 62 98 63 61 64 62 65 77 67 99 68 64 69 47 70 48 71 57 72
REMARK SMILES IDX 49 73 50 74 56 75 58 76 51 77 52 78 53 79 54 80 55 81 81 82
REMARK SMILES IDX 82 83 91 84 83 85 84 86 90 87 92 88 85 89 86 90 87 91 88 92
REMARK SMILES IDX 89 93 65 94 66 95 75 96 67 97 68 98 74 99 76 100 69 101
REMARK SMILES IDX 70 102 71 103 72 104 73 105
REMARK H PARENT 97 55 63 66
REMARK Flexibility Score: inf
ROOT
ATOM      1  C   UNL     1       3.760  -0.542  -2.784  1.00  0.00     0.188 C 
ENDROOT
BRANCH   1   2
ATOM      2  O   UNL     1       5.155  -0.500  -2.520  1.00  0.00    -0.376 OA
BRANCH   2   3
ATOM      3  C   UNL     1       5.566  -0.574  -1.162  1.00  0.00     0.202 C 
BRANCH   3   4
ATOM      4  C   UNL     1       4.911   0.466  -0.271  1.00  0.00     0.261 C 
BRANCH   4   5
ATOM      5  O   UNL     1       3.549   0.046  -0.007  1.00  0.00    -0.461 OA
BRANCH   5   6
ATOM      6  C   UNL     1       2.491   0.896  -0.124  1.00  0.00     0.344 C 
ATOM      7  O   UNL     1       1.362   0.466  -0.346  1.00  0.00    -0.248 OA
BRANCH   6   8
ATOM      8  C   UNL     1       2.765   2.360   0.081  1.00  0.00     0.351 C 
BRANCH   8   9
ATOM      9  O   UNL     1       3.741   2.482   1.110  1.00  0.00    -0.481 OA
BRANCH   9  10
ATOM     10  C   UNL     1       3.221   2.937   2.284  1.00  0.00     0.127 A 
ATOM     11  C   UNL     1       3.619   4.237   2.607  1.00  0.00     0.047 A 
ATOM     12  C   UNL     1       2.394   2.188   3.142  1.00  0.00     0.018 A 
ATOM     13  C   UNL     1       3.158   4.837   3.769  1.00  0.00     0.004 A 
ATOM     14  C   UNL     1       1.939   2.815   4.310  1.00  0.00     0.012 A 
ATOM     15  C   UNL     1       2.315   4.127   4.619  1.00  0.00     0.001 A 
BRANCH  12  16
ATOM     16  C   UNL     1       1.871   0.831   2.890  1.00  0.00     0.033 C 
ATOM     17  C   UNL     1       2.515  -0.347   2.861  1.00  0.00     0.084 C 
ATOM     18  S   UNL     1       1.714  -1.820   2.451  1.00  0.00    -0.022 SA
ATOM     19  C   UNL     1       3.972  -0.609   3.039  1.00  0.00     0.272 C 
ATOM     20  C   UNL     1       3.227  -2.678   2.205  1.00  0.00     0.298 C 
ATOM     21  N   UNL     1       4.297  -1.870   2.541  1.00  0.00    -0.236 N 
ATOM     22  O   UNL     1       4.726   0.220   3.529  1.00  0.00    -0.268 OA
ATOM     23  O   UNL     1       3.231  -3.854   1.874  1.00  0.00    -0.260 OA
BRANCH  21  24
ATOM     24  C   UNL     1       5.654  -2.300   2.366  1.00  0.00     0.053 A 
ATOM     25  C   UNL     1       6.692  -1.799   3.169  1.00  0.00     0.030 A 
ATOM     26  C   UNL     1       6.005  -3.181   1.325  1.00  0.00     0.030 A 
ATOM     27  C   UNL     1       8.029  -2.126   2.917  1.00  0.00     0.041 A 
ATOM     28  C   UNL     1       7.344  -3.487   1.053  1.00  0.00     0.041 A 
ATOM     29  C   UNL     1       8.345  -2.952   1.849  1.00  0.00     0.123 A 
ATOM     30  F   UNL     1       9.627  -3.228   1.582  1.00  0.00    -0.207 F 
ENDBRANCH  21  24
ENDBRANCH  12  16
ENDBRANCH   9  10
ENDBRANCH   8   9
ENDBRANCH   6   8
ENDBRANCH   5   6
ENDBRANCH   4   5
ENDBRANCH   3   4
ENDBRANCH   2   3
ENDBRANCH   1   2
BRANCH   1  31
ATOM     31  C   UNL     1       2.936  -1.771  -2.331  1.00  0.00     0.188 C 
BRANCH  31  32
ATOM     32  O   UNL     1       3.614  -2.962  -1.960  1.00  0.00    -0.376 OA
BRANCH  32  33
ATOM     33  C   UNL     1       4.588  -3.487  -2.851  1.00  0.00     0.202 C 
BRANCH  33  34
ATOM     34  C   UNL     1       4.150  -3.763  -4.293  1.00  0.00     0.261 C 
BRANCH  34  35
ATOM     35  O   UNL     1       3.872  -2.547  -5.016  1.00  0.00    -0.460 OA
BRANCH  35  36
ATOM     36  C   UNL     1       2.641  -2.461  -5.594  1.00  0.00     0.338 C 
ATOM     37  O   UNL     1       1.819  -3.346  -5.686  1.00  0.00    -0.246 OA
BRANCH  36  38
ATOM     38  C   UNL     1       2.343  -1.034  -5.890  1.00  0.00     0.060 A 
ATOM     39  C   UNL     1       1.150  -0.495  -5.385  1.00  0.00     0.016 A 
ATOM     40  C   UNL     1       3.242  -0.215  -6.579  1.00  0.00     0.016 A 
ATOM     41  C   UNL     1       0.840   0.854  -5.590  1.00  0.00     0.010 A 
ATOM     42  C   UNL     1       2.919   1.130  -6.804  1.00  0.00     0.010 A 
ATOM     43  C   UNL     1       1.706   1.667  -6.334  1.00  0.00    -0.014 A 
BRANCH  43  44
ATOM     44  C   UNL     1       1.260   3.002  -6.813  1.00  0.00     0.031 A 
ATOM     45  C   UNL     1       0.578   3.073  -8.154  1.00  0.00     0.074 A 
ATOM     46  C   UNL     1       1.475   4.130  -6.110  1.00  0.00     0.049 A 
ATOM     47  N   UNL     1       0.206   4.120  -8.842  1.00  0.00    -0.248 NA
ATOM     48  C   UNL     1       0.279   1.786  -8.806  1.00  0.00     0.031 C 
ATOM     49  C   UNL     1       2.086   4.204  -4.784  1.00  0.00     0.029 A 
ATOM     50  N   UNL     1       1.221   5.443  -6.434  1.00  0.00    -0.354 N 
ATOM     51  C   UNL     1      -0.354   3.622 -10.012  1.00  0.00     0.074 A 
ATOM     52  C   UNL     1      -0.271   2.180  -9.945  1.00  0.00     0.031 C 
ATOM     53  C   UNL     1       2.193   5.497  -4.423  1.00  0.00     0.029 A 
ATOM     54  C   UNL     1       1.690   6.345  -5.505  1.00  0.00     0.049 A 
ATOM     55  H   UNL     1       0.747   5.713  -7.253  1.00  0.00     0.167 HD
ATOM     56  C   UNL     1      -0.888   4.303 -11.051  1.00  0.00     0.037 A 
ATOM     57  C   UNL     1       1.744   7.694  -5.545  1.00  0.00     0.037 A 
ATOM     58  C   UNL     1      -0.976   5.736 -11.124  1.00  0.00     0.049 A 
ATOM     59  C   UNL     1       1.216   8.430  -6.755  1.00  0.00     0.074 A 
ATOM     60  C   UNL     1      -1.544   6.509 -12.121  1.00  0.00     0.029 A 
ATOM     61  N   UNL     1      -0.469   6.609 -10.177  1.00  0.00    -0.354 N 
ATOM     62  N   UNL     1       0.642   7.946  -7.831  1.00  0.00    -0.248 NA
ATOM     63  C   UNL     1       1.354   9.895  -6.762  1.00  0.00     0.031 C 
ATOM     64  C   UNL     1      -1.331   7.854 -11.803  1.00  0.00     0.029 A 
ATOM     65  C   UNL     1      -0.674   7.916 -10.585  1.00  0.00     0.049 A 
ATOM     66  H   UNL     1      -0.028   6.341  -9.338  1.00  0.00     0.167 HD
ATOM     67  C   UNL     1       0.339   9.046  -8.630  1.00  0.00     0.074 A 
ATOM     68  C   UNL     1       0.773  10.222  -7.909  1.00  0.00     0.031 C 
ATOM     69  C   UNL     1      -0.243   9.080  -9.855  1.00  0.00     0.037 A 
BRANCH  56  70
ATOM     70  C   UNL     1      -1.400   3.510 -12.217  1.00  0.00     0.058 A 
ATOM     71  C   UNL     1      -2.620   2.822 -12.161  1.00  0.00     0.135 A 
ATOM     72  C   UNL     1      -0.691   3.502 -13.430  1.00  0.00     0.135 A 
ATOM     73  F   UNL     1      -3.321   2.781 -11.017  1.00  0.00    -0.206 F 
ATOM     74  C   UNL     1      -3.123   2.150 -13.270  1.00  0.00     0.059 A 
ATOM     75  C   UNL     1      -1.185   2.855 -14.556  1.00  0.00     0.059 A 
ATOM     76  F   UNL     1       0.487   4.138 -13.528  1.00  0.00    -0.206 F 
ATOM     77  C   UNL     1      -2.402   2.179 -14.465  1.00  0.00     0.060 A 
BRANCH  77  78
ATOM     78  S   UNL     1      -3.094   1.346 -15.909  1.00  0.00     0.124 S 
ATOM     79  O   UNL     1      -2.903  -0.057 -15.555  1.00  0.00    -0.237 OA
ATOM     80  O   UNL     1      -4.475   1.817 -15.908  1.00  0.00    -0.237 OA
ATOM     81  O   UNL     1      -2.269   1.832 -17.011  1.00  0.00    -0.744 OA
ENDBRANCH  77  78
ENDBRANCH  56  70
BRANCH  57  82
ATOM     82  C   UNL     1       2.381   8.460  -4.436  1.00  0.00     0.058 A 
ATOM     83  C   UNL     1       1.630   9.316  -3.616  1.00  0.00     0.135 A 
ATOM     84  C   UNL     1       3.767   8.402  -4.220  1.00  0.00     0.135 A 
ATOM     85  F   UNL     1       0.304   9.423  -3.794  1.00  0.00    -0.206 F 
ATOM     86  C   UNL     1       2.231  10.106  -2.640  1.00  0.00     0.059 A 
ATOM     87  C   UNL     1       4.388   9.162  -3.233  1.00  0.00     0.059 A 
ATOM     88  F   UNL     1       4.532   7.598  -4.973  1.00  0.00    -0.206 F 
ATOM     89  C   UNL     1       3.613  10.024  -2.459  1.00  0.00     0.060 A 
BRANCH  89  90
ATOM     90  S   UNL     1       4.386  11.034  -1.176  1.00  0.00     0.124 S 
ATOM     91  O   UNL     1       4.385  12.352  -1.799  1.00  0.00    -0.237 OA
ATOM     92  O   UNL     1       3.471  10.856  -0.052  1.00  0.00    -0.237 OA
ATOM     93  O   UNL     1       5.697  10.413  -1.008  1.00  0.00    -0.744 OA
ENDBRANCH  89  90
ENDBRANCH  57  82
BRANCH  69  94
ATOM     94  C   UNL     1      -0.464  10.423 -10.495  1.00  0.00     0.058 A 
ATOM     95  C   UNL     1       0.598  11.154 -11.050  1.00  0.00     0.135 A 
ATOM     96  C   UNL     1      -1.760  10.947 -10.629  1.00  0.00     0.135 A 
ATOM     97  F   UNL     1       1.857  10.700 -10.945  1.00  0.00    -0.206 F 
ATOM     98  C   UNL     1       0.384  12.363 -11.705  1.00  0.00     0.059 A 
ATOM     99  C   UNL     1      -2.000  12.141 -11.302  1.00  0.00     0.059 A 
ATOM    100  F   UNL     1      -2.813  10.282 -10.126  1.00  0.00    -0.206 F 
ATOM    101  C   UNL     1      -0.920  12.846 -11.830  1.00  0.00     0.060 A 
BRANCH 101 102
ATOM    102  S   UNL     1      -1.189  14.390 -12.727  1.00  0.00     0.124 S 
ATOM    103  O   UNL     1      -0.710  15.377 -11.765  1.00  0.00    -0.237 OA
ATOM    104  O   UNL     1      -0.361  14.210 -13.916  1.00  0.00    -0.237 OA
ATOM    105  O   UNL     1      -2.629  14.396 -12.969  1.00  0.00    -0.744 OA
ENDBRANCH 101 102
ENDBRANCH  69  94
ENDBRANCH  43  44
ENDBRANCH  36  38
ENDBRANCH  35  36
ENDBRANCH  34  35
ENDBRANCH  33  34
ENDBRANCH  32  33
ENDBRANCH  31  32
ENDBRANCH   1  31
TORSDOF 24
