REMARK SMILES C[C@@](NC(=O)CCOC1CC[NH2+]CC1)(C(=O)OCCOCCOCCOC(=O)c1ccc(-c2c3nc(c(-c4c(F)cc(S(=O)(=O)[O-])cc4F)c4ccc([nH]4)c(-c4c(F)cc(S(=O)(=O)[O-])cc4F)c4nc(c(-c5c(F)cc(S(=O)(=O)[O-])cc5F)c5ccc2[nH]5)C=C4)C=C3)cc1)C(F)(F)F
REMARK SMILES IDX 21 1 20 2 19 3 18 4 17 5 15 6 16 7 2 8 1 9 3 10 4 11 5 13
REMARK SMILES IDX 6 14 7 15 8 16 9 17 10 18 14 19 11 20 13 21 12 22 95 25
REMARK SMILES IDX 96 26 97 27 98 28 22 29 23 30 24 31 25 32 26 33 27 34 28 35
REMARK SMILES IDX 29 36 30 37 94 38 31 39 93 40 32 41 33 42 34 43 87 44 35 45
REMARK SMILES IDX 92 46 86 47 88 48 36 49 91 50 85 51 84 52 37 54 71 55 50 56
REMARK SMILES IDX 70 57 51 58 54 59 69 60 89 61 52 62 53 63 68 65 90 66 55 67
REMARK SMILES IDX 38 68 39 69 48 70 40 71 41 72 47 73 49 74 42 75 43 76 44 77
REMARK SMILES IDX 45 78 46 79 72 80 73 81 82 82 74 83 75 84 81 85 83 86 76 87
REMARK SMILES IDX 77 88 78 89 79 90 80 91 56 92 57 93 66 94 58 95 59 96 65 97
REMARK SMILES IDX 67 98 60 99 61 100 62 101 63 102 64 103
REMARK H PARENT 3 12 12 23 12 24 88 53 54 64
REMARK Flexibility Score: inf
ROOT
ATOM      1  C   UNL     1      -3.260   2.047  -1.379  1.00  0.00     0.188 C 
ENDROOT
BRANCH   1   2
ATOM      2  O   UNL     1      -4.050   0.900  -1.669  1.00  0.00    -0.376 OA
BRANCH   2   3
ATOM      3  C   UNL     1      -4.036  -0.185  -0.760  1.00  0.00     0.202 C 
BRANCH   3   4
ATOM      4  C   UNL     1      -3.012  -1.259  -1.107  1.00  0.00     0.261 C 
BRANCH   4   5
ATOM      5  O   UNL     1      -1.645  -1.088  -0.636  1.00  0.00    -0.461 OA
BRANCH   5   6
ATOM      6  C   UNL     1      -0.536  -0.692  -1.450  1.00  0.00     0.341 C 
ATOM      7  O   UNL     1      -1.065   0.226  -2.166  1.00  0.00    -0.249 OA
BRANCH   6   8
ATOM      8  C   UNL     1       1.438  -1.491  -1.304  1.00  0.00     0.231 C 
ATOM      9  C   UNL     1       2.616  -1.032  -0.107  1.00  0.00     0.058 C 
BRANCH   8  10
ATOM     10  N   UNL     1       1.853  -3.250  -1.044  1.00  0.00    -0.333 N 
ATOM     11  C   UNL     1       1.541  -4.397  -0.342  1.00  0.00     0.223 C 
ATOM     12  H   UNL     1       2.600  -3.468  -1.647  1.00  0.00     0.164 HD
ATOM     13  O   UNL     1       2.488  -5.160  -0.111  1.00  0.00    -0.275 OA
BRANCH  11  14
ATOM     14  C   UNL     1       0.111  -4.866   0.040  1.00  0.00     0.128 C 
BRANCH  14  15
ATOM     15  C   UNL     1      -0.634  -4.146   1.163  1.00  0.00     0.170 C 
BRANCH  15  16
ATOM     16  O   UNL     1      -1.017  -2.794   0.903  1.00  0.00    -0.377 OA
BRANCH  16  17
ATOM     17  C   UNL     1      -0.036  -2.159   0.086  1.00  0.00     0.129 C 
ATOM     18  C   UNL     1       0.322  -0.285   0.417  1.00  0.00     0.093 C 
ATOM     19  C   UNL     1      -0.328  -2.693  -1.821  1.00  0.00     0.093 C 
ATOM     20  C   UNL     1       0.915   0.780  -1.060  1.00  0.00     0.263 C 
ATOM     21  C   UNL     1       0.159  -1.477  -3.216  1.00  0.00     0.263 C 
ATOM     22  N   UNL     1       0.999   0.099  -2.762  1.00  0.00    -0.346 N 
ATOM     23  H   UNL     1       1.989  -0.033  -2.969  1.00  0.00     0.346 HD
ATOM     24  H   UNL     1       0.472   0.788  -3.298  1.00  0.00     0.346 HD
ENDBRANCH  16  17
ENDBRANCH  15  16
ENDBRANCH  14  15
ENDBRANCH  11  14
ENDBRANCH   8  10
BRANCH   8  25
ATOM     25  C   UNL     1       2.742  -1.407  -2.577  1.00  0.00     0.422 C 
ATOM     26  F   UNL     1       3.251  -0.214  -2.942  1.00  0.00    -0.168 F 
ATOM     27  F   UNL     1       3.856  -2.058  -2.056  1.00  0.00    -0.168 F 
ATOM     28  F   UNL     1       2.522  -2.180  -3.667  1.00  0.00    -0.168 F 
ENDBRANCH   8  25
ENDBRANCH   6   8
ENDBRANCH   5   6
ENDBRANCH   4   5
ENDBRANCH   3   4
ENDBRANCH   2   3
ENDBRANCH   1   2
BRANCH   1  29
ATOM     29  C   UNL     1      -2.474   2.109  -0.062  1.00  0.00     0.188 C 
BRANCH  29  30
ATOM     30  O   UNL     1      -3.180   2.161   1.172  1.00  0.00    -0.376 OA
BRANCH  30  31
ATOM     31  C   UNL     1      -4.269   3.069   1.256  1.00  0.00     0.202 C 
BRANCH  31  32
ATOM     32  C   UNL     1      -3.916   4.554   1.091  1.00  0.00     0.261 C 
BRANCH  32  33
ATOM     33  O   UNL     1      -3.507   4.873  -0.256  1.00  0.00    -0.460 OA
BRANCH  33  34
ATOM     34  C   UNL     1      -2.220   5.277  -0.419  1.00  0.00     0.338 C 
ATOM     35  O   UNL     1      -1.413   5.505   0.468  1.00  0.00    -0.246 OA
BRANCH  34  36
ATOM     36  C   UNL     1      -1.834   5.172  -1.850  1.00  0.00     0.060 A 
ATOM     37  C   UNL     1      -0.619   4.542  -2.170  1.00  0.00     0.016 A 
ATOM     38  C   UNL     1      -2.632   5.696  -2.866  1.00  0.00     0.016 A 
ATOM     39  C   UNL     1      -0.179   4.470  -3.496  1.00  0.00     0.010 A 
ATOM     40  C   UNL     1      -2.175   5.654  -4.189  1.00  0.00     0.010 A 
ATOM     41  C   UNL     1      -0.932   5.074  -4.508  1.00  0.00    -0.014 A 
BRANCH  41  42
ATOM     42  C   UNL     1      -0.343   5.347  -5.847  1.00  0.00     0.031 A 
ATOM     43  C   UNL     1       0.296   6.692  -6.066  1.00  0.00     0.074 A 
ATOM     44  C   UNL     1      -0.423   4.475  -6.869  1.00  0.00     0.049 A 
ATOM     45  N   UNL     1       0.646   7.278  -7.180  1.00  0.00    -0.248 NA
ATOM     46  C   UNL     1       0.560   7.485  -4.855  1.00  0.00     0.031 C 
ATOM     47  C   UNL     1      -0.938   3.112  -6.784  1.00  0.00     0.029 A 
ATOM     48  N   UNL     1      -0.099   4.635  -8.197  1.00  0.00    -0.354 N 
ATOM     49  C   UNL     1       1.133   8.526  -6.809  1.00  0.00     0.074 A 
ATOM     50  C   UNL     1       1.038   8.608  -5.368  1.00  0.00     0.031 C 
ATOM     51  C   UNL     1      -0.940   2.574  -8.018  1.00  0.00     0.029 A 
ATOM     52  C   UNL     1      -0.481   3.574  -8.984  1.00  0.00     0.049 A 
ATOM     53  H   UNL     1       0.361   5.431  -8.549  1.00  0.00     0.167 HD
ATOM     54  C   UNL     1       1.599   9.523  -7.599  1.00  0.00     0.037 A 
ATOM     55  C   UNL     1      -0.514   3.447 -10.329  1.00  0.00     0.037 A 
ATOM     56  C   UNL     1       1.686   9.441  -9.032  1.00  0.00     0.049 A 
ATOM     57  C   UNL     1      -0.064   4.593 -11.204  1.00  0.00     0.074 A 
ATOM     58  C   UNL     1       2.150  10.396  -9.920  1.00  0.00     0.029 A 
ATOM     59  N   UNL     1       1.288   8.350  -9.789  1.00  0.00    -0.354 N 
ATOM     60  N   UNL     1       0.384   5.776 -10.851  1.00  0.00    -0.248 NA
ATOM     61  C   UNL     1      -0.134   4.396 -12.660  1.00  0.00     0.031 C 
ATOM     62  C   UNL     1       1.980   9.903 -11.218  1.00  0.00     0.029 A 
ATOM     63  C   UNL     1       1.469   8.617 -11.135  1.00  0.00     0.049 A 
ATOM     64  H   UNL     1       0.931   7.508  -9.423  1.00  0.00     0.167 HD
ATOM     65  C   UNL     1       0.670   6.450 -12.035  1.00  0.00     0.074 A 
ATOM     66  C   UNL     1       0.347   5.545 -13.118  1.00  0.00     0.031 C 
ATOM     67  C   UNL     1       1.160   7.702 -12.209  1.00  0.00     0.037 A 
BRANCH  54  68
ATOM     68  C   UNL     1       1.980  10.811  -6.925  1.00  0.00     0.058 A 
ATOM     69  C   UNL     1       3.119  10.921  -6.112  1.00  0.00     0.135 A 
ATOM     70  C   UNL     1       1.175  11.951  -7.084  1.00  0.00     0.135 A 
ATOM     71  F   UNL     1       3.911   9.856  -5.909  1.00  0.00    -0.206 F 
ATOM     72  C   UNL     1       3.420  12.103  -5.442  1.00  0.00     0.059 A 
ATOM     73  C   UNL     1       1.475  13.152  -6.450  1.00  0.00     0.059 A 
ATOM     74  F   UNL     1       0.074  11.900  -7.850  1.00  0.00    -0.206 F 
ATOM     75  C   UNL     1       2.586  13.210  -5.612  1.00  0.00     0.060 A 
BRANCH  75  76
ATOM     76  S   UNL     1       2.965  14.724  -4.705  1.00  0.00     0.124 S 
ATOM     77  O   UNL     1       2.571  14.355  -3.349  1.00  0.00    -0.237 OA
ATOM     78  O   UNL     1       4.399  14.874  -4.930  1.00  0.00    -0.237 OA
ATOM     79  O   UNL     1       2.124  15.727  -5.351  1.00  0.00    -0.744 OA
ENDBRANCH  75  76
ENDBRANCH  54  68
BRANCH  55  80
ATOM     80  C   UNL     1      -1.052   2.198 -10.937  1.00  0.00     0.058 A 
ATOM     81  C   UNL     1      -0.219   1.296 -11.614  1.00  0.00     0.135 A 
ATOM     82  C   UNL     1      -2.416   1.875 -10.837  1.00  0.00     0.135 A 
ATOM     83  F   UNL     1       1.086   1.569 -11.760  1.00  0.00    -0.206 F 
ATOM     84  C   UNL     1      -0.714   0.116 -12.163  1.00  0.00     0.059 A 
ATOM     85  C   UNL     1      -2.930   0.690 -11.355  1.00  0.00     0.059 A 
ATOM     86  F   UNL     1      -3.259   2.705 -10.203  1.00  0.00    -0.206 F 
ATOM     87  C   UNL     1      -2.070  -0.184 -12.018  1.00  0.00     0.060 A 
BRANCH  87  88
ATOM     88  S   UNL     1      -2.685  -1.758 -12.658  1.00  0.00     0.124 S 
ATOM     89  O   UNL     1      -2.656  -1.525 -14.097  1.00  0.00    -0.237 OA
ATOM     90  O   UNL     1      -1.698  -2.703 -12.143  1.00  0.00    -0.237 OA
ATOM     91  O   UNL     1      -4.013  -1.866 -12.062  1.00  0.00    -0.744 OA
ENDBRANCH  87  88
ENDBRANCH  55  80
BRANCH  67  92
ATOM     92  C   UNL     1       1.431   8.179 -13.611  1.00  0.00     0.058 A 
ATOM     93  C   UNL     1       0.397   8.568 -14.477  1.00  0.00     0.135 A 
ATOM     94  C   UNL     1       2.754   8.360 -14.051  1.00  0.00     0.135 A 
ATOM     95  F   UNL     1      -0.884   8.412 -14.111  1.00  0.00    -0.206 F 
ATOM     96  C   UNL     1       0.665   9.122 -15.726  1.00  0.00     0.059 A 
ATOM     97  C   UNL     1       3.045   8.934 -15.285  1.00  0.00     0.059 A 
ATOM     98  F   UNL     1       3.781   8.014 -13.259  1.00  0.00    -0.206 F 
ATOM     99  C   UNL     1       1.993   9.312 -16.117  1.00  0.00     0.060 A 
BRANCH  99 100
ATOM    100  S   UNL     1       2.326  10.107 -17.705  1.00  0.00     0.124 S 
ATOM    101  O   UNL     1       1.968   9.050 -18.645  1.00  0.00    -0.237 OA
ATOM    102  O   UNL     1       1.429  11.258 -17.672  1.00  0.00    -0.237 OA
ATOM    103  O   UNL     1       3.748  10.427 -17.634  1.00  0.00    -0.744 OA
ENDBRANCH  99 100
ENDBRANCH  67  92
ENDBRANCH  41  42
ENDBRANCH  34  36
ENDBRANCH  33  34
ENDBRANCH  32  33
ENDBRANCH  31  32
ENDBRANCH  30  31
ENDBRANCH  29  30
ENDBRANCH   1  29
TORSDOF 26
