REMARK SMILES [NH3+][C@H](CS[C@@H]1CC(=O)N(c2ccc3ccccc3c2)C1=O)C(=O)OCCOCCOCCOC(=O)c1ccc(-c2c3nc(c(-c4c(F)cc(S(=O)(=O)[O-])cc4F)c4ccc([nH]4)c(-c4c(F)cc(S(=O)(=O)[O-])cc4F)c4nc(c(-c5c(F)cc(S(=O)(=O)[O-])cc5F)c5ccc2[nH]5)C=C4)C=C3)cc1
REMARK SMILES IDX 28 1 27 2 26 3 25 4 24 5 22 6 23 7 2 8 1 9 3 13 4 14 5 15
REMARK SMILES IDX 6 16 20 17 7 18 9 19 21 20 8 21 10 22 11 23 19 24 12 25
REMARK SMILES IDX 18 26 13 27 17 28 14 29 16 30 15 31 29 32 30 33 31 34 32 35
REMARK SMILES IDX 33 36 34 37 35 38 36 39 37 40 101 41 38 42 100 43 39 44
REMARK SMILES IDX 40 45 41 46 94 47 42 48 99 49 93 50 95 51 43 52 98 53 92 54
REMARK SMILES IDX 91 55 44 57 78 58 57 59 77 60 58 61 61 62 76 63 96 64 59 65
REMARK SMILES IDX 60 66 75 68 97 69 62 70 45 71 46 72 55 73 47 74 48 75 54 76
REMARK SMILES IDX 56 77 49 78 50 79 51 80 52 81 53 82 79 83 80 84 89 85 81 86
REMARK SMILES IDX 82 87 88 88 90 89 83 90 84 91 85 92 86 93 87 94 63 95 64 96
REMARK SMILES IDX 73 97 65 98 66 99 72 100 74 101 67 102 68 103 69 104 70 105
REMARK SMILES IDX 71 106
REMARK H PARENT 1 10 1 11 1 12 95 56 61 67
REMARK Flexibility Score: inf
ROOT
ATOM      1  C   UNL     1      -2.429   0.561   1.872  1.00  0.00     0.188 C 
ENDROOT
BRANCH   1   2
ATOM      2  O   UNL     1      -3.772   0.856   1.491  1.00  0.00    -0.376 OA
BRANCH   2   3
ATOM      3  C   UNL     1      -4.094   0.957   0.105  1.00  0.00     0.202 C 
BRANCH   3   4
ATOM      4  C   UNL     1      -3.210   1.836  -0.793  1.00  0.00     0.261 C 
BRANCH   4   5
ATOM      5  O   UNL     1      -1.813   1.581  -0.600  1.00  0.00    -0.459 OA
BRANCH   5   6
ATOM      6  C   UNL     1      -0.960   2.614  -0.822  1.00  0.00     0.365 C 
ATOM      7  O   UNL     1      -1.289   3.703  -1.282  1.00  0.00    -0.245 OA
BRANCH   6   8
ATOM      8  C   UNL     1       0.469   2.272  -0.325  1.00  0.00     0.301 C 
BRANCH   8   9
ATOM      9  N   UNL     1       1.384   3.411  -0.594  1.00  0.00    -0.345 N 
ATOM     10  H   UNL     1       0.954   4.277  -0.267  1.00  0.00     0.345 HD
ATOM     11  H   UNL     1       1.560   3.477  -1.596  1.00  0.00     0.345 HD
ATOM     12  H   UNL     1       2.265   3.262  -0.103  1.00  0.00     0.345 HD
ENDBRANCH   8   9
BRANCH   8  13
ATOM     13  C   UNL     1       1.024   0.897  -0.785  1.00  0.00     0.147 C 
BRANCH  13  14
ATOM     14  S   UNL     1       2.495   0.954  -1.900  1.00  0.00    -0.141 SA
BRANCH  14  15
ATOM     15  C   UNL     1       1.742   0.638  -3.523  1.00  0.00     0.146 C 
ATOM     16  C   UNL     1       2.694   1.042  -4.639  1.00  0.00     0.125 C 
ATOM     17  C   UNL     1       0.504   1.447  -3.795  1.00  0.00     0.247 C 
ATOM     18  C   UNL     1       1.833   1.825  -5.586  1.00  0.00     0.235 C 
ATOM     19  N   UNL     1       0.684   2.181  -4.934  1.00  0.00    -0.250 N 
ATOM     20  O   UNL     1      -0.543   1.315  -3.176  1.00  0.00    -0.273 OA
ATOM     21  O   UNL     1       2.173   2.097  -6.729  1.00  0.00    -0.274 OA
BRANCH  19  22
ATOM     22  C   UNL     1      -0.352   2.968  -5.473  1.00  0.00     0.052 A 
ATOM     23  C   UNL     1      -0.822   2.729  -6.764  1.00  0.00     0.027 A 
ATOM     24  C   UNL     1      -0.947   3.972  -4.696  1.00  0.00     0.035 A 
ATOM     25  C   UNL     1      -1.900   3.463  -7.262  1.00  0.00     0.011 A 
ATOM     26  C   UNL     1      -1.983   4.768  -5.213  1.00  0.00    -0.016 A 
ATOM     27  C   UNL     1      -2.479   4.494  -6.507  1.00  0.00    -0.018 A 
ATOM     28  C   UNL     1      -2.530   5.836  -4.481  1.00  0.00     0.009 A 
ATOM     29  C   UNL     1      -3.531   5.268  -7.019  1.00  0.00     0.009 A 
ATOM     30  C   UNL     1      -3.552   6.620  -5.019  1.00  0.00     0.001 A 
ATOM     31  C   UNL     1      -4.059   6.329  -6.282  1.00  0.00     0.001 A 
ENDBRANCH  19  22
ENDBRANCH  14  15
ENDBRANCH  13  14
ENDBRANCH   8  13
ENDBRANCH   6   8
ENDBRANCH   5   6
ENDBRANCH   4   5
ENDBRANCH   3   4
ENDBRANCH   2   3
ENDBRANCH   1   2
BRANCH   1  32
ATOM     32  C   UNL     1      -1.683  -0.586   1.158  1.00  0.00     0.188 C 
BRANCH  32  33
ATOM     33  O   UNL     1      -2.442  -1.249   0.170  1.00  0.00    -0.376 OA
BRANCH  33  34
ATOM     34  C   UNL     1      -2.912  -2.554   0.464  1.00  0.00     0.202 C 
BRANCH  34  35
ATOM     35  C   UNL     1      -3.635  -2.840   1.795  1.00  0.00     0.261 C 
BRANCH  35  36
ATOM     36  O   UNL     1      -3.096  -2.234   2.979  1.00  0.00    -0.460 OA
BRANCH  36  37
ATOM     37  C   UNL     1      -1.969  -2.787   3.498  1.00  0.00     0.338 C 
ATOM     38  O   UNL     1      -1.371  -3.745   3.071  1.00  0.00    -0.246 OA
BRANCH  37  39
ATOM     39  C   UNL     1      -1.459  -1.858   4.542  1.00  0.00     0.060 A 
ATOM     40  C   UNL     1      -0.156  -1.357   4.411  1.00  0.00     0.016 A 
ATOM     41  C   UNL     1      -2.253  -1.477   5.627  1.00  0.00     0.016 A 
ATOM     42  C   UNL     1       0.373  -0.514   5.391  1.00  0.00     0.010 A 
ATOM     43  C   UNL     1      -1.714  -0.650   6.619  1.00  0.00     0.010 A 
ATOM     44  C   UNL     1      -0.384  -0.201   6.527  1.00  0.00    -0.014 A 
BRANCH  44  45
ATOM     45  C   UNL     1       0.295   0.375   7.716  1.00  0.00     0.031 A 
ATOM     46  C   UNL     1       0.766  -0.578   8.786  1.00  0.00     0.074 A 
ATOM     47  C   UNL     1       0.529   1.694   7.838  1.00  0.00     0.049 A 
ATOM     48  N   UNL     1       1.380  -0.329   9.913  1.00  0.00    -0.248 NA
ATOM     49  C   UNL     1       0.506  -2.007   8.546  1.00  0.00     0.031 C 
ATOM     50  C   UNL     1       0.164   2.714   6.857  1.00  0.00     0.029 A 
ATOM     51  N   UNL     1       1.135   2.400   8.848  1.00  0.00    -0.354 N 
ATOM     52  C   UNL     1       1.570  -1.565  10.520  1.00  0.00     0.074 A 
ATOM     53  C   UNL     1       0.980  -2.560   9.651  1.00  0.00     0.031 C 
ATOM     54  C   UNL     1       0.552   3.918   7.316  1.00  0.00     0.029 A 
ATOM     55  C   UNL     1       1.168   3.758   8.633  1.00  0.00     0.049 A 
ATOM     56  H   UNL     1       1.510   1.974   9.652  1.00  0.00     0.167 HD
ATOM     57  C   UNL     1       2.186  -1.851  11.691  1.00  0.00     0.037 A 
ATOM     58  C   UNL     1       1.634   4.753   9.415  1.00  0.00     0.037 A 
ATOM     59  C   UNL     1       2.773  -0.861  12.554  1.00  0.00     0.049 A 
ATOM     60  C   UNL     1       2.259   4.417  10.748  1.00  0.00     0.074 A 
ATOM     61  C   UNL     1       3.440  -1.050  13.751  1.00  0.00     0.029 A 
ATOM     62  N   UNL     1       2.753   0.506  12.318  1.00  0.00    -0.354 N 
ATOM     63  N   UNL     1       2.458   3.241  11.296  1.00  0.00    -0.248 NA
ATOM     64  C   UNL     1       2.728   5.546  11.565  1.00  0.00     0.031 C 
ATOM     65  C   UNL     1       3.778   0.207  14.265  1.00  0.00     0.029 A 
ATOM     66  C   UNL     1       3.374   1.175  13.360  1.00  0.00     0.049 A 
ATOM     67  H   UNL     1       2.357   0.937  11.527  1.00  0.00     0.167 HD
ATOM     68  C   UNL     1       3.110   3.488  12.502  1.00  0.00     0.074 A 
ATOM     69  C   UNL     1       3.273   4.923  12.601  1.00  0.00     0.031 C 
ATOM     70  C   UNL     1       3.540   2.606  13.440  1.00  0.00     0.037 A 
BRANCH  57  71
ATOM     71  C   UNL     1       2.219  -3.291  12.122  1.00  0.00     0.058 A 
ATOM     72  C   UNL     1       3.014  -4.246  11.467  1.00  0.00     0.135 A 
ATOM     73  C   UNL     1       1.445  -3.721  13.212  1.00  0.00     0.135 A 
ATOM     74  F   UNL     1       3.756  -3.894  10.405  1.00  0.00    -0.206 F 
ATOM     75  C   UNL     1       3.015  -5.581  11.857  1.00  0.00     0.059 A 
ATOM     76  C   UNL     1       1.454  -5.046  13.638  1.00  0.00     0.059 A 
ATOM     77  F   UNL     1       0.664  -2.852  13.871  1.00  0.00    -0.206 F 
ATOM     78  C   UNL     1       2.229  -5.972  12.942  1.00  0.00     0.060 A 
BRANCH  78  79
ATOM     79  S   UNL     1       2.233  -7.710  13.430  1.00  0.00     0.124 S 
ATOM     80  O   UNL     1       1.452  -8.315  12.355  1.00  0.00    -0.237 OA
ATOM     81  O   UNL     1       3.657  -8.030  13.436  1.00  0.00    -0.237 OA
ATOM     82  O   UNL     1       1.590  -7.697  14.740  1.00  0.00    -0.744 OA
ENDBRANCH  78  79
ENDBRANCH  57  71
BRANCH  58  83
ATOM     83  C   UNL     1       1.537   6.168   8.964  1.00  0.00     0.058 A 
ATOM     84  C   UNL     1       2.686   6.902   8.631  1.00  0.00     0.135 A 
ATOM     85  C   UNL     1       0.298   6.822   8.873  1.00  0.00     0.135 A 
ATOM     86  F   UNL     1       3.896   6.327   8.718  1.00  0.00    -0.206 F 
ATOM     87  C   UNL     1       2.614   8.235   8.238  1.00  0.00     0.059 A 
ATOM     88  C   UNL     1       0.198   8.146   8.457  1.00  0.00     0.059 A 
ATOM     89  F   UNL     1      -0.832   6.165   9.176  1.00  0.00    -0.206 F 
ATOM     90  C   UNL     1       1.363   8.848   8.152  1.00  0.00     0.060 A 
BRANCH  90  91
ATOM     91  S   UNL     1       1.278  10.566   7.599  1.00  0.00     0.124 S 
ATOM     92  O   UNL     1       1.802  11.275   8.761  1.00  0.00    -0.237 OA
ATOM     93  O   UNL     1       2.136  10.551   6.419  1.00  0.00    -0.237 OA
ATOM     94  O   UNL     1      -0.144  10.761   7.329  1.00  0.00    -0.744 OA
ENDBRANCH  90  91
ENDBRANCH  58  83
BRANCH  70  95
ATOM     95  C   UNL     1       4.277   3.158  14.631  1.00  0.00     0.058 A 
ATOM     96  C   UNL     1       3.624   3.884  15.640  1.00  0.00     0.135 A 
ATOM     97  C   UNL     1       5.653   2.919  14.784  1.00  0.00     0.135 A 
ATOM     98  F   UNL     1       2.311   4.143  15.544  1.00  0.00    -0.206 F 
ATOM     99  C   UNL     1       4.316   4.381  16.741  1.00  0.00     0.059 A 
ATOM    100  C   UNL     1       6.358   3.381  15.891  1.00  0.00     0.059 A 
ATOM    101  F   UNL     1       6.325   2.217  13.858  1.00  0.00    -0.206 F 
ATOM    102  C   UNL     1       5.684   4.126  16.857  1.00  0.00     0.060 A 
BRANCH 102 103
ATOM    103  S   UNL     1       6.567   4.762  18.297  1.00  0.00     0.124 S 
ATOM    104  O   UNL     1       6.665   6.183  17.977  1.00  0.00    -0.237 OA
ATOM    105  O   UNL     1       5.667   4.420  19.394  1.00  0.00    -0.237 OA
ATOM    106  O   UNL     1       7.827   4.025  18.276  1.00  0.00    -0.744 OA
ENDBRANCH 102 103
ENDBRANCH  70  95
ENDBRANCH  44  45
ENDBRANCH  37  39
ENDBRANCH  36  37
ENDBRANCH  35  36
ENDBRANCH  34  35
ENDBRANCH  33  34
ENDBRANCH  32  33
ENDBRANCH   1  32
TORSDOF 25
