REMARK SMILES C[C@@H](Sc1nc2c(cc1C#N)CCC2)C(=O)OCCOCCOCCOC(=O)c1ccc(-c2c3nc(c(-c4c(F)cc(S(=O)(=O)[O-])cc4F)c4ccc([nH]4)c(-c4c(F)cc(S(=O)(=O)[O-])cc4F)c4nc(c(-c5c(F)cc(S(=O)(=O)[O-])cc5F)c5ccc2[nH]5)C=C4)C=C3)cc1
REMARK SMILES IDX 21 1 20 2 19 3 18 4 17 5 15 6 16 7 2 8 1 9 3 10 4 11 5 12
REMARK SMILES IDX 9 13 6 14 8 15 7 16 14 17 12 18 13 19 10 20 11 21 22 22
REMARK SMILES IDX 23 23 24 24 25 25 26 26 27 27 28 28 29 29 30 30 94 31 31 32
REMARK SMILES IDX 93 33 32 34 33 35 34 36 87 37 35 38 92 39 86 40 88 41 36 42
REMARK SMILES IDX 91 43 85 44 84 45 37 47 71 48 50 49 70 50 51 51 54 52 69 53
REMARK SMILES IDX 89 54 52 55 53 56 68 58 90 59 55 60 38 61 39 62 48 63 40 64
REMARK SMILES IDX 41 65 47 66 49 67 42 68 43 69 44 70 45 71 46 72 72 73 73 74
REMARK SMILES IDX 82 75 74 76 75 77 81 78 83 79 76 80 77 81 78 82 79 83 80 84
REMARK SMILES IDX 56 85 57 86 66 87 58 88 59 89 65 90 67 91 60 92 61 93 62 94
REMARK SMILES IDX 63 95 64 96
REMARK H PARENT 88 46 54 57
REMARK Flexibility Score: inf
ROOT
ATOM      1  C   UNL     1      -2.288   0.888   1.869  1.00  0.00     0.188 C 
ENDROOT
BRANCH   1   2
ATOM      2  O   UNL     1      -3.541   1.474   1.546  1.00  0.00    -0.376 OA
BRANCH   2   3
ATOM      3  C   UNL     1      -3.998   1.274   0.212  1.00  0.00     0.202 C 
BRANCH   3   4
ATOM      4  C   UNL     1      -3.127   1.849  -0.920  1.00  0.00     0.261 C 
BRANCH   4   5
ATOM      5  O   UNL     1      -1.718   1.521  -0.863  1.00  0.00    -0.462 OA
BRANCH   5   6
ATOM      6  C   UNL     1      -0.869   2.553  -0.569  1.00  0.00     0.319 C 
ATOM      7  O   UNL     1      -1.232   3.714  -0.410  1.00  0.00    -0.251 OA
BRANCH   6   8
ATOM      8  C   UNL     1       0.600   2.128  -0.434  1.00  0.00     0.160 C 
ATOM      9  C   UNL     1       0.814   0.701   0.064  1.00  0.00     0.032 C 
BRANCH   8  10
ATOM     10  S   UNL     1       1.419   2.396  -2.054  1.00  0.00    -0.090 SA
BRANCH  10  11
ATOM     11  C   UNL     1       3.141   2.358  -1.558  1.00  0.00     0.115 A 
ATOM     12  N   UNL     1       3.673   3.573  -1.255  1.00  0.00    -0.245 NA
ATOM     13  C   UNL     1       3.909   1.179  -1.600  1.00  0.00     0.085 A 
ATOM     14  C   UNL     1       4.998   3.597  -1.025  1.00  0.00     0.045 A 
ATOM     15  C   UNL     1       5.275   1.241  -1.294  1.00  0.00     0.028 A 
ATOM     16  C   UNL     1       5.822   2.480  -1.042  1.00  0.00    -0.025 A 
ATOM     17  C   UNL     1       5.812   4.845  -0.800  1.00  0.00     0.057 C 
ATOM     18  C   UNL     1       7.251   2.853  -0.822  1.00  0.00     0.038 C 
ATOM     19  C   UNL     1       7.208   4.341  -1.202  1.00  0.00     0.011 C 
BRANCH  13  20
ATOM     20  C   UNL     1       3.359  -0.080  -1.992  1.00  0.00     0.102 C 
ATOM     21  N   UNL     1       2.936  -1.119  -2.300  1.00  0.00    -0.192 NA
ENDBRANCH  13  20
ENDBRANCH  10  11
ENDBRANCH   8  10
ENDBRANCH   6   8
ENDBRANCH   5   6
ENDBRANCH   4   5
ENDBRANCH   3   4
ENDBRANCH   2   3
ENDBRANCH   1   2
BRANCH   1  22
ATOM     22  C   UNL     1      -2.175  -0.609   1.599  1.00  0.00     0.188 C 
BRANCH  22  23
ATOM     23  O   UNL     1      -2.625  -1.106   0.355  1.00  0.00    -0.376 OA
BRANCH  23  24
ATOM     24  C   UNL     1      -2.863  -2.516   0.293  1.00  0.00     0.202 C 
BRANCH  24  25
ATOM     25  C   UNL     1      -3.487  -3.291   1.493  1.00  0.00     0.261 C 
BRANCH  25  26
ATOM     26  O   UNL     1      -3.047  -3.008   2.847  1.00  0.00    -0.460 OA
BRANCH  26  27
ATOM     27  C   UNL     1      -1.730  -3.122   3.147  1.00  0.00     0.338 C 
ATOM     28  O   UNL     1      -0.892  -3.656   2.441  1.00  0.00    -0.246 OA
BRANCH  27  29
ATOM     29  C   UNL     1      -1.403  -2.222   4.310  1.00  0.00     0.060 A 
ATOM     30  C   UNL     1      -0.254  -1.419   4.216  1.00  0.00     0.016 A 
ATOM     31  C   UNL     1      -2.221  -2.091   5.438  1.00  0.00     0.016 A 
ATOM     32  C   UNL     1       0.092  -0.520   5.236  1.00  0.00     0.010 A 
ATOM     33  C   UNL     1      -1.852  -1.215   6.482  1.00  0.00     0.010 A 
ATOM     34  C   UNL     1      -0.676  -0.442   6.404  1.00  0.00    -0.014 A 
BRANCH  34  35
ATOM     35  C   UNL     1      -0.117   0.265   7.599  1.00  0.00     0.031 A 
ATOM     36  C   UNL     1       0.579  -0.565   8.654  1.00  0.00     0.074 A 
ATOM     37  C   UNL     1      -0.143   1.608   7.737  1.00  0.00     0.049 A 
ATOM     38  N   UNL     1       1.167  -0.186   9.760  1.00  0.00    -0.248 NA
ATOM     39  C   UNL     1       0.621  -2.019   8.424  1.00  0.00     0.031 C 
ATOM     40  C   UNL     1      -0.737   2.546   6.787  1.00  0.00     0.029 A 
ATOM     41  N   UNL     1       0.350   2.419   8.738  1.00  0.00    -0.354 N 
ATOM     42  C   UNL     1       1.644  -1.349  10.355  1.00  0.00     0.074 A 
ATOM     43  C   UNL     1       1.249  -2.451   9.507  1.00  0.00     0.031 C 
ATOM     44  C   UNL     1      -0.582   3.800   7.252  1.00  0.00     0.029 A 
ATOM     45  C   UNL     1       0.100   3.762   8.547  1.00  0.00     0.049 A 
ATOM     46  H   UNL     1       0.836   2.071   9.519  1.00  0.00     0.167 HD
ATOM     47  C   UNL     1       2.360  -1.491  11.495  1.00  0.00     0.037 A 
ATOM     48  C   UNL     1       0.371   4.833   9.328  1.00  0.00     0.037 A 
ATOM     49  C   UNL     1       2.773  -0.400  12.337  1.00  0.00     0.049 A 
ATOM     50  C   UNL     1       1.105   4.641  10.638  1.00  0.00     0.074 A 
ATOM     51  C   UNL     1       3.533  -0.455  13.493  1.00  0.00     0.029 A 
ATOM     52  N   UNL     1       2.457   0.933  12.129  1.00  0.00    -0.354 N 
ATOM     53  N   UNL     1       1.594   3.539  11.155  1.00  0.00    -0.248 NA
ATOM     54  C   UNL     1       1.325   5.835  11.473  1.00  0.00     0.031 C 
ATOM     55  C   UNL     1       3.618   0.834  14.021  1.00  0.00     0.029 A 
ATOM     56  C   UNL     1       2.970   1.703  13.159  1.00  0.00     0.049 A 
ATOM     57  H   UNL     1       1.945   1.280  11.363  1.00  0.00     0.167 HD
ATOM     58  C   UNL     1       2.191   3.910  12.359  1.00  0.00     0.074 A 
ATOM     59  C   UNL     1       2.024   5.341  12.486  1.00  0.00     0.031 C 
ATOM     60  C   UNL     1       2.814   3.132  13.278  1.00  0.00     0.037 A 
BRANCH  47  61
ATOM     61  C   UNL     1       2.750  -2.880  11.923  1.00  0.00     0.058 A 
ATOM     62  C   UNL     1       3.747  -3.605  11.252  1.00  0.00     0.135 A 
ATOM     63  C   UNL     1       2.193  -3.447  13.082  1.00  0.00     0.135 A 
ATOM     64  F   UNL     1       4.299  -3.117  10.130  1.00  0.00    -0.206 F 
ATOM     65  C   UNL     1       4.176  -4.844  11.714  1.00  0.00     0.059 A 
ATOM     66  C   UNL     1       2.629  -4.671  13.578  1.00  0.00     0.059 A 
ATOM     67  F   UNL     1       1.234  -2.796  13.759  1.00  0.00    -0.206 F 
ATOM     68  C   UNL     1       3.620  -5.363  12.885  1.00  0.00     0.060 A 
BRANCH  68  69
ATOM     69  S   UNL     1       4.230  -6.950  13.493  1.00  0.00     0.124 S 
ATOM     70  O   UNL     1       3.776  -7.859  12.445  1.00  0.00    -0.237 OA
ATOM     71  O   UNL     1       5.670  -6.722  13.554  1.00  0.00    -0.237 OA
ATOM     72  O   UNL     1       3.564  -7.101  14.783  1.00  0.00    -0.744 OA
ENDBRANCH  68  69
ENDBRANCH  47  61
BRANCH  48  73
ATOM     73  C   UNL     1      -0.073   6.199   8.915  1.00  0.00     0.058 A 
ATOM     74  C   UNL     1       0.850   7.214   8.615  1.00  0.00     0.135 A 
ATOM     75  C   UNL     1      -1.437   6.527   8.845  1.00  0.00     0.135 A 
ATOM     76  F   UNL     1       2.167   6.966   8.690  1.00  0.00    -0.206 F 
ATOM     77  C   UNL     1       0.440   8.501   8.273  1.00  0.00     0.059 A 
ATOM     78  C   UNL     1      -1.873   7.797   8.474  1.00  0.00     0.059 A 
ATOM     79  F   UNL     1      -2.367   5.601   9.127  1.00  0.00    -0.206 F 
ATOM     80  C   UNL     1      -0.925   8.781   8.199  1.00  0.00     0.060 A 
BRANCH  80  81
ATOM     81  S   UNL     1      -1.443  10.445   7.718  1.00  0.00     0.124 S 
ATOM     82  O   UNL     1      -1.000  11.235   8.861  1.00  0.00    -0.237 OA
ATOM     83  O   UNL     1      -0.701  10.646   6.478  1.00  0.00    -0.237 OA
ATOM     84  O   UNL     1      -2.889  10.317   7.564  1.00  0.00    -0.744 OA
ENDBRANCH  80  81
ENDBRANCH  48  73
BRANCH  60  85
ATOM     85  C   UNL     1       3.381   3.783  14.513  1.00  0.00     0.058 A 
ATOM     86  C   UNL     1       2.550   4.249  15.542  1.00  0.00     0.135 A 
ATOM     87  C   UNL     1       4.770   3.816  14.731  1.00  0.00     0.135 A 
ATOM     88  F   UNL     1       1.216   4.244  15.388  1.00  0.00    -0.206 F 
ATOM     89  C   UNL     1       3.072   4.723  16.742  1.00  0.00     0.059 A 
ATOM     90  C   UNL     1       5.313   4.257  15.934  1.00  0.00     0.059 A 
ATOM     91  F   UNL     1       5.613   3.370  13.786  1.00  0.00    -0.206 F 
ATOM     92  C   UNL     1       4.455   4.710  16.935  1.00  0.00     0.060 A 
BRANCH  92  93
ATOM     93  S   UNL     1       5.108   5.256  18.528  1.00  0.00     0.124 S 
ATOM     94  O   UNL     1       4.778   6.677  18.512  1.00  0.00    -0.237 OA
ATOM     95  O   UNL     1       4.348   4.439  19.469  1.00  0.00    -0.237 OA
ATOM     96  O   UNL     1       6.531   4.943  18.441  1.00  0.00    -0.744 OA
ENDBRANCH  92  93
ENDBRANCH  60  85
ENDBRANCH  34  35
ENDBRANCH  27  29
ENDBRANCH  26  27
ENDBRANCH  25  26
ENDBRANCH  24  25
ENDBRANCH  23  24
ENDBRANCH  22  23
ENDBRANCH   1  22
TORSDOF 23
