REMARK SMILES Cc1cc(NC(=O)Nc2sc(C)c(C)c2C(=O)OCCOCCOCCOC(=O)c2ccc(-c3c4nc(c(-c5c(F)cc(S(=O)(=O)[O-])cc5F)c5ccc([nH]5)c(-c5c(F)cc(S(=O)(=O)[O-])cc5F)c5nc(c(-c6c(F)cc(S(=O)(=O)[O-])cc6F)c6ccc3[nH]6)C=C5)C=C4)cc2)ccn1
REMARK SMILES IDX 23 1 22 2 21 3 20 4 19 5 18 6 16 7 17 8 15 9 9 10 10 11
REMARK SMILES IDX 11 12 13 13 12 14 14 15 8 16 5 17 6 18 7 20 4 22 1 23 2 24
REMARK SMILES IDX 3 25 98 26 97 27 96 28 24 29 25 30 26 31 27 32 28 33 29 34
REMARK SMILES IDX 30 35 31 36 95 37 32 38 94 39 33 40 34 41 35 42 88 43 36 44
REMARK SMILES IDX 93 45 87 46 89 47 37 48 92 49 86 50 85 51 38 53 72 54 51 55
REMARK SMILES IDX 71 56 52 57 55 58 70 59 90 60 53 61 54 62 69 64 91 65 56 66
REMARK SMILES IDX 39 67 40 68 49 69 41 70 42 71 48 72 50 73 43 74 44 75 45 76
REMARK SMILES IDX 46 77 47 78 73 79 74 80 83 81 75 82 76 83 82 84 84 85 77 86
REMARK SMILES IDX 78 87 79 88 80 89 81 90 57 91 58 92 67 93 59 94 60 95 66 96
REMARK SMILES IDX 68 97 61 98 62 99 63 100 64 101 65 102
REMARK H PARENT 5 19 8 21 89 52 55 63
REMARK Flexibility Score: inf
ROOT
ATOM      1  C   UNL     1      -4.138   0.390   3.662  1.00  0.00     0.188 C 
ENDROOT
BRANCH   1   2
ATOM      2  C   UNL     1      -4.720   1.792   3.901  1.00  0.00     0.188 C 
BRANCH   2   3
ATOM      3  O   UNL     1      -6.128   2.017   3.907  1.00  0.00    -0.376 OA
BRANCH   3   4
ATOM      4  C   UNL     1      -7.024   1.011   3.469  1.00  0.00     0.202 C 
BRANCH   4   5
ATOM      5  C   UNL     1      -7.259   0.959   1.958  1.00  0.00     0.261 C 
BRANCH   5   6
ATOM      6  O   UNL     1      -6.056   0.770   1.191  1.00  0.00    -0.460 OA
BRANCH   6   7
ATOM      7  C   UNL     1      -5.535   1.921   0.663  1.00  0.00     0.341 C 
ATOM      8  O   UNL     1      -6.062   3.020   0.790  1.00  0.00    -0.246 OA
BRANCH   7   9
ATOM      9  C   UNL     1      -4.280   1.738  -0.076  1.00  0.00     0.098 A 
ATOM     10  C   UNL     1      -3.720   0.541  -0.501  1.00  0.00     0.112 A 
ATOM     11  S   UNL     1      -2.580   0.822  -1.740  1.00  0.00    -0.122 S 
ATOM     12  C   UNL     1      -2.324   2.417  -1.198  1.00  0.00     0.007 A 
ATOM     13  C   UNL     1      -3.334   2.821  -0.340  1.00  0.00    -0.021 A 
ATOM     14  C   UNL     1      -1.130   3.179  -1.668  1.00  0.00     0.057 C 
ATOM     15  C   UNL     1      -3.412   4.179   0.296  1.00  0.00     0.046 C 
BRANCH  10  16
ATOM     16  N   UNL     1      -4.046  -0.758  -0.155  1.00  0.00    -0.298 N 
ATOM     17  N   UNL     1      -1.996  -1.998  -0.348  1.00  0.00    -0.308 N 
ATOM     18  C   UNL     1      -3.352  -1.913  -0.320  1.00  0.00     0.324 C 
ATOM     19  H   UNL     1      -1.668  -2.785  -0.839  1.00  0.00     0.171 HD
ATOM     20  O   UNL     1      -3.990  -2.967  -0.426  1.00  0.00    -0.248 OA
ATOM     21  H   UNL     1      -4.923  -0.861   0.280  1.00  0.00     0.172 HD
BRANCH  17  22
ATOM     22  C   UNL     1      -0.957  -1.198   0.176  1.00  0.00     0.046 A 
ATOM     23  C   UNL     1       2.777  -0.785  -0.352  1.00  0.00     0.067 C 
ATOM     24  C   UNL     1       1.377  -0.602   0.151  1.00  0.00     0.039 A 
ATOM     25  C   UNL     1       0.344  -1.434  -0.279  1.00  0.00     0.049 A 
ATOM     26  N   UNL     1       1.168   0.441   0.982  1.00  0.00    -0.261 NA
ATOM     27  C   UNL     1      -0.085   0.623   1.437  1.00  0.00     0.113 A 
ATOM     28  C   UNL     1      -1.155  -0.189   1.107  1.00  0.00     0.046 A 
ENDBRANCH  17  22
ENDBRANCH  10  16
ENDBRANCH   7   9
ENDBRANCH   6   7
ENDBRANCH   5   6
ENDBRANCH   4   5
ENDBRANCH   3   4
ENDBRANCH   2   3
ENDBRANCH   1   2
BRANCH   1  29
ATOM     29  O   UNL     1      -4.777  -0.629   4.423  1.00  0.00    -0.376 OA
BRANCH  29  30
ATOM     30  C   UNL     1      -3.949  -1.301   5.364  1.00  0.00     0.202 C 
BRANCH  30  31
ATOM     31  C   UNL     1      -3.904  -0.554   6.701  1.00  0.00     0.261 C 
BRANCH  31  32
ATOM     32  O   UNL     1      -3.235   0.715   6.632  1.00  0.00    -0.460 OA
BRANCH  32  33
ATOM     33  C   UNL     1      -1.912   0.669   6.359  1.00  0.00     0.338 C 
ATOM     34  O   UNL     1      -1.238  -0.329   6.179  1.00  0.00    -0.246 OA
BRANCH  33  35
ATOM     35  C   UNL     1      -1.437   2.046   6.128  1.00  0.00     0.060 A 
ATOM     36  C   UNL     1      -0.684   2.298   4.977  1.00  0.00     0.016 A 
ATOM     37  C   UNL     1      -1.704   3.069   7.040  1.00  0.00     0.016 A 
ATOM     38  C   UNL     1      -0.182   3.577   4.736  1.00  0.00     0.010 A 
ATOM     39  C   UNL     1      -1.179   4.343   6.812  1.00  0.00     0.010 A 
ATOM     40  C   UNL     1      -0.399   4.598   5.671  1.00  0.00    -0.014 A 
BRANCH  40  41
ATOM     41  C   UNL     1       0.325   5.884   5.548  1.00  0.00     0.031 A 
ATOM     42  C   UNL     1       1.659   6.029   6.225  1.00  0.00     0.074 A 
ATOM     43  C   UNL     1      -0.197   6.911   4.854  1.00  0.00     0.049 A 
ATOM     44  N   UNL     1       2.446   7.070   6.292  1.00  0.00    -0.248 NA
ATOM     45  C   UNL     1       2.172   4.837   6.920  1.00  0.00     0.031 C 
ATOM     46  C   UNL     1      -1.466   6.886   4.129  1.00  0.00     0.029 A 
ATOM     47  N   UNL     1       0.280   8.182   4.659  1.00  0.00    -0.354 N 
ATOM     48  C   UNL     1       3.550   6.661   7.029  1.00  0.00     0.074 A 
ATOM     49  C   UNL     1       3.319   5.284   7.410  1.00  0.00     0.031 C 
ATOM     50  C   UNL     1      -1.675   8.095   3.578  1.00  0.00     0.029 A 
ATOM     51  C   UNL     1      -0.568   8.983   3.932  1.00  0.00     0.049 A 
ATOM     52  H   UNL     1       1.147   8.492   5.006  1.00  0.00     0.167 HD
ATOM     53  C   UNL     1       4.660   7.365   7.355  1.00  0.00     0.037 A 
ATOM     54  C   UNL     1      -0.467  10.287   3.608  1.00  0.00     0.037 A 
ATOM     55  C   UNL     1       4.882   8.740   6.999  1.00  0.00     0.049 A 
ATOM     56  C   UNL     1       0.738  11.075   4.053  1.00  0.00     0.074 A 
ATOM     57  C   UNL     1       5.976   9.538   7.283  1.00  0.00     0.029 A 
ATOM     58  N   UNL     1       3.985   9.527   6.292  1.00  0.00    -0.354 N 
ATOM     59  N   UNL     1       1.785  10.670   4.730  1.00  0.00    -0.248 NA
ATOM     60  C   UNL     1       0.771  12.501   3.693  1.00  0.00     0.031 C 
ATOM     61  C   UNL     1       5.725  10.819   6.777  1.00  0.00     0.029 A 
ATOM     62  C   UNL     1       4.491  10.808   6.147  1.00  0.00     0.049 A 
ATOM     63  H   UNL     1       3.117   9.220   5.944  1.00  0.00     0.167 HD
ATOM     64  C   UNL     1       2.612  11.783   4.856  1.00  0.00     0.074 A 
ATOM     65  C   UNL     1       1.945  12.877   4.181  1.00  0.00     0.031 C 
ATOM     66  C   UNL     1       3.817  11.887   5.470  1.00  0.00     0.037 A 
BRANCH  53  67
ATOM     67  C   UNL     1       5.705   6.651   8.161  1.00  0.00     0.058 A 
ATOM     68  C   UNL     1       6.542   5.685   7.580  1.00  0.00     0.135 A 
ATOM     69  C   UNL     1       5.867   6.928   9.526  1.00  0.00     0.135 A 
ATOM     70  F   UNL     1       6.412   5.370   6.282  1.00  0.00    -0.206 F 
ATOM     71  C   UNL     1       7.484   4.994   8.335  1.00  0.00     0.059 A 
ATOM     72  C   UNL     1       6.816   6.263  10.296  1.00  0.00     0.059 A 
ATOM     73  F   UNL     1       5.087   7.840  10.128  1.00  0.00    -0.206 F 
ATOM     74  C   UNL     1       7.607   5.285   9.695  1.00  0.00     0.060 A 
BRANCH  74  75
ATOM     75  S   UNL     1       8.814   4.364  10.672  1.00  0.00     0.124 S 
ATOM     76  O   UNL     1       8.124   3.091  10.859  1.00  0.00    -0.237 OA
ATOM     77  O   UNL     1       9.976   4.331   9.790  1.00  0.00    -0.237 OA
ATOM     78  O   UNL     1       8.967   5.178  11.874  1.00  0.00    -0.744 OA
ENDBRANCH  74  75
ENDBRANCH  53  67
BRANCH  54  79
ATOM     79  C   UNL     1      -1.545  10.941   2.822  1.00  0.00     0.058 A 
ATOM     80  C   UNL     1      -1.344  11.294   1.481  1.00  0.00     0.135 A 
ATOM     81  C   UNL     1      -2.793  11.226   3.397  1.00  0.00     0.135 A 
ATOM     82  F   UNL     1      -0.162  11.053   0.893  1.00  0.00    -0.206 F 
ATOM     83  C   UNL     1      -2.340  11.917   0.736  1.00  0.00     0.059 A 
ATOM     84  C   UNL     1      -3.811  11.830   2.667  1.00  0.00     0.059 A 
ATOM     85  F   UNL     1      -3.034  10.900   4.676  1.00  0.00    -0.206 F 
ATOM     86  C   UNL     1      -3.572  12.180   1.338  1.00  0.00     0.060 A 
BRANCH  86  87
ATOM     87  S   UNL     1      -4.878  12.940   0.348  1.00  0.00     0.124 S 
ATOM     88  O   UNL     1      -4.438  14.329   0.302  1.00  0.00    -0.237 OA
ATOM     89  O   UNL     1      -4.785  12.198  -0.906  1.00  0.00    -0.237 OA
ATOM     90  O   UNL     1      -6.082  12.683   1.132  1.00  0.00    -0.744 OA
ENDBRANCH  86  87
ENDBRANCH  54  79
BRANCH  66  91
ATOM     91  C   UNL     1       4.509  13.220   5.420  1.00  0.00     0.058 A 
ATOM     92  C   UNL     1       4.103  14.289   6.233  1.00  0.00     0.135 A 
ATOM     93  C   UNL     1       5.628  13.410   4.593  1.00  0.00     0.135 A 
ATOM     94  F   UNL     1       3.036  14.160   7.037  1.00  0.00    -0.206 F 
ATOM     95  C   UNL     1       4.774  15.509   6.216  1.00  0.00     0.059 A 
ATOM     96  C   UNL     1       6.325  14.614   4.575  1.00  0.00     0.059 A 
ATOM     97  F   UNL     1       6.062  12.415   3.804  1.00  0.00    -0.206 F 
ATOM     98  C   UNL     1       5.885  15.661   5.384  1.00  0.00     0.060 A 
BRANCH  98  99
ATOM     99  S   UNL     1       6.775  17.233   5.398  1.00  0.00     0.124 S 
ATOM    100  O   UNL     1       5.904  18.071   4.581  1.00  0.00    -0.237 OA
ATOM    101  O   UNL     1       6.817  17.559   6.820  1.00  0.00    -0.237 OA
ATOM    102  O   UNL     1       8.064  16.896   4.801  1.00  0.00    -0.744 OA
ENDBRANCH  98  99
ENDBRANCH  66  91
ENDBRANCH  40  41
ENDBRANCH  33  35
ENDBRANCH  32  33
ENDBRANCH  31  32
ENDBRANCH  30  31
ENDBRANCH  29  30
ENDBRANCH   1  29
TORSDOF 22
