REMARK SMILES CC(C)CN(C)c1cc2c(cc1Cl)C=C(C(=O)OCCOCCOCCOC(=O)c1ccc(-c3c4nc(c(-c5c(F)cc(S(=O)(=O)[O-])cc5F)c5ccc([nH]5)c(-c5c(F)cc(S(=O)(=O)[O-])cc5F)c5nc(c(-c6c(F)cc(S(=O)(=O)[O-])cc6F)c6ccc3[nH]6)C=C5)C=C4)cc1)[C@H](C(F)(F)F)O2
REMARK SMILES IDX 22 1 21 2 20 3 19 4 18 5 16 6 17 7 15 8 7 9 8 10 12 11 9 12
REMARK SMILES IDX 11 13 13 14 10 15 101 16 14 17 96 18 5 19 6 20 4 21 2 22
REMARK SMILES IDX 1 23 3 24 97 25 98 26 99 27 100 28 23 29 24 30 25 31 26 32
REMARK SMILES IDX 27 33 28 34 29 35 30 36 31 37 95 38 32 39 94 40 33 41 34 42
REMARK SMILES IDX 35 43 88 44 36 45 93 46 87 47 89 48 37 49 92 50 86 51 85 52
REMARK SMILES IDX 38 54 72 55 51 56 71 57 52 58 55 59 70 60 90 61 53 62 54 63
REMARK SMILES IDX 69 65 91 66 56 67 39 68 40 69 49 70 41 71 42 72 48 73 50 74
REMARK SMILES IDX 43 75 44 76 45 77 46 78 47 79 73 80 74 81 83 82 75 83 76 84
REMARK SMILES IDX 82 85 84 86 77 87 78 88 79 89 80 90 81 91 57 92 58 93 67 94
REMARK SMILES IDX 59 95 60 96 66 97 68 98 61 99 62 100 63 101 64 102 65 103
REMARK H PARENT 89 53 55 64
REMARK Flexibility Score: inf
ROOT
ATOM      1  C   UNL     1       0.506  -5.257   6.080  1.00  0.00     0.188 C 
ENDROOT
BRANCH   1   2
ATOM      2  O   UNL     1       0.558  -6.032   7.256  1.00  0.00    -0.376 OA
BRANCH   2   3
ATOM      3  C   UNL     1      -0.096  -5.591   8.436  1.00  0.00     0.202 C 
BRANCH   3   4
ATOM      4  C   UNL     1      -0.774  -4.219   8.606  1.00  0.00     0.261 C 
BRANCH   4   5
ATOM      5  O   UNL     1      -1.280  -3.607   7.413  1.00  0.00    -0.460 OA
BRANCH   5   6
ATOM      6  C   UNL     1      -0.904  -2.325   7.220  1.00  0.00     0.338 C 
ATOM      7  O   UNL     1      -0.257  -1.642   7.999  1.00  0.00    -0.246 OA
BRANCH   6   8
ATOM      8  C   UNL     1      -1.236  -1.858   5.860  1.00  0.00     0.087 C 
ATOM      9  C   UNL     1      -0.867   0.913   1.651  1.00  0.00     0.059 A 
ATOM     10  C   UNL     1      -1.913   0.231   2.301  1.00  0.00     0.074 A 
ATOM     11  C   UNL     1       0.401   0.876   2.269  1.00  0.00     0.065 A 
ATOM     12  C   UNL     1      -1.695  -0.486   3.485  1.00  0.00     0.130 A 
ATOM     13  C   UNL     1       0.642   0.064   3.380  1.00  0.00     0.034 A 
ATOM     14  Cl  UNL     1       1.707   1.894   1.764  1.00  0.00    -0.082 Cl
ATOM     15  C   UNL     1      -0.406  -0.625   3.985  1.00  0.00     0.019 A 
ATOM     16  O   UNL     1      -2.799  -0.999   4.103  1.00  0.00    -0.475 OA
ATOM     17  C   UNL     1      -0.170  -1.402   5.186  1.00  0.00     0.027 C 
ATOM     18  C   UNL     1      -2.660  -1.653   5.407  1.00  0.00     0.316 C 
BRANCH   9  19
ATOM     19  N   UNL     1      -1.095   1.601   0.452  1.00  0.00    -0.373 N 
ATOM     20  C   UNL     1      -2.126   2.632   0.491  1.00  0.00     0.143 C 
BRANCH  19  21
ATOM     21  C   UNL     1      -0.921   0.859  -0.817  1.00  0.00     0.119 C 
BRANCH  21  22
ATOM     22  C   UNL     1       0.557   0.709  -1.238  1.00  0.00     0.002 C 
ATOM     23  C   UNL     1       1.168  -0.610  -0.751  1.00  0.00     0.009 C 
ATOM     24  C   UNL     1       0.725   0.784  -2.759  1.00  0.00     0.009 C 
ENDBRANCH  21  22
ENDBRANCH  19  21
ENDBRANCH   9  19
BRANCH  18  25
ATOM     25  C   UNL     1      -3.569  -2.894   5.341  1.00  0.00     0.430 C 
ATOM     26  F   UNL     1      -3.650  -3.551   6.516  1.00  0.00    -0.167 F 
ATOM     27  F   UNL     1      -4.843  -2.518   5.040  1.00  0.00    -0.167 F 
ATOM     28  F   UNL     1      -3.187  -3.760   4.379  1.00  0.00    -0.167 F 
ENDBRANCH  18  25
ENDBRANCH   6   8
ENDBRANCH   5   6
ENDBRANCH   4   5
ENDBRANCH   3   4
ENDBRANCH   2   3
ENDBRANCH   1   2
BRANCH   1  29
ATOM     29  C   UNL     1      -0.774  -5.356   5.228  1.00  0.00     0.188 C 
BRANCH  29  30
ATOM     30  O   UNL     1      -1.930  -5.998   5.729  1.00  0.00    -0.376 OA
BRANCH  30  31
ATOM     31  C   UNL     1      -1.865  -7.362   6.112  1.00  0.00     0.202 C 
BRANCH  31  32
ATOM     32  C   UNL     1      -1.108  -8.422   5.295  1.00  0.00     0.261 C 
BRANCH  32  33
ATOM     33  O   UNL     1       0.149  -8.018   4.744  1.00  0.00    -0.460 OA
BRANCH  33  34
ATOM     34  C   UNL     1       0.164  -7.839   3.394  1.00  0.00     0.338 C 
ATOM     35  O   UNL     1      -0.755  -7.989   2.619  1.00  0.00    -0.246 OA
BRANCH  34  36
ATOM     36  C   UNL     1       1.456  -7.216   3.037  1.00  0.00     0.060 A 
ATOM     37  C   UNL     1       2.650  -7.890   3.284  1.00  0.00     0.016 A 
ATOM     38  C   UNL     1       1.463  -5.935   2.465  1.00  0.00     0.016 A 
ATOM     39  C   UNL     1       3.859  -7.280   2.946  1.00  0.00     0.010 A 
ATOM     40  C   UNL     1       2.674  -5.318   2.147  1.00  0.00     0.010 A 
ATOM     41  C   UNL     1       3.880  -5.997   2.368  1.00  0.00    -0.014 A 
BRANCH  41  42
ATOM     42  C   UNL     1       5.157  -5.455   1.845  1.00  0.00     0.031 A 
ATOM     43  C   UNL     1       5.943  -4.417   2.587  1.00  0.00     0.074 A 
ATOM     44  C   UNL     1       5.611  -5.949   0.676  1.00  0.00     0.049 A 
ATOM     45  N   UNL     1       7.126  -3.934   2.306  1.00  0.00    -0.248 NA
ATOM     46  C   UNL     1       5.330  -3.845   3.794  1.00  0.00     0.031 C 
ATOM     47  C   UNL     1       4.907  -6.941  -0.142  1.00  0.00     0.029 A 
ATOM     48  N   UNL     1       6.768  -5.707  -0.015  1.00  0.00    -0.354 N 
ATOM     49  C   UNL     1       7.419  -3.025   3.314  1.00  0.00     0.074 A 
ATOM     50  C   UNL     1       6.263  -2.984   4.188  1.00  0.00     0.031 C 
ATOM     51  C   UNL     1       5.665  -7.250  -1.204  1.00  0.00     0.029 A 
ATOM     52  C   UNL     1       6.893  -6.461  -1.159  1.00  0.00     0.049 A 
ATOM     53  H   UNL     1       7.446  -5.056   0.278  1.00  0.00     0.167 HD
ATOM     54  C   UNL     1       8.558  -2.314   3.500  1.00  0.00     0.037 A 
ATOM     55  C   UNL     1       7.887  -6.518  -2.065  1.00  0.00     0.037 A 
ATOM     56  C   UNL     1       9.696  -2.356   2.613  1.00  0.00     0.049 A 
ATOM     57  C   UNL     1       9.115  -5.674  -1.857  1.00  0.00     0.074 A 
ATOM     58  C   UNL     1      10.905  -1.691   2.737  1.00  0.00     0.029 A 
ATOM     59  N   UNL     1       9.769  -3.093   1.440  1.00  0.00    -0.354 N 
ATOM     60  N   UNL     1       9.406  -4.875  -0.858  1.00  0.00    -0.248 NA
ATOM     61  C   UNL     1      10.152  -5.743  -2.895  1.00  0.00     0.031 C 
ATOM     62  C   UNL     1      11.686  -1.984   1.615  1.00  0.00     0.029 A 
ATOM     63  C   UNL     1      10.989  -2.876   0.818  1.00  0.00     0.049 A 
ATOM     64  H   UNL     1       9.058  -3.683   1.098  1.00  0.00     0.167 HD
ATOM     65  C   UNL     1      10.670  -4.366  -1.136  1.00  0.00     0.074 A 
ATOM     66  C   UNL     1      11.095  -4.964  -2.384  1.00  0.00     0.031 C 
ATOM     67  C   UNL     1      11.407  -3.480  -0.424  1.00  0.00     0.037 A 
BRANCH  54  68
ATOM     68  C   UNL     1       8.665  -1.442   4.722  1.00  0.00     0.058 A 
ATOM     69  C   UNL     1       8.847  -2.000   5.997  1.00  0.00     0.135 A 
ATOM     70  C   UNL     1       8.720  -0.043   4.607  1.00  0.00     0.135 A 
ATOM     71  F   UNL     1       8.794  -3.330   6.167  1.00  0.00    -0.206 F 
ATOM     72  C   UNL     1       9.082  -1.203   7.113  1.00  0.00     0.059 A 
ATOM     73  C   UNL     1       8.976   0.773   5.706  1.00  0.00     0.059 A 
ATOM     74  F   UNL     1       8.555   0.543   3.410  1.00  0.00    -0.206 F 
ATOM     75  C   UNL     1       9.157   0.182   6.956  1.00  0.00     0.060 A 
BRANCH  75  76
ATOM     76  S   UNL     1       9.517   1.190   8.410  1.00  0.00     0.124 S 
ATOM     77  O   UNL     1       8.310   0.997   9.207  1.00  0.00    -0.237 OA
ATOM     78  O   UNL     1      10.726   0.560   8.931  1.00  0.00    -0.237 OA
ATOM     79  O   UNL     1       9.697   2.531   7.862  1.00  0.00    -0.744 OA
ENDBRANCH  75  76
ENDBRANCH  54  68
BRANCH  55  80
ATOM     80  C   UNL     1       7.773  -7.422  -3.239  1.00  0.00     0.058 A 
ATOM     81  C   UNL     1       8.617  -8.533  -3.380  1.00  0.00     0.135 A 
ATOM     82  C   UNL     1       6.824  -7.190  -4.247  1.00  0.00     0.135 A 
ATOM     83  F   UNL     1       9.542  -8.796  -2.444  1.00  0.00    -0.206 F 
ATOM     84  C   UNL     1       8.546  -9.365  -4.492  1.00  0.00     0.059 A 
ATOM     85  C   UNL     1       6.712  -8.026  -5.353  1.00  0.00     0.059 A 
ATOM     86  F   UNL     1       5.979  -6.152  -4.151  1.00  0.00    -0.206 F 
ATOM     87  C   UNL     1       7.590  -9.101  -5.474  1.00  0.00     0.060 A 
BRANCH  87  88
ATOM     88  S   UNL     1       7.501 -10.195  -6.907  1.00  0.00     0.124 S 
ATOM     89  O   UNL     1       8.739  -9.866  -7.604  1.00  0.00    -0.237 OA
ATOM     90  O   UNL     1       7.450 -11.513  -6.282  1.00  0.00    -0.237 OA
ATOM     91  O   UNL     1       6.272  -9.777  -7.574  1.00  0.00    -0.744 OA
ENDBRANCH  87  88
ENDBRANCH  55  80
BRANCH  67  92
ATOM     92  C   UNL     1      12.763  -3.109  -0.963  1.00  0.00     0.058 A 
ATOM     93  C   UNL     1      12.906  -2.304  -2.104  1.00  0.00     0.135 A 
ATOM     94  C   UNL     1      13.933  -3.511  -0.297  1.00  0.00     0.135 A 
ATOM     95  F   UNL     1      11.822  -1.899  -2.785  1.00  0.00    -0.206 F 
ATOM     96  C   UNL     1      14.159  -1.928  -2.578  1.00  0.00     0.059 A 
ATOM     97  C   UNL     1      15.195  -3.121  -0.734  1.00  0.00     0.059 A 
ATOM     98  F   UNL     1      13.855  -4.275   0.805  1.00  0.00    -0.206 F 
ATOM     99  C   UNL     1      15.298  -2.336  -1.882  1.00  0.00     0.060 A 
BRANCH  99 100
ATOM    100  S   UNL     1      16.913  -1.803  -2.487  1.00  0.00     0.124 S 
ATOM    101  O   UNL     1      17.032  -2.568  -3.724  1.00  0.00    -0.237 OA
ATOM    102  O   UNL     1      16.725  -0.365  -2.648  1.00  0.00    -0.237 OA
ATOM    103  O   UNL     1      17.826  -2.196  -1.418  1.00  0.00    -0.744 OA
ENDBRANCH  99 100
ENDBRANCH  67  92
ENDBRANCH  41  42
ENDBRANCH  34  36
ENDBRANCH  33  34
ENDBRANCH  32  33
ENDBRANCH  31  32
ENDBRANCH  30  31
ENDBRANCH  29  30
ENDBRANCH   1  29
TORSDOF 24
