REMARK SMILES C[C@H]1CC[C@@]2(CO)C(C(=O)OCCOCCOCCOC(=O)c3ccc(-c4c5nc(c(-c6c(F)cc(S(=O)(=O)[O-])cc6F)c6ccc([nH]6)c(-c6c(F)cc(S(=O)(=O)[O-])cc6F)c6nc(c(-c7c(F)cc(S(=O)(=O)[O-])cc7F)c7ccc4[nH]7)C=C6)C=C5)cc3)=C[C@@H](O)C[C@@H]2[C@@]1(C)CCc1ccoc1
REMARK SMILES IDX 15 1 14 2 13 3 12 4 11 5 9 6 10 7 8 8 1 9 2 10 3 11 94 12
REMARK SMILES IDX 4 13 93 14 95 15 5 16 92 17 90 18 89 19 96 20 97 21 98 22
REMARK SMILES IDX 99 23 102 24 100 25 101 26 6 27 7 28 91 30 16 32 17 33 18 34
REMARK SMILES IDX 19 35 20 36 21 37 22 38 23 39 24 40 88 41 25 42 87 43 26 44
REMARK SMILES IDX 27 45 28 46 81 47 29 48 86 49 80 50 82 51 30 52 85 53 79 54
REMARK SMILES IDX 78 55 31 57 65 58 44 59 64 60 45 61 48 62 63 63 83 64 46 65
REMARK SMILES IDX 47 66 62 68 84 69 49 70 32 71 33 72 42 73 34 74 35 75 41 76
REMARK SMILES IDX 43 77 36 78 37 79 38 80 39 81 40 82 66 83 67 84 76 85 68 86
REMARK SMILES IDX 69 87 75 88 77 89 70 90 71 91 72 92 73 93 74 94 50 95 51 96
REMARK SMILES IDX 60 97 52 98 53 99 59 100 61 101 54 102 55 103 56 104 57 105
REMARK SMILES IDX 58 106
REMARK H PARENT 7 29 91 31 82 56 48 67
REMARK Flexibility Score: inf
ROOT
ATOM      1  C   UNL     1       3.184  -2.054   2.377  1.00  0.00     0.188 C 
ENDROOT
BRANCH   1   2
ATOM      2  O   UNL     1       3.720  -1.126   3.310  1.00  0.00    -0.376 OA
BRANCH   2   3
ATOM      3  C   UNL     1       3.779   0.225   2.890  1.00  0.00     0.202 C 
BRANCH   3   4
ATOM      4  C   UNL     1       2.441   0.980   2.847  1.00  0.00     0.261 C 
BRANCH   4   5
ATOM      5  O   UNL     1       1.310   0.196   2.437  1.00  0.00    -0.460 OA
BRANCH   5   6
ATOM      6  C   UNL     1       1.245  -0.015   1.099  1.00  0.00     0.334 C 
ATOM      7  O   UNL     1       2.078   0.415   0.321  1.00  0.00    -0.247 OA
BRANCH   6   8
ATOM      8  C   UNL     1       0.100  -0.935   0.718  1.00  0.00     0.044 C 
ATOM      9  C   UNL     1       1.231   2.224  -2.084  1.00  0.00     0.008 C 
ATOM     10  C   UNL     1       0.253   1.259  -2.806  1.00  0.00    -0.008 C 
ATOM     11  C   UNL     1       0.921  -0.119  -2.955  1.00  0.00     0.005 C 
ATOM     12  C   UNL     1      -1.207   1.201  -2.182  1.00  0.00    -0.026 C 
ATOM     13  C   UNL     1       0.837  -1.073  -1.761  1.00  0.00     0.015 C 
ATOM     14  C   UNL     1      -1.017   0.557  -0.770  1.00  0.00     0.011 C 
ATOM     15  C   UNL     1      -2.131   0.338  -3.061  1.00  0.00     0.012 C 
ATOM     16  C   UNL     1      -0.345  -0.880  -0.763  1.00  0.00     0.029 C 
ATOM     17  C   UNL     1      -2.211   0.632   0.239  1.00  0.00     0.041 C 
ATOM     18  C   UNL     1      -1.891   0.077   1.656  1.00  0.00     0.138 C 
ATOM     19  C   UNL     1      -0.890  -1.054   1.640  1.00  0.00     0.016 C 
BRANCH  12  20
ATOM     20  C   UNL     1      -1.725   2.696  -2.093  1.00  0.00     0.012 C 
BRANCH  20  21
ATOM     21  C   UNL     1      -3.098   3.113  -2.640  1.00  0.00     0.039 C 
BRANCH  21  22
ATOM     22  C   UNL     1      -4.275   2.873  -1.763  1.00  0.00    -0.010 A 
ATOM     23  C   UNL     1      -5.553   2.388  -2.161  1.00  0.00     0.045 A 
ATOM     24  C   UNL     1      -4.409   3.179  -0.423  1.00  0.00     0.198 A 
ATOM     25  C   UNL     1      -6.345   2.402  -1.038  1.00  0.00     0.195 A 
ATOM     26  O   UNL     1      -5.649   2.872   0.027  1.00  0.00    -0.472 OA
ENDBRANCH  21  22
ENDBRANCH  20  21
ENDBRANCH  12  20
BRANCH  16  27
ATOM     27  C   UNL     1      -1.347  -2.082  -1.005  1.00  0.00     0.168 C 
BRANCH  27  28
ATOM     28  O   UNL     1      -1.545  -2.413  -2.371  1.00  0.00    -0.395 OA
ATOM     29  H   UNL     1      -1.942  -1.657  -2.832  1.00  0.00     0.210 HD
ENDBRANCH  27  28
ENDBRANCH  16  27
BRANCH  18  30
ATOM     30  O   UNL     1      -1.371   1.117   2.478  1.00  0.00    -0.389 OA
ATOM     31  H   UNL     1      -0.536   1.439   2.103  1.00  0.00     0.211 HD
ENDBRANCH  18  30
ENDBRANCH   6   8
ENDBRANCH   5   6
ENDBRANCH   4   5
ENDBRANCH   3   4
ENDBRANCH   2   3
ENDBRANCH   1   2
BRANCH   1  32
ATOM     32  C   UNL     1       1.887  -2.716   2.889  1.00  0.00     0.188 C 
BRANCH  32  33
ATOM     33  O   UNL     1       1.483  -2.514   4.232  1.00  0.00    -0.376 OA
BRANCH  33  34
ATOM     34  C   UNL     1       2.477  -2.744   5.220  1.00  0.00     0.202 C 
BRANCH  34  35
ATOM     35  C   UNL     1       3.273  -4.069   5.178  1.00  0.00     0.261 C 
BRANCH  35  36
ATOM     36  O   UNL     1       3.820  -4.462   3.893  1.00  0.00    -0.460 OA
BRANCH  36  37
ATOM     37  C   UNL     1       3.255  -5.545   3.288  1.00  0.00     0.338 C 
ATOM     38  O   UNL     1       2.398  -6.273   3.771  1.00  0.00    -0.246 OA
BRANCH  37  39
ATOM     39  C   UNL     1       3.624  -5.607   1.844  1.00  0.00     0.060 A 
ATOM     40  C   UNL     1       2.623  -5.442   0.866  1.00  0.00     0.016 A 
ATOM     41  C   UNL     1       4.928  -5.888   1.443  1.00  0.00     0.016 A 
ATOM     42  C   UNL     1       2.917  -5.560  -0.500  1.00  0.00     0.010 A 
ATOM     43  C   UNL     1       5.211  -6.052   0.077  1.00  0.00     0.010 A 
ATOM     44  C   UNL     1       4.207  -5.913  -0.904  1.00  0.00    -0.014 A 
BRANCH  44  45
ATOM     45  C   UNL     1       4.492  -6.337  -2.305  1.00  0.00     0.031 A 
ATOM     46  C   UNL     1       4.527  -7.812  -2.611  1.00  0.00     0.074 A 
ATOM     47  C   UNL     1       4.771  -5.456  -3.284  1.00  0.00     0.049 A 
ATOM     48  N   UNL     1       4.967  -8.435  -3.673  1.00  0.00    -0.248 NA
ATOM     49  C   UNL     1       3.998  -8.701  -1.565  1.00  0.00     0.031 C 
ATOM     50  C   UNL     1       4.704  -4.003  -3.163  1.00  0.00     0.029 A 
ATOM     51  N   UNL     1       5.210  -5.668  -4.572  1.00  0.00    -0.354 N 
ATOM     52  C   UNL     1       4.799  -9.790  -3.413  1.00  0.00     0.074 A 
ATOM     53  C   UNL     1       4.224  -9.896  -2.089  1.00  0.00     0.031 C 
ATOM     54  C   UNL     1       5.139  -3.451  -4.311  1.00  0.00     0.029 A 
ATOM     55  C   UNL     1       5.562  -4.511  -5.229  1.00  0.00     0.049 A 
ATOM     56  H   UNL     1       5.267  -6.561  -4.983  1.00  0.00     0.167 HD
ATOM     57  C   UNL     1       5.103 -10.851  -4.201  1.00  0.00     0.037 A 
ATOM     58  C   UNL     1       6.201  -4.326  -6.404  1.00  0.00     0.037 A 
ATOM     59  C   UNL     1       5.681 -10.746  -5.515  1.00  0.00     0.049 A 
ATOM     60  C   UNL     1       6.622  -5.518  -7.230  1.00  0.00     0.074 A 
ATOM     61  C   UNL     1       6.007 -11.764  -6.395  1.00  0.00     0.029 A 
ATOM     62  N   UNL     1       6.036  -9.557  -6.135  1.00  0.00    -0.354 N 
ATOM     63  N   UNL     1       6.456  -6.796  -6.981  1.00  0.00    -0.248 NA
ATOM     64  C   UNL     1       7.326  -5.245  -8.493  1.00  0.00     0.031 C 
ATOM     65  C   UNL     1       6.614 -11.195  -7.519  1.00  0.00     0.029 A 
ATOM     66  C   UNL     1       6.611  -9.817  -7.369  1.00  0.00     0.049 A 
ATOM     67  H   UNL     1       5.899  -8.659  -5.753  1.00  0.00     0.167 HD
ATOM     68  C   UNL     1       7.017  -7.474  -8.062  1.00  0.00     0.074 A 
ATOM     69  C   UNL     1       7.516  -6.467  -8.973  1.00  0.00     0.031 C 
ATOM     70  C   UNL     1       7.107  -8.811  -8.277  1.00  0.00     0.037 A 
BRANCH  57  71
ATOM     71  C   UNL     1       4.861 -12.224  -3.634  1.00  0.00     0.058 A 
ATOM     72  C   UNL     1       3.566 -12.729  -3.432  1.00  0.00     0.135 A 
ATOM     73  C   UNL     1       5.945 -13.051  -3.293  1.00  0.00     0.135 A 
ATOM     74  F   UNL     1       2.494 -11.977  -3.726  1.00  0.00    -0.206 F 
ATOM     75  C   UNL     1       3.355 -13.985  -2.872  1.00  0.00     0.059 A 
ATOM     76  C   UNL     1       5.757 -14.323  -2.763  1.00  0.00     0.059 A 
ATOM     77  F   UNL     1       7.204 -12.621  -3.468  1.00  0.00    -0.206 F 
ATOM     78  C   UNL     1       4.458 -14.773  -2.536  1.00  0.00     0.060 A 
BRANCH  78  79
ATOM     79  S   UNL     1       4.167 -16.389  -1.786  1.00  0.00     0.124 S 
ATOM     80  O   UNL     1       3.714 -16.011  -0.450  1.00  0.00    -0.237 OA
ATOM     81  O   UNL     1       3.149 -16.960  -2.661  1.00  0.00    -0.237 OA
ATOM     82  O   UNL     1       5.475 -17.033  -1.845  1.00  0.00    -0.744 OA
ENDBRANCH  78  79
ENDBRANCH  57  71
BRANCH  58  83
ATOM     83  C   UNL     1       6.537  -2.944  -6.850  1.00  0.00     0.058 A 
ATOM     84  C   UNL     1       5.903  -2.360  -7.956  1.00  0.00     0.135 A 
ATOM     85  C   UNL     1       7.495  -2.176  -6.168  1.00  0.00     0.135 A 
ATOM     86  F   UNL     1       5.000  -3.060  -8.659  1.00  0.00    -0.206 F 
ATOM     87  C   UNL     1       6.202  -1.063  -8.367  1.00  0.00     0.059 A 
ATOM     88  C   UNL     1       7.791  -0.869  -6.543  1.00  0.00     0.059 A 
ATOM     89  F   UNL     1       8.135  -2.689  -5.105  1.00  0.00    -0.206 F 
ATOM     90  C   UNL     1       7.140  -0.322  -7.647  1.00  0.00     0.060 A 
BRANCH  90  91
ATOM     91  S   UNL     1       7.458   1.387  -8.141  1.00  0.00     0.124 S 
ATOM     92  O   UNL     1       8.197   1.202  -9.385  1.00  0.00    -0.237 OA
ATOM     93  O   UNL     1       6.107   1.922  -8.274  1.00  0.00    -0.237 OA
ATOM     94  O   UNL     1       8.229   1.922  -7.023  1.00  0.00    -0.744 OA
ENDBRANCH  90  91
ENDBRANCH  58  83
BRANCH  70  95
ATOM     95  C   UNL     1       7.748  -9.284  -9.556  1.00  0.00     0.058 A 
ATOM     96  C   UNL     1       9.135  -9.210  -9.760  1.00  0.00     0.135 A 
ATOM     97  C   UNL     1       6.975  -9.901 -10.555  1.00  0.00     0.135 A 
ATOM     98  F   UNL     1       9.922  -8.625  -8.844  1.00  0.00    -0.206 F 
ATOM     99  C   UNL     1       9.731  -9.725 -10.909  1.00  0.00     0.059 A 
ATOM    100  C   UNL     1       7.553 -10.446 -11.699  1.00  0.00     0.059 A 
ATOM    101  F   UNL     1       5.644 -10.008 -10.410  1.00  0.00    -0.206 F 
ATOM    102  C   UNL     1       8.932 -10.348 -11.870  1.00  0.00     0.060 A 
BRANCH 102 103
ATOM    103  S   UNL     1       9.727 -11.065 -13.325  1.00  0.00     0.124 S 
ATOM    104  O   UNL     1      10.120  -9.871 -14.066  1.00  0.00    -0.237 OA
ATOM    105  O   UNL     1      10.820 -11.834 -12.737  1.00  0.00    -0.237 OA
ATOM    106  O   UNL     1       8.667 -11.862 -13.935  1.00  0.00    -0.744 OA
ENDBRANCH 102 103
ENDBRANCH  70  95
ENDBRANCH  44  45
ENDBRANCH  37  39
ENDBRANCH  36  37
ENDBRANCH  35  36
ENDBRANCH  34  35
ENDBRANCH  33  34
ENDBRANCH  32  33
ENDBRANCH   1  32
TORSDOF 26
