REMARK SMILES O=C(OCCOCCOCCOC(=O)c1cc(NS(=O)(=O)c2ccc(Br)s2)cnc1N1CCCC1)c1ccc(-c2c3nc(c(-c4c(F)cc(S(=O)(=O)[O-])cc4F)c4ccc([nH]4)c(-c4c(F)cc(S(=O)(=O)[O-])cc4F)c4nc(c(-c5c(F)cc(S(=O)(=O)[O-])cc5F)c5ccc2[nH]5)C=C4)C=C3)cc1
REMARK SMILES IDX 7 1 6 2 5 3 4 4 3 5 2 6 1 7 36 8 37 9 101 10 38 11 100 12
REMARK SMILES IDX 39 13 40 14 41 15 94 16 42 17 99 18 93 19 95 20 43 21 98 22
REMARK SMILES IDX 92 23 91 24 44 26 78 27 57 28 77 29 58 30 61 31 76 32 96 33
REMARK SMILES IDX 59 34 60 35 75 37 97 38 62 39 45 40 46 41 55 42 47 43 48 44
REMARK SMILES IDX 54 45 56 46 49 47 50 48 51 49 52 50 53 51 79 52 80 53 89 54
REMARK SMILES IDX 81 55 82 56 88 57 90 58 83 59 84 60 85 61 86 62 87 63 63 64
REMARK SMILES IDX 64 65 73 66 65 67 66 68 72 69 74 70 67 71 68 72 69 73 70 74
REMARK SMILES IDX 71 75 8 76 9 77 10 78 11 79 12 80 13 81 14 82 15 83 16 84
REMARK SMILES IDX 30 85 17 86 29 87 28 88 31 89 32 90 35 91 33 92 34 93 18 94
REMARK SMILES IDX 19 96 20 97 21 98 22 99 23 100 27 101 24 102 25 103 26 104
REMARK H PARENT 95 25 61 36 18 95
REMARK Flexibility Score: inf
ROOT
ATOM      1  C   UNL     1       3.103   1.885   0.080  1.00  0.00     0.188 C 
ENDROOT
BRANCH   1   2
ATOM      2  O   UNL     1       4.509   1.689   0.068  1.00  0.00    -0.376 OA
BRANCH   2   3
ATOM      3  C   UNL     1       5.087   1.276  -1.169  1.00  0.00     0.202 C 
BRANCH   3   4
ATOM      4  C   UNL     1       4.669  -0.090  -1.776  1.00  0.00     0.261 C 
BRANCH   4   5
ATOM      5  O   UNL     1       3.286  -0.452  -1.602  1.00  0.00    -0.460 OA
BRANCH   5   6
ATOM      6  C   UNL     1       2.775  -1.445  -0.832  1.00  0.00     0.338 C 
ATOM      7  O   UNL     1       1.677  -1.915  -1.125  1.00  0.00    -0.246 OA
BRANCH   6   8
ATOM      8  C   UNL     1       3.432  -1.918   0.428  1.00  0.00     0.060 A 
ATOM      9  C   UNL     1       4.559  -1.327   0.989  1.00  0.00     0.016 A 
ATOM     10  C   UNL     1       2.820  -2.966   1.144  1.00  0.00     0.016 A 
ATOM     11  C   UNL     1       5.139  -1.822   2.145  1.00  0.00     0.010 A 
ATOM     12  C   UNL     1       3.362  -3.433   2.350  1.00  0.00     0.010 A 
ATOM     13  C   UNL     1       4.562  -2.892   2.822  1.00  0.00    -0.014 A 
BRANCH  13  14
ATOM     14  C   UNL     1       5.380  -3.516   3.883  1.00  0.00     0.031 A 
ATOM     15  C   UNL     1       6.075  -4.809   3.563  1.00  0.00     0.074 A 
ATOM     16  C   UNL     1       5.683  -2.812   4.992  1.00  0.00     0.049 A 
ATOM     17  N   UNL     1       6.941  -5.480   4.273  1.00  0.00    -0.248 NA
ATOM     18  C   UNL     1       5.777  -5.415   2.252  1.00  0.00     0.031 C 
ATOM     19  C   UNL     1       5.151  -1.486   5.318  1.00  0.00     0.029 A 
ATOM     20  N   UNL     1       6.557  -3.077   6.012  1.00  0.00    -0.354 N 
ATOM     21  C   UNL     1       7.294  -6.576   3.495  1.00  0.00     0.074 A 
ATOM     22  C   UNL     1       6.521  -6.508   2.277  1.00  0.00     0.031 C 
ATOM     23  C   UNL     1       5.739  -1.040   6.441  1.00  0.00     0.029 A 
ATOM     24  C   UNL     1       6.643  -2.068   6.942  1.00  0.00     0.049 A 
ATOM     25  H   UNL     1       7.075  -3.912   6.074  1.00  0.00     0.167 HD
ATOM     26  C   UNL     1       8.198  -7.544   3.767  1.00  0.00     0.037 A 
ATOM     27  C   UNL     1       7.359  -1.996   8.079  1.00  0.00     0.037 A 
ATOM     28  C   UNL     1       8.952  -7.595   4.988  1.00  0.00     0.049 A 
ATOM     29  C   UNL     1       8.261  -3.150   8.419  1.00  0.00     0.074 A 
ATOM     30  C   UNL     1       9.826  -8.572   5.425  1.00  0.00     0.029 A 
ATOM     31  N   UNL     1       8.921  -6.613   5.969  1.00  0.00    -0.354 N 
ATOM     32  N   UNL     1       8.520  -4.226   7.712  1.00  0.00    -0.248 NA
ATOM     33  C   UNL     1       8.960  -3.089   9.708  1.00  0.00     0.031 C 
ATOM     34  C   UNL     1      10.294  -8.199   6.689  1.00  0.00     0.029 A 
ATOM     35  C   UNL     1       9.750  -6.965   7.017  1.00  0.00     0.049 A 
ATOM     36  H   UNL     1       8.387  -5.787   5.924  1.00  0.00     0.167 HD
ATOM     37  C   UNL     1       9.420  -4.966   8.467  1.00  0.00     0.074 A 
ATOM     38  C   UNL     1       9.680  -4.201   9.671  1.00  0.00     0.031 C 
ATOM     39  C   UNL     1       9.979  -6.173   8.198  1.00  0.00     0.037 A 
BRANCH  26  40
ATOM     40  C   UNL     1       8.370  -8.630   2.744  1.00  0.00     0.058 A 
ATOM     41  C   UNL     1       9.024  -8.399   1.522  1.00  0.00     0.135 A 
ATOM     42  C   UNL     1       7.853  -9.913   2.977  1.00  0.00     0.135 A 
ATOM     43  F   UNL     1       9.503  -7.179   1.231  1.00  0.00    -0.206 F 
ATOM     44  C   UNL     1       9.139  -9.398   0.559  1.00  0.00     0.059 A 
ATOM     45  C   UNL     1       7.978 -10.934   2.039  1.00  0.00     0.059 A 
ATOM     46  F   UNL     1       7.204 -10.182   4.121  1.00  0.00    -0.206 F 
ATOM     47  C   UNL     1       8.611 -10.662   0.827  1.00  0.00     0.060 A 
BRANCH  47  48
ATOM     48  S   UNL     1       8.764 -11.945  -0.433  1.00  0.00     0.124 S 
ATOM     49  O   UNL     1       7.818 -11.477  -1.442  1.00  0.00    -0.237 OA
ATOM     50  O   UNL     1      10.174 -11.857  -0.798  1.00  0.00    -0.237 OA
ATOM     51  O   UNL     1       8.376 -13.163   0.272  1.00  0.00    -0.744 OA
ENDBRANCH  47  48
ENDBRANCH  26  40
BRANCH  27  52
ATOM     52  C   UNL     1       7.200  -0.846   9.012  1.00  0.00     0.058 A 
ATOM     53  C   UNL     1       8.249   0.046   9.280  1.00  0.00     0.135 A 
ATOM     54  C   UNL     1       5.990  -0.652   9.697  1.00  0.00     0.135 A 
ATOM     55  F   UNL     1       9.431  -0.102   8.662  1.00  0.00    -0.206 F 
ATOM     56  C   UNL     1       8.110   1.078  10.205  1.00  0.00     0.059 A 
ATOM     57  C   UNL     1       5.821   0.382  10.611  1.00  0.00     0.059 A 
ATOM     58  F   UNL     1       4.951  -1.470   9.466  1.00  0.00    -0.206 F 
ATOM     59  C   UNL     1       6.891   1.237  10.867  1.00  0.00     0.060 A 
BRANCH  59  60
ATOM     60  S   UNL     1       6.699   2.604  12.033  1.00  0.00     0.124 S 
ATOM     61  O   UNL     1       7.374   2.079  13.214  1.00  0.00    -0.237 OA
ATOM     62  O   UNL     1       7.378   3.694  11.338  1.00  0.00    -0.237 OA
ATOM     63  O   UNL     1       5.251   2.750  12.136  1.00  0.00    -0.744 OA
ENDBRANCH  59  60
ENDBRANCH  27  52
BRANCH  39  64
ATOM     64  C   UNL     1      10.940  -6.711   9.216  1.00  0.00     0.058 A 
ATOM     65  C   UNL     1      10.499  -7.211  10.450  1.00  0.00     0.135 A 
ATOM     66  C   UNL     1      12.315  -6.750   8.937  1.00  0.00     0.135 A 
ATOM     67  F   UNL     1       9.193  -7.186  10.762  1.00  0.00    -0.206 F 
ATOM     68  C   UNL     1      11.395  -7.703  11.391  1.00  0.00     0.059 A 
ATOM     69  C   UNL     1      13.225  -7.266   9.851  1.00  0.00     0.059 A 
ATOM     70  F   UNL     1      12.781  -6.293   7.764  1.00  0.00    -0.206 F 
ATOM     71  C   UNL     1      12.757  -7.724  11.082  1.00  0.00     0.060 A 
BRANCH  71  72
ATOM     72  S   UNL     1      13.909  -8.380  12.304  1.00  0.00     0.124 S 
ATOM     73  O   UNL     1      13.965  -7.286  13.268  1.00  0.00    -0.237 OA
ATOM     74  O   UNL     1      13.232  -9.591  12.755  1.00  0.00    -0.237 OA
ATOM     75  O   UNL     1      15.129  -8.602  11.533  1.00  0.00    -0.744 OA
ENDBRANCH  71  72
ENDBRANCH  39  64
ENDBRANCH  13  14
ENDBRANCH   6   8
ENDBRANCH   5   6
ENDBRANCH   4   5
ENDBRANCH   3   4
ENDBRANCH   2   3
ENDBRANCH   1   2
BRANCH   1  76
ATOM     76  C   UNL     1       2.527   3.295   0.278  1.00  0.00     0.188 C 
BRANCH  76  77
ATOM     77  O   UNL     1       3.373   4.418   0.136  1.00  0.00    -0.376 OA
BRANCH  77  78
ATOM     78  C   UNL     1       4.531   4.456   0.960  1.00  0.00     0.202 C 
BRANCH  78  79
ATOM     79  C   UNL     1       4.367   4.330   2.484  1.00  0.00     0.261 C 
BRANCH  79  80
ATOM     80  O   UNL     1       3.723   3.129   2.964  1.00  0.00    -0.460 OA
BRANCH  80  81
ATOM     81  C   UNL     1       2.580   3.319   3.683  1.00  0.00     0.342 C 
ATOM     82  O   UNL     1       1.980   4.370   3.839  1.00  0.00    -0.246 OA
BRANCH  81  83
ATOM     83  C   UNL     1       2.231   2.101   4.428  1.00  0.00     0.104 A 
ATOM     84  C   UNL     1       2.762   1.972   5.727  1.00  0.00     0.048 A 
ATOM     85  C   UNL     1       1.360   1.125   3.926  1.00  0.00     0.143 A 
ATOM     86  C   UNL     1       2.437   0.854   6.483  1.00  0.00     0.068 A 
ATOM     87  N   UNL     1       1.091   0.016   4.651  1.00  0.00    -0.236 NA
ATOM     88  C   UNL     1       1.637  -0.103   5.879  1.00  0.00     0.140 A 
BRANCH  85  89
ATOM     89  N   UNL     1       0.722   1.209   2.697  1.00  0.00    -0.356 N 
ATOM     90  C   UNL     1       0.684  -0.037   1.932  1.00  0.00     0.118 C 
ATOM     91  C   UNL     1      -0.650   1.729   2.723  1.00  0.00     0.118 C 
ATOM     92  C   UNL     1      -0.219   0.329   0.769  1.00  0.00     0.023 C 
ATOM     93  C   UNL     1      -1.286   1.198   1.425  1.00  0.00     0.023 C 
ENDBRANCH  85  89
BRANCH  86  94
ATOM     94  N   UNL     1       2.922   0.673   7.819  1.00  0.00    -0.277 N 
ATOM     95  H   UNL     1       3.873   0.493   8.001  1.00  0.00     0.180 HD
BRANCH  94  96
ATOM     96  S   UNL     1       1.778   0.784   9.084  1.00  0.00     0.271 S 
ATOM     97  O   UNL     1       2.434   0.326  10.289  1.00  0.00    -0.200 OA
ATOM     98  O   UNL     1       1.161   2.087   8.997  1.00  0.00    -0.200 OA
BRANCH  96  99
ATOM     99  C   UNL     1       0.500  -0.431   8.819  1.00  0.00     0.141 A 
ATOM    100  C   UNL     1       0.530  -1.817   8.832  1.00  0.00     0.035 A 
ATOM    101  S   UNL     1      -1.062   0.154   8.425  1.00  0.00    -0.115 S 
ATOM    102  C   UNL     1      -0.716  -2.389   8.432  1.00  0.00     0.029 A 
ATOM    103  C   UNL     1      -1.647  -1.414   8.180  1.00  0.00     0.071 A 
ATOM    104  Br  UNL     1      -3.394  -1.767   7.607  1.00  0.00    -0.039 Br
ENDBRANCH  96  99
ENDBRANCH  94  96
ENDBRANCH  86  94
ENDBRANCH  81  83
ENDBRANCH  80  81
ENDBRANCH  79  80
ENDBRANCH  78  79
ENDBRANCH  77  78
ENDBRANCH  76  77
ENDBRANCH   1  76
TORSDOF 24
