REMARK SMILES O=C(N[C@@H](Cc1ccc(O)cc1)C(=O)N[C@@H](CO)C(=O)OCCOCCOCCOC(=O)c1ccc(-c2c3nc(c(-c4c(F)cc(S(=O)(=O)[O-])cc4F)c4ccc([nH]4)c(-c4c(F)cc(S(=O)(=O)[O-])cc4F)c4nc(c(-c5c(F)cc(S(=O)(=O)[O-])cc5F)c5ccc2[nH]5)C=C4)C=C3)cc1)c1ccc(F)cc1
REMARK SMILES IDX 25 1 24 2 23 3 22 4 21 5 19 6 20 7 16 8 15 9 13 10 14 11
REMARK SMILES IDX 4 13 3 14 1 15 2 16 99 18 100 19 105 20 101 21 104 22 102 23
REMARK SMILES IDX 103 24 5 25 6 26 7 27 12 28 8 29 11 30 9 31 10 32 17 34
REMARK SMILES IDX 18 35 26 37 27 38 28 39 29 40 30 41 31 42 32 43 33 44 34 45
REMARK SMILES IDX 98 46 35 47 97 48 36 49 37 50 38 51 91 52 39 53 96 54 90 55
REMARK SMILES IDX 92 56 40 57 95 58 89 59 88 60 41 62 75 63 54 64 74 65 55 66
REMARK SMILES IDX 58 67 73 68 93 69 56 70 57 71 72 73 94 74 59 75 42 76 43 77
REMARK SMILES IDX 52 78 44 79 45 80 51 81 53 82 46 83 47 84 48 85 49 86 50 87
REMARK SMILES IDX 76 88 77 89 86 90 78 91 79 92 85 93 87 94 80 95 81 96 82 97
REMARK SMILES IDX 83 98 84 99 60 100 61 101 70 102 62 103 63 104 69 105 71 106
REMARK SMILES IDX 64 107 65 108 66 109 67 110 68 111
REMARK H PARENT 15 12 3 17 10 33 18 36 92 61 58 72
REMARK Flexibility Score: inf
ROOT
ATOM      1  C   UNL     1       7.196   5.517  -2.147  1.00  0.00     0.188 C 
ENDROOT
BRANCH   1   2
ATOM      2  O   UNL     1       7.204   6.944  -2.156  1.00  0.00    -0.376 OA
BRANCH   2   3
ATOM      3  C   UNL     1       5.952   7.540  -2.491  1.00  0.00     0.202 C 
BRANCH   3   4
ATOM      4  C   UNL     1       5.053   7.650  -1.263  1.00  0.00     0.261 C 
BRANCH   4   5
ATOM      5  O   UNL     1       4.563   6.359  -0.846  1.00  0.00    -0.462 OA
BRANCH   5   6
ATOM      6  C   UNL     1       3.289   6.027  -1.214  1.00  0.00     0.331 C 
ATOM      7  O   UNL     1       2.586   6.716  -1.943  1.00  0.00    -0.250 OA
BRANCH   6   8
ATOM      8  C   UNL     1       2.821   4.731  -0.507  1.00  0.00     0.218 C 
BRANCH   8   9
ATOM      9  N   UNL     1       3.953   4.024   0.118  1.00  0.00    -0.339 N 
ATOM     10  C   UNL     1       4.428   2.759   0.054  1.00  0.00     0.243 C 
ATOM     11  O   UNL     1       5.583   2.611   0.478  1.00  0.00    -0.273 OA
ATOM     12  H   UNL     1       4.481   4.601   0.715  1.00  0.00     0.164 HD
BRANCH  10  13
ATOM     13  C   UNL     1       3.696   1.538  -0.545  1.00  0.00     0.176 C 
BRANCH  13  14
ATOM     14  N   UNL     1       2.338   1.311  -0.058  1.00  0.00    -0.340 N 
ATOM     15  O   UNL     1       0.612   0.027   0.633  1.00  0.00    -0.269 OA
ATOM     16  C   UNL     1       1.814   0.121   0.407  1.00  0.00     0.251 C 
ATOM     17  H   UNL     1       1.733   2.087  -0.061  1.00  0.00     0.164 HD
BRANCH  16  18
ATOM     18  C   UNL     1       2.691  -1.063   0.609  1.00  0.00     0.040 A 
ATOM     19  C   UNL     1       3.761  -1.024   1.515  1.00  0.00     0.017 A 
ATOM     20  C   UNL     1       2.424  -2.236  -0.109  1.00  0.00     0.017 A 
ATOM     21  C   UNL     1       4.598  -2.135   1.654  1.00  0.00     0.040 A 
ATOM     22  C   UNL     1       3.257  -3.349   0.043  1.00  0.00     0.040 A 
ATOM     23  C   UNL     1       4.339  -3.285   0.916  1.00  0.00     0.123 A 
ATOM     24  F   UNL     1       5.141  -4.349   1.056  1.00  0.00    -0.207 F 
ENDBRANCH  16  18
ENDBRANCH  13  14
BRANCH  13  25
ATOM     25  C   UNL     1       3.854   1.306  -2.055  1.00  0.00     0.070 C 
BRANCH  25  26
ATOM     26  C   UNL     1       3.363   2.376  -2.987  1.00  0.00    -0.045 A 
ATOM     27  C   UNL     1       4.246   3.376  -3.414  1.00  0.00     0.007 A 
ATOM     28  C   UNL     1       2.044   2.388  -3.456  1.00  0.00     0.007 A 
ATOM     29  C   UNL     1       3.801   4.426  -4.215  1.00  0.00     0.046 A 
ATOM     30  C   UNL     1       1.602   3.430  -4.274  1.00  0.00     0.046 A 
ATOM     31  C   UNL     1       2.471   4.460  -4.612  1.00  0.00     0.115 A 
BRANCH  31  32
ATOM     32  O   UNL     1       1.974   5.507  -5.326  1.00  0.00    -0.508 OA
ATOM     33  H   UNL     1       2.536   6.216  -5.569  1.00  0.00     0.293 HD
ENDBRANCH  31  32
ENDBRANCH  25  26
ENDBRANCH  13  25
ENDBRANCH  10  13
ENDBRANCH   8   9
BRANCH   8  34
ATOM     34  C   UNL     1       1.790   5.140   0.549  1.00  0.00     0.193 C 
BRANCH  34  35
ATOM     35  O   UNL     1       2.399   5.868   1.619  1.00  0.00    -0.394 OA
ATOM     36  H   UNL     1       3.062   5.309   2.054  1.00  0.00     0.210 HD
ENDBRANCH  34  35
ENDBRANCH   8  34
ENDBRANCH   6   8
ENDBRANCH   5   6
ENDBRANCH   4   5
ENDBRANCH   3   4
ENDBRANCH   2   3
ENDBRANCH   1   2
BRANCH   1  37
ATOM     37  C   UNL     1       7.580   4.946  -0.776  1.00  0.00     0.188 C 
BRANCH  37  38
ATOM     38  O   UNL     1       8.700   5.533  -0.117  1.00  0.00    -0.376 OA
BRANCH  38  39
ATOM     39  C   UNL     1       9.834   5.850  -0.917  1.00  0.00     0.202 C 
BRANCH  39  40
ATOM     40  C   UNL     1      10.641   4.647  -1.403  1.00  0.00     0.261 C 
BRANCH  40  41
ATOM     41  O   UNL     1       9.910   3.845  -2.352  1.00  0.00    -0.460 OA
BRANCH  41  42
ATOM     42  C   UNL     1       9.914   2.517  -2.094  1.00  0.00     0.338 C 
ATOM     43  O   UNL     1      10.439   1.943  -1.152  1.00  0.00    -0.246 OA
BRANCH  42  44
ATOM     44  C   UNL     1       9.163   1.792  -3.129  1.00  0.00     0.060 A 
ATOM     45  C   UNL     1       7.873   1.337  -2.843  1.00  0.00     0.016 A 
ATOM     46  C   UNL     1       9.821   1.381  -4.290  1.00  0.00     0.016 A 
ATOM     47  C   UNL     1       7.255   0.422  -3.703  1.00  0.00     0.010 A 
ATOM     48  C   UNL     1       9.197   0.470  -5.148  1.00  0.00     0.010 A 
ATOM     49  C   UNL     1       7.926  -0.045  -4.840  1.00  0.00    -0.014 A 
BRANCH  49  50
ATOM     50  C   UNL     1       7.410  -1.214  -5.598  1.00  0.00     0.031 A 
ATOM     51  C   UNL     1       8.052  -2.555  -5.367  1.00  0.00     0.074 A 
ATOM     52  C   UNL     1       6.389  -1.113  -6.467  1.00  0.00     0.049 A 
ATOM     53  N   UNL     1       7.972  -3.649  -6.076  1.00  0.00    -0.248 NA
ATOM     54  C   UNL     1       8.895  -2.672  -4.166  1.00  0.00     0.031 C 
ATOM     55  C   UNL     1       5.577   0.080  -6.693  1.00  0.00     0.029 A 
ATOM     56  N   UNL     1       5.875  -2.042  -7.339  1.00  0.00    -0.354 N 
ATOM     57  C   UNL     1       8.788  -4.573  -5.435  1.00  0.00     0.074 A 
ATOM     58  C   UNL     1       9.340  -3.915  -4.270  1.00  0.00     0.031 C 
ATOM     59  C   UNL     1       4.678  -0.183  -7.658  1.00  0.00     0.029 A 
ATOM     60  C   UNL     1       4.900  -1.537  -8.166  1.00  0.00     0.049 A 
ATOM     61  H   UNL     1       6.175  -2.979  -7.368  1.00  0.00     0.167 HD
ATOM     62  C   UNL     1       9.066  -5.849  -5.795  1.00  0.00     0.037 A 
ATOM     63  C   UNL     1       4.301  -2.084  -9.244  1.00  0.00     0.037 A 
ATOM     64  C   UNL     1       8.509  -6.502  -6.950  1.00  0.00     0.049 A 
ATOM     65  C   UNL     1       4.708  -3.462  -9.705  1.00  0.00     0.074 A 
ATOM     66  C   UNL     1       8.773  -7.769  -7.437  1.00  0.00     0.029 A 
ATOM     67  N   UNL     1       7.565  -5.937  -7.793  1.00  0.00    -0.354 N 
ATOM     68  N   UNL     1       5.566  -4.295  -9.164  1.00  0.00    -0.248 NA
ATOM     69  C   UNL     1       4.086  -3.963 -10.941  1.00  0.00     0.031 C 
ATOM     70  C   UNL     1       8.008  -7.960  -8.594  1.00  0.00     0.029 A 
ATOM     71  C   UNL     1       7.239  -6.826  -8.802  1.00  0.00     0.049 A 
ATOM     72  H   UNL     1       7.182  -5.036  -7.690  1.00  0.00     0.167 HD
ATOM     73  C   UNL     1       5.566  -5.425  -9.978  1.00  0.00     0.074 A 
ATOM     74  C   UNL     1       4.625  -5.171 -11.048  1.00  0.00     0.031 C 
ATOM     75  C   UNL     1       6.282  -6.569  -9.849  1.00  0.00     0.037 A 
BRANCH  62  76
ATOM     76  C   UNL     1      10.073  -6.590  -4.964  1.00  0.00     0.058 A 
ATOM     77  C   UNL     1       9.763  -7.090  -3.691  1.00  0.00     0.135 A 
ATOM     78  C   UNL     1      11.376  -6.786  -5.449  1.00  0.00     0.135 A 
ATOM     79  F   UNL     1       8.537  -6.908  -3.174  1.00  0.00    -0.206 F 
ATOM     80  C   UNL     1      10.721  -7.728  -2.910  1.00  0.00     0.059 A 
ATOM     81  C   UNL     1      12.344  -7.442  -4.695  1.00  0.00     0.059 A 
ATOM     82  F   UNL     1      11.724  -6.324  -6.660  1.00  0.00    -0.206 F 
ATOM     83  C   UNL     1      12.012  -7.890  -3.418  1.00  0.00     0.060 A 
BRANCH  83  84
ATOM     84  S   UNL     1      13.260  -8.688  -2.385  1.00  0.00     0.124 S 
ATOM     85  O   UNL     1      13.599  -7.612  -1.459  1.00  0.00    -0.237 OA
ATOM     86  O   UNL     1      12.525  -9.810  -1.811  1.00  0.00    -0.237 OA
ATOM     87  O   UNL     1      14.305  -9.050  -3.337  1.00  0.00    -0.744 OA
ENDBRANCH  83  84
ENDBRANCH  62  76
BRANCH  63  88
ATOM     88  C   UNL     1       3.290  -1.306 -10.008  1.00  0.00     0.058 A 
ATOM     89  C   UNL     1       1.937  -1.676  -9.998  1.00  0.00     0.135 A 
ATOM     90  C   UNL     1       3.656  -0.185 -10.769  1.00  0.00     0.135 A 
ATOM     91  F   UNL     1       1.542  -2.752  -9.301  1.00  0.00    -0.206 F 
ATOM     92  C   UNL     1       0.983  -0.966 -10.720  1.00  0.00     0.059 A 
ATOM     93  C   UNL     1       2.717   0.555 -11.479  1.00  0.00     0.059 A 
ATOM     94  F   UNL     1       4.938   0.210 -10.811  1.00  0.00    -0.206 F 
ATOM     95  C   UNL     1       1.383   0.151 -11.455  1.00  0.00     0.060 A 
BRANCH  95  96
ATOM     96  S   UNL     1       0.130   1.100 -12.346  1.00  0.00     0.124 S 
ATOM     97  O   UNL     1      -0.128   0.239 -13.494  1.00  0.00    -0.237 OA
ATOM     98  O   UNL     1      -0.944   1.193 -11.363  1.00  0.00    -0.237 OA
ATOM     99  O   UNL     1       0.811   2.358 -12.640  1.00  0.00    -0.744 OA
ENDBRANCH  95  96
ENDBRANCH  63  88
BRANCH  75 100
ATOM    100  C   UNL     1       6.045  -7.664 -10.851  1.00  0.00     0.058 A 
ATOM    101  C   UNL     1       6.591  -7.614 -12.142  1.00  0.00     0.135 A 
ATOM    102  C   UNL     1       5.332  -8.817 -10.483  1.00  0.00     0.135 A 
ATOM    103  F   UNL     1       7.275  -6.531 -12.545  1.00  0.00    -0.206 F 
ATOM    104  C   UNL     1       6.435  -8.668 -13.037  1.00  0.00     0.059 A 
ATOM    105  C   UNL     1       5.180  -9.891 -11.354  1.00  0.00     0.059 A 
ATOM    106  F   UNL     1       4.798  -8.917  -9.256  1.00  0.00    -0.206 F 
ATOM    107  C   UNL     1       5.732  -9.805 -12.632  1.00  0.00     0.060 A 
BRANCH 107 108
ATOM    108  S   UNL     1       5.588 -11.194 -13.778  1.00  0.00     0.124 S 
ATOM    109  O   UNL     1       4.565 -10.711 -14.699  1.00  0.00    -0.237 OA
ATOM    110  O   UNL     1       6.938 -11.291 -14.326  1.00  0.00    -0.237 OA
ATOM    111  O   UNL     1       5.188 -12.303 -12.918  1.00  0.00    -0.744 OA
ENDBRANCH 107 108
ENDBRANCH  75 100
ENDBRANCH  49  50
ENDBRANCH  42  44
ENDBRANCH  41  42
ENDBRANCH  40  41
ENDBRANCH  39  40
ENDBRANCH  38  39
ENDBRANCH  37  38
ENDBRANCH   1  37
TORSDOF 29
