REMARK SMILES O=C1[NH+]=C(Nc2ccc(C(=O)OCCOCCOCCOC(=O)c3ccc(-c4c5nc(c(-c6c(F)cc(S(=O)(=O)[O-])cc6F)c6ccc([nH]6)c(-c6c(F)cc(S(=O)(=O)[O-])cc6F)c6nc(c(-c7c(F)cc(S(=O)(=O)[O-])cc7F)c7ccc4[nH]7)C=C6)C=C5)cc3)c(O)c2)S/C1=C\c1ccc[nH]1
REMARK SMILES IDX 17 1 16 2 15 3 14 4 13 5 12 6 10 7 11 8 9 9 6 10 7 11 92 12
REMARK SMILES IDX 8 13 90 14 5 15 1 16 2 17 3 18 94 19 4 20 93 22 95 23 96 25
REMARK SMILES IDX 97 26 100 27 98 28 99 29 91 31 18 33 19 34 20 35 21 36 22 37
REMARK SMILES IDX 23 38 24 39 25 40 89 41 26 42 88 43 27 44 28 45 29 46 82 47
REMARK SMILES IDX 30 48 87 49 81 50 83 51 31 52 86 53 80 54 79 55 32 57 66 58
REMARK SMILES IDX 45 59 65 60 46 61 49 62 64 63 84 64 47 65 48 66 63 68 85 69
REMARK SMILES IDX 50 70 33 71 34 72 43 73 35 74 36 75 42 76 44 77 37 78 38 79
REMARK SMILES IDX 39 80 40 81 41 82 67 83 68 84 77 85 69 86 70 87 76 88 78 89
REMARK SMILES IDX 71 90 72 91 73 92 74 93 75 94 51 95 52 96 61 97 53 98 54 99
REMARK SMILES IDX 60 100 62 101 55 102 56 103 57 104 58 105 59 106
REMARK H PARENT 3 21 5 24 100 30 91 32 83 56 49 67
REMARK Flexibility Score: inf
ROOT
ATOM      1  C   UNL     1      -2.707   7.240  -1.164  1.00  0.00     0.188 C 
ENDROOT
BRANCH   1   2
ATOM      2  C   UNL     1      -2.989   7.820   0.239  1.00  0.00     0.188 C 
BRANCH   2   3
ATOM      3  O   UNL     1      -3.284   9.203   0.385  1.00  0.00    -0.376 OA
BRANCH   3   4
ATOM      4  C   UNL     1      -2.478  10.181  -0.258  1.00  0.00     0.202 C 
BRANCH   4   5
ATOM      5  C   UNL     1      -0.939  10.113  -0.206  1.00  0.00     0.261 C 
BRANCH   5   6
ATOM      6  O   UNL     1      -0.354   8.821  -0.446  1.00  0.00    -0.460 OA
BRANCH   6   7
ATOM      7  C   UNL     1       0.208   8.228   0.643  1.00  0.00     0.341 C 
ATOM      8  O   UNL     1       0.341   8.719   1.750  1.00  0.00    -0.246 OA
BRANCH   7   9
ATOM      9  C   UNL     1       0.487   6.802   0.353  1.00  0.00     0.102 A 
ATOM     10  C   UNL     1       1.042   4.065  -0.015  1.00  0.00     0.129 A 
ATOM     11  C   UNL     1       0.351   4.499   1.120  1.00  0.00     0.053 A 
ATOM     12  C   UNL     1       1.394   5.008  -0.992  1.00  0.00     0.098 A 
ATOM     13  C   UNL     1       0.112   5.862   1.323  1.00  0.00     0.024 A 
ATOM     14  C   UNL     1       1.076   6.358  -0.832  1.00  0.00     0.134 A 
BRANCH  10  15
ATOM     15  N   UNL     1       1.420   2.728  -0.182  1.00  0.00    -0.234 N 
ATOM     16  O   UNL     1      -2.278  -0.101  -0.054  1.00  0.00    -0.240 OA
ATOM     17  C   UNL     1      -1.099   0.232   0.005  1.00  0.00     0.346 C 
ATOM     18  N   UNL     1      -0.651   1.535  -0.018  1.00  0.00    -0.199 N 
ATOM     19  C   UNL     1       0.026  -0.750   0.048  1.00  0.00     0.111 C 
ATOM     20  C   UNL     1       0.635   1.624  -0.052  1.00  0.00     0.322 C 
ATOM     21  H   UNL     1      -1.250   2.316  -0.010  1.00  0.00     0.316 HD
ATOM     22  S   UNL     1       1.515   0.108   0.009  1.00  0.00     0.006 SA
ATOM     23  C   UNL     1      -0.178  -2.075   0.057  1.00  0.00     0.050 C 
ATOM     24  H   UNL     1       2.362   2.568  -0.422  1.00  0.00     0.313 HD
BRANCH  23  25
ATOM     25  C   UNL     1       0.869  -3.026   0.136  1.00  0.00     0.039 A 
ATOM     26  C   UNL     1       1.889  -3.255   1.039  1.00  0.00     0.027 A 
ATOM     27  N   UNL     1       0.950  -4.003  -0.828  1.00  0.00    -0.362 N 
ATOM     28  C   UNL     1       2.619  -4.382   0.591  1.00  0.00     0.020 A 
ATOM     29  C   UNL     1       2.027  -4.815  -0.573  1.00  0.00     0.083 A 
ATOM     30  H   UNL     1       0.329  -4.105  -1.585  1.00  0.00     0.166 HD
ENDBRANCH  23  25
ENDBRANCH  10  15
BRANCH  14  31
ATOM     31  O   UNL     1       1.346   7.182  -1.889  1.00  0.00    -0.507 OA
ATOM     32  H   UNL     1       1.151   8.097  -1.832  1.00  0.00     0.293 HD
ENDBRANCH  14  31
ENDBRANCH   7   9
ENDBRANCH   6   7
ENDBRANCH   5   6
ENDBRANCH   4   5
ENDBRANCH   3   4
ENDBRANCH   2   3
ENDBRANCH   1   2
BRANCH   1  33
ATOM     33  O   UNL     1      -2.636   8.223  -2.174  1.00  0.00    -0.376 OA
BRANCH  33  34
ATOM     34  C   UNL     1      -3.763   8.377  -3.024  1.00  0.00     0.202 C 
BRANCH  34  35
ATOM     35  C   UNL     1      -5.221   8.305  -2.516  1.00  0.00     0.261 C 
BRANCH  35  36
ATOM     36  O   UNL     1      -5.496   7.544  -1.331  1.00  0.00    -0.460 OA
BRANCH  36  37
ATOM     37  C   UNL     1      -5.778   6.231  -1.502  1.00  0.00     0.338 C 
ATOM     38  O   UNL     1      -5.784   5.622  -2.557  1.00  0.00    -0.246 OA
BRANCH  37  39
ATOM     39  C   UNL     1      -5.898   5.591  -0.172  1.00  0.00     0.060 A 
ATOM     40  C   UNL     1      -4.948   4.631   0.200  1.00  0.00     0.016 A 
ATOM     41  C   UNL     1      -6.966   5.893   0.677  1.00  0.00     0.016 A 
ATOM     42  C   UNL     1      -5.097   3.925   1.394  1.00  0.00     0.010 A 
ATOM     43  C   UNL     1      -7.122   5.172   1.869  1.00  0.00     0.010 A 
ATOM     44  C   UNL     1      -6.216   4.150   2.208  1.00  0.00    -0.014 A 
BRANCH  44  45
ATOM     45  C   UNL     1      -6.542   3.164   3.272  1.00  0.00     0.031 A 
ATOM     46  C   UNL     1      -7.584   2.113   2.980  1.00  0.00     0.074 A 
ATOM     47  C   UNL     1      -5.887   3.154   4.449  1.00  0.00     0.049 A 
ATOM     48  N   UNL     1      -8.024   1.142   3.738  1.00  0.00    -0.248 NA
ATOM     49  C   UNL     1      -8.220   2.170   1.652  1.00  0.00     0.031 C 
ATOM     50  C   UNL     1      -4.841   4.096   4.843  1.00  0.00     0.029 A 
ATOM     51  N   UNL     1      -6.010   2.317   5.531  1.00  0.00    -0.354 N 
ATOM     52  C   UNL     1      -8.986   0.478   2.984  1.00  0.00     0.074 A 
ATOM     53  C   UNL     1      -9.097   1.180   1.725  1.00  0.00     0.031 C 
ATOM     54  C   UNL     1      -4.421   3.787   6.083  1.00  0.00     0.029 A 
ATOM     55  C   UNL     1      -5.184   2.642   6.580  1.00  0.00     0.049 A 
ATOM     56  H   UNL     1      -6.633   1.554   5.553  1.00  0.00     0.167 HD
ATOM     57  C   UNL     1      -9.704  -0.625   3.304  1.00  0.00     0.037 A 
ATOM     58  C   UNL     1      -5.067   2.088   7.804  1.00  0.00     0.037 A 
ATOM     59  C   UNL     1      -9.581  -1.332   4.553  1.00  0.00     0.049 A 
ATOM     60  C   UNL     1      -5.906   0.882   8.152  1.00  0.00     0.074 A 
ATOM     61  C   UNL     1     -10.245  -2.475   4.963  1.00  0.00     0.029 A 
ATOM     62  N   UNL     1      -8.743  -0.963   5.595  1.00  0.00    -0.354 N 
ATOM     63  N   UNL     1      -6.792   0.248   7.418  1.00  0.00    -0.248 NA
ATOM     64  C   UNL     1      -5.717   0.304   9.490  1.00  0.00     0.031 C 
ATOM     65  C   UNL     1      -9.854  -2.762   6.275  1.00  0.00     0.029 A 
ATOM     66  C   UNL     1      -8.892  -1.842   6.656  1.00  0.00     0.049 A 
ATOM     67  H   UNL     1      -8.132  -0.191   5.582  1.00  0.00     0.167 HD
ATOM     68  C   UNL     1      -7.234  -0.822   8.192  1.00  0.00     0.074 A 
ATOM     69  C   UNL     1      -6.507  -0.759   9.442  1.00  0.00     0.031 C 
ATOM     70  C   UNL     1      -8.156  -1.774   7.894  1.00  0.00     0.037 A 
BRANCH  57  71
ATOM     71  C   UNL     1     -10.706  -1.129   2.300  1.00  0.00     0.058 A 
ATOM     72  C   UNL     1     -10.315  -1.736   1.095  1.00  0.00     0.135 A 
ATOM     73  C   UNL     1     -12.082  -1.051   2.574  1.00  0.00     0.135 A 
ATOM     74  F   UNL     1      -9.015  -1.820   0.770  1.00  0.00    -0.206 F 
ATOM     75  C   UNL     1     -11.251  -2.233   0.193  1.00  0.00     0.059 A 
ATOM     76  C   UNL     1     -13.033  -1.570   1.701  1.00  0.00     0.059 A 
ATOM     77  F   UNL     1     -12.513  -0.476   3.708  1.00  0.00    -0.206 F 
ATOM     78  C   UNL     1     -12.608  -2.152   0.509  1.00  0.00     0.060 A 
BRANCH  78  79
ATOM     79  S   UNL     1     -13.807  -2.836  -0.655  1.00  0.00     0.124 S 
ATOM     80  O   UNL     1     -13.722  -1.883  -1.758  1.00  0.00    -0.237 OA
ATOM     81  O   UNL     1     -13.261  -4.163  -0.920  1.00  0.00    -0.237 OA
ATOM     82  O   UNL     1     -15.060  -2.816   0.094  1.00  0.00    -0.744 OA
ENDBRANCH  78  79
ENDBRANCH  57  71
BRANCH  58  83
ATOM     83  C   UNL     1      -4.127   2.666   8.805  1.00  0.00     0.058 A 
ATOM     84  C   UNL     1      -3.001   1.956   9.250  1.00  0.00     0.135 A 
ATOM     85  C   UNL     1      -4.358   3.933   9.365  1.00  0.00     0.135 A 
ATOM     86  F   UNL     1      -2.740   0.736   8.758  1.00  0.00    -0.206 F 
ATOM     87  C   UNL     1      -2.156   2.465  10.233  1.00  0.00     0.059 A 
ATOM     88  C   UNL     1      -3.509   4.478  10.324  1.00  0.00     0.059 A 
ATOM     89  F   UNL     1      -5.414   4.661   8.970  1.00  0.00    -0.206 F 
ATOM     90  C   UNL     1      -2.419   3.729  10.763  1.00  0.00     0.060 A 
BRANCH  90  91
ATOM     91  S   UNL     1      -1.301   4.393  12.017  1.00  0.00     0.124 S 
ATOM     92  O   UNL     1      -1.627   3.563  13.171  1.00  0.00    -0.237 OA
ATOM     93  O   UNL     1       0.007   4.162  11.412  1.00  0.00    -0.237 OA
ATOM     94  O   UNL     1      -1.700   5.794  12.115  1.00  0.00    -0.744 OA
ENDBRANCH  90  91
ENDBRANCH  58  83
BRANCH  70  95
ATOM     95  C   UNL     1      -8.387  -2.860   8.915  1.00  0.00     0.058 A 
ATOM     96  C   UNL     1      -8.994  -2.605  10.155  1.00  0.00     0.135 A 
ATOM     97  C   UNL     1      -8.002  -4.183   8.638  1.00  0.00     0.135 A 
ATOM     98  F   UNL     1      -9.386  -1.361  10.473  1.00  0.00    -0.206 F 
ATOM     99  C   UNL     1      -9.159  -3.609  11.106  1.00  0.00     0.059 A 
ATOM    100  C   UNL     1      -8.192  -5.210   9.558  1.00  0.00     0.059 A 
ATOM    101  F   UNL     1      -7.436  -4.492   7.461  1.00  0.00    -0.206 F 
ATOM    102  C   UNL     1      -8.747  -4.907  10.800  1.00  0.00     0.060 A 
BRANCH 102 103
ATOM    103  S   UNL     1      -8.945  -6.197  12.048  1.00  0.00     0.124 S 
ATOM    104  O   UNL     1      -7.897  -5.846  13.001  1.00  0.00    -0.237 OA
ATOM    105  O   UNL     1     -10.315  -5.983  12.505  1.00  0.00    -0.237 OA
ATOM    106  O   UNL     1      -8.726  -7.431  11.300  1.00  0.00    -0.744 OA
ENDBRANCH 102 103
ENDBRANCH  70  95
ENDBRANCH  44  45
ENDBRANCH  37  39
ENDBRANCH  36  37
ENDBRANCH  35  36
ENDBRANCH  34  35
ENDBRANCH  33  34
ENDBRANCH   1  33
TORSDOF 23
