REMARK SMILES C[C@]12C[C@@H](O)[C@@H]3[C@@H](CCC4=CC(=O)CC[C@]43C)[C@H]1CC[C@]2(O)C(=O)COC(=O)CCC(=O)OCCOCCOCCOC(=O)c1ccc(-c2c3nc(c(-c4c(F)cc(S(=O)(=O)[O-])cc4F)c4ccc([nH]4)c(-c4c(F)cc(S(=O)(=O)[O-])cc4F)c4nc(c(-c5c(F)cc(S(=O)(=O)[O-])cc5F)c5ccc2[nH]5)C=C4)C=C3)cc1
REMARK SMILES IDX 35 1 34 2 33 3 31 4 32 5 30 6 29 7 27 8 28 9 26 10 25 11
REMARK SMILES IDX 23 12 24 13 21 14 17 15 16 16 15 17 10 18 6 19 14 20 11 21
REMARK SMILES IDX 9 22 7 23 4 24 12 25 8 26 18 27 3 28 13 29 2 30 19 31 1 32
REMARK SMILES IDX 20 33 5 34 22 36 36 38 37 39 38 40 39 41 40 42 41 43 42 44
REMARK SMILES IDX 43 45 44 46 45 47 46 48 110 49 47 50 109 51 48 52 49 53
REMARK SMILES IDX 50 54 103 55 51 56 108 57 102 58 104 59 52 60 107 61 101 62
REMARK SMILES IDX 100 63 53 65 87 66 66 67 86 68 67 69 70 70 85 71 105 72
REMARK SMILES IDX 68 73 69 74 84 76 106 77 71 78 54 79 55 80 64 81 56 82 57 83
REMARK SMILES IDX 63 84 65 85 58 86 59 87 60 88 61 89 62 90 88 91 89 92 98 93
REMARK SMILES IDX 90 94 91 95 97 96 99 97 92 98 93 99 94 100 95 101 96 102
REMARK SMILES IDX 72 103 73 104 82 105 74 106 75 107 81 108 83 109 76 110
REMARK SMILES IDX 77 111 78 112 79 113 80 114
REMARK H PARENT 5 35 22 37 104 64 70 75
REMARK Flexibility Score: inf
ROOT
ATOM      1  C   UNL     1       1.463  10.436   0.040  1.00  0.00     0.202 C 
ENDROOT
BRANCH   1   2
ATOM      2  C   UNL     1       2.012   9.066   0.447  1.00  0.00     0.261 C 
BRANCH   2   3
ATOM      3  O   UNL     1       1.682   8.643   1.797  1.00  0.00    -0.463 OA
BRANCH   3   4
ATOM      4  C   UNL     1       2.701   8.204   2.571  1.00  0.00     0.306 C 
ATOM      5  O   UNL     1       3.832   8.018   2.130  1.00  0.00    -0.252 OA
BRANCH   4   6
ATOM      6  C   UNL     1       2.412   7.903   4.045  1.00  0.00     0.134 C 
BRANCH   6   7
ATOM      7  C   UNL     1       1.160   8.197   4.874  1.00  0.00     0.134 C 
BRANCH   7   8
ATOM      8  C   UNL     1      -0.192   7.704   4.431  1.00  0.00     0.306 C 
ATOM      9  O   UNL     1      -0.991   7.173   5.189  1.00  0.00    -0.252 OA
BRANCH   8  10
ATOM     10  O   UNL     1      -0.435   7.995   3.133  1.00  0.00    -0.458 OA
BRANCH  10  11
ATOM     11  C   UNL     1      -1.675   7.532   2.620  1.00  0.00     0.311 C 
BRANCH  11  12
ATOM     12  C   UNL     1      -1.589   6.043   2.400  1.00  0.00     0.202 C 
ATOM     13  O   UNL     1      -2.097   5.248   3.206  1.00  0.00    -0.293 OA
BRANCH  12  14
ATOM     14  C   UNL     1      -0.953   5.473   1.129  1.00  0.00     0.132 C 
ATOM     15  C   UNL     1       1.424  -0.576  -0.268  1.00  0.00     0.016 C 
ATOM     16  C   UNL     1       0.730   0.641  -0.948  1.00  0.00    -0.005 C 
ATOM     17  C   UNL     1       1.180   0.574  -2.447  1.00  0.00     0.020 C 
ATOM     18  C   UNL     1      -0.797   0.567  -1.048  1.00  0.00    -0.060 C 
ATOM     19  C   UNL     1       1.143   1.967  -0.213  1.00  0.00     0.031 C 
ATOM     20  C   UNL     1       0.344  -0.433  -3.283  1.00  0.00     0.081 C 
ATOM     21  C   UNL     1      -1.365  -0.626  -1.310  1.00  0.00     0.047 C 
ATOM     22  C   UNL     1      -1.431   1.770  -1.732  1.00  0.00     0.032 C 
ATOM     23  C   UNL     1       0.537   3.223  -0.896  1.00  0.00    -0.000 C 
ATOM     24  C   UNL     1       0.981   2.056   1.360  1.00  0.00     0.119 C 
ATOM     25  C   UNL     1      -0.650  -1.272  -2.476  1.00  0.00     0.155 C 
ATOM     26  C   UNL     1      -0.968   3.066  -1.111  1.00  0.00     0.009 C 
ATOM     27  C   UNL     1       0.949   4.453  -0.067  1.00  0.00     0.002 C 
ATOM     28  C   UNL     1       0.037   3.146   1.911  1.00  0.00     0.042 C 
ATOM     29  O   UNL     1      -0.898  -2.443  -2.752  1.00  0.00    -0.295 OA
ATOM     30  C   UNL     1       0.314   4.548   1.345  1.00  0.00     0.009 C 
ATOM     31  C   UNL     1       0.670   5.809  -0.696  1.00  0.00     0.008 C 
ATOM     32  C   UNL     1       1.363   5.225   2.261  1.00  0.00     0.015 C 
ATOM     33  C   UNL     1      -0.605   6.373  -0.061  1.00  0.00     0.044 C 
BRANCH  24  34
ATOM     34  O   UNL     1       0.583   0.837   1.968  1.00  0.00    -0.393 OA
ATOM     35  H   UNL     1      -0.328   0.628   1.707  1.00  0.00     0.210 HD
ENDBRANCH  24  34
BRANCH  14  36
ATOM     36  O   UNL     1      -2.144   4.763   0.701  1.00  0.00    -0.381 OA
ATOM     37  H   UNL     1      -1.964   4.302  -0.133  1.00  0.00     0.212 HD
ENDBRANCH  14  36
ENDBRANCH  12  14
ENDBRANCH  11  12
ENDBRANCH  10  11
ENDBRANCH   8  10
ENDBRANCH   7   8
ENDBRANCH   6   7
ENDBRANCH   4   6
ENDBRANCH   3   4
ENDBRANCH   2   3
ENDBRANCH   1   2
BRANCH   1  38
ATOM     38  O   UNL     1       1.938  11.560   0.759  1.00  0.00    -0.376 OA
BRANCH  38  39
ATOM     39  C   UNL     1       1.888  11.502   2.175  1.00  0.00     0.188 C 
BRANCH  39  40
ATOM     40  C   UNL     1       0.585  11.015   2.830  1.00  0.00     0.188 C 
BRANCH  40  41
ATOM     41  O   UNL     1      -0.532  10.896   1.968  1.00  0.00    -0.376 OA
BRANCH  41  42
ATOM     42  C   UNL     1      -1.630  11.732   2.302  1.00  0.00     0.202 C 
BRANCH  42  43
ATOM     43  C   UNL     1      -1.366  13.217   2.027  1.00  0.00     0.261 C 
BRANCH  43  44
ATOM     44  O   UNL     1      -0.239  13.784   2.725  1.00  0.00    -0.460 OA
BRANCH  44  45
ATOM     45  C   UNL     1      -0.261  13.801   4.080  1.00  0.00     0.338 C 
ATOM     46  O   UNL     1      -1.187  13.454   4.794  1.00  0.00    -0.246 OA
BRANCH  45  47
ATOM     47  C   UNL     1       1.137  14.018   4.542  1.00  0.00     0.060 A 
ATOM     48  C   UNL     1       1.713  13.107   5.445  1.00  0.00     0.016 A 
ATOM     49  C   UNL     1       1.917  15.038   3.992  1.00  0.00     0.016 A 
ATOM     50  C   UNL     1       3.063  13.220   5.799  1.00  0.00     0.010 A 
ATOM     51  C   UNL     1       3.257  15.166   4.368  1.00  0.00     0.010 A 
ATOM     52  C   UNL     1       3.834  14.272   5.288  1.00  0.00    -0.014 A 
BRANCH  52  53
ATOM     53  C   UNL     1       5.172  14.581   5.857  1.00  0.00     0.031 A 
ATOM     54  C   UNL     1       5.246  15.633   6.932  1.00  0.00     0.074 A 
ATOM     55  C   UNL     1       6.296  13.982   5.422  1.00  0.00     0.049 A 
ATOM     56  N   UNL     1       6.293  16.168   7.502  1.00  0.00    -0.248 NA
ATOM     57  C   UNL     1       3.959  16.156   7.423  1.00  0.00     0.031 C 
ATOM     58  C   UNL     1       6.362  12.925   4.415  1.00  0.00     0.029 A 
ATOM     59  N   UNL     1       7.610  14.200   5.764  1.00  0.00    -0.354 N 
ATOM     60  C   UNL     1       5.795  17.098   8.407  1.00  0.00     0.074 A 
ATOM     61  C   UNL     1       4.353  17.070   8.296  1.00  0.00     0.031 C 
ATOM     62  C   UNL     1       7.652  12.604   4.202  1.00  0.00     0.029 A 
ATOM     63  C   UNL     1       8.506  13.458   5.029  1.00  0.00     0.049 A 
ATOM     64  H   UNL     1       7.885  14.829   6.470  1.00  0.00     0.167 HD
ATOM     65  C   UNL     1       6.475  17.901   9.257  1.00  0.00     0.037 A 
ATOM     66  C   UNL     1       9.855  13.491   5.001  1.00  0.00     0.037 A 
ATOM     67  C   UNL     1       7.909  17.932   9.364  1.00  0.00     0.049 A 
ATOM     68  C   UNL     1      10.594  14.451   5.906  1.00  0.00     0.074 A 
ATOM     69  C   UNL     1       8.690  18.695  10.215  1.00  0.00     0.029 A 
ATOM     70  N   UNL     1       8.779  17.178   8.592  1.00  0.00    -0.354 N 
ATOM     71  N   UNL     1      10.111  15.302   6.781  1.00  0.00    -0.248 NA
ATOM     72  C   UNL     1      12.063  14.457   5.817  1.00  0.00     0.031 C 
ATOM     73  C   UNL     1      10.032  18.446   9.917  1.00  0.00     0.029 A 
ATOM     74  C   UNL     1      10.089  17.482   8.924  1.00  0.00     0.049 A 
ATOM     75  H   UNL     1       8.507  16.524   7.908  1.00  0.00     0.167 HD
ATOM     76  C   UNL     1      11.215  15.921   7.363  1.00  0.00     0.074 A 
ATOM     77  C   UNL     1      12.390  15.337   6.754  1.00  0.00     0.031 C 
ATOM     78  C   UNL     1      11.253  16.886   8.316  1.00  0.00     0.037 A 
BRANCH  65  79
ATOM     79  C   UNL     1       5.679  18.838  10.122  1.00  0.00     0.058 A 
ATOM     80  C   UNL     1       4.913  18.375  11.203  1.00  0.00     0.135 A 
ATOM     81  C   UNL     1       5.726  20.223   9.896  1.00  0.00     0.135 A 
ATOM     82  F   UNL     1       4.814  17.058  11.448  1.00  0.00    -0.206 F 
ATOM     83  C   UNL     1       4.212  19.252  12.023  1.00  0.00     0.059 A 
ATOM     84  C   UNL     1       5.055  21.120  10.720  1.00  0.00     0.059 A 
ATOM     85  F   UNL     1       6.436  20.717   8.870  1.00  0.00    -0.206 F 
ATOM     86  C   UNL     1       4.294  20.624  11.777  1.00  0.00     0.060 A 
BRANCH  86  87
ATOM     87  S   UNL     1       3.402  21.748  12.871  1.00  0.00     0.124 S 
ATOM     88  O   UNL     1       2.017  21.486  12.492  1.00  0.00    -0.237 OA
ATOM     89  O   UNL     1       3.798  21.274  14.193  1.00  0.00    -0.237 OA
ATOM     90  O   UNL     1       3.915  23.064  12.500  1.00  0.00    -0.744 OA
ENDBRANCH  86  87
ENDBRANCH  65  79
BRANCH  66  91
ATOM     91  C   UNL     1      10.614  12.615   4.063  1.00  0.00     0.058 A 
ATOM     92  C   UNL     1      11.442  11.585   4.535  1.00  0.00     0.135 A 
ATOM     93  C   UNL     1      10.557  12.816   2.674  1.00  0.00     0.135 A 
ATOM     94  F   UNL     1      11.548  11.362   5.854  1.00  0.00    -0.206 F 
ATOM     95  C   UNL     1      12.201  10.801   3.670  1.00  0.00     0.059 A 
ATOM     96  C   UNL     1      11.283  12.026   1.787  1.00  0.00     0.059 A 
ATOM     97  F   UNL     1       9.781  13.786   2.166  1.00  0.00    -0.206 F 
ATOM     98  C   UNL     1      12.113  11.029   2.296  1.00  0.00     0.060 A 
BRANCH  98  99
ATOM     99  S   UNL     1      13.077   9.985   1.180  1.00  0.00     0.124 S 
ATOM    100  O   UNL     1      14.430  10.475   1.413  1.00  0.00    -0.237 OA
ATOM    101  O   UNL     1      12.786   8.647   1.686  1.00  0.00    -0.237 OA
ATOM    102  O   UNL     1      12.513  10.287  -0.132  1.00  0.00    -0.744 OA
ENDBRANCH  98  99
ENDBRANCH  66  91
BRANCH  78 103
ATOM    103  C   UNL     1      12.604  17.353   8.791  1.00  0.00     0.058 A 
ATOM    104  C   UNL     1      13.441  18.142   7.986  1.00  0.00     0.135 A 
ATOM    105  C   UNL     1      13.040  17.059  10.094  1.00  0.00     0.135 A 
ATOM    106  F   UNL     1      13.076  18.451   6.731  1.00  0.00    -0.206 F 
ATOM    107  C   UNL     1      14.672  18.600   8.445  1.00  0.00     0.059 A 
ATOM    108  C   UNL     1      14.253  17.532  10.585  1.00  0.00     0.059 A 
ATOM    109  F   UNL     1      12.274  16.320  10.913  1.00  0.00    -0.206 F 
ATOM    110  C   UNL     1      15.069  18.293   9.749  1.00  0.00     0.060 A 
BRANCH 110 111
ATOM    111  S   UNL     1      16.654  18.921  10.343  1.00  0.00     0.124 S 
ATOM    112  O   UNL     1      17.596  18.085   9.607  1.00  0.00    -0.237 OA
ATOM    113  O   UNL     1      16.603  20.324   9.942  1.00  0.00    -0.237 OA
ATOM    114  O   UNL     1      16.596  18.685  11.782  1.00  0.00    -0.744 OA
ENDBRANCH 110 111
ENDBRANCH  78 103
ENDBRANCH  52  53
ENDBRANCH  45  47
ENDBRANCH  44  45
ENDBRANCH  43  44
ENDBRANCH  42  43
ENDBRANCH  41  42
ENDBRANCH  40  41
ENDBRANCH  39  40
ENDBRANCH  38  39
ENDBRANCH   1  38
TORSDOF 28
