REMARK SMILES COc1cc(OC(F)(F)F)cc2c1O[C@@H](C(F)(F)F)C(C(=O)OCCOCCOCCOC(=O)c1ccc(-c3c4nc(c(-c5c(F)cc(S(=O)(=O)[O-])cc5F)c5ccc([nH]5)c(-c5c(F)cc(S(=O)(=O)[O-])cc5F)c5nc(c(-c6c(F)cc(S(=O)(=O)[O-])cc6F)c6ccc3[nH]6)C=C5)C=C4)cc1)=C2
REMARK SMILES IDX 28 1 27 2 26 3 25 4 24 5 23 6 21 7 22 8 20 9 3 10 4 11 13 12
REMARK SMILES IDX 5 13 12 14 14 15 11 16 101 17 15 18 2 19 1 20 6 21 7 22 8 23
REMARK SMILES IDX 9 24 10 25 16 26 17 27 18 28 19 29 29 30 30 31 31 32 32 33
REMARK SMILES IDX 33 34 34 35 35 36 36 37 100 38 37 39 99 40 38 41 39 42 40 43
REMARK SMILES IDX 93 44 41 45 98 46 92 47 94 48 42 49 97 50 91 51 90 52 43 54
REMARK SMILES IDX 77 55 56 56 76 57 57 58 60 59 75 60 95 61 58 62 59 63 74 65
REMARK SMILES IDX 96 66 61 67 44 68 45 69 54 70 46 71 47 72 53 73 55 74 48 75
REMARK SMILES IDX 49 76 50 77 51 78 52 79 78 80 79 81 88 82 80 83 81 84 87 85
REMARK SMILES IDX 89 86 82 87 83 88 84 89 85 90 86 91 62 92 63 93 72 94 64 95
REMARK SMILES IDX 65 96 71 97 73 98 66 99 67 100 68 101 69 102 70 103
REMARK H PARENT 94 53 60 64
REMARK Flexibility Score: inf
ROOT
ATOM      1  C   UNL     1       6.044   1.942   4.720  1.00  0.00     0.188 C 
ENDROOT
BRANCH   1   2
ATOM      2  C   UNL     1       7.258   1.324   3.998  1.00  0.00     0.188 C 
BRANCH   2   3
ATOM      3  O   UNL     1       8.440   2.110   4.078  1.00  0.00    -0.376 OA
BRANCH   3   4
ATOM      4  C   UNL     1       8.892   2.671   2.853  1.00  0.00     0.202 C 
BRANCH   4   5
ATOM      5  C   UNL     1       8.149   3.961   2.500  1.00  0.00     0.261 C 
BRANCH   5   6
ATOM      6  O   UNL     1       6.736   3.776   2.318  1.00  0.00    -0.460 OA
BRANCH   6   7
ATOM      7  C   UNL     1       6.349   3.143   1.186  1.00  0.00     0.338 C 
ATOM      8  O   UNL     1       7.089   2.760   0.297  1.00  0.00    -0.246 OA
BRANCH   7   9
ATOM      9  C   UNL     1       4.895   2.900   1.223  1.00  0.00     0.087 C 
ATOM     10  C   UNL     1       0.793   2.354   0.601  1.00  0.00     0.165 A 
ATOM     11  C   UNL     1      -0.113   3.274   1.144  1.00  0.00     0.097 A 
ATOM     12  C   UNL     1       2.165   2.526   0.806  1.00  0.00     0.170 A 
ATOM     13  C   UNL     1       0.338   4.348   1.912  1.00  0.00     0.134 A 
ATOM     14  C   UNL     1       2.629   3.619   1.556  1.00  0.00     0.025 A 
ATOM     15  O   UNL     1       3.051   1.683   0.182  1.00  0.00    -0.471 OA
ATOM     16  C   UNL     1       1.712   4.507   2.127  1.00  0.00     0.059 A 
ATOM     17  C   UNL     1       4.067   3.882   1.620  1.00  0.00     0.027 C 
ATOM     18  C   UNL     1       4.332   1.548   0.855  1.00  0.00     0.316 C 
BRANCH  10  19
ATOM     19  O   UNL     1       0.218   1.387  -0.183  1.00  0.00    -0.493 OA
ATOM     20  C   UNL     1       0.706   0.066   0.034  1.00  0.00     0.278 C 
ENDBRANCH  10  19
BRANCH  13  21
ATOM     21  O   UNL     1      -0.444   5.308   2.491  1.00  0.00    -0.406 OA
BRANCH  21  22
ATOM     22  C   UNL     1      -1.795   5.395   2.067  1.00  0.00     0.573 C 
ATOM     23  F   UNL     1      -1.881   5.533   0.727  1.00  0.00    -0.132 F 
ATOM     24  F   UNL     1      -2.500   4.314   2.460  1.00  0.00    -0.132 F 
ATOM     25  F   UNL     1      -2.354   6.488   2.634  1.00  0.00    -0.132 F 
ENDBRANCH  21  22
ENDBRANCH  13  21
BRANCH  18  26
ATOM     26  C   UNL     1       5.211   0.577   0.051  1.00  0.00     0.430 C 
ATOM     27  F   UNL     1       6.331   0.256   0.742  1.00  0.00    -0.167 F 
ATOM     28  F   UNL     1       4.545  -0.590  -0.147  1.00  0.00    -0.167 F 
ATOM     29  F   UNL     1       5.559   1.057  -1.157  1.00  0.00    -0.167 F 
ENDBRANCH  18  26
ENDBRANCH   7   9
ENDBRANCH   6   7
ENDBRANCH   5   6
ENDBRANCH   4   5
ENDBRANCH   3   4
ENDBRANCH   2   3
ENDBRANCH   1   2
BRANCH   1  30
ATOM     30  O   UNL     1       6.229   2.864   5.787  1.00  0.00    -0.376 OA
BRANCH  30  31
ATOM     31  C   UNL     1       7.312   2.682   6.686  1.00  0.00     0.202 C 
BRANCH  31  32
ATOM     32  C   UNL     1       7.288   1.448   7.593  1.00  0.00     0.261 C 
BRANCH  32  33
ATOM     33  O   UNL     1       7.191   0.202   6.886  1.00  0.00    -0.460 OA
BRANCH  33  34
ATOM     34  C   UNL     1       5.994  -0.426   6.989  1.00  0.00     0.338 C 
ATOM     35  O   UNL     1       5.016  -0.048   7.611  1.00  0.00    -0.246 OA
BRANCH  34  36
ATOM     36  C   UNL     1       5.960  -1.594   6.087  1.00  0.00     0.060 A 
ATOM     37  C   UNL     1       4.885  -1.704   5.193  1.00  0.00     0.016 A 
ATOM     38  C   UNL     1       6.919  -2.605   6.171  1.00  0.00     0.016 A 
ATOM     39  C   UNL     1       4.744  -2.847   4.405  1.00  0.00     0.010 A 
ATOM     40  C   UNL     1       6.761  -3.760   5.400  1.00  0.00     0.010 A 
ATOM     41  C   UNL     1       5.656  -3.900   4.541  1.00  0.00    -0.014 A 
BRANCH  41  42
ATOM     42  C   UNL     1       5.359  -5.224   3.944  1.00  0.00     0.031 A 
ATOM     43  C   UNL     1       4.664  -6.251   4.795  1.00  0.00     0.074 A 
ATOM     44  C   UNL     1       5.719  -5.517   2.683  1.00  0.00     0.049 A 
ATOM     45  N   UNL     1       4.416  -7.509   4.542  1.00  0.00    -0.248 NA
ATOM     46  C   UNL     1       4.188  -5.794   6.111  1.00  0.00     0.031 C 
ATOM     47  C   UNL     1       6.349  -4.591   1.745  1.00  0.00     0.029 A 
ATOM     48  N   UNL     1       5.622  -6.694   1.984  1.00  0.00    -0.354 N 
ATOM     49  C   UNL     1       3.771  -8.000   5.670  1.00  0.00     0.074 A 
ATOM     50  C   UNL     1       3.675  -6.907   6.614  1.00  0.00     0.031 C 
ATOM     51  C   UNL     1       6.612  -5.245   0.599  1.00  0.00     0.029 A 
ATOM     52  C   UNL     1       6.202  -6.642   0.739  1.00  0.00     0.049 A 
ATOM     53  H   UNL     1       5.179  -7.498   2.339  1.00  0.00     0.167 HD
ATOM     54  C   UNL     1       3.306  -9.250   5.902  1.00  0.00     0.037 A 
ATOM     55  C   UNL     1       6.410  -7.620  -0.166  1.00  0.00     0.037 A 
ATOM     56  C   UNL     1       3.416 -10.336   4.965  1.00  0.00     0.049 A 
ATOM     57  C   UNL     1       5.946  -9.021   0.137  1.00  0.00     0.074 A 
ATOM     58  C   UNL     1       2.977 -11.641   5.104  1.00  0.00     0.029 A 
ATOM     59  N   UNL     1       4.015 -10.245   3.718  1.00  0.00    -0.354 N 
ATOM     60  N   UNL     1       5.335  -9.475   1.207  1.00  0.00    -0.248 NA
ATOM     61  C   UNL     1       6.201 -10.045  -0.887  1.00  0.00     0.031 C 
ATOM     62  C   UNL     1       3.346 -12.349   3.955  1.00  0.00     0.029 A 
ATOM     63  C   UNL     1       3.973 -11.474   3.082  1.00  0.00     0.049 A 
ATOM     64  H   UNL     1       4.412  -9.427   3.340  1.00  0.00     0.167 HD
ATOM     65  C   UNL     1       5.106 -10.828   0.971  1.00  0.00     0.074 A 
ATOM     66  C   UNL     1       5.645 -11.120  -0.341  1.00  0.00     0.031 C 
ATOM     67  C   UNL     1       4.500 -11.743   1.767  1.00  0.00     0.037 A 
BRANCH  54  68
ATOM     68  C   UNL     1       2.675  -9.512   7.239  1.00  0.00     0.058 A 
ATOM     69  C   UNL     1       1.405  -9.012   7.567  1.00  0.00     0.135 A 
ATOM     70  C   UNL     1       3.352 -10.271   8.207  1.00  0.00     0.135 A 
ATOM     71  F   UNL     1       0.725  -8.262   6.685  1.00  0.00    -0.206 F 
ATOM     72  C   UNL     1       0.841  -9.230   8.820  1.00  0.00     0.059 A 
ATOM     73  C   UNL     1       2.796 -10.521   9.458  1.00  0.00     0.059 A 
ATOM     74  F   UNL     1       4.571 -10.768   7.945  1.00  0.00    -0.206 F 
ATOM     75  C   UNL     1       1.548  -9.980   9.761  1.00  0.00     0.060 A 
BRANCH  75  76
ATOM     76  S   UNL     1       0.815 -10.238  11.391  1.00  0.00     0.124 S 
ATOM     77  O   UNL     1       1.025  -8.934  12.012  1.00  0.00    -0.237 OA
ATOM     78  O   UNL     1      -0.568 -10.569  11.065  1.00  0.00    -0.237 OA
ATOM     79  O   UNL     1       1.603 -11.333  11.948  1.00  0.00    -0.744 OA
ENDBRANCH  75  76
ENDBRANCH  54  68
BRANCH  55  80
ATOM     80  C   UNL     1       7.113  -7.310  -1.438  1.00  0.00     0.058 A 
ATOM     81  C   UNL     1       6.424  -7.287  -2.659  1.00  0.00     0.135 A 
ATOM     82  C   UNL     1       8.486  -7.019  -1.455  1.00  0.00     0.135 A 
ATOM     83  F   UNL     1       5.114  -7.573  -2.694  1.00  0.00    -0.206 F 
ATOM     84  C   UNL     1       7.071  -6.991  -3.855  1.00  0.00     0.059 A 
ATOM     85  C   UNL     1       9.151  -6.699  -2.635  1.00  0.00     0.059 A 
ATOM     86  F   UNL     1       9.189  -7.022  -0.312  1.00  0.00    -0.206 F 
ATOM     87  C   UNL     1       8.435  -6.695  -3.832  1.00  0.00     0.060 A 
BRANCH  87  88
ATOM     88  S   UNL     1       9.255  -6.255  -5.380  1.00  0.00     0.124 S 
ATOM     89  O   UNL     1       9.366  -7.554  -6.033  1.00  0.00    -0.237 OA
ATOM     90  O   UNL     1       8.305  -5.320  -5.976  1.00  0.00    -0.237 OA
ATOM     91  O   UNL     1      10.512  -5.661  -4.936  1.00  0.00    -0.744 OA
ENDBRANCH  87  88
ENDBRANCH  55  80
BRANCH  67  92
ATOM     92  C   UNL     1       4.336 -13.138   1.231  1.00  0.00     0.058 A 
ATOM     93  C   UNL     1       5.409 -14.040   1.175  1.00  0.00     0.135 A 
ATOM     94  C   UNL     1       3.067 -13.600   0.844  1.00  0.00     0.135 A 
ATOM     95  F   UNL     1       6.642 -13.645   1.528  1.00  0.00    -0.206 F 
ATOM     96  C   UNL     1       5.232 -15.351   0.745  1.00  0.00     0.059 A 
ATOM     97  C   UNL     1       2.863 -14.913   0.432  1.00  0.00     0.059 A 
ATOM     98  F   UNL     1       2.006 -12.779   0.890  1.00  0.00    -0.206 F 
ATOM     99  C   UNL     1       3.954 -15.780   0.379  1.00  0.00     0.060 A 
BRANCH  99 100
ATOM    100  S   UNL     1       3.724 -17.499  -0.125  1.00  0.00     0.124 S 
ATOM    101  O   UNL     1       4.273 -17.485  -1.476  1.00  0.00    -0.237 OA
ATOM    102  O   UNL     1       4.506 -18.226   0.871  1.00  0.00    -0.237 OA
ATOM    103  O   UNL     1       2.279 -17.688  -0.036  1.00  0.00    -0.744 OA
ENDBRANCH  99 100
ENDBRANCH  67  92
ENDBRANCH  41  42
ENDBRANCH  34  36
ENDBRANCH  33  34
ENDBRANCH  32  33
ENDBRANCH  31  32
ENDBRANCH  30  31
ENDBRANCH   1  30
TORSDOF 24
