REMARK SMILES CN(CC(=O)OCCOCCOCCOC(=O)c1ccc(-c2c3nc(c(-c4c(F)cc(S(=O)(=O)[O-])cc4F)c4ccc([nH]4)c(-c4c(F)cc(S(=O)(=O)[O-])cc4F)c4nc(c(-c5c(F)cc(S(=O)(=O)[O-])cc5F)c5ccc2[nH]5)C=C4)C=C3)cc1)C(=O)c1ccccn1
REMARK SMILES IDX 10 1 9 2 8 3 7 4 6 5 4 6 5 7 3 8 2 9 1 10 84 11 85 12 86 13
REMARK SMILES IDX 87 14 91 15 88 16 90 17 89 18 11 19 12 20 13 21 14 22 15 23
REMARK SMILES IDX 16 24 17 25 18 26 19 27 83 28 20 29 82 30 21 31 22 32 23 33
REMARK SMILES IDX 76 34 24 35 81 36 75 37 77 38 25 39 80 40 74 41 73 42 26 44
REMARK SMILES IDX 60 45 39 46 59 47 40 48 43 49 58 50 78 51 41 52 42 53 57 55
REMARK SMILES IDX 79 56 44 57 27 58 28 59 37 60 29 61 30 62 36 63 38 64 31 65
REMARK SMILES IDX 32 66 33 67 34 68 35 69 61 70 62 71 71 72 63 73 64 74 70 75
REMARK SMILES IDX 72 76 65 77 66 78 67 79 68 80 69 81 45 82 46 83 55 84 47 85
REMARK SMILES IDX 48 86 54 87 56 88 49 89 50 90 51 91 52 92 53 93
REMARK H PARENT 77 43 43 54
REMARK Flexibility Score: inf
ROOT
ATOM      1  C   UNL     1      -3.110   0.594   3.676  1.00  0.00     0.188 C 
ENDROOT
BRANCH   1   2
ATOM      2  O   UNL     1      -4.499   0.437   3.524  1.00  0.00    -0.376 OA
BRANCH   2   3
ATOM      3  C   UNL     1      -4.897  -0.009   2.239  1.00  0.00     0.202 C 
BRANCH   3   4
ATOM      4  C   UNL     1      -4.266   0.650   0.964  1.00  0.00     0.261 C 
BRANCH   4   5
ATOM      5  O   UNL     1      -2.806   0.599   0.750  1.00  0.00    -0.462 OA
BRANCH   5   6
ATOM      6  C   UNL     1      -2.076   1.756   0.716  1.00  0.00     0.325 C 
ATOM      7  O   UNL     1      -2.614   2.861   0.670  1.00  0.00    -0.250 OA
BRANCH   6   8
ATOM      8  C   UNL     1      -0.472   1.650   0.757  1.00  0.00     0.242 C 
BRANCH   8   9
ATOM      9  N   UNL     1       0.471   0.493   1.008  1.00  0.00    -0.329 N 
ATOM     10  C   UNL     1       0.957  -0.153  -0.207  1.00  0.00     0.147 C 
BRANCH   9  11
ATOM     11  C   UNL     1       1.201   0.050   2.182  1.00  0.00     0.272 C 
ATOM     12  O   UNL     1       2.124  -0.760   2.050  1.00  0.00    -0.267 OA
BRANCH  11  13
ATOM     13  C   UNL     1       0.924   0.485   3.604  1.00  0.00     0.128 A 
ATOM     14  C   UNL     1      -0.397   1.593   3.879  1.00  0.00     0.034 A 
ATOM     15  N   UNL     1       2.047  -0.007   4.882  1.00  0.00    -0.251 NA
ATOM     16  C   UNL     1      -0.799   2.279   5.391  1.00  0.00     0.004 A 
ATOM     17  C   UNL     1       1.792   0.651   6.520  1.00  0.00     0.112 A 
ATOM     18  C   UNL     1       0.215   1.892   6.750  1.00  0.00     0.020 A 
ENDBRANCH  11  13
ENDBRANCH   9  11
ENDBRANCH   8   9
ENDBRANCH   6   8
ENDBRANCH   5   6
ENDBRANCH   4   5
ENDBRANCH   3   4
ENDBRANCH   2   3
ENDBRANCH   1   2
BRANCH   1  19
ATOM     19  C   UNL     1      -2.210  -0.494   3.063  1.00  0.00     0.188 C 
BRANCH  19  20
ATOM     20  O   UNL     1      -2.798  -1.709   2.735  1.00  0.00    -0.376 OA
BRANCH  20  21
ATOM     21  C   UNL     1      -2.679  -2.755   3.670  1.00  0.00     0.202 C 
BRANCH  21  22
ATOM     22  C   UNL     1      -2.258  -2.556   5.148  1.00  0.00     0.261 C 
BRANCH  22  23
ATOM     23  O   UNL     1      -1.617  -1.329   5.567  1.00  0.00    -0.460 OA
BRANCH  23  24
ATOM     24  C   UNL     1      -0.285  -1.186   5.260  1.00  0.00     0.338 C 
ATOM     25  O   UNL     1       0.361  -2.059   4.715  1.00  0.00    -0.246 OA
BRANCH  24  26
ATOM     26  C   UNL     1       0.138   0.265   5.741  1.00  0.00     0.060 A 
ATOM     27  C   UNL     1       1.304   1.847   5.195  1.00  0.00     0.016 A 
ATOM     28  C   UNL     1       0.039  -0.072   7.524  1.00  0.00     0.016 A 
ATOM     29  C   UNL     1       2.161   2.769   6.421  1.00  0.00     0.010 A 
ATOM     30  C   UNL     1       0.931   0.952   8.629  1.00  0.00     0.010 A 
ATOM     31  C   UNL     1       1.923   2.320   8.081  1.00  0.00    -0.014 A 
BRANCH  31  32
ATOM     32  C   UNL     1       2.576   3.247   8.992  1.00  0.00     0.031 A 
ATOM     33  C   UNL     1       3.648   2.675   9.825  1.00  0.00     0.074 A 
ATOM     34  C   UNL     1       2.346   4.565   8.815  1.00  0.00     0.049 A 
ATOM     35  N   UNL     1       4.544   3.296  10.525  1.00  0.00    -0.248 NA
ATOM     36  C   UNL     1       3.752   1.207   9.854  1.00  0.00     0.031 C 
ATOM     37  C   UNL     1       1.332   5.154   7.920  1.00  0.00     0.029 A 
ATOM     38  N   UNL     1       3.012   5.658   9.292  1.00  0.00    -0.354 N 
ATOM     39  C   UNL     1       5.321   2.291  11.072  1.00  0.00     0.074 A 
ATOM     40  C   UNL     1       4.764   1.025  10.676  1.00  0.00     0.031 C 
ATOM     41  C   UNL     1       1.526   6.478   7.827  1.00  0.00     0.029 A 
ATOM     42  C   UNL     1       2.592   6.849   8.740  1.00  0.00     0.049 A 
ATOM     43  H   UNL     1       3.726   5.600   9.967  1.00  0.00     0.167 HD
ATOM     44  C   UNL     1       6.420   2.437  11.832  1.00  0.00     0.037 A 
ATOM     45  C   UNL     1       3.026   8.100   8.974  1.00  0.00     0.037 A 
ATOM     46  C   UNL     1       6.893   3.727  12.231  1.00  0.00     0.049 A 
ATOM     47  C   UNL     1       4.149   8.231   9.963  1.00  0.00     0.074 A 
ATOM     48  C   UNL     1       7.916   4.038  13.098  1.00  0.00     0.029 A 
ATOM     49  N   UNL     1       6.340   4.929  11.795  1.00  0.00    -0.354 N 
ATOM     50  N   UNL     1       4.839   7.277  10.547  1.00  0.00    -0.248 NA
ATOM     51  C   UNL     1       4.542   9.588  10.341  1.00  0.00     0.031 C 
ATOM     52  C   UNL     1       7.925   5.427  13.254  1.00  0.00     0.029 A 
ATOM     53  C   UNL     1       6.982   5.988  12.401  1.00  0.00     0.049 A 
ATOM     54  H   UNL     1       5.601   5.010  11.150  1.00  0.00     0.167 HD
ATOM     55  C   UNL     1       5.776   7.917  11.342  1.00  0.00     0.074 A 
ATOM     56  C   UNL     1       5.566   9.342  11.146  1.00  0.00     0.031 C 
ATOM     57  C   UNL     1       6.724   7.388  12.156  1.00  0.00     0.037 A 
BRANCH  44  58
ATOM     58  C   UNL     1       7.037   1.175  12.344  1.00  0.00     0.058 A 
ATOM     59  C   UNL     1       7.636   0.230  11.491  1.00  0.00     0.135 A 
ATOM     60  C   UNL     1       6.912   0.850  13.702  1.00  0.00     0.135 A 
ATOM     61  F   UNL     1       7.713   0.460  10.170  1.00  0.00    -0.206 F 
ATOM     62  C   UNL     1       8.062  -1.005  11.966  1.00  0.00     0.059 A 
ATOM     63  C   UNL     1       7.373  -0.358  14.205  1.00  0.00     0.059 A 
ATOM     64  F   UNL     1       6.301   1.695  14.546  1.00  0.00    -0.206 F 
ATOM     65  C   UNL     1       7.934  -1.284  13.327  1.00  0.00     0.060 A 
BRANCH  65  66
ATOM     66  S   UNL     1       8.523  -2.874  13.936  1.00  0.00     0.124 S 
ATOM     67  O   UNL     1       7.561  -3.794  13.337  1.00  0.00    -0.237 OA
ATOM     68  O   UNL     1       9.876  -2.926  13.392  1.00  0.00    -0.237 OA
ATOM     69  O   UNL     1       8.437  -2.735  15.386  1.00  0.00    -0.744 OA
ENDBRANCH  65  66
ENDBRANCH  44  58
BRANCH  45  70
ATOM     70  C   UNL     1       2.390   9.281   8.323  1.00  0.00     0.058 A 
ATOM     71  C   UNL     1       3.118  10.149   7.495  1.00  0.00     0.135 A 
ATOM     72  C   UNL     1       1.030   9.578   8.525  1.00  0.00     0.135 A 
ATOM     73  F   UNL     1       4.421   9.923   7.266  1.00  0.00    -0.206 F 
ATOM     74  C   UNL     1       2.531  11.269   6.907  1.00  0.00     0.059 A 
ATOM     75  C   UNL     1       0.412  10.669   7.921  1.00  0.00     0.059 A 
ATOM     76  F   UNL     1       0.276   8.785   9.302  1.00  0.00    -0.206 F 
ATOM     77  C   UNL     1       1.174  11.516   7.121  1.00  0.00     0.060 A 
BRANCH  77  78
ATOM     78  S   UNL     1       0.413  12.943   6.316  1.00  0.00     0.124 S 
ATOM     79  O   UNL     1       1.077  14.053   6.990  1.00  0.00    -0.237 OA
ATOM     80  O   UNL     1       0.779  12.731   4.919  1.00  0.00    -0.237 OA
ATOM     81  O   UNL     1      -1.006  12.782   6.617  1.00  0.00    -0.744 OA
ENDBRANCH  77  78
ENDBRANCH  45  70
BRANCH  57  82
ATOM     82  C   UNL     1       7.649   8.361  12.824  1.00  0.00     0.058 A 
ATOM     83  C   UNL     1       7.215   9.240  13.826  1.00  0.00     0.135 A 
ATOM     84  C   UNL     1       9.009   8.365  12.476  1.00  0.00     0.135 A 
ATOM     85  F   UNL     1       5.923   9.272  14.190  1.00  0.00    -0.206 F 
ATOM     86  C   UNL     1       8.095  10.128  14.428  1.00  0.00     0.059 A 
ATOM     87  C   UNL     1       9.915   9.204  13.104  1.00  0.00     0.059 A 
ATOM     88  F   UNL     1       9.473   7.526  11.534  1.00  0.00    -0.206 F 
ATOM     89  C   UNL     1       9.443  10.097  14.063  1.00  0.00     0.060 A 
BRANCH  89  90
ATOM     90  S   UNL     1      10.576  11.239  14.871  1.00  0.00     0.124 S 
ATOM     91  O   UNL     1      10.140  12.519  14.324  1.00  0.00    -0.237 OA
ATOM     92  O   UNL     1      10.280  11.017  16.283  1.00  0.00    -0.237 OA
ATOM     93  O   UNL     1      11.891  10.783  14.431  1.00  0.00    -0.744 OA
ENDBRANCH  89  90
ENDBRANCH  57  82
ENDBRANCH  31  32
ENDBRANCH  24  26
ENDBRANCH  23  24
ENDBRANCH  22  23
ENDBRANCH  21  22
ENDBRANCH  20  21
ENDBRANCH  19  20
ENDBRANCH   1  19
TORSDOF 23
