REMARK SMILES C[C@H](C[N@H+](C)[C@H]1CC[C@H]([NH3+])CC1)C(=O)OCCOCCOCCOC(=O)c1ccc(-c2c3nc(c(-c4c(F)cc(S(=O)(=O)[O-])cc4F)c4ccc([nH]4)c(-c4c(F)cc(S(=O)(=O)[O-])cc4F)c4nc(c(-c5c(F)cc(S(=O)(=O)[O-])cc5F)c5ccc2[nH]5)C=C4)C=C3)cc1
REMARK SMILES IDX 19 1 18 2 17 3 16 4 15 5 13 6 14 7 2 8 1 9 3 10 4 11 5 12
REMARK SMILES IDX 6 14 7 15 12 16 8 17 11 18 9 19 10 20 20 24 21 25 22 26
REMARK SMILES IDX 23 27 24 28 25 29 26 30 27 31 28 32 92 33 29 34 91 35 30 36
REMARK SMILES IDX 31 37 32 38 85 39 33 40 90 41 84 42 86 43 34 44 89 45 83 46
REMARK SMILES IDX 82 47 35 49 69 50 48 51 68 52 49 53 52 54 67 55 87 56 50 57
REMARK SMILES IDX 51 58 66 60 88 61 53 62 36 63 37 64 46 65 38 66 39 67 45 68
REMARK SMILES IDX 47 69 40 70 41 71 42 72 43 73 44 74 70 75 71 76 80 77 72 78
REMARK SMILES IDX 73 79 79 80 81 81 74 82 75 83 76 84 77 85 78 86 54 87 55 88
REMARK SMILES IDX 64 89 56 90 57 91 63 92 65 93 58 94 59 95 60 96 61 97 62 98
REMARK H PARENT 4 13 10 21 10 22 10 23 86 48 52 59
REMARK Flexibility Score: inf
ROOT
ATOM      1  C   UNL     1      -2.618  -2.107  -0.120  1.00  0.00     0.188 C 
ENDROOT
BRANCH   1   2
ATOM      2  O   UNL     1      -3.874  -1.725   0.429  1.00  0.00    -0.376 OA
BRANCH   2   3
ATOM      3  C   UNL     1      -3.994  -0.452   1.056  1.00  0.00     0.202 C 
BRANCH   3   4
ATOM      4  C   UNL     1      -2.960  -0.063   2.124  1.00  0.00     0.261 C 
BRANCH   4   5
ATOM      5  O   UNL     1      -1.602  -0.003   1.636  1.00  0.00    -0.463 OA
BRANCH   5   6
ATOM      6  C   UNL     1      -0.651  -0.685   2.327  1.00  0.00     0.314 C 
ATOM      7  O   UNL     1      -0.893  -1.316   3.350  1.00  0.00    -0.252 OA
BRANCH   6   8
ATOM      8  C   UNL     1       0.732  -0.701   1.641  1.00  0.00     0.151 C 
ATOM      9  C   UNL     1       1.858  -0.993   2.648  1.00  0.00     0.026 C 
BRANCH   8  10
ATOM     10  C   UNL     1       1.131   0.429   0.643  1.00  0.00     0.277 C 
BRANCH  10  11
ATOM     11  N   UNL     1       1.297   1.847   0.981  1.00  0.00    -0.334 N 
ATOM     12  C   UNL     1       2.658   2.341   0.944  1.00  0.00     0.332 C 
ATOM     13  H   UNL     1       0.918   2.308   0.154  1.00  0.00     0.348 HD
BRANCH  11  14
ATOM     14  C   UNL     1       0.344   2.454   1.900  1.00  0.00     0.184 C 
ATOM     15  C   UNL     1       0.246   3.993   1.800  1.00  0.00     0.071 C 
ATOM     16  C   UNL     1       0.592   2.087   3.368  1.00  0.00     0.071 C 
ATOM     17  C   UNL     1      -0.862   4.538   2.719  1.00  0.00     0.071 C 
ATOM     18  C   UNL     1      -0.587   2.527   4.221  1.00  0.00     0.071 C 
ATOM     19  C   UNL     1      -0.717   4.045   4.167  1.00  0.00     0.181 C 
BRANCH  19  20
ATOM     20  N   UNL     1      -1.853   4.454   4.987  1.00  0.00    -0.355 N 
ATOM     21  H   UNL     1      -2.706   4.032   4.621  1.00  0.00     0.344 HD
ATOM     22  H   UNL     1      -1.939   5.470   4.966  1.00  0.00     0.344 HD
ATOM     23  H   UNL     1      -1.706   4.145   5.949  1.00  0.00     0.344 HD
ENDBRANCH  19  20
ENDBRANCH  11  14
ENDBRANCH  10  11
ENDBRANCH   8  10
ENDBRANCH   6   8
ENDBRANCH   5   6
ENDBRANCH   4   5
ENDBRANCH   3   4
ENDBRANCH   2   3
ENDBRANCH   1   2
BRANCH   1  24
ATOM     24  C   UNL     1      -1.837  -1.066  -0.931  1.00  0.00     0.188 C 
BRANCH  24  25
ATOM     25  O   UNL     1      -2.552   0.115  -1.218  1.00  0.00    -0.376 OA
BRANCH  25  26
ATOM     26  C   UNL     1      -2.873   0.357  -2.575  1.00  0.00     0.202 C 
BRANCH  26  27
ATOM     27  C   UNL     1      -3.607  -0.748  -3.355  1.00  0.00     0.261 C 
BRANCH  27  28
ATOM     28  O   UNL     1      -3.091  -2.088  -3.236  1.00  0.00    -0.460 OA
BRANCH  28  29
ATOM     29  C   UNL     1      -1.905  -2.369  -3.834  1.00  0.00     0.338 C 
ATOM     30  O   UNL     1      -1.241  -1.613  -4.512  1.00  0.00    -0.246 OA
BRANCH  29  31
ATOM     31  C   UNL     1      -1.426  -3.668  -3.282  1.00  0.00     0.060 A 
ATOM     32  C   UNL     1      -0.186  -3.718  -2.623  1.00  0.00     0.016 A 
ATOM     33  C   UNL     1      -2.217  -4.816  -3.361  1.00  0.00     0.016 A 
ATOM     34  C   UNL     1       0.273  -4.917  -2.066  1.00  0.00     0.010 A 
ATOM     35  C   UNL     1      -1.743  -6.021  -2.829  1.00  0.00     0.010 A 
ATOM     36  C   UNL     1      -0.484  -6.087  -2.203  1.00  0.00    -0.014 A 
BRANCH  36  37
ATOM     37  C   UNL     1       0.114  -7.413  -1.891  1.00  0.00     0.031 A 
ATOM     38  C   UNL     1       0.681  -8.218  -3.032  1.00  0.00     0.074 A 
ATOM     39  C   UNL     1       0.154  -7.907  -0.639  1.00  0.00     0.049 A 
ATOM     40  N   UNL     1       1.161  -9.434  -3.038  1.00  0.00    -0.248 NA
ATOM     41  C   UNL     1       0.701  -7.556  -4.348  1.00  0.00     0.031 C 
ATOM     42  C   UNL     1      -0.315  -7.217   0.560  1.00  0.00     0.029 A 
ATOM     43  N   UNL     1       0.599  -9.122  -0.175  1.00  0.00    -0.354 N 
ATOM     44  C   UNL     1       1.527  -9.689  -4.355  1.00  0.00     0.074 A 
ATOM     45  C   UNL     1       1.189  -8.511  -5.125  1.00  0.00     0.031 C 
ATOM     46  C   UNL     1      -0.152  -8.028   1.622  1.00  0.00     0.029 A 
ATOM     47  C   UNL     1       0.397  -9.308   1.173  1.00  0.00     0.049 A 
ATOM     48  H   UNL     1       1.024  -9.796  -0.753  1.00  0.00     0.167 HD
ATOM     49  C   UNL     1       2.097 -10.800  -4.877  1.00  0.00     0.037 A 
ATOM     50  C   UNL     1       0.602 -10.395   1.948  1.00  0.00     0.037 A 
ATOM     51  C   UNL     1       2.430 -11.973  -4.111  1.00  0.00     0.049 A 
ATOM     52  C   UNL     1       1.167 -11.652   1.330  1.00  0.00     0.074 A 
ATOM     53  C   UNL     1       3.024 -13.144  -4.547  1.00  0.00     0.029 A 
ATOM     54  N   UNL     1       2.189 -12.129  -2.754  1.00  0.00    -0.354 N 
ATOM     55  N   UNL     1       1.526 -11.875   0.088  1.00  0.00    -0.248 NA
ATOM     56  C   UNL     1       1.356 -12.808   2.221  1.00  0.00     0.031 C 
ATOM     57  C   UNL     1       3.090 -14.029  -3.467  1.00  0.00     0.029 A 
ATOM     58  C   UNL     1       2.598 -13.387  -2.343  1.00  0.00     0.049 A 
ATOM     59  H   UNL     1       1.787 -11.446  -2.170  1.00  0.00     0.167 HD
ATOM     60  C   UNL     1       2.013 -13.180   0.057  1.00  0.00     0.074 A 
ATOM     61  C   UNL     1       1.911 -13.694   1.406  1.00  0.00     0.031 C 
ATOM     62  C   UNL     1       2.504 -13.886  -0.993  1.00  0.00     0.037 A 
BRANCH  49  63
ATOM     63  C   UNL     1       2.370 -10.814  -6.357  1.00  0.00     0.058 A 
ATOM     64  C   UNL     1       3.373 -10.020  -6.934  1.00  0.00     0.135 A 
ATOM     65  C   UNL     1       1.637 -11.661  -7.205  1.00  0.00     0.135 A 
ATOM     66  F   UNL     1       4.090  -9.177  -6.174  1.00  0.00    -0.206 F 
ATOM     67  C   UNL     1       3.624 -10.046  -8.302  1.00  0.00     0.059 A 
ATOM     68  C   UNL     1       1.892 -11.726  -8.572  1.00  0.00     0.059 A 
ATOM     69  F   UNL     1       0.663 -12.438  -6.707  1.00  0.00    -0.206 F 
ATOM     70  C   UNL     1       2.879 -10.905  -9.113  1.00  0.00     0.060 A 
BRANCH  70  71
ATOM     71  S   UNL     1       3.225 -10.933 -10.884  1.00  0.00     0.124 S 
ATOM     72  O   UNL     1       2.698  -9.638 -11.304  1.00  0.00    -0.237 OA
ATOM     73  O   UNL     1       4.678 -11.065 -10.915  1.00  0.00    -0.237 OA
ATOM     74  O   UNL     1       2.482 -12.096 -11.358  1.00  0.00    -0.744 OA
ENDBRANCH  70  71
ENDBRANCH  49  63
BRANCH  50  75
ATOM     75  C   UNL     1       0.254 -10.359   3.397  1.00  0.00     0.058 A 
ATOM     76  C   UNL     1       1.248 -10.427   4.385  1.00  0.00     0.135 A 
ATOM     77  C   UNL     1      -1.081 -10.278   3.824  1.00  0.00     0.135 A 
ATOM     78  F   UNL     1       2.539 -10.526   4.032  1.00  0.00    -0.206 F 
ATOM     79  C   UNL     1       0.932 -10.431   5.741  1.00  0.00     0.059 A 
ATOM     80  C   UNL     1      -1.421 -10.250   5.173  1.00  0.00     0.059 A 
ATOM     81  F   UNL     1      -2.072 -10.209   2.921  1.00  0.00    -0.206 F 
ATOM     82  C   UNL     1      -0.406 -10.338   6.125  1.00  0.00     0.060 A 
BRANCH  82  83
ATOM     83  S   UNL     1      -0.800 -10.300   7.888  1.00  0.00     0.124 S 
ATOM     84  O   UNL     1      -0.518 -11.675   8.283  1.00  0.00    -0.237 OA
ATOM     85  O   UNL     1       0.128  -9.289   8.386  1.00  0.00    -0.237 OA
ATOM     86  O   UNL     1      -2.208  -9.914   7.910  1.00  0.00    -0.744 OA
ENDBRANCH  82  83
ENDBRANCH  50  75
BRANCH  62  87
ATOM     87  C   UNL     1       3.018 -15.277  -0.726  1.00  0.00     0.058 A 
ATOM     88  C   UNL     1       2.157 -16.347  -0.435  1.00  0.00     0.135 A 
ATOM     89  C   UNL     1       4.392 -15.555  -0.828  1.00  0.00     0.135 A 
ATOM     90  F   UNL     1       0.836 -16.139  -0.322  1.00  0.00    -0.206 F 
ATOM     91  C   UNL     1       2.642 -17.636  -0.229  1.00  0.00     0.059 A 
ATOM     92  C   UNL     1       4.895 -16.842  -0.658  1.00  0.00     0.059 A 
ATOM     93  F   UNL     1       5.261 -14.574  -1.118  1.00  0.00    -0.206 F 
ATOM     94  C   UNL     1       4.012 -17.874  -0.346  1.00  0.00     0.060 A 
BRANCH  94  95
ATOM     95  S   UNL     1       4.622 -19.558  -0.111  1.00  0.00     0.124 S 
ATOM     96  O   UNL     1       4.471 -19.727   1.330  1.00  0.00    -0.237 OA
ATOM     97  O   UNL     1       3.710 -20.338  -0.941  1.00  0.00    -0.237 OA
ATOM     98  O   UNL     1       5.999 -19.492  -0.594  1.00  0.00    -0.744 OA
ENDBRANCH  94  95
ENDBRANCH  62  87
ENDBRANCH  36  37
ENDBRANCH  29  31
ENDBRANCH  28  29
ENDBRANCH  27  28
ENDBRANCH  26  27
ENDBRANCH  25  26
ENDBRANCH  24  25
ENDBRANCH   1  24
TORSDOF 24
