REMARK SMILES COc1ccc(C2=NN(C(=O)CCC(=O)OCCOCCOCCOC(=O)c3ccc(-c4c5nc(c(-c6c(F)cc(S(=O)(=O)[O-])cc6F)c6ccc([nH]6)c(-c6c(F)cc(S(=O)(=O)[O-])cc6F)c6nc(c(-c7c(F)cc(S(=O)(=O)[O-])cc7F)c7ccc4[nH]7)C=C6)C=C5)cc3)[C@H](c3ccc(Cl)cc3Cl)C2)cc1
REMARK SMILES IDX 20 1 19 2 18 3 17 4 16 5 14 6 15 7 13 8 12 9 10 10 11 11
REMARK SMILES IDX 9 12 7 13 8 14 103 15 94 16 6 17 3 18 4 19 105 20 5 21
REMARK SMILES IDX 104 22 2 23 1 24 95 25 96 26 101 27 97 28 100 29 102 30
REMARK SMILES IDX 98 31 99 32 21 33 22 34 23 35 24 36 25 37 26 38 27 39 28 40
REMARK SMILES IDX 29 41 93 42 30 43 92 44 31 45 32 46 33 47 86 48 34 49 91 50
REMARK SMILES IDX 85 51 87 52 35 53 90 54 84 55 83 56 36 58 70 59 49 60 69 61
REMARK SMILES IDX 50 62 53 63 68 64 88 65 51 66 52 67 67 69 89 70 54 71 37 72
REMARK SMILES IDX 38 73 47 74 39 75 40 76 46 77 48 78 41 79 42 80 43 81 44 82
REMARK SMILES IDX 45 83 71 84 72 85 81 86 73 87 74 88 80 89 82 90 75 91 76 92
REMARK SMILES IDX 77 93 78 94 79 95 55 96 56 97 65 98 57 99 58 100 64 101
REMARK SMILES IDX 66 102 59 103 60 104 61 105 62 106 63 107
REMARK H PARENT 87 57 53 68
REMARK Flexibility Score: inf
ROOT
ATOM      1  C   UNL     1       3.838   5.803   8.832  1.00  0.00     0.188 C 
ENDROOT
BRANCH   1   2
ATOM      2  O   UNL     1       4.896   6.450   8.039  1.00  0.00    -0.376 OA
BRANCH   2   3
ATOM      3  C   UNL     1       5.936   5.958   7.137  1.00  0.00     0.202 C 
BRANCH   3   4
ATOM      4  C   UNL     1       6.087   4.514   6.637  1.00  0.00     0.261 C 
BRANCH   4   5
ATOM      5  O   UNL     1       5.298   3.660   7.422  1.00  0.00    -0.463 OA
BRANCH   5   6
ATOM      6  C   UNL     1       5.881   3.002   8.423  1.00  0.00     0.306 C 
ATOM      7  O   UNL     1       7.097   2.807   8.536  1.00  0.00    -0.252 OA
BRANCH   6   8
ATOM      8  C   UNL     1       4.877   2.690   9.485  1.00  0.00     0.132 C 
BRANCH   8   9
ATOM      9  C   UNL     1       3.394   2.921   9.157  1.00  0.00     0.114 C 
BRANCH   9  10
ATOM     10  C   UNL     1       2.903   3.025   7.691  1.00  0.00     0.243 C 
ATOM     11  O   UNL     1       2.575   1.879   7.286  1.00  0.00    -0.273 OA
BRANCH  10  12
ATOM     12  N   UNL     1       2.722   4.167   6.826  1.00  0.00    -0.225 N 
ATOM     13  C   UNL     1       2.111   4.359   4.695  1.00  0.00     0.071 C 
ATOM     14  N   UNL     1       2.131   3.599   5.712  1.00  0.00    -0.174 NA
ATOM     15  C   UNL     1       2.653   5.735   4.855  1.00  0.00     0.091 C 
ATOM     16  C   UNL     1       2.897   5.956   6.470  1.00  0.00     0.149 C 
BRANCH  13  17
ATOM     17  C   UNL     1       1.698   3.734   3.419  1.00  0.00    -0.002 A 
ATOM     18  C   UNL     1       0.864   2.004   1.361  1.00  0.00     0.118 A 
ATOM     19  C   UNL     1      -0.038   2.891   1.966  1.00  0.00     0.047 A 
ATOM     20  C   UNL     1       2.187   1.981   1.798  1.00  0.00     0.047 A 
ATOM     21  C   UNL     1       0.366   3.740   3.009  1.00  0.00     0.014 A 
ATOM     22  C   UNL     1       2.600   2.837   2.828  1.00  0.00     0.014 A 
BRANCH  18  23
ATOM     23  O   UNL     1       0.339   1.228   0.363  1.00  0.00    -0.497 OA
ATOM     24  C   UNL     1       1.040   0.032   0.035  1.00  0.00     0.278 C 
ENDBRANCH  18  23
ENDBRANCH  13  17
BRANCH  16  25
ATOM     25  C   UNL     1       2.402   7.474   7.630  1.00  0.00    -0.004 A 
ATOM     26  C   UNL     1       3.184   8.562   7.599  1.00  0.00     0.009 A 
ATOM     27  C   UNL     1       1.114   7.859   8.594  1.00  0.00     0.047 A 
ATOM     28  C   UNL     1       2.652   9.853   8.041  1.00  0.00     0.021 A 
ATOM     29  C   UNL     1       0.834   9.092   9.217  1.00  0.00     0.041 A 
ATOM     30  Cl  UNL     1      -0.453   6.928   8.994  1.00  0.00    -0.084 Cl
ATOM     31  C   UNL     1       1.536  10.141   8.788  1.00  0.00     0.042 A 
ATOM     32  Cl  UNL     1       0.949  11.743   8.964  1.00  0.00    -0.084 Cl
ENDBRANCH  16  25
ENDBRANCH  10  12
ENDBRANCH   9  10
ENDBRANCH   8   9
ENDBRANCH   6   8
ENDBRANCH   5   6
ENDBRANCH   4   5
ENDBRANCH   3   4
ENDBRANCH   2   3
ENDBRANCH   1   2
BRANCH   1  33
ATOM     33  C   UNL     1       1.982   5.552   8.553  1.00  0.00     0.188 C 
BRANCH  33  34
ATOM     34  O   UNL     1       0.953   5.968   7.090  1.00  0.00    -0.376 OA
BRANCH  34  35
ATOM     35  C   UNL     1       0.807   7.424   6.038  1.00  0.00     0.202 C 
BRANCH  35  36
ATOM     36  C   UNL     1       2.049   8.493   5.090  1.00  0.00     0.261 C 
BRANCH  36  37
ATOM     37  O   UNL     1       2.820   9.839   5.532  1.00  0.00    -0.460 OA
BRANCH  37  38
ATOM     38  C   UNL     1       4.256  10.067   5.441  1.00  0.00     0.338 C 
ATOM     39  O   UNL     1       4.953   9.394   4.688  1.00  0.00    -0.246 OA
BRANCH  38  40
ATOM     40  C   UNL     1       4.984  10.882   6.686  1.00  0.00     0.060 A 
ATOM     41  C   UNL     1       5.583  10.122   7.725  1.00  0.00     0.016 A 
ATOM     42  C   UNL     1       4.772  12.226   7.047  1.00  0.00     0.016 A 
ATOM     43  C   UNL     1       5.633  10.571   9.093  1.00  0.00     0.010 A 
ATOM     44  C   UNL     1       5.022  12.722   8.406  1.00  0.00     0.010 A 
ATOM     45  C   UNL     1       5.412  11.899   9.492  1.00  0.00    -0.014 A 
BRANCH  45  46
ATOM     46  C   UNL     1       5.656  12.392  10.956  1.00  0.00     0.031 A 
ATOM     47  C   UNL     1       4.764  13.428  11.677  1.00  0.00     0.074 A 
ATOM     48  C   UNL     1       6.702  11.958  11.717  1.00  0.00     0.049 A 
ATOM     49  N   UNL     1       5.015  14.175  12.738  1.00  0.00    -0.248 NA
ATOM     50  C   UNL     1       3.404  13.614  11.162  1.00  0.00     0.031 C 
ATOM     51  C   UNL     1       7.645  10.896  11.368  1.00  0.00     0.029 A 
ATOM     52  N   UNL     1       7.177  12.389  12.955  1.00  0.00    -0.354 N 
ATOM     53  C   UNL     1       3.881  14.964  12.967  1.00  0.00     0.074 A 
ATOM     54  C   UNL     1       2.922  14.570  11.951  1.00  0.00     0.031 C 
ATOM     55  C   UNL     1       8.565  10.762  12.333  1.00  0.00     0.029 A 
ATOM     56  C   UNL     1       8.374  11.804  13.331  1.00  0.00     0.049 A 
ATOM     57  H   UNL     1       6.704  13.049  13.511  1.00  0.00     0.167 HD
ATOM     58  C   UNL     1       3.651  15.931  13.905  1.00  0.00     0.037 A 
ATOM     59  C   UNL     1       9.284  12.083  14.294  1.00  0.00     0.037 A 
ATOM     60  C   UNL     1       4.558  16.314  14.971  1.00  0.00     0.049 A 
ATOM     61  C   UNL     1       9.086  13.232  15.247  1.00  0.00     0.074 A 
ATOM     62  C   UNL     1       4.397  17.313  15.926  1.00  0.00     0.029 A 
ATOM     63  N   UNL     1       5.776  15.716  15.247  1.00  0.00    -0.354 N 
ATOM     64  N   UNL     1       8.076  14.058  15.345  1.00  0.00    -0.248 NA
ATOM     65  C   UNL     1      10.166  13.493  16.215  1.00  0.00     0.031 C 
ATOM     66  C   UNL     1       5.537  17.351  16.741  1.00  0.00     0.029 A 
ATOM     67  C   UNL     1       6.381  16.334  16.337  1.00  0.00     0.049 A 
ATOM     68  H   UNL     1       6.159  14.962  14.744  1.00  0.00     0.167 HD
ATOM     69  C   UNL     1       8.383  14.910  16.404  1.00  0.00     0.074 A 
ATOM     70  C   UNL     1       9.667  14.497  16.923  1.00  0.00     0.031 C 
ATOM     71  C   UNL     1       7.652  15.941  16.895  1.00  0.00     0.037 A 
BRANCH  58  72
ATOM     72  C   UNL     1       2.370  16.739  13.799  1.00  0.00     0.058 A 
ATOM     73  C   UNL     1       1.113  16.228  14.157  1.00  0.00     0.135 A 
ATOM     74  C   UNL     1       2.425  18.090  13.402  1.00  0.00     0.135 A 
ATOM     75  F   UNL     1       0.993  14.953  14.558  1.00  0.00    -0.206 F 
ATOM     76  C   UNL     1      -0.043  17.007  14.079  1.00  0.00     0.059 A 
ATOM     77  C   UNL     1       1.289  18.895  13.345  1.00  0.00     0.059 A 
ATOM     78  F   UNL     1       3.602  18.650  13.079  1.00  0.00    -0.206 F 
ATOM     79  C   UNL     1       0.053  18.337  13.662  1.00  0.00     0.060 A 
BRANCH  79  80
ATOM     80  S   UNL     1      -1.456  19.322  13.525  1.00  0.00     0.124 S 
ATOM     81  O   UNL     1      -2.075  18.739  12.337  1.00  0.00    -0.237 OA
ATOM     82  O   UNL     1      -2.130  19.046  14.789  1.00  0.00    -0.237 OA
ATOM     83  O   UNL     1      -0.962  20.686  13.366  1.00  0.00    -0.744 OA
ENDBRANCH  79  80
ENDBRANCH  58  72
BRANCH  59  84
ATOM     84  C   UNL     1      10.557  11.296  14.366  1.00  0.00     0.058 A 
ATOM     85  C   UNL     1      10.844  10.466  15.461  1.00  0.00     0.135 A 
ATOM     86  C   UNL     1      11.527  11.389  13.352  1.00  0.00     0.135 A 
ATOM     87  F   UNL     1       9.969  10.367  16.473  1.00  0.00    -0.206 F 
ATOM     88  C   UNL     1      12.043   9.764  15.552  1.00  0.00     0.059 A 
ATOM     89  C   UNL     1      12.716  10.668  13.403  1.00  0.00     0.059 A 
ATOM     90  F   UNL     1      11.309  12.171  12.283  1.00  0.00    -0.206 F 
ATOM     91  C   UNL     1      12.970   9.864  14.513  1.00  0.00     0.060 A 
BRANCH  91  92
ATOM     92  S   UNL     1      14.493   8.897  14.607  1.00  0.00     0.124 S 
ATOM     93  O   UNL     1      15.244   9.629  15.620  1.00  0.00    -0.237 OA
ATOM     94  O   UNL     1      13.996   7.583  15.003  1.00  0.00    -0.237 OA
ATOM     95  O   UNL     1      15.023   8.974  13.249  1.00  0.00    -0.744 OA
ENDBRANCH  91  92
ENDBRANCH  59  84
BRANCH  71  96
ATOM     96  C   UNL     1       8.181  16.664  18.111  1.00  0.00     0.058 A 
ATOM     97  C   UNL     1       9.319  17.488  18.062  1.00  0.00     0.135 A 
ATOM     98  C   UNL     1       7.541  16.524  19.355  1.00  0.00     0.135 A 
ATOM     99  F   UNL     1       9.979  17.658  16.905  1.00  0.00    -0.206 F 
ATOM    100  C   UNL     1       9.826  18.108  19.204  1.00  0.00     0.059 A 
ATOM    101  C   UNL     1       8.014  17.157  20.504  1.00  0.00     0.059 A 
ATOM    102  F   UNL     1       6.444  15.759  19.468  1.00  0.00    -0.206 F 
ATOM    103  C   UNL     1       9.170  17.931  20.423  1.00  0.00     0.060 A 
BRANCH 103 104
ATOM    104  S   UNL     1       9.840  18.730  21.899  1.00  0.00     0.124 S 
ATOM    105  O   UNL     1      11.003  17.896  22.184  1.00  0.00    -0.237 OA
ATOM    106  O   UNL     1      10.129  20.079  21.424  1.00  0.00    -0.237 OA
ATOM    107  O   UNL     1       8.748  18.633  22.864  1.00  0.00    -0.744 OA
ENDBRANCH 103 104
ENDBRANCH  71  96
ENDBRANCH  45  46
ENDBRANCH  38  40
ENDBRANCH  37  38
ENDBRANCH  36  37
ENDBRANCH  35  36
ENDBRANCH  34  35
ENDBRANCH  33  34
ENDBRANCH   1  33
TORSDOF 26
