REMARK SMILES C[C@H]1Oc2ccccc2C=C1/C=C/C(=O)N[C@H](C(=O)OCCOCCOCCOC(=O)c1ccc(-c2c3nc(c(-c4c(F)cc(S(=O)(=O)[O-])cc4F)c4ccc([nH]4)c(-c4c(F)cc(S(=O)(=O)[O-])cc4F)c4nc(c(-c5c(F)cc(S(=O)(=O)[O-])cc5F)c5ccc2[nH]5)C=C4)C=C3)cc1)c1ccccc1
REMARK SMILES IDX 24 1 23 2 22 3 21 4 20 5 18 6 19 7 17 8 16 9 14 10 15 11
REMARK SMILES IDX 13 13 12 14 11 15 1 16 2 17 3 18 4 19 10 20 5 21 9 22 6 23
REMARK SMILES IDX 8 24 7 25 98 26 99 27 103 28 100 29 102 30 101 31 25 32
REMARK SMILES IDX 26 33 27 34 28 35 29 36 30 37 31 38 32 39 33 40 97 41 34 42
REMARK SMILES IDX 96 43 35 44 36 45 37 46 90 47 38 48 95 49 89 50 91 51 39 52
REMARK SMILES IDX 94 53 88 54 87 55 40 57 74 58 53 59 73 60 54 61 57 62 72 63
REMARK SMILES IDX 92 64 55 65 56 66 71 68 93 69 58 70 41 71 42 72 51 73 43 74
REMARK SMILES IDX 44 75 50 76 52 77 45 78 46 79 47 80 48 81 49 82 75 83 76 84
REMARK SMILES IDX 85 85 77 86 78 87 84 88 86 89 79 90 80 91 81 92 82 93 83 94
REMARK SMILES IDX 59 95 60 96 69 97 61 98 62 99 68 100 70 101 63 102 64 103
REMARK SMILES IDX 65 104 66 105 67 106
REMARK H PARENT 16 12 91 56 57 67
REMARK Flexibility Score: inf
ROOT
ATOM      1  C   UNL     1      -4.170  -1.423  -1.855  1.00  0.00     0.188 C 
ENDROOT
BRANCH   1   2
ATOM      2  O   UNL     1      -5.242  -1.935  -1.088  1.00  0.00    -0.376 OA
BRANCH   2   3
ATOM      3  C   UNL     1      -5.386  -3.335  -1.075  1.00  0.00     0.202 C 
BRANCH   3   4
ATOM      4  C   UNL     1      -4.424  -4.071  -0.137  1.00  0.00     0.261 C 
BRANCH   4   5
ATOM      5  O   UNL     1      -3.034  -3.693  -0.105  1.00  0.00    -0.461 OA
BRANCH   5   6
ATOM      6  C   UNL     1      -2.300  -3.886  -1.235  1.00  0.00     0.333 C 
ATOM      7  O   UNL     1      -2.799  -4.039  -2.340  1.00  0.00    -0.249 OA
BRANCH   6   8
ATOM      8  C   UNL     1      -0.780  -3.883  -0.949  1.00  0.00     0.223 C 
BRANCH   8   9
ATOM      9  N   UNL     1      -0.499  -4.856   0.112  1.00  0.00    -0.335 N 
ATOM     10  C   UNL     1      -0.885  -6.153   0.272  1.00  0.00     0.244 C 
ATOM     11  O   UNL     1      -0.496  -6.758   1.270  1.00  0.00    -0.270 OA
ATOM     12  H   UNL     1       0.070  -4.510   0.838  1.00  0.00     0.165 HD
BRANCH  10  13
ATOM     13  C   UNL     1      -1.865  -6.827  -0.631  1.00  0.00     0.071 C 
ATOM     14  C   UNL     1      -1.907  -6.731  -1.968  1.00  0.00     0.013 C 
BRANCH  14  15
ATOM     15  C   UNL     1      -2.846  -7.326  -2.898  1.00  0.00    -0.007 C 
ATOM     16  C   UNL     1      -2.304  -5.836  -4.926  1.00  0.00     0.058 C 
ATOM     17  C   UNL     1      -3.389  -6.439  -4.028  1.00  0.00     0.200 C 
ATOM     18  O   UNL     1      -4.353  -7.040  -4.911  1.00  0.00    -0.485 OA
ATOM     19  C   UNL     1      -4.470  -8.394  -4.894  1.00  0.00     0.127 A 
ATOM     20  C   UNL     1      -3.117  -8.633  -2.840  1.00  0.00     0.019 C 
ATOM     21  C   UNL     1      -5.208  -8.951  -5.931  1.00  0.00     0.047 A 
ATOM     22  C   UNL     1      -3.914  -9.209  -3.906  1.00  0.00     0.017 A 
ATOM     23  C   UNL     1      -5.392 -10.329  -5.983  1.00  0.00     0.004 A 
ATOM     24  C   UNL     1      -4.095 -10.593  -3.968  1.00  0.00     0.012 A 
ATOM     25  C   UNL     1      -4.831 -11.151  -5.009  1.00  0.00     0.001 A 
ENDBRANCH  14  15
ENDBRANCH  10  13
ENDBRANCH   8   9
BRANCH   8  26
ATOM     26  C   UNL     1       0.105  -4.001  -2.193  1.00  0.00    -0.014 A 
ATOM     27  C   UNL     1      -0.005  -3.042  -3.219  1.00  0.00     0.006 A 
ATOM     28  C   UNL     1       0.941  -5.109  -2.424  1.00  0.00     0.006 A 
ATOM     29  C   UNL     1       0.565  -3.270  -4.477  1.00  0.00     0.000 A 
ATOM     30  C   UNL     1       1.463  -5.360  -3.695  1.00  0.00     0.000 A 
ATOM     31  C   UNL     1       1.255  -4.452  -4.727  1.00  0.00     0.000 A 
ENDBRANCH   8  26
ENDBRANCH   6   8
ENDBRANCH   5   6
ENDBRANCH   4   5
ENDBRANCH   3   4
ENDBRANCH   2   3
ENDBRANCH   1   2
BRANCH   1  32
ATOM     32  C   UNL     1      -3.149  -0.670  -0.982  1.00  0.00     0.188 C 
BRANCH  32  33
ATOM     33  O   UNL     1      -3.588  -0.067   0.228  1.00  0.00    -0.376 OA
BRANCH  33  34
ATOM     34  C   UNL     1      -4.897   0.484   0.266  1.00  0.00     0.202 C 
BRANCH  34  35
ATOM     35  C   UNL     1      -5.254   1.595  -0.741  1.00  0.00     0.261 C 
BRANCH  35  36
ATOM     36  O   UNL     1      -5.020   1.308  -2.138  1.00  0.00    -0.460 OA
BRANCH  36  37
ATOM     37  C   UNL     1      -3.930   1.885  -2.722  1.00  0.00     0.338 C 
ATOM     38  O   UNL     1      -3.167   2.670  -2.203  1.00  0.00    -0.246 OA
BRANCH  37  39
ATOM     39  C   UNL     1      -3.665   1.244  -4.048  1.00  0.00     0.060 A 
ATOM     40  C   UNL     1      -4.596   1.301  -5.085  1.00  0.00     0.016 A 
ATOM     41  C   UNL     1      -2.443   0.582  -4.257  1.00  0.00     0.016 A 
ATOM     42  C   UNL     1      -4.290   0.721  -6.329  1.00  0.00     0.010 A 
ATOM     43  C   UNL     1      -2.154  -0.026  -5.489  1.00  0.00     0.010 A 
ATOM     44  C   UNL     1      -3.065   0.060  -6.548  1.00  0.00    -0.014 A 
BRANCH  44  45
ATOM     45  C   UNL     1      -2.667  -0.344  -7.929  1.00  0.00     0.031 A 
ATOM     46  C   UNL     1      -2.782  -1.757  -8.431  1.00  0.00     0.074 A 
ATOM     47  C   UNL     1      -2.204   0.616  -8.755  1.00  0.00     0.049 A 
ATOM     48  N   UNL     1      -2.563  -2.220  -9.638  1.00  0.00    -0.248 NA
ATOM     49  C   UNL     1      -3.195  -2.782  -7.463  1.00  0.00     0.031 C 
ATOM     50  C   UNL     1      -2.025   2.021  -8.383  1.00  0.00     0.029 A 
ATOM     51  N   UNL     1      -1.827   0.571 -10.075  1.00  0.00    -0.354 N 
ATOM     52  C   UNL     1      -2.828  -3.584  -9.586  1.00  0.00     0.074 A 
ATOM     53  C   UNL     1      -3.203  -3.876  -8.220  1.00  0.00     0.031 C 
ATOM     54  C   UNL     1      -1.621   2.712  -9.459  1.00  0.00     0.029 A 
ATOM     55  C   UNL     1      -1.484   1.800 -10.591  1.00  0.00     0.049 A 
ATOM     56  H   UNL     1      -1.804  -0.260 -10.601  1.00  0.00     0.167 HD
ATOM     57  C   UNL     1      -2.774  -4.502 -10.585  1.00  0.00     0.037 A 
ATOM     58  C   UNL     1      -1.116   2.162 -11.836  1.00  0.00     0.037 A 
ATOM     59  C   UNL     1      -2.418  -4.199 -11.954  1.00  0.00     0.049 A 
ATOM     60  C   UNL     1      -1.063   1.125 -12.925  1.00  0.00     0.074 A 
ATOM     61  C   UNL     1      -2.388  -5.056 -13.044  1.00  0.00     0.029 A 
ATOM     62  N   UNL     1      -2.037  -2.952 -12.428  1.00  0.00    -0.354 N 
ATOM     63  N   UNL     1      -1.356  -0.151 -12.863  1.00  0.00    -0.248 NA
ATOM     64  C   UNL     1      -0.637   1.580 -14.256  1.00  0.00     0.031 C 
ATOM     65  C   UNL     1      -1.940  -4.343 -14.160  1.00  0.00     0.029 A 
ATOM     66  C   UNL     1      -1.750  -3.024 -13.785  1.00  0.00     0.049 A 
ATOM     67  H   UNL     1      -1.978  -2.135 -11.882  1.00  0.00     0.167 HD
ATOM     68  C   UNL     1      -1.178  -0.645 -14.152  1.00  0.00     0.074 A 
ATOM     69  C   UNL     1      -0.768   0.473 -14.975  1.00  0.00     0.031 C 
ATOM     70  C   UNL     1      -1.342  -1.911 -14.607  1.00  0.00     0.037 A 
BRANCH  57  71
ATOM     71  C   UNL     1      -3.122  -5.941 -10.276  1.00  0.00     0.058 A 
ATOM     72  C   UNL     1      -4.448  -6.345 -10.054  1.00  0.00     0.135 A 
ATOM     73  C   UNL     1      -2.147  -6.949 -10.383  1.00  0.00     0.135 A 
ATOM     74  F   UNL     1      -5.420  -5.428  -9.924  1.00  0.00    -0.206 F 
ATOM     75  C   UNL     1      -4.801  -7.692  -9.989  1.00  0.00     0.059 A 
ATOM     76  C   UNL     1      -2.481  -8.302 -10.346  1.00  0.00     0.059 A 
ATOM     77  F   UNL     1      -0.861  -6.624 -10.591  1.00  0.00    -0.206 F 
ATOM     78  C   UNL     1      -3.815  -8.664 -10.169  1.00  0.00     0.060 A 
BRANCH  78  79
ATOM     79  S   UNL     1      -4.314 -10.398 -10.302  1.00  0.00     0.124 S 
ATOM     80  O   UNL     1      -4.660 -10.723  -8.925  1.00  0.00    -0.237 OA
ATOM     81  O   UNL     1      -5.441 -10.328 -11.227  1.00  0.00    -0.237 OA
ATOM     82  O   UNL     1      -3.121 -11.061 -10.818  1.00  0.00    -0.744 OA
ENDBRANCH  78  79
ENDBRANCH  57  71
BRANCH  58  83
ATOM     83  C   UNL     1      -0.816   3.589 -12.131  1.00  0.00     0.058 A 
ATOM     84  C   UNL     1      -1.667   4.351 -12.944  1.00  0.00     0.135 A 
ATOM     85  C   UNL     1       0.313   4.223 -11.590  1.00  0.00     0.135 A 
ATOM     86  F   UNL     1      -2.756   3.788 -13.490  1.00  0.00    -0.206 F 
ATOM     87  C   UNL     1      -1.404   5.688 -13.223  1.00  0.00     0.059 A 
ATOM     88  C   UNL     1       0.582   5.567 -11.829  1.00  0.00     0.059 A 
ATOM     89  F   UNL     1       1.151   3.541 -10.792  1.00  0.00    -0.206 F 
ATOM     90  C   UNL     1      -0.279   6.288 -12.655  1.00  0.00     0.060 A 
BRANCH  90  91
ATOM     91  S   UNL     1       0.025   8.037 -12.987  1.00  0.00     0.124 S 
ATOM     92  O   UNL     1       0.372   8.012 -14.403  1.00  0.00    -0.237 OA
ATOM     93  O   UNL     1      -1.264   8.636 -12.655  1.00  0.00    -0.237 OA
ATOM     94  O   UNL     1       1.117   8.368 -12.075  1.00  0.00    -0.744 OA
ENDBRANCH  90  91
ENDBRANCH  58  83
BRANCH  70  95
ATOM     95  C   UNL     1      -1.103  -2.164 -16.074  1.00  0.00     0.058 A 
ATOM     96  C   UNL     1       0.185  -2.121 -16.632  1.00  0.00     0.135 A 
ATOM     97  C   UNL     1      -2.170  -2.498 -16.925  1.00  0.00     0.135 A 
ATOM     98  F   UNL     1       1.242  -1.802 -15.869  1.00  0.00    -0.206 F 
ATOM     99  C   UNL     1       0.403  -2.373 -17.984  1.00  0.00     0.059 A 
ATOM    100  C   UNL     1      -1.972  -2.785 -18.273  1.00  0.00     0.059 A 
ATOM    101  F   UNL     1      -3.422  -2.563 -16.445  1.00  0.00    -0.206 F 
ATOM    102  C   UNL     1      -0.682  -2.707 -18.797  1.00  0.00     0.060 A 
BRANCH 102 103
ATOM    103  S   UNL     1      -0.378  -3.050 -20.543  1.00  0.00     0.124 S 
ATOM    104  O   UNL     1      -0.024  -1.727 -21.047  1.00  0.00    -0.237 OA
ATOM    105  O   UNL     1       0.713  -4.018 -20.483  1.00  0.00    -0.237 OA
ATOM    106  O   UNL     1      -1.654  -3.579 -21.016  1.00  0.00    -0.744 OA
ENDBRANCH 102 103
ENDBRANCH  70  95
ENDBRANCH  44  45
ENDBRANCH  37  39
ENDBRANCH  36  37
ENDBRANCH  35  36
ENDBRANCH  34  35
ENDBRANCH  33  34
ENDBRANCH  32  33
ENDBRANCH   1  32
TORSDOF 24
