REMARK SMILES CC(C)CC1(CNc2ccnc(C(=O)OCCOCCOCCOC(=O)c3ccc(-c4c5nc(c(-c6c(F)cc(S(=O)(=O)[O-])cc6F)c6ccc([nH]6)c(-c6c(F)cc(S(=O)(=O)[O-])cc6F)c6nc(c(-c7c(F)cc(S(=O)(=O)[O-])cc7F)c7ccc4[nH]7)C=C6)C=C5)cc3)c2)CCCC1
REMARK SMILES IDX 19 1 18 2 17 3 16 4 15 5 13 6 14 7 12 8 8 9 9 10 93 11 10 12
REMARK SMILES IDX 11 13 7 14 6 16 5 17 94 18 97 19 95 20 96 21 4 22 2 23 1 24
REMARK SMILES IDX 3 25 20 26 21 27 22 28 23 29 24 30 25 31 26 32 27 33 28 34
REMARK SMILES IDX 92 35 29 36 91 37 30 38 31 39 32 40 85 41 33 42 90 43 84 44
REMARK SMILES IDX 86 45 34 46 89 47 83 48 82 49 35 51 69 52 48 53 68 54 49 55
REMARK SMILES IDX 52 56 67 57 87 58 50 59 51 60 66 62 88 63 53 64 36 65 37 66
REMARK SMILES IDX 46 67 38 68 39 69 45 70 47 71 40 72 41 73 42 74 43 75 44 76
REMARK SMILES IDX 70 77 71 78 80 79 72 80 73 81 79 82 81 83 74 84 75 85 76 86
REMARK SMILES IDX 77 87 78 88 54 89 55 90 64 91 56 92 57 93 63 94 65 95 58 96
REMARK SMILES IDX 59 97 60 98 61 99 62 100
REMARK H PARENT 7 15 86 50 52 61
REMARK Flexibility Score: inf
ROOT
ATOM      1  C   UNL     1       1.514   6.111   4.107  1.00  0.00     0.188 C 
ENDROOT
BRANCH   1   2
ATOM      2  O   UNL     1       2.811   6.689   4.215  1.00  0.00    -0.376 OA
BRANCH   2   3
ATOM      3  C   UNL     1       3.949   5.944   3.810  1.00  0.00     0.202 C 
BRANCH   3   4
ATOM      4  C   UNL     1       4.177   4.533   4.380  1.00  0.00     0.261 C 
BRANCH   4   5
ATOM      5  O   UNL     1       3.031   3.665   4.349  1.00  0.00    -0.459 OA
BRANCH   5   6
ATOM      6  C   UNL     1       2.558   3.262   5.564  1.00  0.00     0.357 C 
ATOM      7  O   UNL     1       3.094   3.449   6.643  1.00  0.00    -0.244 OA
BRANCH   6   8
ATOM      8  C   UNL     1       1.211   2.644   5.394  1.00  0.00     0.150 A 
ATOM      9  C   UNL     1      -0.266   1.024   4.395  1.00  0.00     0.038 A 
ATOM     10  C   UNL     1      -1.304   1.637   5.096  1.00  0.00     0.046 A 
ATOM     11  C   UNL     1       1.021   1.557   4.548  1.00  0.00     0.061 A 
ATOM     12  C   UNL     1      -1.025   2.716   5.924  1.00  0.00     0.114 A 
ATOM     13  N   UNL     1       0.206   3.236   6.086  1.00  0.00    -0.249 NA
BRANCH   9  14
ATOM     14  N   UNL     1      -0.457  -0.023   3.511  1.00  0.00    -0.384 N 
ATOM     15  H   UNL     1       0.316  -0.604   3.324  1.00  0.00     0.160 HD
BRANCH  14  16
ATOM     16  C   UNL     1      -1.707  -0.335   2.835  1.00  0.00     0.119 C 
BRANCH  16  17
ATOM     17  C   UNL     1      -1.500  -0.543   1.299  1.00  0.00    -0.012 C 
ATOM     18  C   UNL     1      -2.882  -0.823   0.648  1.00  0.00     0.009 C 
ATOM     19  C   UNL     1      -0.776  -1.855   0.966  1.00  0.00     0.009 C 
ATOM     20  C   UNL     1      -3.163  -2.308   0.861  1.00  0.00     0.001 C 
ATOM     21  C   UNL     1      -1.813  -2.960   1.136  1.00  0.00     0.001 C 
BRANCH  17  22
ATOM     22  C   UNL     1      -0.883   0.726   0.638  1.00  0.00     0.012 C 
BRANCH  22  23
ATOM     23  C   UNL     1       0.651   0.934   0.685  1.00  0.00    -0.017 C 
ATOM     24  C   UNL     1       1.418   0.094  -0.338  1.00  0.00     0.007 C 
ATOM     25  C   UNL     1       0.956   2.413   0.427  1.00  0.00     0.007 C 
ENDBRANCH  22  23
ENDBRANCH  17  22
ENDBRANCH  16  17
ENDBRANCH  14  16
ENDBRANCH   9  14
ENDBRANCH   6   8
ENDBRANCH   5   6
ENDBRANCH   4   5
ENDBRANCH   3   4
ENDBRANCH   2   3
ENDBRANCH   1   2
BRANCH   1  26
ATOM     26  C   UNL     1       1.143   5.291   2.853  1.00  0.00     0.188 C 
BRANCH  26  27
ATOM     27  O   UNL     1       2.151   5.273   1.856  1.00  0.00    -0.376 OA
BRANCH  27  28
ATOM     28  C   UNL     1       1.864   5.960   0.648  1.00  0.00     0.202 C 
BRANCH  28  29
ATOM     29  C   UNL     1       1.640   7.478   0.728  1.00  0.00     0.261 C 
BRANCH  29  30
ATOM     30  O   UNL     1       0.709   7.936   1.722  1.00  0.00    -0.460 OA
BRANCH  30  31
ATOM     31  C   UNL     1      -0.604   7.726   1.488  1.00  0.00     0.338 C 
ATOM     32  O   UNL     1      -1.092   7.160   0.518  1.00  0.00    -0.246 OA
BRANCH  31  33
ATOM     33  C   UNL     1      -1.356   8.136   2.692  1.00  0.00     0.060 A 
ATOM     34  C   UNL     1      -2.061   7.169   3.419  1.00  0.00     0.016 A 
ATOM     35  C   UNL     1      -1.364   9.471   3.104  1.00  0.00     0.016 A 
ATOM     36  C   UNL     1      -2.799   7.541   4.546  1.00  0.00     0.010 A 
ATOM     37  C   UNL     1      -2.116   9.844   4.225  1.00  0.00     0.010 A 
ATOM     38  C   UNL     1      -2.862   8.886   4.936  1.00  0.00    -0.014 A 
BRANCH  38  39
ATOM     39  C   UNL     1      -3.821   9.309   5.991  1.00  0.00     0.031 A 
ATOM     40  C   UNL     1      -5.123   9.944   5.576  1.00  0.00     0.074 A 
ATOM     41  C   UNL     1      -3.556   9.108   7.296  1.00  0.00     0.049 A 
ATOM     42  N   UNL     1      -6.096  10.407   6.317  1.00  0.00    -0.248 NA
ATOM     43  C   UNL     1      -5.358  10.072   4.128  1.00  0.00     0.031 C 
ATOM     44  C   UNL     1      -2.349   8.477   7.827  1.00  0.00     0.029 A 
ATOM     45  N   UNL     1      -4.290   9.421   8.415  1.00  0.00    -0.354 N 
ATOM     46  C   UNL     1      -7.056  10.882   5.430  1.00  0.00     0.074 A 
ATOM     47  C   UNL     1      -6.533  10.684   4.096  1.00  0.00     0.031 C 
ATOM     48  C   UNL     1      -2.421   8.457   9.170  1.00  0.00     0.029 A 
ATOM     49  C   UNL     1      -3.663   9.100   9.596  1.00  0.00     0.049 A 
ATOM     50  H   UNL     1      -5.182   9.837   8.375  1.00  0.00     0.167 HD
ATOM     51  C   UNL     1      -8.269  11.421   5.702  1.00  0.00     0.037 A 
ATOM     52  C   UNL     1      -4.039   9.318  10.873  1.00  0.00     0.037 A 
ATOM     53  C   UNL     1      -8.785  11.621   7.031  1.00  0.00     0.049 A 
ATOM     54  C   UNL     1      -5.364   9.988  11.149  1.00  0.00     0.074 A 
ATOM     55  C   UNL     1     -10.008  12.148   7.409  1.00  0.00     0.029 A 
ATOM     56  N   UNL     1      -8.108  11.310   8.202  1.00  0.00    -0.354 N 
ATOM     57  N   UNL     1      -6.274  10.405  10.300  1.00  0.00    -0.248 NA
ATOM     58  C   UNL     1      -5.715  10.212  12.559  1.00  0.00     0.031 C 
ATOM     59  C   UNL     1     -10.049  12.207   8.805  1.00  0.00     0.029 A 
ATOM     60  C   UNL     1      -8.877  11.658   9.301  1.00  0.00     0.049 A 
ATOM     61  H   UNL     1      -7.213  10.903   8.245  1.00  0.00     0.167 HD
ATOM     62  C   UNL     1      -7.317  10.908  11.075  1.00  0.00     0.074 A 
ATOM     63  C   UNL     1      -6.932  10.729  12.458  1.00  0.00     0.031 C 
ATOM     64  C   UNL     1      -8.488  11.465  10.676  1.00  0.00     0.037 A 
BRANCH  51  65
ATOM     65  C   UNL     1      -9.120  11.852   4.537  1.00  0.00     0.058 A 
ATOM     66  C   UNL     1      -9.727  10.919   3.681  1.00  0.00     0.135 A 
ATOM     67  C   UNL     1      -9.376  13.213   4.306  1.00  0.00     0.135 A 
ATOM     68  F   UNL     1      -9.503   9.605   3.843  1.00  0.00    -0.206 F 
ATOM     69  C   UNL     1     -10.541  11.322   2.627  1.00  0.00     0.059 A 
ATOM     70  C   UNL     1     -10.210  13.637   3.276  1.00  0.00     0.059 A 
ATOM     71  F   UNL     1      -8.818  14.148   5.092  1.00  0.00    -0.206 F 
ATOM     72  C   UNL     1     -10.780  12.684   2.435  1.00  0.00     0.060 A 
BRANCH  72  73
ATOM     73  S   UNL     1     -11.858  13.185   1.076  1.00  0.00     0.124 S 
ATOM     74  O   UNL     1     -11.026  12.883  -0.084  1.00  0.00    -0.237 OA
ATOM     75  O   UNL     1     -13.019  12.321   1.266  1.00  0.00    -0.237 OA
ATOM     76  O   UNL     1     -12.088  14.604   1.329  1.00  0.00    -0.744 OA
ENDBRANCH  72  73
ENDBRANCH  51  65
BRANCH  52  77
ATOM     77  C   UNL     1      -3.152   8.913  11.999  1.00  0.00     0.058 A 
ATOM     78  C   UNL     1      -3.527   7.899  12.893  1.00  0.00     0.135 A 
ATOM     79  C   UNL     1      -1.924   9.556  12.225  1.00  0.00     0.135 A 
ATOM     80  F   UNL     1      -4.697   7.262  12.732  1.00  0.00    -0.206 F 
ATOM     81  C   UNL     1      -2.734   7.555  13.984  1.00  0.00     0.059 A 
ATOM     82  C   UNL     1      -1.098   9.209  13.290  1.00  0.00     0.059 A 
ATOM     83  F   UNL     1      -1.513  10.530  11.398  1.00  0.00    -0.206 F 
ATOM     84  C   UNL     1      -1.520   8.218  14.174  1.00  0.00     0.060 A 
BRANCH  84  85
ATOM     85  S   UNL     1      -0.490   7.752  15.584  1.00  0.00     0.124 S 
ATOM     86  O   UNL     1      -1.251   8.305  16.698  1.00  0.00    -0.237 OA
ATOM     87  O   UNL     1      -0.474   6.296  15.483  1.00  0.00    -0.237 OA
ATOM     88  O   UNL     1       0.783   8.408  15.302  1.00  0.00    -0.744 OA
ENDBRANCH  84  85
ENDBRANCH  52  77
BRANCH  64  89
ATOM     89  C   UNL     1      -9.463  11.882  11.748  1.00  0.00     0.058 A 
ATOM     90  C   UNL     1      -9.220  12.979  12.589  1.00  0.00     0.135 A 
ATOM     91  C   UNL     1     -10.677  11.193  11.909  1.00  0.00     0.135 A 
ATOM     92  F   UNL     1      -8.075  13.672  12.482  1.00  0.00    -0.206 F 
ATOM     93  C   UNL     1     -10.127  13.355  13.575  1.00  0.00     0.059 A 
ATOM     94  C   UNL     1     -11.614  11.573  12.865  1.00  0.00     0.059 A 
ATOM     95  F   UNL     1     -10.970  10.145  11.123  1.00  0.00    -0.206 F 
ATOM     96  C   UNL     1     -11.322  12.646  13.706  1.00  0.00     0.060 A 
BRANCH  96  97
ATOM     97  S   UNL     1     -12.498  13.155  14.978  1.00  0.00     0.124 S 
ATOM     98  O   UNL     1     -11.828  12.706  16.194  1.00  0.00    -0.237 OA
ATOM     99  O   UNL     1     -12.560  14.600  14.785  1.00  0.00    -0.237 OA
ATOM    100  O   UNL     1     -13.715  12.428  14.627  1.00  0.00    -0.744 OA
ENDBRANCH  96  97
ENDBRANCH  64  89
ENDBRANCH  38  39
ENDBRANCH  31  33
ENDBRANCH  30  31
ENDBRANCH  29  30
ENDBRANCH  28  29
ENDBRANCH  27  28
ENDBRANCH  26  27
ENDBRANCH   1  26
TORSDOF 25
