REMARK SMILES COc1cc(NC(=O)C2CCN(S(=O)(=O)c3cccs3)CC2)c(Cl)cc1C(=O)OCCOCCOCCOC(=O)c1ccc(-c2c3nc(c(-c4c(F)cc(S(=O)(=O)[O-])cc4F)c4ccc([nH]4)c(-c4c(F)cc(S(=O)(=O)[O-])cc4F)c4nc(c(-c5c(F)cc(S(=O)(=O)[O-])cc5F)c5ccc2[nH]5)C=C4)C=C3)cc1
REMARK SMILES IDX 33 1 32 2 31 3 30 4 29 5 27 6 28 7 26 8 3 9 4 10 5 11 25 12
REMARK SMILES IDX 23 13 24 14 2 15 1 16 6 17 7 18 8 20 9 21 10 22 22 23 11 24
REMARK SMILES IDX 21 25 12 26 13 27 14 28 15 29 16 30 17 31 20 32 18 33 19 34
REMARK SMILES IDX 34 35 35 36 36 37 37 38 38 39 39 40 40 41 41 42 42 43 106 44
REMARK SMILES IDX 43 45 105 46 44 47 45 48 46 49 99 50 47 51 104 52 98 53
REMARK SMILES IDX 100 54 48 55 103 56 97 57 96 58 49 60 83 61 62 62 82 63
REMARK SMILES IDX 63 64 66 65 81 66 101 67 64 68 65 69 80 71 102 72 67 73
REMARK SMILES IDX 50 74 51 75 60 76 52 77 53 78 59 79 61 80 54 81 55 82 56 83
REMARK SMILES IDX 57 84 58 85 84 86 85 87 94 88 86 89 87 90 93 91 95 92 88 93
REMARK SMILES IDX 89 94 90 95 91 96 92 97 68 98 69 99 78 100 70 101 71 102
REMARK SMILES IDX 77 103 79 104 72 105 73 106 74 107 75 108 76 109
REMARK H PARENT 6 19 100 59 66 70
REMARK Flexibility Score: inf
ROOT
ATOM      1  C   UNL     1      -3.306  -0.631   3.290  1.00  0.00     0.188 C 
ENDROOT
BRANCH   1   2
ATOM      2  O   UNL     1      -4.459   0.087   2.890  1.00  0.00    -0.376 OA
BRANCH   2   3
ATOM      3  C   UNL     1      -4.312   1.258   2.093  1.00  0.00     0.202 C 
BRANCH   3   4
ATOM      4  C   UNL     1      -3.216   2.271   2.426  1.00  0.00     0.261 C 
BRANCH   4   5
ATOM      5  O   UNL     1      -1.923   1.660   2.355  1.00  0.00    -0.460 OA
BRANCH   5   6
ATOM      6  C   UNL     1      -1.051   2.009   3.327  1.00  0.00     0.342 C 
ATOM      7  O   UNL     1      -1.202   2.889   4.158  1.00  0.00    -0.246 OA
BRANCH   6   8
ATOM      8  C   UNL     1       0.063   1.035   3.391  1.00  0.00     0.103 A 
ATOM      9  C   UNL     1       0.695   0.507   2.253  1.00  0.00     0.135 A 
ATOM     10  C   UNL     1       1.770  -0.371   2.426  1.00  0.00     0.075 A 
ATOM     11  C   UNL     1       2.319  -0.576   3.694  1.00  0.00     0.063 A 
ATOM     12  C   UNL     1       0.460   0.622   4.672  1.00  0.00     0.042 A 
ATOM     13  C   UNL     1       1.582  -0.188   4.822  1.00  0.00     0.065 A 
ATOM     14  Cl  UNL     1       2.112  -0.577   6.418  1.00  0.00    -0.082 Cl
BRANCH   9  15
ATOM     15  O   UNL     1       0.284   0.953   1.026  1.00  0.00    -0.496 OA
ATOM     16  C   UNL     1       0.685   0.204  -0.116  1.00  0.00     0.278 C 
ENDBRANCH   9  15
BRANCH  11  17
ATOM     17  N   UNL     1       3.653  -1.003   3.874  1.00  0.00    -0.324 N 
ATOM     18  C   UNL     1       4.791  -0.726   3.155  1.00  0.00     0.227 C 
ATOM     19  H   UNL     1       3.791  -1.600   4.644  1.00  0.00     0.169 HD
ATOM     20  O   UNL     1       5.859  -1.153   3.603  1.00  0.00    -0.274 OA
BRANCH  18  21
ATOM     21  C   UNL     1       4.773   0.106   1.860  1.00  0.00     0.081 C 
ATOM     22  C   UNL     1       6.179   0.276   1.241  1.00  0.00     0.030 C 
ATOM     23  C   UNL     1       4.143   1.495   2.002  1.00  0.00     0.030 C 
ATOM     24  C   UNL     1       7.029   1.364   1.912  1.00  0.00     0.103 C 
ATOM     25  C   UNL     1       5.028   2.455   2.761  1.00  0.00     0.103 C 
ATOM     26  N   UNL     1       6.265   2.649   1.987  1.00  0.00    -0.197 NA
BRANCH  26  27
ATOM     27  S   UNL     1       7.218   3.972   2.530  1.00  0.00     0.252 S 
ATOM     28  O   UNL     1       7.572   3.708   3.908  1.00  0.00    -0.206 OA
ATOM     29  O   UNL     1       8.230   4.231   1.527  1.00  0.00    -0.206 OA
BRANCH  27  30
ATOM     30  C   UNL     1       6.162   5.420   2.624  1.00  0.00     0.135 A 
ATOM     31  C   UNL     1       5.192   5.779   3.548  1.00  0.00     0.033 A 
ATOM     32  S   UNL     1       6.313   6.604   1.400  1.00  0.00    -0.131 S 
ATOM     33  C   UNL     1       4.551   7.008   3.226  1.00  0.00     0.013 A 
ATOM     34  C   UNL     1       5.087   7.579   2.095  1.00  0.00     0.066 A 
ENDBRANCH  27  30
ENDBRANCH  26  27
ENDBRANCH  18  21
ENDBRANCH  11  17
ENDBRANCH   6   8
ENDBRANCH   5   6
ENDBRANCH   4   5
ENDBRANCH   3   4
ENDBRANCH   2   3
ENDBRANCH   1   2
BRANCH   1  35
ATOM     35  C   UNL     1      -2.402  -1.289   2.228  1.00  0.00     0.188 C 
BRANCH  35  36
ATOM     36  O   UNL     1      -2.628  -1.112   0.848  1.00  0.00    -0.376 OA
BRANCH  36  37
ATOM     37  C   UNL     1      -3.813  -1.607   0.251  1.00  0.00     0.202 C 
BRANCH  37  38
ATOM     38  C   UNL     1      -4.528  -2.893   0.697  1.00  0.00     0.261 C 
BRANCH  38  39
ATOM     39  O   UNL     1      -4.479  -3.215   2.089  1.00  0.00    -0.460 OA
BRANCH  39  40
ATOM     40  C   UNL     1      -3.671  -4.262   2.399  1.00  0.00     0.338 C 
ATOM     41  O   UNL     1      -2.991  -4.919   1.630  1.00  0.00    -0.246 OA
BRANCH  40  42
ATOM     42  C   UNL     1      -3.562  -4.373   3.866  1.00  0.00     0.060 A 
ATOM     43  C   UNL     1      -2.293  -4.250   4.449  1.00  0.00     0.016 A 
ATOM     44  C   UNL     1      -4.684  -4.642   4.650  1.00  0.00     0.016 A 
ATOM     45  C   UNL     1      -2.137  -4.431   5.822  1.00  0.00     0.010 A 
ATOM     46  C   UNL     1      -4.522  -4.846   6.022  1.00  0.00     0.010 A 
ATOM     47  C   UNL     1      -3.244  -4.775   6.608  1.00  0.00    -0.014 A 
BRANCH  47  48
ATOM     48  C   UNL     1      -3.037  -5.245   7.998  1.00  0.00     0.031 A 
ATOM     49  C   UNL     1      -2.966  -6.727   8.250  1.00  0.00     0.074 A 
ATOM     50  C   UNL     1      -2.897  -4.375   9.014  1.00  0.00     0.049 A 
ATOM     51  N   UNL     1      -2.836  -7.372   9.379  1.00  0.00    -0.248 NA
ATOM     52  C   UNL     1      -3.058  -7.597   7.066  1.00  0.00     0.031 C 
ATOM     53  C   UNL     1      -2.909  -2.919   8.890  1.00  0.00     0.029 A 
ATOM     54  N   UNL     1      -2.727  -4.599  10.357  1.00  0.00    -0.354 N 
ATOM     55  C   UNL     1      -2.836  -8.721   9.045  1.00  0.00     0.074 A 
ATOM     56  C   UNL     1      -3.007  -8.803   7.611  1.00  0.00     0.031 C 
ATOM     57  C   UNL     1      -2.767  -2.377  10.113  1.00  0.00     0.029 A 
ATOM     58  C   UNL     1      -2.682  -3.447  11.107  1.00  0.00     0.049 A 
ATOM     59  H   UNL     1      -2.644  -5.499  10.748  1.00  0.00     0.167 HD
ATOM     60  C   UNL     1      -2.699  -9.794   9.859  1.00  0.00     0.037 A 
ATOM     61  C   UNL     1      -2.602  -3.281  12.442  1.00  0.00     0.037 A 
ATOM     62  C   UNL     1      -2.535  -9.709  11.286  1.00  0.00     0.049 A 
ATOM     63  C   UNL     1      -2.511  -4.493  13.335  1.00  0.00     0.074 A 
ATOM     64  C   UNL     1      -2.380 -10.738  12.198  1.00  0.00     0.029 A 
ATOM     65  N   UNL     1      -2.511  -8.526  12.011  1.00  0.00    -0.354 N 
ATOM     66  N   UNL     1      -2.495  -5.763  13.005  1.00  0.00    -0.248 NA
ATOM     67  C   UNL     1      -2.421  -4.248  14.781  1.00  0.00     0.031 C 
ATOM     68  C   UNL     1      -2.308 -10.180  13.479  1.00  0.00     0.029 A 
ATOM     69  C   UNL     1      -2.363  -8.800  13.360  1.00  0.00     0.049 A 
ATOM     70  H   UNL     1      -2.589  -7.624  11.623  1.00  0.00     0.167 HD
ATOM     71  C   UNL     1      -2.355  -6.466  14.199  1.00  0.00     0.074 A 
ATOM     72  C   UNL     1      -2.287  -5.479  15.257  1.00  0.00     0.031 C 
ATOM     73  C   UNL     1      -2.284  -7.806  14.402  1.00  0.00     0.037 A 
BRANCH  60  74
ATOM     74  C   UNL     1      -2.750 -11.156   9.224  1.00  0.00     0.058 A 
ATOM     75  C   UNL     1      -1.702 -11.639   8.425  1.00  0.00     0.135 A 
ATOM     76  C   UNL     1      -3.853 -11.998   9.437  1.00  0.00     0.135 A 
ATOM     77  F   UNL     1      -0.634 -10.867   8.171  1.00  0.00    -0.206 F 
ATOM     78  C   UNL     1      -1.757 -12.900   7.839  1.00  0.00     0.059 A 
ATOM     79  C   UNL     1      -3.917 -13.273   8.883  1.00  0.00     0.059 A 
ATOM     80  F   UNL     1      -4.886 -11.584  10.189  1.00  0.00    -0.206 F 
ATOM     81  C   UNL     1      -2.870 -13.709   8.073  1.00  0.00     0.060 A 
BRANCH  81  82
ATOM     82  S   UNL     1      -2.926 -15.343   7.307  1.00  0.00     0.124 S 
ATOM     83  O   UNL     1      -3.182 -15.000   5.911  1.00  0.00    -0.237 OA
ATOM     84  O   UNL     1      -1.596 -15.869   7.596  1.00  0.00    -0.237 OA
ATOM     85  O   UNL     1      -4.025 -16.007   8.001  1.00  0.00    -0.744 OA
ENDBRANCH  81  82
ENDBRANCH  60  74
BRANCH  61  86
ATOM     86  C   UNL     1      -2.607  -1.912  13.024  1.00  0.00     0.058 A 
ATOM     87  C   UNL     1      -1.462  -1.379  13.632  1.00  0.00     0.135 A 
ATOM     88  C   UNL     1      -3.762  -1.114  12.993  1.00  0.00     0.135 A 
ATOM     89  F   UNL     1      -0.337  -2.108  13.698  1.00  0.00    -0.206 F 
ATOM     90  C   UNL     1      -1.463  -0.111  14.205  1.00  0.00     0.059 A 
ATOM     91  C   UNL     1      -3.781   0.167  13.535  1.00  0.00     0.059 A 
ATOM     92  F   UNL     1      -4.882  -1.574  12.415  1.00  0.00    -0.206 F 
ATOM     93  C   UNL     1      -2.628   0.656  14.149  1.00  0.00     0.060 A 
BRANCH  93  94
ATOM     94  S   UNL     1      -2.607   2.319  14.855  1.00  0.00     0.124 S 
ATOM     95  O   UNL     1      -2.611   2.031  16.284  1.00  0.00    -0.237 OA
ATOM     96  O   UNL     1      -1.365   2.864  14.316  1.00  0.00    -0.237 OA
ATOM     97  O   UNL     1      -3.827   2.922  14.328  1.00  0.00    -0.744 OA
ENDBRANCH  93  94
ENDBRANCH  61  86
BRANCH  73  98
ATOM     98  C   UNL     1      -2.068  -8.285  15.812  1.00  0.00     0.058 A 
ATOM     99  C   UNL     1      -3.079  -8.218  16.784  1.00  0.00     0.135 A 
ATOM    100  C   UNL     1      -0.840  -8.858  16.184  1.00  0.00     0.135 A 
ATOM    101  F   UNL     1      -4.270  -7.678  16.483  1.00  0.00    -0.206 F 
ATOM    102  C   UNL     1      -2.869  -8.671  18.083  1.00  0.00     0.059 A 
ATOM    103  C   UNL     1      -0.618  -9.344  17.468  1.00  0.00     0.059 A 
ATOM    104  F   UNL     1       0.156  -8.961  15.290  1.00  0.00    -0.206 F 
ATOM    105  C   UNL     1      -1.634  -9.231  18.416  1.00  0.00     0.060 A 
BRANCH 105 106
ATOM    106  S   UNL     1      -1.378  -9.829  20.100  1.00  0.00     0.124 S 
ATOM    107  O   UNL     1      -1.214  -8.579  20.834  1.00  0.00    -0.237 OA
ATOM    108  O   UNL     1      -2.612 -10.563  20.364  1.00  0.00    -0.237 OA
ATOM    109  O   UNL     1      -0.178 -10.654  19.989  1.00  0.00    -0.744 OA
ENDBRANCH 105 106
ENDBRANCH  73  98
ENDBRANCH  47  48
ENDBRANCH  40  42
ENDBRANCH  39  40
ENDBRANCH  38  39
ENDBRANCH  37  38
ENDBRANCH  36  37
ENDBRANCH  35  36
ENDBRANCH   1  35
TORSDOF 25
