REMARK SMILES C[C@]1(O)CC[C@H]2[C@H]3CCC4=C/C(=N\OCC(=O)N[C@@H](CO)C(=O)OCCOCCOCCOC(=O)c5ccc(-c6c7nc(c(-c8c(F)cc(S(=O)(=O)[O-])cc8F)c8ccc([nH]8)c(-c8c(F)cc(S(=O)(=O)[O-])cc8F)c8nc(c(-c9c(F)cc(S(=O)(=O)[O-])cc9F)c9ccc6[nH]9)C=C8)C=C7)cc5)CC[C@@]4(C)[C@@H]3CC[C@]21C
REMARK SMILES IDX 28 1 27 2 26 3 25 4 24 5 22 6 23 7 19 8 18 9 16 10 17 11
REMARK SMILES IDX 15 13 14 14 13 15 105 16 104 17 103 18 10 19 106 20 102 21
REMARK SMILES IDX 11 22 9 23 7 24 107 25 12 26 8 27 6 28 108 29 109 30 5 31
REMARK SMILES IDX 2 32 110 33 4 34 1 35 3 36 20 38 21 39 29 41 30 42 31 43
REMARK SMILES IDX 32 44 33 45 34 46 35 47 36 48 37 49 101 50 38 51 100 52
REMARK SMILES IDX 39 53 40 54 41 55 94 56 42 57 99 58 93 59 95 60 43 61 98 62
REMARK SMILES IDX 92 63 91 64 44 66 78 67 57 68 77 69 58 70 61 71 76 72 96 73
REMARK SMILES IDX 59 74 60 75 75 77 97 78 62 79 45 80 46 81 55 82 47 83 48 84
REMARK SMILES IDX 54 85 56 86 49 87 50 88 51 89 52 90 53 91 79 92 80 93 89 94
REMARK SMILES IDX 81 95 82 96 88 97 90 98 83 99 84 100 85 101 86 102 87 103
REMARK SMILES IDX 63 104 64 105 73 106 65 107 66 108 72 109 74 110 67 111
REMARK SMILES IDX 68 112 69 113 70 114 71 115
REMARK H PARENT 18 12 3 37 21 40 95 65 61 76
REMARK Flexibility Score: inf
ROOT
ATOM      1  C   UNL     1       1.840   2.357   4.844  1.00  0.00     0.188 C 
ENDROOT
BRANCH   1   2
ATOM      2  O   UNL     1       1.440   2.923   6.080  1.00  0.00    -0.376 OA
BRANCH   2   3
ATOM      3  C   UNL     1       1.128   2.058   7.165  1.00  0.00     0.202 C 
BRANCH   3   4
ATOM      4  C   UNL     1       0.333   0.764   6.933  1.00  0.00     0.261 C 
BRANCH   4   5
ATOM      5  O   UNL     1       0.906  -0.126   5.958  1.00  0.00    -0.462 OA
BRANCH   5   6
ATOM      6  C   UNL     1       0.063  -0.514   4.961  1.00  0.00     0.331 C 
ATOM      7  O   UNL     1      -1.113  -0.175   4.874  1.00  0.00    -0.250 OA
BRANCH   6   8
ATOM      8  C   UNL     1       0.732  -1.401   3.905  1.00  0.00     0.218 C 
BRANCH   8   9
ATOM      9  N   UNL     1       2.173  -1.651   4.049  1.00  0.00    -0.338 N 
ATOM     10  C   UNL     1       3.041  -2.076   3.081  1.00  0.00     0.261 C 
ATOM     11  O   UNL     1       4.203  -2.330   3.404  1.00  0.00    -0.271 OA
ATOM     12  H   UNL     1       2.557  -1.494   4.942  1.00  0.00     0.164 HD
BRANCH  10  13
ATOM     13  C   UNL     1       2.612  -2.085   1.612  1.00  0.00     0.363 C 
BRANCH  13  14
ATOM     14  O   UNL     1       1.245  -2.365   1.302  1.00  0.00    -0.385 OA
BRANCH  14  15
ATOM     15  N   UNL     1       1.172  -2.933   0.030  1.00  0.00    -0.091 NA
ATOM     16  C   UNL     1       1.619   0.250  -0.403  1.00  0.00     0.016 C 
ATOM     17  C   UNL     1       0.787  -0.049  -1.695  1.00  0.00    -0.008 C 
ATOM     18  C   UNL     1       1.281  -1.321  -2.499  1.00  0.00     0.018 C 
ATOM     19  C   UNL     1      -0.622  -0.254  -1.143  1.00  0.00    -0.062 C 
ATOM     20  C   UNL     1       0.989   1.127  -2.658  1.00  0.00     0.002 C 
ATOM     21  C   UNL     1       0.523  -2.609  -2.196  1.00  0.00     0.061 C 
ATOM     22  C   UNL     1      -0.848  -1.433  -0.506  1.00  0.00     0.027 C 
ATOM     23  C   UNL     1      -1.573   0.929  -1.108  1.00  0.00     0.032 C 
ATOM     24  C   UNL     1       0.319   2.375  -2.085  1.00  0.00    -0.003 C 
ATOM     25  C   UNL     1       2.507   1.221  -2.983  1.00  0.00     0.005 C 
ATOM     26  C   UNL     1       0.246  -2.445  -0.734  1.00  0.00     0.080 C 
ATOM     27  C   UNL     1      -1.199   2.158  -1.979  1.00  0.00     0.008 C 
ATOM     28  C   UNL     1       0.773   3.606  -2.840  1.00  0.00     0.001 C 
ATOM     29  C   UNL     1       2.954   2.494  -3.629  1.00  0.00     0.010 C 
ATOM     30  C   UNL     1       2.325   3.693  -2.936  1.00  0.00    -0.001 C 
ATOM     31  C   UNL     1       0.330   3.803  -4.293  1.00  0.00     0.007 C 
ATOM     32  C   UNL     1       2.469   4.915  -3.854  1.00  0.00     0.068 C 
ATOM     33  C   UNL     1       2.963   3.843  -1.540  1.00  0.00     0.015 C 
ATOM     34  C   UNL     1       1.411   4.688  -4.946  1.00  0.00     0.036 C 
ATOM     35  C   UNL     1       2.099   6.114  -3.055  1.00  0.00     0.042 C 
BRANCH  32  36
ATOM     36  O   UNL     1       3.764   5.061  -4.397  1.00  0.00    -0.390 OA
ATOM     37  H   UNL     1       3.988   4.271  -4.915  1.00  0.00     0.211 HD
ENDBRANCH  32  36
ENDBRANCH  14  15
ENDBRANCH  13  14
ENDBRANCH  10  13
ENDBRANCH   8   9
BRANCH   8  38
ATOM     38  C   UNL     1      -0.028  -2.735   3.917  1.00  0.00     0.193 C 
BRANCH  38  39
ATOM     39  O   UNL     1       0.422  -3.545   5.010  1.00  0.00    -0.394 OA
ATOM     40  H   UNL     1       1.370  -3.722   4.911  1.00  0.00     0.210 HD
ENDBRANCH  38  39
ENDBRANCH   8  38
ENDBRANCH   6   8
ENDBRANCH   5   6
ENDBRANCH   4   5
ENDBRANCH   3   4
ENDBRANCH   2   3
ENDBRANCH   1   2
BRANCH   1  41
ATOM     41  C   UNL     1       3.129   1.514   4.781  1.00  0.00     0.188 C 
BRANCH  41  42
ATOM     42  O   UNL     1       3.531   0.902   5.983  1.00  0.00    -0.376 OA
BRANCH  42  43
ATOM     43  C   UNL     1       4.507   1.536   6.801  1.00  0.00     0.202 C 
BRANCH  43  44
ATOM     44  C   UNL     1       5.116   2.943   6.580  1.00  0.00     0.261 C 
BRANCH  44  45
ATOM     45  O   UNL     1       4.609   3.755   5.513  1.00  0.00    -0.460 OA
BRANCH  45  46
ATOM     46  C   UNL     1       5.451   3.978   4.471  1.00  0.00     0.338 C 
ATOM     47  O   UNL     1       6.578   3.529   4.323  1.00  0.00    -0.246 OA
BRANCH  46  48
ATOM     48  C   UNL     1       4.763   4.821   3.471  1.00  0.00     0.060 A 
ATOM     49  C   UNL     1       3.862   4.246   2.579  1.00  0.00     0.016 A 
ATOM     50  C   UNL     1       5.036   6.185   3.377  1.00  0.00     0.016 A 
ATOM     51  C   UNL     1       3.196   5.037   1.638  1.00  0.00     0.010 A 
ATOM     52  C   UNL     1       4.399   6.967   2.389  1.00  0.00     0.010 A 
ATOM     53  C   UNL     1       3.484   6.403   1.479  1.00  0.00    -0.014 A 
BRANCH  53  54
ATOM     54  C   UNL     1       3.022   7.168   0.248  1.00  0.00     0.031 A 
ATOM     55  C   UNL     1       4.110   7.462  -0.827  1.00  0.00     0.074 A 
ATOM     56  C   UNL     1       1.697   7.332  -0.048  1.00  0.00     0.049 A 
ATOM     57  N   UNL     1       4.011   8.023  -2.011  1.00  0.00    -0.248 NA
ATOM     58  C   UNL     1       5.464   6.927  -0.577  1.00  0.00     0.031 C 
ATOM     59  C   UNL     1       0.588   6.723   0.699  1.00  0.00     0.029 A 
ATOM     60  N   UNL     1       1.046   7.889  -1.150  1.00  0.00    -0.354 N 
ATOM     61  C   UNL     1       5.241   7.868  -2.662  1.00  0.00     0.074 A 
ATOM     62  C   UNL     1       6.115   7.234  -1.694  1.00  0.00     0.031 C 
ATOM     63  C   UNL     1      -0.538   6.769  -0.044  1.00  0.00     0.029 A 
ATOM     64  C   UNL     1      -0.280   7.478  -1.304  1.00  0.00     0.049 A 
ATOM     65  H   UNL     1       1.484   8.519  -1.766  1.00  0.00     0.167 HD
ATOM     66  C   UNL     1       5.615   8.158  -3.945  1.00  0.00     0.037 A 
ATOM     67  C   UNL     1      -1.147   7.543  -2.361  1.00  0.00     0.037 A 
ATOM     68  C   UNL     1       4.743   8.652  -4.999  1.00  0.00     0.049 A 
ATOM     69  C   UNL     1      -0.685   8.082  -3.731  1.00  0.00     0.074 A 
ATOM     70  C   UNL     1       5.042   9.380  -6.145  1.00  0.00     0.029 A 
ATOM     71  N   UNL     1       3.428   8.277  -5.189  1.00  0.00    -0.354 N 
ATOM     72  N   UNL     1       0.529   8.314  -4.180  1.00  0.00    -0.248 NA
ATOM     73  C   UNL     1      -1.720   8.313  -4.755  1.00  0.00     0.031 C 
ATOM     74  C   UNL     1       3.844   9.642  -6.842  1.00  0.00     0.029 A 
ATOM     75  C   UNL     1       2.805   9.033  -6.160  1.00  0.00     0.049 A 
ATOM     76  H   UNL     1       2.985   7.554  -4.689  1.00  0.00     0.167 HD
ATOM     77  C   UNL     1       0.419   8.652  -5.532  1.00  0.00     0.074 A 
ATOM     78  C   UNL     1      -0.998   8.594  -5.834  1.00  0.00     0.031 C 
ATOM     79  C   UNL     1       1.384   8.986  -6.439  1.00  0.00     0.037 A 
BRANCH  66  80
ATOM     80  C   UNL     1       7.097   8.190  -4.231  1.00  0.00     0.058 A 
ATOM     81  C   UNL     1       7.886   7.067  -4.516  1.00  0.00     0.135 A 
ATOM     82  C   UNL     1       7.722   9.450  -4.271  1.00  0.00     0.135 A 
ATOM     83  F   UNL     1       7.359   5.834  -4.446  1.00  0.00    -0.206 F 
ATOM     84  C   UNL     1       9.241   7.196  -4.840  1.00  0.00     0.059 A 
ATOM     85  C   UNL     1       9.056   9.605  -4.621  1.00  0.00     0.059 A 
ATOM     86  F   UNL     1       7.018  10.559  -3.990  1.00  0.00    -0.206 F 
ATOM     87  C   UNL     1       9.813   8.471  -4.895  1.00  0.00     0.060 A 
BRANCH  87  88
ATOM     88  S   UNL     1      11.560   8.648  -5.320  1.00  0.00     0.124 S 
ATOM     89  O   UNL     1      12.206   8.129  -4.118  1.00  0.00    -0.237 OA
ATOM     90  O   UNL     1      11.680   7.818  -6.514  1.00  0.00    -0.237 OA
ATOM     91  O   UNL     1      11.714  10.083  -5.540  1.00  0.00    -0.744 OA
ENDBRANCH  87  88
ENDBRANCH  66  80
BRANCH  67  92
ATOM     92  C   UNL     1      -2.560   6.991  -2.249  1.00  0.00     0.058 A 
ATOM     93  C   UNL     1      -3.084   6.036  -3.147  1.00  0.00     0.135 A 
ATOM     94  C   UNL     1      -3.458   7.479  -1.286  1.00  0.00     0.135 A 
ATOM     95  F   UNL     1      -2.325   5.555  -4.137  1.00  0.00    -0.206 F 
ATOM     96  C   UNL     1      -4.415   5.607  -3.110  1.00  0.00     0.059 A 
ATOM     97  C   UNL     1      -4.788   7.051  -1.212  1.00  0.00     0.059 A 
ATOM     98  F   UNL     1      -3.053   8.399  -0.398  1.00  0.00    -0.206 F 
ATOM     99  C   UNL     1      -5.264   6.129  -2.140  1.00  0.00     0.060 A 
BRANCH  99 100
ATOM    100  S   UNL     1      -6.993   5.597  -2.108  1.00  0.00     0.124 S 
ATOM    101  O   UNL     1      -7.540   6.299  -3.264  1.00  0.00    -0.237 OA
ATOM    102  O   UNL     1      -6.873   4.148  -2.239  1.00  0.00    -0.237 OA
ATOM    103  O   UNL     1      -7.461   6.064  -0.806  1.00  0.00    -0.744 OA
ENDBRANCH  99 100
ENDBRANCH  67  92
BRANCH  79 104
ATOM    104  C   UNL     1       0.933   9.481  -7.792  1.00  0.00     0.058 A 
ATOM    105  C   UNL     1       0.227  10.692  -7.906  1.00  0.00     0.135 A 
ATOM    106  C   UNL     1       1.282   8.822  -8.982  1.00  0.00     0.135 A 
ATOM    107  F   UNL     1      -0.119  11.378  -6.805  1.00  0.00    -0.206 F 
ATOM    108  C   UNL     1      -0.145  11.213  -9.139  1.00  0.00     0.059 A 
ATOM    109  C   UNL     1       0.941   9.340 -10.233  1.00  0.00     0.059 A 
ATOM    110  F   UNL     1       1.972   7.671  -8.941  1.00  0.00    -0.206 F 
ATOM    111  C   UNL     1       0.220  10.532 -10.300  1.00  0.00     0.060 A 
BRANCH 111 112
ATOM    112  S   UNL     1      -0.234  11.259 -11.891  1.00  0.00     0.124 S 
ATOM    113  O   UNL     1      -1.681  11.068 -11.902  1.00  0.00    -0.237 OA
ATOM    114  O   UNL     1       0.220  12.638 -11.742  1.00  0.00    -0.237 OA
ATOM    115  O   UNL     1       0.512  10.460 -12.858  1.00  0.00    -0.744 OA
ENDBRANCH 111 112
ENDBRANCH  79 104
ENDBRANCH  53  54
ENDBRANCH  46  48
ENDBRANCH  45  46
ENDBRANCH  44  45
ENDBRANCH  43  44
ENDBRANCH  42  43
ENDBRANCH  41  42
ENDBRANCH   1  41
TORSDOF 27
