REMARK SMILES C[C@](NC(=O)[C@](C)([NH3+])C(F)(F)F)(C(=O)OCCOCCOCCOC(=O)c1ccc(-c2c3nc(c(-c4c(F)cc(S(=O)(=O)[O-])cc4F)c4ccc([nH]4)c(-c4c(F)cc(S(=O)(=O)[O-])cc4F)c4nc(c(-c5c(F)cc(S(=O)(=O)[O-])cc5F)c5ccc2[nH]5)C=C4)C=C3)cc1)c1ccccc1
REMARK SMILES IDX 19 1 18 2 17 3 16 4 15 5 13 6 14 7 2 8 1 9 93 10 94 11 98 12
REMARK SMILES IDX 95 13 97 14 96 15 3 16 4 17 5 19 6 20 7 21 8 22 9 26 10 27
REMARK SMILES IDX 11 28 12 29 20 30 21 31 22 32 23 33 24 34 25 35 26 36 27 37
REMARK SMILES IDX 28 38 92 39 29 40 91 41 30 42 31 43 32 44 85 45 33 46 90 47
REMARK SMILES IDX 84 48 86 49 34 50 89 51 83 52 82 53 35 55 69 56 48 57 68 58
REMARK SMILES IDX 49 59 52 60 67 61 87 62 50 63 51 64 66 66 88 67 53 68 36 69
REMARK SMILES IDX 37 70 46 71 38 72 39 73 45 74 47 75 40 76 41 77 42 78 43 79
REMARK SMILES IDX 44 80 70 81 71 82 80 83 72 84 73 85 79 86 81 87 74 88 75 89
REMARK SMILES IDX 76 90 77 91 78 92 54 93 55 94 64 95 56 96 57 97 63 98 65 99
REMARK SMILES IDX 58 100 59 101 60 102 61 103 62 104
REMARK H PARENT 3 18 8 23 8 24 8 25 86 54 52 65
REMARK Flexibility Score: inf
ROOT
ATOM      1  C   UNL     1       5.043  -6.644  -1.726  1.00  0.00     0.188 C 
ENDROOT
BRANCH   1   2
ATOM      2  O   UNL     1       6.240  -7.313  -1.359  1.00  0.00    -0.376 OA
BRANCH   2   3
ATOM      3  C   UNL     1       7.366  -6.469  -1.163  1.00  0.00     0.202 C 
BRANCH   3   4
ATOM      4  C   UNL     1       7.296  -5.552   0.076  1.00  0.00     0.261 C 
BRANCH   4   5
ATOM      5  O   UNL     1       6.130  -4.697   0.185  1.00  0.00    -0.461 OA
BRANCH   5   6
ATOM      6  C   UNL     1       6.020  -3.785  -0.809  1.00  0.00     0.336 C 
ATOM      7  O   UNL     1       6.863  -3.691  -1.702  1.00  0.00    -0.249 OA
BRANCH   6   8
ATOM      8  C   UNL     1       4.832  -2.746  -0.661  1.00  0.00     0.161 C 
ATOM      9  C   UNL     1       5.746  -1.629  -0.087  1.00  0.00     0.053 C 
BRANCH   8  10
ATOM     10  C   UNL     1       4.106  -2.782  -2.035  1.00  0.00    -0.012 A 
ATOM     11  C   UNL     1       4.684  -2.288  -3.209  1.00  0.00     0.007 A 
ATOM     12  C   UNL     1       2.808  -3.350  -2.159  1.00  0.00     0.007 A 
ATOM     13  C   UNL     1       3.951  -2.219  -4.402  1.00  0.00     0.000 A 
ATOM     14  C   UNL     1       2.057  -3.221  -3.330  1.00  0.00     0.000 A 
ATOM     15  C   UNL     1       2.626  -2.642  -4.450  1.00  0.00     0.000 A 
ENDBRANCH   8  10
BRANCH   8  16
ATOM     16  N   UNL     1       3.732  -2.732   0.335  1.00  0.00    -0.331 N 
ATOM     17  C   UNL     1       2.743  -1.789   0.534  1.00  0.00     0.291 C 
ATOM     18  H   UNL     1       3.703  -3.506   0.941  1.00  0.00     0.165 HD
ATOM     19  O   UNL     1       1.927  -2.135   1.409  1.00  0.00    -0.267 OA
BRANCH  17  20
ATOM     20  C   UNL     1       2.421  -0.445  -0.313  1.00  0.00     0.267 C 
ATOM     21  C   UNL     1       1.708   0.515   0.674  1.00  0.00     0.100 C 
BRANCH  20  22
ATOM     22  N   UNL     1       1.323  -0.758  -1.298  1.00  0.00    -0.337 N 
ATOM     23  H   UNL     1       1.106   0.078  -1.841  1.00  0.00     0.345 HD
ATOM     24  H   UNL     1       0.490  -1.061  -0.794  1.00  0.00     0.345 HD
ATOM     25  H   UNL     1       1.630  -1.501  -1.925  1.00  0.00     0.345 HD
ENDBRANCH  20  22
BRANCH  20  26
ATOM     26  C   UNL     1       3.546   0.450  -0.911  1.00  0.00     0.453 C 
ATOM     27  F   UNL     1       3.024   1.446  -1.676  1.00  0.00    -0.164 F 
ATOM     28  F   UNL     1       4.273   1.066   0.055  1.00  0.00    -0.164 F 
ATOM     29  F   UNL     1       4.415  -0.183  -1.711  1.00  0.00    -0.164 F 
ENDBRANCH  20  26
ENDBRANCH  17  20
ENDBRANCH   8  16
ENDBRANCH   6   8
ENDBRANCH   5   6
ENDBRANCH   4   5
ENDBRANCH   3   4
ENDBRANCH   2   3
ENDBRANCH   1   2
BRANCH   1  30
ATOM     30  C   UNL     1       4.042  -6.463  -0.564  1.00  0.00     0.188 C 
BRANCH  30  31
ATOM     31  O   UNL     1       4.299  -7.032   0.710  1.00  0.00    -0.376 OA
BRANCH  31  32
ATOM     32  C   UNL     1       4.793  -8.361   0.763  1.00  0.00     0.202 C 
BRANCH  32  33
ATOM     33  C   UNL     1       4.095  -9.484  -0.033  1.00  0.00     0.261 C 
BRANCH  33  34
ATOM     34  O   UNL     1       3.642  -9.158  -1.362  1.00  0.00    -0.460 OA
BRANCH  34  35
ATOM     35  C   UNL     1       2.296  -9.018  -1.522  1.00  0.00     0.338 C 
ATOM     36  O   UNL     1       1.443  -9.174  -0.672  1.00  0.00    -0.246 OA
BRANCH  35  37
ATOM     37  C   UNL     1       2.009  -8.419  -2.853  1.00  0.00     0.060 A 
ATOM     38  C   UNL     1       1.487  -7.119  -2.900  1.00  0.00     0.016 A 
ATOM     39  C   UNL     1       2.202  -9.128  -4.039  1.00  0.00     0.016 A 
ATOM     40  C   UNL     1       1.198  -6.518  -4.125  1.00  0.00     0.010 A 
ATOM     41  C   UNL     1       1.875  -8.529  -5.269  1.00  0.00     0.010 A 
ATOM     42  C   UNL     1       1.378  -7.215  -5.320  1.00  0.00    -0.014 A 
BRANCH  42  43
ATOM     43  C   UNL     1       0.888  -6.610  -6.586  1.00  0.00     0.031 A 
ATOM     44  C   UNL     1      -0.502  -6.943  -7.047  1.00  0.00     0.074 A 
ATOM     45  C   UNL     1       1.628  -5.729  -7.288  1.00  0.00     0.049 A 
ATOM     46  N   UNL     1      -1.087  -6.667  -8.182  1.00  0.00    -0.248 NA
ATOM     47  C   UNL     1      -1.351  -7.674  -6.092  1.00  0.00     0.031 C 
ATOM     48  C   UNL     1       2.932  -5.208  -6.886  1.00  0.00     0.029 A 
ATOM     49  N   UNL     1       1.386  -5.123  -8.500  1.00  0.00    -0.354 N 
ATOM     50  C   UNL     1      -2.354  -7.231  -8.100  1.00  0.00     0.074 A 
ATOM     51  C   UNL     1      -2.466  -7.837  -6.791  1.00  0.00     0.031 C 
ATOM     52  C   UNL     1       3.392  -4.390  -7.850  1.00  0.00     0.029 A 
ATOM     53  C   UNL     1       2.449  -4.383  -8.967  1.00  0.00     0.049 A 
ATOM     54  H   UNL     1       0.534  -5.210  -8.987  1.00  0.00     0.167 HD
ATOM     55  C   UNL     1      -3.324  -7.259  -9.042  1.00  0.00     0.037 A 
ATOM     56  C   UNL     1       2.664  -3.824 -10.178  1.00  0.00     0.037 A 
ATOM     57  C   UNL     1      -3.212  -6.639 -10.336  1.00  0.00     0.049 A 
ATOM     58  C   UNL     1       1.614  -3.970 -11.257  1.00  0.00     0.074 A 
ATOM     59  C   UNL     1      -4.147  -6.609 -11.355  1.00  0.00     0.029 A 
ATOM     60  N   UNL     1      -2.097  -5.955 -10.795  1.00  0.00    -0.354 N 
ATOM     61  N   UNL     1       0.427  -4.526 -11.184  1.00  0.00    -0.248 NA
ATOM     62  C   UNL     1       1.938  -3.435 -12.589  1.00  0.00     0.031 C 
ATOM     63  C   UNL     1      -3.572  -5.970 -12.456  1.00  0.00     0.029 A 
ATOM     64  C   UNL     1      -2.304  -5.540 -12.100  1.00  0.00     0.049 A 
ATOM     65  H   UNL     1      -1.280  -5.788 -10.272  1.00  0.00     0.167 HD
ATOM     66  C   UNL     1      -0.138  -4.391 -12.450  1.00  0.00     0.074 A 
ATOM     67  C   UNL     1       0.825  -3.683 -13.265  1.00  0.00     0.031 C 
ATOM     68  C   UNL     1      -1.343  -4.821 -12.899  1.00  0.00     0.037 A 
BRANCH  55  69
ATOM     69  C   UNL     1      -4.564  -8.055  -8.752  1.00  0.00     0.058 A 
ATOM     70  C   UNL     1      -5.557  -7.607  -7.871  1.00  0.00     0.135 A 
ATOM     71  C   UNL     1      -4.783  -9.265  -9.432  1.00  0.00     0.135 A 
ATOM     72  F   UNL     1      -5.385  -6.470  -7.177  1.00  0.00    -0.206 F 
ATOM     73  C   UNL     1      -6.727  -8.333  -7.671  1.00  0.00     0.059 A 
ATOM     74  C   UNL     1      -5.955  -9.993  -9.268  1.00  0.00     0.059 A 
ATOM     75  F   UNL     1      -3.857  -9.742 -10.278  1.00  0.00    -0.206 F 
ATOM     76  C   UNL     1      -6.920  -9.521  -8.381  1.00  0.00     0.060 A 
BRANCH  76  77
ATOM     77  S   UNL     1      -8.461 -10.430  -8.142  1.00  0.00     0.124 S 
ATOM     78  O   UNL     1      -8.292 -10.939  -6.785  1.00  0.00    -0.237 OA
ATOM     79  O   UNL     1      -9.466  -9.385  -8.307  1.00  0.00    -0.237 OA
ATOM     80  O   UNL     1      -8.430 -11.439  -9.197  1.00  0.00    -0.744 OA
ENDBRANCH  76  77
ENDBRANCH  55  69
BRANCH  56  81
ATOM     81  C   UNL     1       3.968  -3.167 -10.491  1.00  0.00     0.058 A 
ATOM     82  C   UNL     1       4.046  -1.806 -10.826  1.00  0.00     0.135 A 
ATOM     83  C   UNL     1       5.161  -3.910 -10.522  1.00  0.00     0.135 A 
ATOM     84  F   UNL     1       2.936  -1.053 -10.835  1.00  0.00    -0.206 F 
ATOM     85  C   UNL     1       5.249  -1.214 -11.206  1.00  0.00     0.059 A 
ATOM     86  C   UNL     1       6.380  -3.333 -10.863  1.00  0.00     0.059 A 
ATOM     87  F   UNL     1       5.149  -5.216 -10.215  1.00  0.00    -0.206 F 
ATOM     88  C   UNL     1       6.411  -1.987 -11.221  1.00  0.00     0.060 A 
BRANCH  88  89
ATOM     89  S   UNL     1       7.970  -1.209 -11.698  1.00  0.00     0.124 S 
ATOM     90  O   UNL     1       7.782  -1.031 -13.133  1.00  0.00    -0.237 OA
ATOM     91  O   UNL     1       7.960   0.010 -10.896  1.00  0.00    -0.237 OA
ATOM     92  O   UNL     1       8.971  -2.198 -11.310  1.00  0.00    -0.744 OA
ENDBRANCH  88  89
ENDBRANCH  56  81
BRANCH  68  93
ATOM     93  C   UNL     1      -1.718  -4.520 -14.326  1.00  0.00     0.058 A 
ATOM     94  C   UNL     1      -1.126  -5.198 -15.403  1.00  0.00     0.135 A 
ATOM     95  C   UNL     1      -2.753  -3.613 -14.613  1.00  0.00     0.135 A 
ATOM     96  F   UNL     1      -0.128  -6.069 -15.186  1.00  0.00    -0.206 F 
ATOM     97  C   UNL     1      -1.542  -4.984 -16.714  1.00  0.00     0.059 A 
ATOM     98  C   UNL     1      -3.205  -3.406 -15.913  1.00  0.00     0.059 A 
ATOM     99  F   UNL     1      -3.361  -2.945 -13.620  1.00  0.00    -0.206 F 
ATOM    100  C   UNL     1      -2.590  -4.093 -16.958  1.00  0.00     0.060 A 
BRANCH 100 101
ATOM    101  S   UNL     1      -3.163  -3.879 -18.657  1.00  0.00     0.124 S 
ATOM    102  O   UNL     1      -2.052  -3.145 -19.253  1.00  0.00    -0.237 OA
ATOM    103  O   UNL     1      -3.327  -5.258 -19.106  1.00  0.00    -0.237 OA
ATOM    104  O   UNL     1      -4.404  -3.124 -18.505  1.00  0.00    -0.744 OA
ENDBRANCH 100 101
ENDBRANCH  68  93
ENDBRANCH  42  43
ENDBRANCH  35  37
ENDBRANCH  34  35
ENDBRANCH  33  34
ENDBRANCH  32  33
ENDBRANCH  31  32
ENDBRANCH  30  31
ENDBRANCH   1  30
TORSDOF 25
