REMARK SMILES COC(=O)c1sc(SCC(=O)OCCOCCOCCOC(=O)c2ccc(-c3c4nc(c(-c5c(F)cc(S(=O)(=O)[O-])cc5F)c5ccc([nH]5)c(-c5c(F)cc(S(=O)(=O)[O-])cc5F)c5nc(c(-c6c(F)cc(S(=O)(=O)[O-])cc6F)c6ccc3[nH]6)C=C5)C=C4)cc2)c(NC(=O)c2ccccc2)c1O
REMARK SMILES IDX 16 1 15 2 14 3 13 4 12 5 10 6 11 7 9 8 8 9 7 10 5 11 6 12
REMARK SMILES IDX 100 13 90 14 3 15 4 16 2 17 1 18 101 19 91 21 92 22 93 24
REMARK SMILES IDX 94 25 95 26 99 27 96 28 98 29 97 30 17 31 18 32 19 33 20 34
REMARK SMILES IDX 21 35 22 36 23 37 24 38 25 39 89 40 26 41 88 42 27 43 28 44
REMARK SMILES IDX 29 45 82 46 30 47 87 48 81 49 83 50 31 51 86 52 80 53 79 54
REMARK SMILES IDX 32 56 66 57 45 58 65 59 46 60 49 61 64 62 84 63 47 64 48 65
REMARK SMILES IDX 63 67 85 68 50 69 33 70 34 71 43 72 35 73 36 74 42 75 44 76
REMARK SMILES IDX 37 77 38 78 39 79 40 80 41 81 67 82 68 83 77 84 69 85 70 86
REMARK SMILES IDX 76 87 78 88 71 89 72 90 73 91 74 92 75 93 51 94 52 95 61 96
REMARK SMILES IDX 53 97 54 98 60 99 62 100 55 101 56 102 57 103 58 104 59 105
REMARK H PARENT 101 20 91 23 83 55 49 66
REMARK Flexibility Score: inf
ROOT
ATOM      1  C   UNL     1      -3.548   6.733   1.306  1.00  0.00     0.188 C 
ENDROOT
BRANCH   1   2
ATOM      2  O   UNL     1      -3.857   7.810   0.419  1.00  0.00    -0.376 OA
BRANCH   2   3
ATOM      3  C   UNL     1      -3.062   8.994   0.571  1.00  0.00     0.202 C 
BRANCH   3   4
ATOM      4  C   UNL     1      -3.080   9.594   1.982  1.00  0.00     0.261 C 
BRANCH   4   5
ATOM      5  O   UNL     1      -2.025   9.059   2.817  1.00  0.00    -0.463 OA
BRANCH   5   6
ATOM      6  C   UNL     1      -2.363   8.771   4.120  1.00  0.00     0.316 C 
ATOM      7  O   UNL     1      -3.506   8.848   4.561  1.00  0.00    -0.251 OA
BRANCH   6   8
ATOM      8  C   UNL     1      -0.986   8.641   5.088  1.00  0.00     0.198 C 
BRANCH   8   9
ATOM      9  S   UNL     1       0.215   6.587   6.090  1.00  0.00    -0.101 SA
BRANCH   9  10
ATOM     10  C   UNL     1       0.382   5.062   5.117  1.00  0.00     0.089 A 
ATOM     11  C   UNL     1       1.336   3.088   3.928  1.00  0.00     0.157 A 
ATOM     12  S   UNL     1       1.956   4.494   4.695  1.00  0.00    -0.116 S 
ATOM     13  C   UNL     1      -0.017   2.974   4.176  1.00  0.00     0.166 A 
ATOM     14  C   UNL     1      -0.593   4.167   4.700  1.00  0.00     0.109 A 
BRANCH  11  15
ATOM     15  C   UNL     1       2.217   2.255   3.130  1.00  0.00     0.352 C 
ATOM     16  O   UNL     1       3.406   2.455   2.922  1.00  0.00    -0.245 OA
BRANCH  15  17
ATOM     17  O   UNL     1       1.483   1.242   2.576  1.00  0.00    -0.465 OA
ATOM     18  C   UNL     1       2.119   0.466   1.549  1.00  0.00     0.282 C 
ENDBRANCH  15  17
ENDBRANCH  11  15
BRANCH  13  19
ATOM     19  O   UNL     1      -0.767   1.907   3.819  1.00  0.00    -0.504 OA
ATOM     20  H   UNL     1      -0.355   1.137   3.478  1.00  0.00     0.293 HD
ENDBRANCH  13  19
BRANCH  14  21
ATOM     21  N   UNL     1      -1.974   4.337   4.702  1.00  0.00    -0.317 N 
ATOM     22  C   UNL     1      -2.645   5.521   4.843  1.00  0.00     0.255 C 
ATOM     23  H   UNL     1      -2.522   3.527   4.593  1.00  0.00     0.170 HD
ATOM     24  O   UNL     1      -3.864   5.609   4.829  1.00  0.00    -0.269 OA
BRANCH  22  25
ATOM     25  C   UNL     1      -1.817   6.719   5.020  1.00  0.00     0.040 A 
ATOM     26  C   UNL     1      -1.866   7.497   6.642  1.00  0.00     0.014 A 
ATOM     27  C   UNL     1      -0.436   7.080   3.881  1.00  0.00     0.014 A 
ATOM     28  C   UNL     1      -0.500   8.539   7.181  1.00  0.00     0.001 A 
ATOM     29  C   UNL     1       0.939   8.103   4.433  1.00  0.00     0.001 A 
ATOM     30  C   UNL     1       0.881   8.850   6.074  1.00  0.00     0.000 A 
ENDBRANCH  22  25
ENDBRANCH  14  21
ENDBRANCH   9  10
ENDBRANCH   8   9
ENDBRANCH   6   8
ENDBRANCH   5   6
ENDBRANCH   4   5
ENDBRANCH   3   4
ENDBRANCH   2   3
ENDBRANCH   1   2
BRANCH   1  31
ATOM     31  C   UNL     1      -2.283   5.964   0.924  1.00  0.00     0.188 C 
BRANCH  31  32
ATOM     32  O   UNL     1      -1.197   6.849   0.654  1.00  0.00    -0.376 OA
BRANCH  32  33
ATOM     33  C   UNL     1      -0.018   6.249   0.120  1.00  0.00     0.202 C 
BRANCH  33  34
ATOM     34  C   UNL     1      -0.179   5.743  -1.324  1.00  0.00     0.261 C 
BRANCH  34  35
ATOM     35  O   UNL     1      -1.037   4.597  -1.433  1.00  0.00    -0.460 OA
BRANCH  35  36
ATOM     36  C   UNL     1      -0.615   3.540  -0.710  1.00  0.00     0.338 C 
ATOM     37  O   UNL     1       0.455   3.436  -0.129  1.00  0.00    -0.246 OA
BRANCH  36  38
ATOM     38  C   UNL     1      -1.663   2.519  -0.604  1.00  0.00     0.060 A 
ATOM     39  C   UNL     1      -1.662   1.777   0.578  1.00  0.00     0.016 A 
ATOM     40  C   UNL     1      -2.421   2.128  -1.706  1.00  0.00     0.016 A 
ATOM     41  C   UNL     1      -2.175   0.496   0.574  1.00  0.00     0.010 A 
ATOM     42  C   UNL     1      -2.972   0.852  -1.697  1.00  0.00     0.010 A 
ATOM     43  C   UNL     1      -2.690  -0.006  -0.621  1.00  0.00    -0.014 A 
BRANCH  43  44
ATOM     44  C   UNL     1      -2.621  -1.464  -0.797  1.00  0.00     0.031 A 
ATOM     45  C   UNL     1      -3.428  -2.345   0.087  1.00  0.00     0.074 A 
ATOM     46  C   UNL     1      -1.843  -2.001  -1.765  1.00  0.00     0.049 A 
ATOM     47  N   UNL     1      -3.043  -3.406   0.729  1.00  0.00    -0.248 NA
ATOM     48  C   UNL     1      -4.840  -1.992   0.290  1.00  0.00     0.031 C 
ATOM     49  C   UNL     1      -1.120  -1.275  -2.817  1.00  0.00     0.029 A 
ATOM     50  N   UNL     1      -1.652  -3.313  -2.108  1.00  0.00    -0.354 N 
ATOM     51  C   UNL     1      -4.202  -3.972   1.242  1.00  0.00     0.074 A 
ATOM     52  C   UNL     1      -5.266  -3.021   1.022  1.00  0.00     0.031 C 
ATOM     53  C   UNL     1      -0.833  -2.126  -3.820  1.00  0.00     0.029 A 
ATOM     54  C   UNL     1      -1.232  -3.463  -3.422  1.00  0.00     0.049 A 
ATOM     55  H   UNL     1      -1.796  -4.066  -1.491  1.00  0.00     0.167 HD
ATOM     56  C   UNL     1      -4.298  -5.269   1.637  1.00  0.00     0.037 A 
ATOM     57  C   UNL     1      -1.311  -4.570  -4.193  1.00  0.00     0.037 A 
ATOM     58  C   UNL     1      -3.047  -5.913   1.899  1.00  0.00     0.049 A 
ATOM     59  C   UNL     1      -1.392  -5.761  -3.321  1.00  0.00     0.074 A 
ATOM     60  C   UNL     1      -2.022  -5.740   2.805  1.00  0.00     0.029 A 
ATOM     61  N   UNL     1      -2.599  -6.840   0.993  1.00  0.00    -0.354 N 
ATOM     62  N   UNL     1      -0.414  -6.213  -2.585  1.00  0.00    -0.248 NA
ATOM     63  C   UNL     1      -2.696  -6.354  -3.057  1.00  0.00     0.031 C 
ATOM     64  C   UNL     1      -0.861  -6.304   2.203  1.00  0.00     0.029 A 
ATOM     65  C   UNL     1      -1.230  -6.752   0.935  1.00  0.00     0.049 A 
ATOM     66  H   UNL     1      -3.161  -7.461   0.475  1.00  0.00     0.167 HD
ATOM     67  C   UNL     1      -1.037  -6.849  -1.526  1.00  0.00     0.074 A 
ATOM     68  C   UNL     1      -2.411  -7.049  -1.955  1.00  0.00     0.031 C 
ATOM     69  C   UNL     1      -0.466  -6.874  -0.288  1.00  0.00     0.037 A 
BRANCH  56  70
ATOM     70  C   UNL     1      -5.580  -6.028   1.471  1.00  0.00     0.058 A 
ATOM     71  C   UNL     1      -5.942  -7.061   2.347  1.00  0.00     0.135 A 
ATOM     72  C   UNL     1      -6.368  -5.877   0.308  1.00  0.00     0.135 A 
ATOM     73  F   UNL     1      -5.211  -7.309   3.445  1.00  0.00    -0.206 F 
ATOM     74  C   UNL     1      -7.040  -7.886   2.095  1.00  0.00     0.059 A 
ATOM     75  C   UNL     1      -7.486  -6.659   0.056  1.00  0.00     0.059 A 
ATOM     76  F   UNL     1      -6.028  -4.997  -0.647  1.00  0.00    -0.206 F 
ATOM     77  C   UNL     1      -7.803  -7.677   0.946  1.00  0.00     0.060 A 
BRANCH  77  78
ATOM     78  S   UNL     1      -9.215  -8.740   0.588  1.00  0.00     0.124 S 
ATOM     79  O   UNL     1      -8.582  -9.812  -0.172  1.00  0.00    -0.237 OA
ATOM     80  O   UNL     1      -9.692  -9.098   1.920  1.00  0.00    -0.237 OA
ATOM     81  O   UNL     1     -10.099  -7.859  -0.169  1.00  0.00    -0.744 OA
ENDBRANCH  77  78
ENDBRANCH  56  70
BRANCH  57  82
ATOM     82  C   UNL     1      -1.586  -4.612  -5.650  1.00  0.00     0.058 A 
ATOM     83  C   UNL     1      -1.318  -5.762  -6.409  1.00  0.00     0.135 A 
ATOM     84  C   UNL     1      -2.336  -3.602  -6.291  1.00  0.00     0.135 A 
ATOM     85  F   UNL     1      -0.654  -6.791  -5.863  1.00  0.00    -0.206 F 
ATOM     86  C   UNL     1      -1.776  -5.908  -7.721  1.00  0.00     0.059 A 
ATOM     87  C   UNL     1      -2.780  -3.713  -7.604  1.00  0.00     0.059 A 
ATOM     88  F   UNL     1      -2.736  -2.505  -5.630  1.00  0.00    -0.206 F 
ATOM     89  C   UNL     1      -2.513  -4.879  -8.307  1.00  0.00     0.060 A 
BRANCH  89  90
ATOM     90  S   UNL     1      -3.212  -5.117  -9.955  1.00  0.00     0.124 S 
ATOM     91  O   UNL     1      -2.013  -5.160 -10.786  1.00  0.00    -0.237 OA
ATOM     92  O   UNL     1      -3.929  -6.378  -9.802  1.00  0.00    -0.237 OA
ATOM     93  O   UNL     1      -4.057  -3.940 -10.139  1.00  0.00    -0.744 OA
ENDBRANCH  89  90
ENDBRANCH  57  82
BRANCH  69  94
ATOM     94  C   UNL     1       1.019  -6.661  -0.202  1.00  0.00     0.058 A 
ATOM     95  C   UNL     1       1.639  -5.430  -0.469  1.00  0.00     0.135 A 
ATOM     96  C   UNL     1       1.825  -7.699   0.289  1.00  0.00     0.135 A 
ATOM     97  F   UNL     1       0.916  -4.365  -0.847  1.00  0.00    -0.206 F 
ATOM     98  C   UNL     1       3.010  -5.248  -0.291  1.00  0.00     0.059 A 
ATOM     99  C   UNL     1       3.193  -7.532   0.500  1.00  0.00     0.059 A 
ATOM    100  F   UNL     1       1.276  -8.880   0.618  1.00  0.00    -0.206 F 
ATOM    101  C   UNL     1       3.780  -6.304   0.196  1.00  0.00     0.060 A 
BRANCH 101 102
ATOM    102  S   UNL     1       5.534  -6.034   0.541  1.00  0.00     0.124 S 
ATOM    103  O   UNL     1       6.141  -6.261  -0.766  1.00  0.00    -0.237 OA
ATOM    104  O   UNL     1       5.561  -4.655   1.022  1.00  0.00    -0.237 OA
ATOM    105  O   UNL     1       5.834  -7.040   1.556  1.00  0.00    -0.744 OA
ENDBRANCH 101 102
ENDBRANCH  69  94
ENDBRANCH  43  44
ENDBRANCH  36  38
ENDBRANCH  35  36
ENDBRANCH  34  35
ENDBRANCH  33  34
ENDBRANCH  32  33
ENDBRANCH  31  32
ENDBRANCH   1  31
TORSDOF 27
