REMARK SMILES [NH3+][C@H]1CCCCC[C@H]1C(=O)NC[C@@H]1CCC[C@@H]1C(=O)OCCOCCOCCOC(=O)c1ccc(-c2c3nc(c(-c4c(F)cc(S(=O)(=O)[O-])cc4F)c4ccc([nH]4)c(-c4c(F)cc(S(=O)(=O)[O-])cc4F)c4nc(c(-c5c(F)cc(S(=O)(=O)[O-])cc5F)c5ccc2[nH]5)C=C4)C=C3)cc1
REMARK SMILES IDX 23 1 22 2 21 3 20 4 18 5 19 6 17 7 13 8 14 9 15 10 16 11
REMARK SMILES IDX 12 12 11 13 9 14 10 15 8 17 2 18 1 19 3 23 4 24 7 26 6 27
REMARK SMILES IDX 5 28 24 30 25 31 26 32 27 33 28 34 29 35 30 36 31 37 32 38
REMARK SMILES IDX 33 39 97 40 34 41 96 42 35 43 36 44 37 45 90 46 38 47 95 48
REMARK SMILES IDX 89 49 91 50 39 51 94 52 88 53 87 54 40 56 74 57 53 58 73 59
REMARK SMILES IDX 54 60 57 61 72 62 92 63 55 64 56 65 71 67 93 68 58 69 41 70
REMARK SMILES IDX 42 71 51 72 43 73 44 74 50 75 52 76 45 77 46 78 47 79 48 80
REMARK SMILES IDX 49 81 75 82 76 83 85 84 77 85 78 86 84 87 86 88 79 89 80 90
REMARK SMILES IDX 81 91 82 92 83 93 59 94 60 95 69 96 61 97 62 98 68 99 70 100
REMARK SMILES IDX 63 101 64 102 65 103 66 104 67 105
REMARK H PARENT 11 16 1 20 1 21 1 22 91 55 57 66
REMARK Flexibility Score: 90.00
ROOT
ATOM      1  O   UNL     1      -1.003  -0.813  -2.507  1.00  0.00    -0.376 OA
ENDROOT
BRANCH   1   2
ATOM      2  C   UNL     1      -1.109   0.600  -2.470  1.00  0.00     0.202 C 
BRANCH   2   3
ATOM      3  C   UNL     1      -2.313   1.201  -1.733  1.00  0.00     0.261 C 
BRANCH   3   4
ATOM      4  O   UNL     1      -2.172   1.139  -0.288  1.00  0.00    -0.463 OA
BRANCH   4   5
ATOM      5  C   UNL     1      -3.332   1.289   0.396  1.00  0.00     0.309 C 
ATOM      6  O   UNL     1      -4.398   1.571  -0.141  1.00  0.00    -0.252 OA
BRANCH   5   7
ATOM      7  C   UNL     1      -3.262   0.949   1.886  1.00  0.00     0.104 C 
ATOM      8  C   UNL     1      -2.083   1.293   2.830  1.00  0.00     0.022 C 
ATOM      9  C   UNL     1      -1.403  -0.038   3.162  1.00  0.00     0.006 C 
ATOM     10  C   UNL     1      -2.507  -1.079   3.079  1.00  0.00     0.001 C 
ATOM     11  C   UNL     1      -3.517  -0.559   2.065  1.00  0.00     0.016 C 
BRANCH   8  12
ATOM     12  C   UNL     1      -1.168   2.485   2.484  1.00  0.00     0.120 C 
BRANCH  12  13
ATOM     13  N   UNL     1       0.226   2.314   2.891  1.00  0.00    -0.355 N 
ATOM     14  C   UNL     1       1.407   2.810   2.421  1.00  0.00     0.229 C 
ATOM     15  O   UNL     1       2.419   2.540   3.079  1.00  0.00    -0.275 OA
ATOM     16  H   UNL     1       0.335   1.716   3.666  1.00  0.00     0.163 HD
BRANCH  14  17
ATOM     17  C   UNL     1       1.543   3.630   1.128  1.00  0.00     0.136 C 
BRANCH  17  18
ATOM     18  C   UNL     1       1.588   2.740  -0.133  1.00  0.00     0.193 C 
BRANCH  18  19
ATOM     19  N   UNL     1       0.659   1.639  -0.106  1.00  0.00    -0.354 N 
ATOM     20  H   UNL     1       0.747   1.100  -0.968  1.00  0.00     0.344 HD
ATOM     21  H   UNL     1      -0.292   1.999  -0.026  1.00  0.00     0.344 HD
ATOM     22  H   UNL     1       0.865   1.040   0.693  1.00  0.00     0.344 HD
ENDBRANCH  18  19
BRANCH  18  23
ATOM     23  C   UNL     1       1.416   3.429  -1.503  1.00  0.00     0.066 C 
BRANCH  23  24
ATOM     24  C   UNL     1       0.113   4.209  -1.681  1.00  0.00     0.006 CG0
ATOM     25  G   UNL     1       0.235   5.665  -1.253  1.00  0.00     0.000 G0
ENDBRANCH  23  24
ENDBRANCH  18  23
ENDBRANCH  17  18
BRANCH  17  26
ATOM     26  C   UNL     1       0.665   4.887   1.139  1.00  0.00     0.020 C 
BRANCH  26  27
ATOM     27  C   UNL     1       1.025   5.883   0.035  1.00  0.00     0.001 C 
BRANCH  27  28
ATOM     28  C   UNL     1       0.235   5.665  -1.253  1.00  0.00     0.000 CG0
ATOM     29  G   UNL     1       0.113   4.209  -1.681  1.00  0.00     0.000 G0
ENDBRANCH  27  28
ENDBRANCH  26  27
ENDBRANCH  17  26
ENDBRANCH  14  17
ENDBRANCH  12  13
ENDBRANCH   8  12
ENDBRANCH   5   7
ENDBRANCH   4   5
ENDBRANCH   3   4
ENDBRANCH   2   3
ENDBRANCH   1   2
BRANCH   1  30
ATOM     30  C   UNL     1      -1.303  -1.557  -1.344  1.00  0.00     0.188 C 
BRANCH  30  31
ATOM     31  C   UNL     1      -0.485  -1.381  -0.051  1.00  0.00     0.188 C 
BRANCH  31  32
ATOM     32  O   UNL     1       0.910  -1.138   0.019  1.00  0.00    -0.376 OA
BRANCH  32  33
ATOM     33  C   UNL     1       1.744  -1.451  -1.080  1.00  0.00     0.202 C 
BRANCH  33  34
ATOM     34  C   UNL     1       2.168  -2.916  -1.130  1.00  0.00     0.261 C 
BRANCH  34  35
ATOM     35  O   UNL     1       1.047  -3.761  -1.419  1.00  0.00    -0.460 OA
BRANCH  35  36
ATOM     36  C   UNL     1       0.558  -4.479  -0.380  1.00  0.00     0.338 C 
ATOM     37  O   UNL     1       1.044  -4.604   0.733  1.00  0.00    -0.246 OA
BRANCH  36  38
ATOM     38  C   UNL     1      -0.813  -4.904  -0.730  1.00  0.00     0.060 A 
ATOM     39  C   UNL     1      -1.825  -4.699   0.221  1.00  0.00     0.016 A 
ATOM     40  C   UNL     1      -1.125  -5.380  -2.008  1.00  0.00     0.016 A 
ATOM     41  C   UNL     1      -3.151  -4.976  -0.101  1.00  0.00     0.010 A 
ATOM     42  C   UNL     1      -2.448  -5.691  -2.318  1.00  0.00     0.010 A 
ATOM     43  C   UNL     1      -3.457  -5.519  -1.355  1.00  0.00    -0.014 A 
BRANCH  43  44
ATOM     44  C   UNL     1      -4.758  -6.191  -1.552  1.00  0.00     0.031 A 
ATOM     45  C   UNL     1      -4.822  -7.651  -1.201  1.00  0.00     0.074 A 
ATOM     46  C   UNL     1      -5.832  -5.542  -2.031  1.00  0.00     0.049 A 
ATOM     47  N   UNL     1      -5.796  -8.504  -1.363  1.00  0.00    -0.248 NA
ATOM     48  C   UNL     1      -3.611  -8.227  -0.588  1.00  0.00     0.031 C 
ATOM     49  C   UNL     1      -5.890  -4.119  -2.356  1.00  0.00     0.029 A 
ATOM     50  N   UNL     1      -7.082  -6.013  -2.343  1.00  0.00    -0.354 N 
ATOM     51  C   UNL     1      -5.312  -9.716  -0.885  1.00  0.00     0.074 A 
ATOM     52  C   UNL     1      -3.954  -9.495  -0.444  1.00  0.00     0.031 C 
ATOM     53  C   UNL     1      -7.110  -3.836  -2.849  1.00  0.00     0.029 A 
ATOM     54  C   UNL     1      -7.902  -5.064  -2.906  1.00  0.00     0.049 A 
ATOM     55  H   UNL     1      -7.365  -6.941  -2.179  1.00  0.00     0.167 HD
ATOM     56  C   UNL     1      -5.944 -10.909  -0.824  1.00  0.00     0.037 A 
ATOM     57  C   UNL     1      -9.136  -5.192  -3.436  1.00  0.00     0.037 A 
ATOM     58  C   UNL     1      -7.287 -11.118  -1.288  1.00  0.00     0.049 A 
ATOM     59  C   UNL     1      -9.799  -6.548  -3.422  1.00  0.00     0.074 A 
ATOM     60  C   UNL     1      -8.030 -12.283  -1.274  1.00  0.00     0.029 A 
ATOM     61  N   UNL     1      -8.081 -10.138  -1.866  1.00  0.00    -0.354 N 
ATOM     62  N   UNL     1      -9.343  -7.686  -2.952  1.00  0.00    -0.248 NA
ATOM     63  C   UNL     1     -11.142  -6.639  -4.011  1.00  0.00     0.031 C 
ATOM     64  C   UNL     1      -9.257 -12.019  -1.892  1.00  0.00     0.029 A 
ATOM     65  C   UNL     1      -9.300 -10.676  -2.237  1.00  0.00     0.049 A 
ATOM     66  H   UNL     1      -7.816  -9.198  -1.993  1.00  0.00     0.167 HD
ATOM     67  C   UNL     1     -10.351  -8.621  -3.165  1.00  0.00     0.074 A 
ATOM     68  C   UNL     1     -11.445  -7.914  -3.799  1.00  0.00     0.031 C 
ATOM     69  C   UNL     1     -10.375  -9.944  -2.861  1.00  0.00     0.037 A 
BRANCH  56  70
ATOM     70  C   UNL     1      -5.162 -12.074  -0.287  1.00  0.00     0.058 A 
ATOM     71  C   UNL     1      -4.817 -12.174   1.071  1.00  0.00     0.135 A 
ATOM     72  C   UNL     1      -4.736 -13.097  -1.148  1.00  0.00     0.135 A 
ATOM     73  F   UNL     1      -5.173 -11.207   1.932  1.00  0.00    -0.206 F 
ATOM     74  C   UNL     1      -4.052 -13.232   1.550  1.00  0.00     0.059 A 
ATOM     75  C   UNL     1      -3.994 -14.179  -0.686  1.00  0.00     0.059 A 
ATOM     76  F   UNL     1      -5.026 -13.043  -2.458  1.00  0.00    -0.206 F 
ATOM     77  C   UNL     1      -3.644 -14.229   0.663  1.00  0.00     0.060 A 
BRANCH  77  78
ATOM     78  S   UNL     1      -2.648 -15.594   1.297  1.00  0.00     0.124 S 
ATOM     79  O   UNL     1      -1.363 -14.938   1.518  1.00  0.00    -0.237 OA
ATOM     80  O   UNL     1      -3.377 -15.978   2.501  1.00  0.00    -0.237 OA
ATOM     81  O   UNL     1      -2.676 -16.569   0.212  1.00  0.00    -0.744 OA
ENDBRANCH  77  78
ENDBRANCH  56  70
BRANCH  57  82
ATOM     82  C   UNL     1      -9.811  -4.013  -4.045  1.00  0.00     0.058 A 
ATOM     83  C   UNL     1     -10.939  -3.430  -3.449  1.00  0.00     0.135 A 
ATOM     84  C   UNL     1      -9.335  -3.438  -5.235  1.00  0.00     0.135 A 
ATOM     85  F   UNL     1     -11.444  -3.951  -2.320  1.00  0.00    -0.206 F 
ATOM     86  C   UNL     1     -11.573  -2.325  -4.010  1.00  0.00     0.059 A 
ATOM     87  C   UNL     1      -9.936  -2.318  -5.802  1.00  0.00     0.059 A 
ATOM     88  F   UNL     1      -8.257  -3.954  -5.846  1.00  0.00    -0.206 F 
ATOM     89  C   UNL     1     -11.060  -1.772  -5.184  1.00  0.00     0.060 A 
BRANCH  89  90
ATOM     90  S   UNL     1     -11.852  -0.299  -5.868  1.00  0.00     0.124 S 
ATOM     91  O   UNL     1     -13.096  -0.850  -6.392  1.00  0.00    -0.237 OA
ATOM     92  O   UNL     1     -11.978   0.555  -4.691  1.00  0.00    -0.237 OA
ATOM     93  O   UNL     1     -10.895   0.163  -6.869  1.00  0.00    -0.744 OA
ENDBRANCH  89  90
ENDBRANCH  57  82
BRANCH  69  94
ATOM     94  C   UNL     1     -11.632 -10.709  -3.173  1.00  0.00     0.058 A 
ATOM     95  C   UNL     1     -11.981 -11.055  -4.487  1.00  0.00     0.135 A 
ATOM     96  C   UNL     1     -12.453 -11.171  -2.131  1.00  0.00     0.135 A 
ATOM     97  F   UNL     1     -11.231 -10.636  -5.518  1.00  0.00    -0.206 F 
ATOM     98  C   UNL     1     -13.112 -11.818  -4.759  1.00  0.00     0.059 A 
ATOM     99  C   UNL     1     -13.572 -11.959  -2.378  1.00  0.00     0.059 A 
ATOM    100  F   UNL     1     -12.155 -10.880  -0.855  1.00  0.00    -0.206 F 
ATOM    101  C   UNL     1     -13.899 -12.269  -3.697  1.00  0.00     0.060 A 
BRANCH 101 102
ATOM    102  S   UNL     1     -15.339 -13.294  -4.061  1.00  0.00     0.124 S 
ATOM    103  O   UNL     1     -16.268 -12.312  -4.609  1.00  0.00    -0.237 OA
ATOM    104  O   UNL     1     -14.802 -14.261  -5.014  1.00  0.00    -0.237 OA
ATOM    105  O   UNL     1     -15.703 -13.844  -2.758  1.00  0.00    -0.744 OA
ENDBRANCH 101 102
ENDBRANCH  69  94
ENDBRANCH  43  44
ENDBRANCH  36  38
ENDBRANCH  35  36
ENDBRANCH  34  35
ENDBRANCH  33  34
ENDBRANCH  32  33
ENDBRANCH  31  32
ENDBRANCH  30  31
ENDBRANCH   1  30
TORSDOF 24
