REMARK SMILES COc1ccc(OCc2nc(C)no2)c(/C=C/C(=O)OCCOCCOCCOC(=O)c2ccc(-c3c4nc(c(-c5c(F)cc(S(=O)(=O)[O-])cc5F)c5ccc([nH]5)c(-c5c(F)cc(S(=O)(=O)[O-])cc5F)c5nc(c(-c6c(F)cc(S(=O)(=O)[O-])cc6F)c6ccc3[nH]6)C=C5)C=C4)cc2)c1
REMARK SMILES IDX 24 1 23 2 22 3 21 4 20 5 18 6 19 7 17 8 16 9 15 10 3 11 4 12
REMARK SMILES IDX 98 13 5 14 6 15 2 16 1 17 7 18 8 19 9 20 10 21 14 22 11 23
REMARK SMILES IDX 13 24 12 25 25 26 26 27 27 28 28 29 29 30 30 31 31 32 32 33
REMARK SMILES IDX 33 34 97 35 34 36 96 37 35 38 36 39 37 40 90 41 38 42 95 43
REMARK SMILES IDX 89 44 91 45 39 46 94 47 88 48 87 49 40 51 74 52 53 53 73 54
REMARK SMILES IDX 54 55 57 56 72 57 92 58 55 59 56 60 71 62 93 63 58 64 41 65
REMARK SMILES IDX 42 66 51 67 43 68 44 69 50 70 52 71 45 72 46 73 47 74 48 75
REMARK SMILES IDX 49 76 75 77 76 78 85 79 77 80 78 81 84 82 86 83 79 84 80 85
REMARK SMILES IDX 81 86 82 87 83 88 59 89 60 90 69 91 61 92 62 93 68 94 70 95
REMARK SMILES IDX 63 96 64 97 65 98 66 99 67 100
REMARK H PARENT 91 50 57 61
REMARK Flexibility Score: inf
ROOT
ATOM      1  C   UNL     1       7.313   5.043   4.505  1.00  0.00     0.188 C 
ENDROOT
BRANCH   1   2
ATOM      2  O   UNL     1       8.713   4.836   4.525  1.00  0.00    -0.376 OA
BRANCH   2   3
ATOM      3  C   UNL     1       9.220   3.628   5.078  1.00  0.00     0.202 C 
BRANCH   3   4
ATOM      4  C   UNL     1       8.544   2.262   4.832  1.00  0.00     0.261 C 
BRANCH   4   5
ATOM      5  O   UNL     1       7.285   2.354   4.170  1.00  0.00    -0.460 OA
BRANCH   5   6
ATOM      6  C   UNL     1       6.276   1.628   4.699  1.00  0.00     0.330 C 
ATOM      7  O   UNL     1       6.359   0.718   5.501  1.00  0.00    -0.247 OA
BRANCH   6   8
ATOM      8  C   UNL     1       5.016   2.263   4.287  1.00  0.00     0.094 C 
ATOM      9  C   UNL     1       4.232   1.759   3.327  1.00  0.00     0.019 C 
BRANCH   9  10
ATOM     10  C   UNL     1       2.899   2.273   2.914  1.00  0.00     0.020 A 
ATOM     11  C   UNL     1       0.970   1.868   1.456  1.00  0.00     0.119 A 
ATOM     12  C   UNL     1       0.274   2.897   2.087  1.00  0.00     0.050 A 
ATOM     13  C   UNL     1       2.277   1.576   1.858  1.00  0.00     0.058 A 
ATOM     14  C   UNL     1       0.870   3.623   3.118  1.00  0.00     0.051 A 
ATOM     15  C   UNL     1       2.165   3.306   3.543  1.00  0.00     0.127 A 
BRANCH  11  16
ATOM     16  O   UNL     1       0.282   1.229   0.459  1.00  0.00    -0.497 OA
ATOM     17  C   UNL     1       0.807  -0.020   0.025  1.00  0.00     0.278 C 
ENDBRANCH  11  16
BRANCH  15  18
ATOM     18  O   UNL     1       2.724   4.053   4.553  1.00  0.00    -0.483 OA
BRANCH  18  19
ATOM     19  C   UNL     1       2.116   3.849   5.854  1.00  0.00     0.329 C 
BRANCH  19  20
ATOM     20  C   UNL     1       2.345   2.452   6.310  1.00  0.00     0.264 A 
ATOM     21  N   UNL     1       1.897   1.325   5.797  1.00  0.00    -0.193 NA
ATOM     22  O   UNL     1       3.271   2.263   7.297  1.00  0.00    -0.336 OA
ATOM     23  C   UNL     1       2.675   0.395   6.428  1.00  0.00     0.169 A 
ATOM     24  N   UNL     1       3.479   0.882   7.381  1.00  0.00    -0.063 NA
ATOM     25  C   UNL     1       2.693  -1.011   5.992  1.00  0.00     0.093 C 
ENDBRANCH  19  20
ENDBRANCH  18  19
ENDBRANCH  15  18
ENDBRANCH   9  10
ENDBRANCH   6   8
ENDBRANCH   5   6
ENDBRANCH   4   5
ENDBRANCH   3   4
ENDBRANCH   2   3
ENDBRANCH   1   2
BRANCH   1  26
ATOM     26  C   UNL     1       6.707   5.012   3.080  1.00  0.00     0.188 C 
BRANCH  26  27
ATOM     27  O   UNL     1       7.447   4.474   1.990  1.00  0.00    -0.376 OA
BRANCH  27  28
ATOM     28  C   UNL     1       8.783   4.917   1.786  1.00  0.00     0.202 C 
BRANCH  28  29
ATOM     29  C   UNL     1       9.111   6.422   1.727  1.00  0.00     0.261 C 
BRANCH  29  30
ATOM     30  O   UNL     1       8.435   7.256   2.683  1.00  0.00    -0.460 OA
BRANCH  30  31
ATOM     31  C   UNL     1       7.514   8.103   2.156  1.00  0.00     0.338 C 
ATOM     32  O   UNL     1       7.248   8.260   0.977  1.00  0.00    -0.246 OA
BRANCH  31  33
ATOM     33  C   UNL     1       6.712   8.713   3.236  1.00  0.00     0.060 A 
ATOM     34  C   UNL     1       5.342   8.422   3.283  1.00  0.00     0.016 A 
ATOM     35  C   UNL     1       7.272   9.625   4.132  1.00  0.00     0.016 A 
ATOM     36  C   UNL     1       4.521   9.060   4.211  1.00  0.00     0.010 A 
ATOM     37  C   UNL     1       6.440  10.284   5.047  1.00  0.00     0.010 A 
ATOM     38  C   UNL     1       5.057  10.027   5.070  1.00  0.00    -0.014 A 
BRANCH  38  39
ATOM     39  C   UNL     1       4.134  10.871   5.869  1.00  0.00     0.031 A 
ATOM     40  C   UNL     1       3.730  12.218   5.331  1.00  0.00     0.074 A 
ATOM     41  C   UNL     1       3.622  10.426   7.031  1.00  0.00     0.049 A 
ATOM     42  N   UNL     1       2.921  13.107   5.846  1.00  0.00    -0.248 NA
ATOM     43  C   UNL     1       4.314  12.612   4.038  1.00  0.00     0.031 C 
ATOM     44  C   UNL     1       3.909   9.127   7.640  1.00  0.00     0.029 A 
ATOM     45  N   UNL     1       2.749  11.022   7.907  1.00  0.00    -0.354 N 
ATOM     46  C   UNL     1       2.902  14.168   4.947  1.00  0.00     0.074 A 
ATOM     47  C   UNL     1       3.798  13.821   3.865  1.00  0.00     0.031 C 
ATOM     48  C   UNL     1       3.227   9.027   8.794  1.00  0.00     0.029 A 
ATOM     49  C   UNL     1       2.474  10.261   9.018  1.00  0.00     0.049 A 
ATOM     50  H   UNL     1       2.356  11.912   7.753  1.00  0.00     0.167 HD
ATOM     51  C   UNL     1       2.197  15.323   5.014  1.00  0.00     0.037 A 
ATOM     52  C   UNL     1       1.714  10.537  10.096  1.00  0.00     0.037 A 
ATOM     53  C   UNL     1       1.300  15.664   6.087  1.00  0.00     0.049 A 
ATOM     54  C   UNL     1       0.987  11.856  10.173  1.00  0.00     0.074 A 
ATOM     55  C   UNL     1       0.512  16.793   6.223  1.00  0.00     0.029 A 
ATOM     56  N   UNL     1       1.080  14.886   7.214  1.00  0.00    -0.354 N 
ATOM     57  N   UNL     1       0.945  12.830   9.295  1.00  0.00    -0.248 NA
ATOM     58  C   UNL     1       0.200  12.110  11.389  1.00  0.00     0.031 C 
ATOM     59  C   UNL     1      -0.146  16.723   7.456  1.00  0.00     0.029 A 
ATOM     60  C   UNL     1       0.193  15.526   8.065  1.00  0.00     0.049 A 
ATOM     61  H   UNL     1       1.494  14.009   7.385  1.00  0.00     0.167 HD
ATOM     62  C   UNL     1       0.108  13.799   9.841  1.00  0.00     0.074 A 
ATOM     63  C   UNL     1      -0.348  13.286  11.116  1.00  0.00     0.031 C 
ATOM     64  C   UNL     1      -0.253  15.004   9.333  1.00  0.00     0.037 A 
BRANCH  51  65
ATOM     65  C   UNL     1       2.384  16.321   3.905  1.00  0.00     0.058 A 
ATOM     66  C   UNL     1       1.846  16.116   2.625  1.00  0.00     0.135 A 
ATOM     67  C   UNL     1       3.069  17.523   4.144  1.00  0.00     0.135 A 
ATOM     68  F   UNL     1       1.198  14.976   2.338  1.00  0.00    -0.206 F 
ATOM     69  C   UNL     1       1.994  17.063   1.616  1.00  0.00     0.059 A 
ATOM     70  C   UNL     1       3.208  18.494   3.157  1.00  0.00     0.059 A 
ATOM     71  F   UNL     1       3.607  17.767   5.349  1.00  0.00    -0.206 F 
ATOM     72  C   UNL     1       2.674  18.250   1.892  1.00  0.00     0.060 A 
BRANCH  72  73
ATOM     73  S   UNL     1       2.837  19.479   0.579  1.00  0.00     0.124 S 
ATOM     74  O   UNL     1       3.825  18.846  -0.290  1.00  0.00    -0.237 OA
ATOM     75  O   UNL     1       1.480  19.550   0.049  1.00  0.00    -0.237 OA
ATOM     76  O   UNL     1       3.295  20.672   1.284  1.00  0.00    -0.744 OA
ENDBRANCH  72  73
ENDBRANCH  51  65
BRANCH  52  77
ATOM     77  C   UNL     1       1.598   9.552  11.205  1.00  0.00     0.058 A 
ATOM     78  C   UNL     1       0.387   8.893  11.465  1.00  0.00     0.135 A 
ATOM     79  C   UNL     1       2.687   9.273  12.046  1.00  0.00     0.135 A 
ATOM     80  F   UNL     1      -0.685   9.134  10.695  1.00  0.00    -0.206 F 
ATOM     81  C   UNL     1       0.250   8.013  12.533  1.00  0.00     0.059 A 
ATOM     82  C   UNL     1       2.583   8.376  13.104  1.00  0.00     0.059 A 
ATOM     83  F   UNL     1       3.870   9.869  11.834  1.00  0.00    -0.206 F 
ATOM     84  C   UNL     1       1.355   7.762  13.348  1.00  0.00     0.060 A 
BRANCH  84  85
ATOM     85  S   UNL     1       1.177   6.593  14.713  1.00  0.00     0.124 S 
ATOM     86  O   UNL     1       0.408   7.377  15.672  1.00  0.00    -0.237 OA
ATOM     87  O   UNL     1       0.469   5.486  14.077  1.00  0.00    -0.237 OA
ATOM     88  O   UNL     1       2.558   6.308  15.090  1.00  0.00    -0.744 OA
ENDBRANCH  84  85
ENDBRANCH  52  77
BRANCH  64  89
ATOM     89  C   UNL     1      -1.209  15.837  10.143  1.00  0.00     0.058 A 
ATOM     90  C   UNL     1      -0.815  16.466  11.335  1.00  0.00     0.135 A 
ATOM     91  C   UNL     1      -2.532  16.026   9.711  1.00  0.00     0.135 A 
ATOM     92  F   UNL     1       0.437  16.315  11.795  1.00  0.00    -0.206 F 
ATOM     93  C   UNL     1      -1.708  17.221  12.089  1.00  0.00     0.059 A 
ATOM     94  C   UNL     1      -3.434  16.802  10.434  1.00  0.00     0.059 A 
ATOM     95  F   UNL     1      -2.959  15.460   8.571  1.00  0.00    -0.206 F 
ATOM     96  C   UNL     1      -3.017  17.380  11.632  1.00  0.00     0.060 A 
BRANCH  96  97
ATOM     97  S   UNL     1      -4.167  18.363  12.617  1.00  0.00     0.124 S 
ATOM     98  O   UNL     1      -4.479  17.445  13.707  1.00  0.00    -0.237 OA
ATOM     99  O   UNL     1      -3.360  19.524  12.977  1.00  0.00    -0.237 OA
ATOM    100  O   UNL     1      -5.263  18.633  11.691  1.00  0.00    -0.744 OA
ENDBRANCH  96  97
ENDBRANCH  64  89
ENDBRANCH  38  39
ENDBRANCH  31  33
ENDBRANCH  30  31
ENDBRANCH  29  30
ENDBRANCH  28  29
ENDBRANCH  27  28
ENDBRANCH  26  27
ENDBRANCH   1  26
TORSDOF 25
