REMARK SMILES CC1(C)[C@H](C(=O)Nc2cccc3[nH]ccc23)[C@H]1C(=O)OCCOCCOCCOC(=O)c1ccc(-c2c3nc(c(-c4c(F)cc(S(=O)(=O)[O-])cc4F)c4ccc([nH]4)c(-c4c(F)cc(S(=O)(=O)[O-])cc4F)c4nc(c(-c5c(F)cc(S(=O)(=O)[O-])cc5F)c5ccc2[nH]5)C=C4)C=C3)cc1
REMARK SMILES IDX 25 1 24 2 23 3 22 4 21 5 20 6 18 7 19 8 17 9 1 10 2 11 3 12
REMARK SMILES IDX 4 13 5 14 6 15 7 16 8 18 9 19 16 20 10 21 12 22 15 23 11 24
REMARK SMILES IDX 13 25 14 26 26 28 27 29 28 30 29 31 30 32 31 33 32 34 33 35
REMARK SMILES IDX 97 36 34 37 96 38 35 39 36 40 37 41 90 42 38 43 95 44 89 45
REMARK SMILES IDX 91 46 39 47 94 48 88 49 87 50 40 52 74 53 53 54 73 55 54 56
REMARK SMILES IDX 57 57 72 58 92 59 55 60 56 61 71 63 93 64 58 65 41 66 42 67
REMARK SMILES IDX 51 68 43 69 44 70 50 71 52 72 45 73 46 74 47 75 48 76 49 77
REMARK SMILES IDX 75 78 76 79 85 80 77 81 78 82 84 83 86 84 79 85 80 86 81 87
REMARK SMILES IDX 82 88 83 89 59 90 60 91 69 92 61 93 62 94 68 95 70 96 63 97
REMARK SMILES IDX 64 98 65 99 66 100 67 101
REMARK H PARENT 7 17 13 27 91 51 57 62
REMARK Flexibility Score: inf
ROOT
ATOM      1  C   UNL     1       0.097  -1.595   3.210  1.00  0.00     0.188 C 
ENDROOT
BRANCH   1   2
ATOM      2  C   UNL     1      -1.210  -1.134   3.884  1.00  0.00     0.188 C 
BRANCH   2   3
ATOM      3  O   UNL     1      -2.111  -2.123   4.378  1.00  0.00    -0.376 OA
BRANCH   3   4
ATOM      4  C   UNL     1      -2.475  -3.211   3.528  1.00  0.00     0.202 C 
BRANCH   4   5
ATOM      5  C   UNL     1      -3.028  -2.849   2.146  1.00  0.00     0.261 C 
BRANCH   5   6
ATOM      6  O   UNL     1      -2.034  -2.171   1.367  1.00  0.00    -0.463 OA
BRANCH   6   7
ATOM      7  C   UNL     1      -2.505  -1.264   0.474  1.00  0.00     0.310 C 
ATOM      8  O   UNL     1      -3.650  -1.165   0.085  1.00  0.00    -0.252 OA
BRANCH   7   9
ATOM      9  C   UNL     1      -1.464  -0.270   0.111  1.00  0.00     0.118 C 
ATOM     10  C   UNL     1       0.313  -2.032  -0.740  1.00  0.00     0.013 C 
ATOM     11  C   UNL     1      -0.093  -0.602  -0.476  1.00  0.00    -0.009 C 
ATOM     12  C   UNL     1       1.075   0.245  -0.025  1.00  0.00     0.013 C 
ATOM     13  C   UNL     1      -1.207  -0.025  -1.356  1.00  0.00     0.100 C 
BRANCH  13  14
ATOM     14  C   UNL     1      -1.199   1.339  -1.963  1.00  0.00     0.228 C 
ATOM     15  O   UNL     1      -0.778   1.475  -3.106  1.00  0.00    -0.274 OA
ATOM     16  N   UNL     1      -1.863   2.329  -1.279  1.00  0.00    -0.325 N 
ATOM     17  H   UNL     1      -2.835   2.402  -1.415  1.00  0.00     0.169 HD
BRANCH  16  18
ATOM     18  C   UNL     1      -1.258   3.247  -0.397  1.00  0.00     0.050 A 
ATOM     19  C   UNL     1       0.135   3.350  -0.285  1.00  0.00     0.027 A 
ATOM     20  C   UNL     1      -2.059   4.081   0.421  1.00  0.00     0.023 A 
ATOM     21  C   UNL     1       0.731   4.147   0.691  1.00  0.00     0.004 A 
ATOM     22  C   UNL     1      -1.431   4.883   1.380  1.00  0.00     0.047 A 
ATOM     23  C   UNL     1      -3.459   4.328   0.542  1.00  0.00     0.030 A 
ATOM     24  C   UNL     1      -0.044   4.911   1.561  1.00  0.00     0.027 A 
ATOM     25  N   UNL     1      -2.414   5.585   2.044  1.00  0.00    -0.361 N 
ATOM     26  C   UNL     1      -3.642   5.270   1.529  1.00  0.00     0.083 A 
ATOM     27  H   UNL     1      -2.256   6.219   2.780  1.00  0.00     0.166 HD
ENDBRANCH  16  18
ENDBRANCH  13  14
ENDBRANCH   7   9
ENDBRANCH   6   7
ENDBRANCH   5   6
ENDBRANCH   4   5
ENDBRANCH   3   4
ENDBRANCH   2   3
ENDBRANCH   1   2
BRANCH   1  28
ATOM     28  O   UNL     1       0.358  -2.983   3.343  1.00  0.00    -0.376 OA
BRANCH  28  29
ATOM     29  C   UNL     1       1.532  -3.323   4.066  1.00  0.00     0.202 C 
BRANCH  29  30
ATOM     30  C   UNL     1       1.443  -3.061   5.575  1.00  0.00     0.261 C 
BRANCH  30  31
ATOM     31  O   UNL     1       1.206  -1.691   5.944  1.00  0.00    -0.460 OA
BRANCH  31  32
ATOM     32  C   UNL     1       2.189  -0.805   5.663  1.00  0.00     0.338 C 
ATOM     33  O   UNL     1       3.264  -1.046   5.143  1.00  0.00    -0.246 OA
BRANCH  32  34
ATOM     34  C   UNL     1       1.662   0.553   5.910  1.00  0.00     0.060 A 
ATOM     35  C   UNL     1       1.667   1.482   4.862  1.00  0.00     0.016 A 
ATOM     36  C   UNL     1       1.172   0.910   7.169  1.00  0.00     0.016 A 
ATOM     37  C   UNL     1       1.213   2.783   5.082  1.00  0.00     0.010 A 
ATOM     38  C   UNL     1       0.734   2.219   7.392  1.00  0.00     0.010 A 
ATOM     39  C   UNL     1       0.782   3.171   6.359  1.00  0.00    -0.014 A 
BRANCH  39  40
ATOM     40  C   UNL     1       0.559   4.608   6.653  1.00  0.00     0.031 A 
ATOM     41  C   UNL     1       1.682   5.395   7.278  1.00  0.00     0.074 A 
ATOM     42  C   UNL     1      -0.603   5.214   6.352  1.00  0.00     0.049 A 
ATOM     43  N   UNL     1       1.717   6.654   7.630  1.00  0.00    -0.248 NA
ATOM     44  C   UNL     1       2.931   4.660   7.538  1.00  0.00     0.031 C 
ATOM     45  C   UNL     1      -1.760   4.570   5.733  1.00  0.00     0.029 A 
ATOM     46  N   UNL     1      -1.004   6.514   6.542  1.00  0.00    -0.354 N 
ATOM     47  C   UNL     1       2.988   6.863   8.154  1.00  0.00     0.074 A 
ATOM     48  C   UNL     1       3.683   5.595   8.098  1.00  0.00     0.031 C 
ATOM     49  C   UNL     1      -2.748   5.475   5.610  1.00  0.00     0.029 A 
ATOM     50  C   UNL     1      -2.299   6.757   6.152  1.00  0.00     0.049 A 
ATOM     51  H   UNL     1      -0.417   7.208   6.921  1.00  0.00     0.167 HD
ATOM     52  C   UNL     1       3.532   8.007   8.632  1.00  0.00     0.037 A 
ATOM     53  C   UNL     1      -3.038   7.881   6.236  1.00  0.00     0.037 A 
ATOM     54  C   UNL     1       2.840   9.266   8.699  1.00  0.00     0.049 A 
ATOM     55  C   UNL     1      -2.428   9.133   6.816  1.00  0.00     0.074 A 
ATOM     56  C   UNL     1       3.309  10.483   9.162  1.00  0.00     0.029 A 
ATOM     57  N   UNL     1       1.528   9.470   8.299  1.00  0.00    -0.354 N 
ATOM     58  N   UNL     1      -1.215   9.323   7.277  1.00  0.00    -0.248 NA
ATOM     59  C   UNL     1      -3.287  10.325   6.880  1.00  0.00     0.031 C 
ATOM     60  C   UNL     1       2.268  11.414   9.077  1.00  0.00     0.029 A 
ATOM     61  C   UNL     1       1.166  10.788   8.518  1.00  0.00     0.049 A 
ATOM     62  H   UNL     1       0.941   8.778   7.916  1.00  0.00     0.167 HD
ATOM     63  C   UNL     1      -1.158  10.660   7.663  1.00  0.00     0.074 A 
ATOM     64  C   UNL     1      -2.454  11.234   7.370  1.00  0.00     0.031 C 
ATOM     65  C   UNL     1      -0.125  11.350   8.209  1.00  0.00     0.037 A 
BRANCH  52  66
ATOM     66  C   UNL     1       4.944   7.939   9.142  1.00  0.00     0.058 A 
ATOM     67  C   UNL     1       6.037   7.819   8.269  1.00  0.00     0.135 A 
ATOM     68  C   UNL     1       5.208   8.013  10.518  1.00  0.00     0.135 A 
ATOM     69  F   UNL     1       5.836   7.724   6.944  1.00  0.00    -0.206 F 
ATOM     70  C   UNL     1       7.342   7.750   8.744  1.00  0.00     0.059 A 
ATOM     71  C   UNL     1       6.507   7.968  11.015  1.00  0.00     0.059 A 
ATOM     72  F   UNL     1       4.198   8.123  11.396  1.00  0.00    -0.206 F 
ATOM     73  C   UNL     1       7.566   7.822  10.120  1.00  0.00     0.060 A 
BRANCH  73  74
ATOM     74  S   UNL     1       9.265   7.725  10.725  1.00  0.00     0.124 S 
ATOM     75  O   UNL     1       9.554   6.305  10.549  1.00  0.00    -0.237 OA
ATOM     76  O   UNL     1       9.970   8.631   9.824  1.00  0.00    -0.237 OA
ATOM     77  O   UNL     1       9.159   8.177  12.108  1.00  0.00    -0.744 OA
ENDBRANCH  73  74
ENDBRANCH  52  66
BRANCH  53  78
ATOM     78  C   UNL     1      -4.443   7.885   5.752  1.00  0.00     0.058 A 
ATOM     79  C   UNL     1      -4.803   8.577   4.587  1.00  0.00     0.135 A 
ATOM     80  C   UNL     1      -5.453   7.203   6.447  1.00  0.00     0.135 A 
ATOM     81  F   UNL     1      -3.869   9.243   3.890  1.00  0.00    -0.206 F 
ATOM     82  C   UNL     1      -6.118   8.611   4.136  1.00  0.00     0.059 A 
ATOM     83  C   UNL     1      -6.771   7.200   6.003  1.00  0.00     0.059 A 
ATOM     84  F   UNL     1      -5.156   6.515   7.560  1.00  0.00    -0.206 F 
ATOM     85  C   UNL     1      -7.095   7.918   4.852  1.00  0.00     0.060 A 
BRANCH  85  86
ATOM     86  S   UNL     1      -8.791   7.922   4.231  1.00  0.00     0.124 S 
ATOM     87  O   UNL     1      -9.236   9.259   4.607  1.00  0.00    -0.237 OA
ATOM     88  O   UNL     1      -8.593   7.692   2.803  1.00  0.00    -0.237 OA
ATOM     89  O   UNL     1      -9.414   6.819   4.956  1.00  0.00    -0.744 OA
ENDBRANCH  85  86
ENDBRANCH  53  78
BRANCH  65  90
ATOM     90  C   UNL     1      -0.334  12.813   8.489  1.00  0.00     0.058 A 
ATOM     91  C   UNL     1      -1.124  13.256   9.561  1.00  0.00     0.135 A 
ATOM     92  C   UNL     1       0.314  13.783   7.707  1.00  0.00     0.135 A 
ATOM     93  F   UNL     1      -1.767  12.370  10.338  1.00  0.00    -0.206 F 
ATOM     94  C   UNL     1      -1.285  14.611   9.833  1.00  0.00     0.059 A 
ATOM     95  C   UNL     1       0.187  15.143   7.975  1.00  0.00     0.059 A 
ATOM     96  F   UNL     1       1.092  13.412   6.678  1.00  0.00    -0.206 F 
ATOM     97  C   UNL     1      -0.626  15.548   9.033  1.00  0.00     0.060 A 
BRANCH  97  98
ATOM     98  S   UNL     1      -0.818  17.303   9.412  1.00  0.00     0.124 S 
ATOM     99  O   UNL     1      -2.156  17.569   8.893  1.00  0.00    -0.237 OA
ATOM    100  O   UNL     1      -0.685  17.328  10.865  1.00  0.00    -0.237 OA
ATOM    101  O   UNL     1       0.277  17.930   8.678  1.00  0.00    -0.744 OA
ENDBRANCH  97  98
ENDBRANCH  65  90
ENDBRANCH  39  40
ENDBRANCH  32  34
ENDBRANCH  31  32
ENDBRANCH  30  31
ENDBRANCH  29  30
ENDBRANCH  28  29
ENDBRANCH   1  28
TORSDOF 22
