REMARK SMILES Nc1c(C(=O)NCC(=O)OCCOCCOCCOC(=O)c2ccc(-c3c4nc(c(-c5c(F)cc(S(=O)(=O)[O-])cc5F)c5ccc([nH]5)c(-c5c(F)cc(S(=O)(=O)[O-])cc5F)c5nc(c(-c6c(F)cc(S(=O)(=O)[O-])cc6F)c6ccc3[nH]6)C=C5)C=C4)cc2)cnn1-c1ccccc1
REMARK SMILES IDX 14 1 13 2 12 3 11 4 10 5 8 6 9 7 7 8 6 9 4 10 5 11 3 13 2 14
REMARK SMILES IDX 90 15 88 16 89 17 1 18 91 21 92 22 96 23 93 24 95 25 94 26
REMARK SMILES IDX 15 27 16 28 17 29 18 30 19 31 20 32 21 33 22 34 23 35 87 36
REMARK SMILES IDX 24 37 86 38 25 39 26 40 27 41 80 42 28 43 85 44 79 45 81 46
REMARK SMILES IDX 29 47 84 48 78 49 77 50 30 52 64 53 43 54 63 55 44 56 47 57
REMARK SMILES IDX 62 58 82 59 45 60 46 61 61 63 83 64 48 65 31 66 32 67 41 68
REMARK SMILES IDX 33 69 34 70 40 71 42 72 35 73 36 74 37 75 38 76 39 77 65 78
REMARK SMILES IDX 66 79 75 80 67 81 68 82 74 83 76 84 69 85 70 86 71 87 72 88
REMARK SMILES IDX 73 89 49 90 50 91 59 92 51 93 52 94 58 95 60 96 53 97 54 98
REMARK SMILES IDX 55 99 56 100 57 101
REMARK H PARENT 6 12 1 19 1 20 81 51 47 62
REMARK Flexibility Score: inf
ROOT
ATOM      1  C   UNL     1       2.955   5.607  -5.868  1.00  0.00     0.188 C 
ENDROOT
BRANCH   1   2
ATOM      2  O   UNL     1       3.576   6.811  -5.486  1.00  0.00    -0.376 OA
BRANCH   2   3
ATOM      3  C   UNL     1       3.679   7.130  -4.108  1.00  0.00     0.202 C 
BRANCH   3   4
ATOM      4  C   UNL     1       2.564   6.771  -3.102  1.00  0.00     0.261 C 
BRANCH   4   5
ATOM      5  O   UNL     1       2.116   5.404  -3.149  1.00  0.00    -0.462 OA
BRANCH   5   6
ATOM      6  C   UNL     1       0.796   5.188  -3.405  1.00  0.00     0.325 C 
ATOM      7  O   UNL     1      -0.057   6.068  -3.447  1.00  0.00    -0.250 OA
BRANCH   6   8
ATOM      8  C   UNL     1       0.514   3.753  -3.876  1.00  0.00     0.239 C 
BRANCH   8   9
ATOM      9  N   UNL     1       1.425   2.719  -3.418  1.00  0.00    -0.341 N 
ATOM     10  C   UNL     1       1.422   1.922  -2.315  1.00  0.00     0.257 C 
ATOM     11  O   UNL     1       2.322   1.084  -2.228  1.00  0.00    -0.269 OA
ATOM     12  H   UNL     1       2.189   2.566  -4.019  1.00  0.00     0.164 HD
BRANCH  10  13
ATOM     13  C   UNL     1       0.387   2.036  -1.308  1.00  0.00     0.102 A 
ATOM     14  C   UNL     1       0.266   1.178  -0.223  1.00  0.00     0.140 A 
ATOM     15  N   UNL     1      -0.858   1.591   0.482  1.00  0.00    -0.217 N 
ATOM     16  C   UNL     1      -0.689   2.930  -1.139  1.00  0.00     0.151 A 
ATOM     17  N   UNL     1      -1.512   2.592  -0.151  1.00  0.00    -0.174 NA
BRANCH  14  18
ATOM     18  N   UNL     1       1.019   0.095   0.095  1.00  0.00    -0.383 N 
ATOM     19  H   UNL     1       1.803  -0.138  -0.452  1.00  0.00     0.158 HD
ATOM     20  H   UNL     1       0.780  -0.459   0.874  1.00  0.00     0.158 HD
ENDBRANCH  14  18
BRANCH  15  21
ATOM     21  C   UNL     1      -1.325   1.177   1.745  1.00  0.00     0.067 A 
ATOM     22  C   UNL     1      -2.707   1.141   1.968  1.00  0.00     0.028 A 
ATOM     23  C   UNL     1      -0.424   0.915   2.781  1.00  0.00     0.028 A 
ATOM     24  C   UNL     1      -3.192   0.822   3.231  1.00  0.00     0.002 A 
ATOM     25  C   UNL     1      -0.919   0.640   4.055  1.00  0.00     0.002 A 
ATOM     26  C   UNL     1      -2.298   0.587   4.276  1.00  0.00     0.000 A 
ENDBRANCH  15  21
ENDBRANCH  10  13
ENDBRANCH   8   9
ENDBRANCH   6   8
ENDBRANCH   5   6
ENDBRANCH   4   5
ENDBRANCH   3   4
ENDBRANCH   2   3
ENDBRANCH   1   2
BRANCH   1  27
ATOM     27  C   UNL     1       3.560   4.257  -5.468  1.00  0.00     0.188 C 
BRANCH  27  28
ATOM     28  O   UNL     1       4.128   4.017  -4.198  1.00  0.00    -0.376 OA
BRANCH  28  29
ATOM     29  C   UNL     1       5.473   4.303  -3.824  1.00  0.00     0.202 C 
BRANCH  29  30
ATOM     30  C   UNL     1       6.645   4.524  -4.782  1.00  0.00     0.261 C 
BRANCH  30  31
ATOM     31  O   UNL     1       6.300   4.588  -6.141  1.00  0.00    -0.460 OA
BRANCH  31  32
ATOM     32  C   UNL     1       6.167   3.375  -6.713  1.00  0.00     0.338 C 
ATOM     33  O   UNL     1       6.212   2.283  -6.162  1.00  0.00    -0.246 OA
BRANCH  32  34
ATOM     34  C   UNL     1       5.892   3.591  -8.132  1.00  0.00     0.060 A 
ATOM     35  C   UNL     1       5.549   2.468  -8.881  1.00  0.00     0.016 A 
ATOM     36  C   UNL     1       6.259   4.814  -8.712  1.00  0.00     0.016 A 
ATOM     37  C   UNL     1       5.916   2.466 -10.200  1.00  0.00     0.010 A 
ATOM     38  C   UNL     1       6.643   4.804 -10.021  1.00  0.00     0.010 A 
ATOM     39  C   UNL     1       6.585   3.590 -10.694  1.00  0.00    -0.014 A 
BRANCH  39  40
ATOM     40  C   UNL     1       7.216   3.487 -11.983  1.00  0.00     0.031 A 
ATOM     41  C   UNL     1       6.226   3.544 -13.068  1.00  0.00     0.074 A 
ATOM     42  C   UNL     1       8.556   3.429 -12.107  1.00  0.00     0.049 A 
ATOM     43  N   UNL     1       5.805   2.558 -13.786  1.00  0.00    -0.248 NA
ATOM     44  C   UNL     1       5.424   4.772 -13.196  1.00  0.00     0.031 C 
ATOM     45  C   UNL     1       9.577   3.605 -11.069  1.00  0.00     0.029 A 
ATOM     46  N   UNL     1       9.296   3.284 -13.235  1.00  0.00    -0.354 N 
ATOM     47  C   UNL     1       4.899   3.131 -14.665  1.00  0.00     0.074 A 
ATOM     48  C   UNL     1       4.511   4.390 -14.089  1.00  0.00     0.031 C 
ATOM     49  C   UNL     1      10.783   3.788 -11.656  1.00  0.00     0.029 A 
ATOM     50  C   UNL     1      10.641   3.612 -13.090  1.00  0.00     0.049 A 
ATOM     51  H   UNL     1       8.913   2.972 -14.086  1.00  0.00     0.167 HD
ATOM     52  C   UNL     1       4.829   2.693 -15.949  1.00  0.00     0.037 A 
ATOM     53  C   UNL     1      11.523   3.800 -14.108  1.00  0.00     0.037 A 
ATOM     54  C   UNL     1       5.400   1.374 -16.084  1.00  0.00     0.049 A 
ATOM     55  C   UNL     1      10.955   3.105 -15.298  1.00  0.00     0.074 A 
ATOM     56  C   UNL     1       5.155   0.152 -15.487  1.00  0.00     0.029 A 
ATOM     57  N   UNL     1       6.656   1.278 -16.634  1.00  0.00    -0.354 N 
ATOM     58  N   UNL     1      10.814   1.808 -15.375  1.00  0.00    -0.248 NA
ATOM     59  C   UNL     1      10.086   3.874 -16.178  1.00  0.00     0.031 C 
ATOM     60  C   UNL     1       6.439  -0.440 -15.304  1.00  0.00     0.029 A 
ATOM     61  C   UNL     1       7.393   0.410 -15.866  1.00  0.00     0.049 A 
ATOM     62  H   UNL     1       6.973   1.750 -17.438  1.00  0.00     0.167 HD
ATOM     63  C   UNL     1       9.570   1.617 -15.962  1.00  0.00     0.074 A 
ATOM     64  C   UNL     1       9.202   2.926 -16.500  1.00  0.00     0.031 C 
ATOM     65  C   UNL     1       8.828   0.500 -15.696  1.00  0.00     0.037 A 
BRANCH  52  66
ATOM     66  C   UNL     1       4.638   3.634 -17.110  1.00  0.00     0.058 A 
ATOM     67  C   UNL     1       4.351   3.106 -18.381  1.00  0.00     0.135 A 
ATOM     68  C   UNL     1       4.979   5.008 -17.081  1.00  0.00     0.135 A 
ATOM     69  F   UNL     1       4.051   1.805 -18.525  1.00  0.00    -0.206 F 
ATOM     70  C   UNL     1       4.437   3.876 -19.540  1.00  0.00     0.059 A 
ATOM     71  C   UNL     1       5.007   5.807 -18.213  1.00  0.00     0.059 A 
ATOM     72  F   UNL     1       5.401   5.626 -15.972  1.00  0.00    -0.206 F 
ATOM     73  C   UNL     1       4.769   5.225 -19.444  1.00  0.00     0.060 A 
BRANCH  73  74
ATOM     74  S   UNL     1       4.944   6.207 -20.939  1.00  0.00     0.124 S 
ATOM     75  O   UNL     1       6.149   5.632 -21.524  1.00  0.00    -0.237 OA
ATOM     76  O   UNL     1       3.693   5.921 -21.633  1.00  0.00    -0.237 OA
ATOM     77  O   UNL     1       5.074   7.570 -20.432  1.00  0.00    -0.744 OA
ENDBRANCH  73  74
ENDBRANCH  52  66
BRANCH  53  78
ATOM     78  C   UNL     1      12.568   4.858 -14.223  1.00  0.00     0.058 A 
ATOM     79  C   UNL     1      13.508   4.843 -15.272  1.00  0.00     0.135 A 
ATOM     80  C   UNL     1      12.489   6.058 -13.486  1.00  0.00     0.135 A 
ATOM     81  F   UNL     1      13.641   3.752 -16.042  1.00  0.00    -0.206 F 
ATOM     82  C   UNL     1      14.280   5.965 -15.604  1.00  0.00     0.059 A 
ATOM     83  C   UNL     1      13.253   7.183 -13.792  1.00  0.00     0.059 A 
ATOM     84  F   UNL     1      11.594   6.209 -12.499  1.00  0.00    -0.206 F 
ATOM     85  C   UNL     1      14.128   7.141 -14.869  1.00  0.00     0.060 A 
BRANCH  85  86
ATOM     86  S   UNL     1      14.980   8.646 -15.399  1.00  0.00     0.124 S 
ATOM     87  O   UNL     1      16.370   8.334 -15.085  1.00  0.00    -0.237 OA
ATOM     88  O   UNL     1      14.646   8.709 -16.818  1.00  0.00    -0.237 OA
ATOM     89  O   UNL     1      14.373   9.688 -14.574  1.00  0.00    -0.744 OA
ENDBRANCH  85  86
ENDBRANCH  53  78
BRANCH  65  90
ATOM     90  C   UNL     1       9.509  -0.654 -14.998  1.00  0.00     0.058 A 
ATOM     91  C   UNL     1      10.048  -0.606 -13.698  1.00  0.00     0.135 A 
ATOM     92  C   UNL     1       9.501  -1.903 -15.636  1.00  0.00     0.135 A 
ATOM     93  F   UNL     1       9.998   0.520 -12.972  1.00  0.00    -0.206 F 
ATOM     94  C   UNL     1      10.604  -1.735 -13.087  1.00  0.00     0.059 A 
ATOM     95  C   UNL     1      10.018  -3.047 -15.034  1.00  0.00     0.059 A 
ATOM     96  F   UNL     1       8.943  -2.034 -16.850  1.00  0.00    -0.206 F 
ATOM     97  C   UNL     1      10.587  -2.952 -13.767  1.00  0.00     0.060 A 
BRANCH  97  98
ATOM     98  S   UNL     1      11.268  -4.423 -12.969  1.00  0.00     0.124 S 
ATOM     99  O   UNL     1      12.699  -4.139 -12.971  1.00  0.00    -0.237 OA
ATOM    100  O   UNL     1      10.619  -4.404 -11.661  1.00  0.00    -0.237 OA
ATOM    101  O   UNL     1      10.848  -5.513 -13.846  1.00  0.00    -0.744 OA
ENDBRANCH  97  98
ENDBRANCH  65  90
ENDBRANCH  39  40
ENDBRANCH  32  34
ENDBRANCH  31  32
ENDBRANCH  30  31
ENDBRANCH  29  30
ENDBRANCH  28  29
ENDBRANCH  27  28
ENDBRANCH   1  27
TORSDOF 24
