REMARK SMILES O=C(OCCOCCOCCOC(=O)[C@@H]1[C@H](C(=O)Nc2ccc(Cn3cncn3)cc2)[C@@H]2C=C[C@H]1CC2)c1ccc(-c2c3nc(c(-c4c(F)cc(S(=O)(=O)[O-])cc4F)c4ccc([nH]4)c(-c4c(F)cc(S(=O)(=O)[O-])cc4F)c4nc(c(-c5c(F)cc(S(=O)(=O)[O-])cc5F)c5ccc2[nH]5)C=C4)C=C3)cc1
REMARK SMILES IDX 8 1 7 2 6 3 5 4 4 5 3 6 2 7 1 8 38 9 39 10 103 11 40 12
REMARK SMILES IDX 102 13 41 14 42 15 43 16 96 17 44 18 101 19 95 20 97 21
REMARK SMILES IDX 45 22 100 23 94 24 93 25 46 27 80 28 59 29 79 30 60 31 63 32
REMARK SMILES IDX 78 33 98 34 61 35 62 36 77 38 99 39 64 40 47 41 48 42 57 43
REMARK SMILES IDX 49 44 50 45 56 46 58 47 51 48 52 49 53 50 54 51 55 52 81 53
REMARK SMILES IDX 82 54 91 55 83 56 84 57 90 58 92 59 85 60 86 61 87 62 88 63
REMARK SMILES IDX 89 64 65 65 66 66 75 67 67 68 68 69 74 70 76 71 69 72 70 73
REMARK SMILES IDX 71 74 72 75 73 76 9 77 10 78 11 79 12 80 13 81 14 82 15 83
REMARK SMILES IDX 16 84 35 85 32 86 34 87 36 88 33 89 37 90 17 91 18 92 19 93
REMARK SMILES IDX 20 95 21 96 31 97 22 98 30 99 23 100 24 101 25 102 26 103
REMARK SMILES IDX 29 104 27 105 28 106
REMARK H PARENT 97 26 63 37 19 94
REMARK Flexibility Score: inf
ROOT
ATOM      1  C   UNL     1       2.923  -2.977  -0.310  1.00  0.00     0.188 C 
ENDROOT
BRANCH   1   2
ATOM      2  C   UNL     1       3.405  -1.842   0.598  1.00  0.00     0.188 C 
BRANCH   2   3
ATOM      3  O   UNL     1       4.354  -0.967  -0.041  1.00  0.00    -0.376 OA
BRANCH   3   4
ATOM      4  C   UNL     1       5.557  -0.790   0.703  1.00  0.00     0.202 C 
BRANCH   4   5
ATOM      5  C   UNL     1       5.480   0.206   1.865  1.00  0.00     0.261 C 
BRANCH   5   6
ATOM      6  O   UNL     1       4.202   0.293   2.500  1.00  0.00    -0.460 OA
BRANCH   6   7
ATOM      7  C   UNL     1       3.084   0.906   2.068  1.00  0.00     0.338 C 
ATOM      8  O   UNL     1       2.006   0.441   2.447  1.00  0.00    -0.246 OA
BRANCH   7   9
ATOM      9  C   UNL     1       3.033   2.153   1.251  1.00  0.00     0.060 A 
ATOM     10  C   UNL     1       4.069   2.921   0.722  1.00  0.00     0.016 A 
ATOM     11  C   UNL     1       1.716   2.594   1.015  1.00  0.00     0.016 A 
ATOM     12  C   UNL     1       3.785   4.223   0.296  1.00  0.00     0.010 A 
ATOM     13  C   UNL     1       1.443   3.741   0.324  1.00  0.00     0.010 A 
ATOM     14  C   UNL     1       2.456   4.654   0.256  1.00  0.00    -0.014 A 
BRANCH  14  15
ATOM     15  C   UNL     1       2.038   6.034   0.085  1.00  0.00     0.031 A 
ATOM     16  C   UNL     1       2.396   6.523  -1.258  1.00  0.00     0.074 A 
ATOM     17  C   UNL     1       1.325   6.713   1.025  1.00  0.00     0.049 A 
ATOM     18  N   UNL     1       3.517   7.083  -1.562  1.00  0.00    -0.248 NA
ATOM     19  C   UNL     1       1.628   6.079  -2.433  1.00  0.00     0.031 C 
ATOM     20  C   UNL     1       0.728   6.239   2.284  1.00  0.00     0.029 A 
ATOM     21  N   UNL     1       0.974   8.039   1.036  1.00  0.00    -0.354 N 
ATOM     22  C   UNL     1       3.411   7.403  -2.904  1.00  0.00     0.074 A 
ATOM     23  C   UNL     1       2.400   6.526  -3.430  1.00  0.00     0.031 C 
ATOM     24  C   UNL     1      -0.090   7.190   2.808  1.00  0.00     0.029 A 
ATOM     25  C   UNL     1       0.035   8.404   2.025  1.00  0.00     0.049 A 
ATOM     26  H   UNL     1       1.350   8.689   0.400  1.00  0.00     0.167 HD
ATOM     27  C   UNL     1       3.921   8.586  -3.344  1.00  0.00     0.037 A 
ATOM     28  C   UNL     1      -0.524   9.644   2.196  1.00  0.00     0.037 A 
ATOM     29  C   UNL     1       4.761   9.172  -2.319  1.00  0.00     0.049 A 
ATOM     30  C   UNL     1       0.410  10.606   1.535  1.00  0.00     0.074 A 
ATOM     31  C   UNL     1       5.908   8.776  -1.660  1.00  0.00     0.029 A 
ATOM     32  N   UNL     1       4.167  10.123  -1.521  1.00  0.00    -0.354 N 
ATOM     33  N   UNL     1       1.625  10.817   1.974  1.00  0.00    -0.248 NA
ATOM     34  C   UNL     1       0.207  10.827   0.109  1.00  0.00     0.031 C 
ATOM     35  C   UNL     1       5.704   9.158  -0.301  1.00  0.00     0.029 A 
ATOM     36  C   UNL     1       4.516   9.886  -0.216  1.00  0.00     0.049 A 
ATOM     37  H   UNL     1       3.587  10.853  -1.836  1.00  0.00     0.167 HD
ATOM     38  C   UNL     1       2.424  10.742   0.840  1.00  0.00     0.074 A 
ATOM     39  C   UNL     1       1.483  10.758  -0.286  1.00  0.00     0.031 C 
ATOM     40  C   UNL     1       3.728  10.336   0.913  1.00  0.00     0.037 A 
BRANCH  27  41
ATOM     41  C   UNL     1       3.337   9.425  -4.451  1.00  0.00     0.058 A 
ATOM     42  C   UNL     1       4.047  10.571  -4.866  1.00  0.00     0.135 A 
ATOM     43  C   UNL     1       2.009   9.328  -4.920  1.00  0.00     0.135 A 
ATOM     44  F   UNL     1       5.316  10.768  -4.474  1.00  0.00    -0.206 F 
ATOM     45  C   UNL     1       3.463  11.575  -5.632  1.00  0.00     0.059 A 
ATOM     46  C   UNL     1       1.420  10.298  -5.725  1.00  0.00     0.059 A 
ATOM     47  F   UNL     1       1.188   8.336  -4.559  1.00  0.00    -0.206 F 
ATOM     48  C   UNL     1       2.147  11.431  -6.055  1.00  0.00     0.060 A 
BRANCH  48  49
ATOM     49  S   UNL     1       1.392  12.731  -7.044  1.00  0.00     0.124 S 
ATOM     50  O   UNL     1       1.352  13.840  -6.085  1.00  0.00    -0.237 OA
ATOM     51  O   UNL     1       2.361  12.871  -8.130  1.00  0.00    -0.237 OA
ATOM     52  O   UNL     1       0.110  12.173  -7.419  1.00  0.00    -0.744 OA
ENDBRANCH  48  49
ENDBRANCH  27  41
BRANCH  28  53
ATOM     53  C   UNL     1      -1.963   9.999   2.450  1.00  0.00     0.058 A 
ATOM     54  C   UNL     1      -2.397  11.320   2.714  1.00  0.00     0.135 A 
ATOM     55  C   UNL     1      -2.985   9.086   2.131  1.00  0.00     0.135 A 
ATOM     56  F   UNL     1      -1.502  12.276   3.012  1.00  0.00    -0.206 F 
ATOM     57  C   UNL     1      -3.747  11.714   2.616  1.00  0.00     0.059 A 
ATOM     58  C   UNL     1      -4.330   9.454   2.025  1.00  0.00     0.059 A 
ATOM     59  F   UNL     1      -2.692   7.816   1.819  1.00  0.00    -0.206 F 
ATOM     60  C   UNL     1      -4.706  10.774   2.243  1.00  0.00     0.060 A 
BRANCH  60  61
ATOM     61  S   UNL     1      -6.420  11.284   1.924  1.00  0.00     0.124 S 
ATOM     62  O   UNL     1      -6.892  11.630   3.260  1.00  0.00    -0.237 OA
ATOM     63  O   UNL     1      -6.248  12.401   1.000  1.00  0.00    -0.237 OA
ATOM     64  O   UNL     1      -7.025  10.089   1.342  1.00  0.00    -0.744 OA
ENDBRANCH  60  61
ENDBRANCH  28  53
BRANCH  40  65
ATOM     65  C   UNL     1       4.377  10.220   2.272  1.00  0.00     0.058 A 
ATOM     66  C   UNL     1       4.039   9.282   3.268  1.00  0.00     0.135 A 
ATOM     67  C   UNL     1       5.516  11.004   2.500  1.00  0.00     0.135 A 
ATOM     68  F   UNL     1       3.027   8.421   3.087  1.00  0.00    -0.206 F 
ATOM     69  C   UNL     1       4.779   9.164   4.452  1.00  0.00     0.059 A 
ATOM     70  C   UNL     1       6.282  10.884   3.653  1.00  0.00     0.059 A 
ATOM     71  F   UNL     1       5.931  11.869   1.561  1.00  0.00    -0.206 F 
ATOM     72  C   UNL     1       5.899   9.976   4.635  1.00  0.00     0.060 A 
BRANCH  72  73
ATOM     73  S   UNL     1       6.881   9.821   6.144  1.00  0.00     0.124 S 
ATOM     74  O   UNL     1       5.964  10.325   7.160  1.00  0.00    -0.237 OA
ATOM     75  O   UNL     1       7.162   8.390   6.195  1.00  0.00    -0.237 OA
ATOM     76  O   UNL     1       8.045  10.666   5.882  1.00  0.00    -0.744 OA
ENDBRANCH  72  73
ENDBRANCH  40  65
ENDBRANCH  14  15
ENDBRANCH   7   9
ENDBRANCH   6   7
ENDBRANCH   5   6
ENDBRANCH   4   5
ENDBRANCH   3   4
ENDBRANCH   2   3
ENDBRANCH   1   2
BRANCH   1  77
ATOM     77  O   UNL     1       3.814  -4.065  -0.483  1.00  0.00    -0.376 OA
BRANCH  77  78
ATOM     78  C   UNL     1       4.860  -3.790  -1.421  1.00  0.00     0.202 C 
BRANCH  78  79
ATOM     79  C   UNL     1       4.486  -3.765  -2.938  1.00  0.00     0.261 C 
BRANCH  79  80
ATOM     80  O   UNL     1       3.851  -2.555  -3.475  1.00  0.00    -0.463 OA
BRANCH  80  81
ATOM     81  C   UNL     1       2.822  -2.649  -4.383  1.00  0.00     0.310 C 
ATOM     82  O   UNL     1       2.304  -3.722  -4.685  1.00  0.00    -0.252 OA
BRANCH  81  83
ATOM     83  C   UNL     1       2.389  -1.309  -5.092  1.00  0.00     0.119 C 
ATOM     84  C   UNL     1       3.091  -0.004  -4.710  1.00  0.00     0.100 C 
ATOM     85  C   UNL     1       0.858  -0.950  -5.349  1.00  0.00     0.026 C 
ATOM     86  C   UNL     1       2.228   1.248  -5.056  1.00  0.00     0.025 C 
ATOM     87  C   UNL     1       0.248   0.105  -4.417  1.00  0.00    -0.027 C 
ATOM     88  C   UNL     1       0.820  -0.141  -6.677  1.00  0.00     0.009 C 
ATOM     89  C   UNL     1       0.964   1.229  -4.249  1.00  0.00    -0.027 C 
ATOM     90  C   UNL     1       1.692   1.148  -6.513  1.00  0.00     0.009 C 
BRANCH  84  91
ATOM     91  C   UNL     1       3.624   0.028  -3.297  1.00  0.00     0.228 C 
ATOM     92  O   UNL     1       4.813   0.338  -3.131  1.00  0.00    -0.274 OA
ATOM     93  N   UNL     1       2.880  -0.216  -2.186  1.00  0.00    -0.326 N 
ATOM     94  H   UNL     1       3.427  -0.170  -1.368  1.00  0.00     0.169 HD
BRANCH  93  95
ATOM     95  C   UNL     1       1.534  -0.518  -1.893  1.00  0.00     0.041 A 
ATOM     96  C   UNL     1       0.922   0.388  -1.054  1.00  0.00     0.026 A 
ATOM     97  C   UNL     1       0.802  -1.664  -2.220  1.00  0.00     0.026 A 
ATOM     98  C   UNL     1      -0.366   0.205  -0.561  1.00  0.00     0.008 A 
ATOM     99  C   UNL     1      -0.499  -1.872  -1.740  1.00  0.00     0.008 A 
ATOM    100  C   UNL     1      -1.096  -0.929  -0.907  1.00  0.00    -0.026 A 
BRANCH 100 101
ATOM    101  C   UNL     1      -2.490  -1.117  -0.384  1.00  0.00     0.181 C 
BRANCH 101 102
ATOM    102  N   UNL     1      -2.503  -1.742   0.924  1.00  0.00    -0.249 N 
ATOM    103  C   UNL     1      -1.983  -1.268   2.091  1.00  0.00     0.220 A 
ATOM    104  N   UNL     1      -3.189  -2.886   1.133  1.00  0.00    -0.160 NA
ATOM    105  N   UNL     1      -2.308  -2.074   3.075  1.00  0.00    -0.224 NA
ATOM    106  C   UNL     1      -3.037  -3.042   2.451  1.00  0.00     0.246 A 
ENDBRANCH 101 102
ENDBRANCH 100 101
ENDBRANCH  93  95
ENDBRANCH  84  91
ENDBRANCH  81  83
ENDBRANCH  80  81
ENDBRANCH  79  80
ENDBRANCH  78  79
ENDBRANCH  77  78
ENDBRANCH   1  77
TORSDOF 24
