REMARK SMILES CC[C@H](C)[C@H](NC(=O)[C@@H]1CCC[NH2+]1)C(=O)OCCOCCOCCOC(=O)c1ccc(-c2c3nc(c(-c4c(F)cc(S(=O)(=O)[O-])cc4F)c4ccc([nH]4)c(-c4c(F)cc(S(=O)(=O)[O-])cc4F)c4nc(c(-c5c(F)cc(S(=O)(=O)[O-])cc5F)c5ccc2[nH]5)C=C4)C=C3)cc1
REMARK SMILES IDX 21 1 20 2 19 3 18 4 17 5 16 6 14 7 15 8 5 9 3 10 4 11 2 12
REMARK SMILES IDX 1 13 6 14 7 15 8 17 9 18 10 19 13 20 11 21 12 22 22 25 23 26
REMARK SMILES IDX 24 27 25 28 26 29 27 30 28 31 29 32 93 33 30 34 92 35 31 36
REMARK SMILES IDX 32 37 33 38 86 39 34 40 91 41 85 42 87 43 35 44 90 45 84 46
REMARK SMILES IDX 83 47 36 49 70 50 49 51 69 52 50 53 53 54 68 55 88 56 51 57
REMARK SMILES IDX 52 58 67 60 89 61 54 62 37 63 38 64 47 65 39 66 40 67 46 68
REMARK SMILES IDX 48 69 41 70 42 71 43 72 44 73 45 74 71 75 72 76 81 77 73 78
REMARK SMILES IDX 74 79 80 80 82 81 75 82 76 83 77 84 78 85 79 86 55 87 56 88
REMARK SMILES IDX 65 89 57 90 58 91 64 92 66 93 59 94 60 95 61 96 62 97 63 98
REMARK H PARENT 6 16 13 23 13 24 87 48 53 59
REMARK Flexibility Score: inf
ROOT
ATOM      1  C   UNL     1       1.774  -0.601  -7.380  1.00  0.00     0.188 C 
ENDROOT
BRANCH   1   2
ATOM      2  C   UNL     1       1.374   0.851  -7.688  1.00  0.00     0.188 C 
BRANCH   2   3
ATOM      3  O   UNL     1       2.464   1.652  -8.143  1.00  0.00    -0.376 OA
BRANCH   3   4
ATOM      4  C   UNL     1       3.414   2.014  -7.139  1.00  0.00     0.202 C 
BRANCH   4   5
ATOM      5  C   UNL     1       2.939   3.139  -6.212  1.00  0.00     0.261 C 
BRANCH   5   6
ATOM      6  O   UNL     1       2.300   2.639  -5.020  1.00  0.00    -0.462 OA
BRANCH   6   7
ATOM      7  C   UNL     1       1.413   3.502  -4.443  1.00  0.00     0.328 C 
ATOM      8  O   UNL     1       1.026   4.543  -4.966  1.00  0.00    -0.250 OA
BRANCH   7   9
ATOM      9  C   UNL     1       1.077   3.146  -2.970  1.00  0.00     0.195 C 
BRANCH   9  10
ATOM     10  C   UNL     1       1.756   4.212  -2.067  1.00  0.00     0.019 C 
ATOM     11  C   UNL     1       1.505   3.970  -0.576  1.00  0.00     0.010 C 
BRANCH  10  12
ATOM     12  C   UNL     1       3.248   4.461  -2.373  1.00  0.00     0.002 C 
ATOM     13  C   UNL     1       4.168   3.255  -2.266  1.00  0.00     0.004 C 
ENDBRANCH  10  12
ENDBRANCH   9  10
BRANCH   9  14
ATOM     14  N   UNL     1       1.316   1.775  -2.508  1.00  0.00    -0.337 N 
ATOM     15  C   UNL     1       0.579   0.666  -2.855  1.00  0.00     0.278 C 
ATOM     16  H   UNL     1       2.072   1.635  -1.894  1.00  0.00     0.164 HD
ATOM     17  O   UNL     1       0.682  -0.346  -2.165  1.00  0.00    -0.268 OA
BRANCH  15  18
ATOM     18  C   UNL     1      -0.243   0.773  -4.137  1.00  0.00     0.272 C 
ATOM     19  C   UNL     1      -1.543   1.543  -4.046  1.00  0.00     0.081 C 
ATOM     20  N   UNL     1      -0.674  -0.516  -4.672  1.00  0.00    -0.336 N 
ATOM     21  C   UNL     1      -2.384   0.982  -5.178  1.00  0.00     0.068 C 
ATOM     22  C   UNL     1      -1.569  -0.154  -5.760  1.00  0.00     0.261 C 
ATOM     23  H   UNL     1      -1.165  -1.060  -3.962  1.00  0.00     0.346 HD
ATOM     24  H   UNL     1       0.106  -1.099  -4.978  1.00  0.00     0.346 HD
ENDBRANCH  15  18
ENDBRANCH   9  14
ENDBRANCH   7   9
ENDBRANCH   6   7
ENDBRANCH   5   6
ENDBRANCH   4   5
ENDBRANCH   3   4
ENDBRANCH   2   3
ENDBRANCH   1   2
BRANCH   1  25
ATOM     25  O   UNL     1       2.101  -0.736  -5.995  1.00  0.00    -0.376 OA
BRANCH  25  26
ATOM     26  C   UNL     1       2.664  -1.999  -5.617  1.00  0.00     0.202 C 
BRANCH  26  27
ATOM     27  C   UNL     1       1.884  -3.251  -6.044  1.00  0.00     0.261 C 
BRANCH  27  28
ATOM     28  O   UNL     1       0.470  -3.092  -5.845  1.00  0.00    -0.460 OA
BRANCH  28  29
ATOM     29  C   UNL     1      -0.151  -3.900  -4.950  1.00  0.00     0.338 C 
ATOM     30  O   UNL     1       0.364  -4.735  -4.228  1.00  0.00    -0.246 OA
BRANCH  29  31
ATOM     31  C   UNL     1      -1.595  -3.573  -5.000  1.00  0.00     0.060 A 
ATOM     32  C   UNL     1      -2.220  -3.030  -3.874  1.00  0.00     0.016 A 
ATOM     33  C   UNL     1      -2.300  -3.697  -6.206  1.00  0.00     0.016 A 
ATOM     34  C   UNL     1      -3.533  -2.544  -3.977  1.00  0.00     0.010 A 
ATOM     35  C   UNL     1      -3.622  -3.239  -6.297  1.00  0.00     0.010 A 
ATOM     36  C   UNL     1      -4.246  -2.643  -5.188  1.00  0.00    -0.014 A 
BRANCH  36  37
ATOM     37  C   UNL     1      -5.712  -2.374  -5.205  1.00  0.00     0.031 A 
ATOM     38  C   UNL     1      -6.595  -3.494  -4.742  1.00  0.00     0.074 A 
ATOM     39  C   UNL     1      -6.272  -1.213  -5.604  1.00  0.00     0.049 A 
ATOM     40  N   UNL     1      -7.896  -3.539  -4.646  1.00  0.00    -0.248 NA
ATOM     41  C   UNL     1      -5.910  -4.743  -4.367  1.00  0.00     0.031 C 
ATOM     42  C   UNL     1      -5.556  -0.064  -6.138  1.00  0.00     0.029 A 
ATOM     43  N   UNL     1      -7.588  -0.802  -5.612  1.00  0.00    -0.354 N 
ATOM     44  C   UNL     1      -8.185  -4.820  -4.201  1.00  0.00     0.074 A 
ATOM     45  C   UNL     1      -6.931  -5.526  -4.067  1.00  0.00     0.031 C 
ATOM     46  C   UNL     1      -6.415   0.953  -6.335  1.00  0.00     0.029 A 
ATOM     47  C   UNL     1      -7.771   0.499  -6.033  1.00  0.00     0.049 A 
ATOM     48  H   UNL     1      -8.333  -1.386  -5.340  1.00  0.00     0.167 HD
ATOM     49  C   UNL     1      -9.389  -5.373  -3.936  1.00  0.00     0.037 A 
ATOM     50  C   UNL     1      -8.899   1.227  -6.189  1.00  0.00     0.037 A 
ATOM     51  C   UNL     1     -10.645  -4.708  -4.124  1.00  0.00     0.049 A 
ATOM     52  C   UNL     1     -10.237   0.570  -5.930  1.00  0.00     0.074 A 
ATOM     53  C   UNL     1     -11.918  -5.210  -3.932  1.00  0.00     0.029 A 
ATOM     54  N   UNL     1     -10.787  -3.402  -4.567  1.00  0.00    -0.354 N 
ATOM     55  N   UNL     1     -10.493  -0.639  -5.490  1.00  0.00    -0.248 NA
ATOM     56  C   UNL     1     -11.441   1.363  -6.226  1.00  0.00     0.031 C 
ATOM     57  C   UNL     1     -12.835  -4.218  -4.295  1.00  0.00     0.029 A 
ATOM     58  C   UNL     1     -12.130  -3.084  -4.665  1.00  0.00     0.049 A 
ATOM     59  H   UNL     1     -10.044  -2.793  -4.780  1.00  0.00     0.167 HD
ATOM     60  C   UNL     1     -11.880  -0.744  -5.443  1.00  0.00     0.074 A 
ATOM     61  C   UNL     1     -12.412   0.528  -5.881  1.00  0.00     0.031 C 
ATOM     62  C   UNL     1     -12.645  -1.803  -5.081  1.00  0.00     0.037 A 
BRANCH  49  63
ATOM     63  C   UNL     1      -9.370  -6.794  -3.468  1.00  0.00     0.058 A 
ATOM     64  C   UNL     1      -8.926  -7.129  -2.179  1.00  0.00     0.135 A 
ATOM     65  C   UNL     1      -9.721  -7.833  -4.341  1.00  0.00     0.135 A 
ATOM     66  F   UNL     1      -8.540  -6.168  -1.325  1.00  0.00    -0.206 F 
ATOM     67  C   UNL     1      -8.796  -8.454  -1.783  1.00  0.00     0.059 A 
ATOM     68  C   UNL     1      -9.624  -9.165  -3.957  1.00  0.00     0.059 A 
ATOM     69  F   UNL     1     -10.130  -7.559  -5.590  1.00  0.00    -0.206 F 
ATOM     70  C   UNL     1      -9.140  -9.464  -2.683  1.00  0.00     0.060 A 
BRANCH  70  71
ATOM     71  S   UNL     1      -8.935 -11.181  -2.169  1.00  0.00     0.124 S 
ATOM     72  O   UNL     1      -7.487 -11.338  -2.255  1.00  0.00    -0.237 OA
ATOM     73  O   UNL     1      -9.494 -11.173  -0.821  1.00  0.00    -0.237 OA
ATOM     74  O   UNL     1      -9.708 -11.924  -3.159  1.00  0.00    -0.744 OA
ENDBRANCH  70  71
ENDBRANCH  49  63
BRANCH  50  75
ATOM     75  C   UNL     1      -8.852   2.645  -6.660  1.00  0.00     0.058 A 
ATOM     76  C   UNL     1      -9.285   3.699  -5.837  1.00  0.00     0.135 A 
ATOM     77  C   UNL     1      -8.444   2.973  -7.962  1.00  0.00     0.135 A 
ATOM     78  F   UNL     1      -9.712   3.444  -4.590  1.00  0.00    -0.206 F 
ATOM     79  C   UNL     1      -9.336   5.016  -6.292  1.00  0.00     0.059 A 
ATOM     80  C   UNL     1      -8.457   4.285  -8.431  1.00  0.00     0.059 A 
ATOM     81  F   UNL     1      -8.023   2.010  -8.797  1.00  0.00    -0.206 F 
ATOM     82  C   UNL     1      -8.921   5.298  -7.594  1.00  0.00     0.060 A 
BRANCH  82  83
ATOM     83  S   UNL     1      -8.965   7.010  -8.173  1.00  0.00     0.124 S 
ATOM     84  O   UNL     1     -10.393   7.212  -8.388  1.00  0.00    -0.237 OA
ATOM     85  O   UNL     1      -8.380   7.732  -7.048  1.00  0.00    -0.237 OA
ATOM     86  O   UNL     1      -8.143   6.976  -9.380  1.00  0.00    -0.744 OA
ENDBRANCH  82  83
ENDBRANCH  50  75
BRANCH  62  87
ATOM     87  C   UNL     1     -14.139  -1.634  -5.093  1.00  0.00     0.058 A 
ATOM     88  C   UNL     1     -14.873  -1.613  -6.288  1.00  0.00     0.135 A 
ATOM     89  C   UNL     1     -14.852  -1.591  -3.883  1.00  0.00     0.135 A 
ATOM     90  F   UNL     1     -14.239  -1.649  -7.471  1.00  0.00    -0.206 F 
ATOM     91  C   UNL     1     -16.263  -1.547  -6.285  1.00  0.00     0.059 A 
ATOM     92  C   UNL     1     -16.242  -1.550  -3.856  1.00  0.00     0.059 A 
ATOM     93  F   UNL     1     -14.198  -1.621  -2.711  1.00  0.00    -0.206 F 
ATOM     94  C   UNL     1     -16.939  -1.522  -5.063  1.00  0.00     0.060 A 
BRANCH  94  95
ATOM     95  S   UNL     1     -18.745  -1.500  -5.069  1.00  0.00     0.124 S 
ATOM     96  O   UNL     1     -19.022  -0.118  -5.447  1.00  0.00    -0.237 OA
ATOM     97  O   UNL     1     -19.068  -2.509  -6.074  1.00  0.00    -0.237 OA
ATOM     98  O   UNL     1     -19.094  -1.858  -3.697  1.00  0.00    -0.744 OA
ENDBRANCH  94  95
ENDBRANCH  62  87
ENDBRANCH  36  37
ENDBRANCH  29  31
ENDBRANCH  28  29
ENDBRANCH  27  28
ENDBRANCH  26  27
ENDBRANCH  25  26
ENDBRANCH   1  25
TORSDOF 24
