REMARK SMILES C[NH2+][C@]1(C(=O)OCCOCCOCCOC(=O)c2ccc(-c3c4nc(c(-c5c(F)cc(S(=O)(=O)[O-])cc5F)c5ccc([nH]5)c(-c5c(F)cc(S(=O)(=O)[O-])cc5F)c5nc(c(-c6c(F)cc(S(=O)(=O)[O-])cc6F)c6ccc3[nH]6)C=C5)C=C4)cc2)CC[C@H]([NH+](CC2CC2)CC2CC2)C1
REMARK SMILES IDX 10 1 9 2 8 3 7 4 6 5 4 6 5 7 3 8 84 9 96 10 85 11 86 12 2 13
REMARK SMILES IDX 1 14 87 17 88 19 89 20 90 21 91 22 92 23 93 24 94 25 95 26
REMARK SMILES IDX 11 27 12 28 13 29 14 30 15 31 16 32 17 33 18 34 19 35 83 36
REMARK SMILES IDX 20 37 82 38 21 39 22 40 23 41 76 42 24 43 81 44 75 45 77 46
REMARK SMILES IDX 25 47 80 48 74 49 73 50 26 52 60 53 39 54 59 55 40 56 43 57
REMARK SMILES IDX 58 58 78 59 41 60 42 61 57 63 79 64 44 65 27 66 28 67 37 68
REMARK SMILES IDX 29 69 30 70 36 71 38 72 31 73 32 74 33 75 34 76 35 77 61 78
REMARK SMILES IDX 62 79 71 80 63 81 64 82 70 83 72 84 65 85 66 86 67 87 68 88
REMARK SMILES IDX 69 89 45 90 46 91 55 92 47 93 48 94 54 95 56 96 49 97 50 98
REMARK SMILES IDX 51 99 52 100 53 101
REMARK H PARENT 2 15 2 16 87 18 77 51 43 62
REMARK Flexibility Score: inf
ROOT
ATOM      1  C   UNL     1       1.994   1.630  -0.752  1.00  0.00     0.188 C 
ENDROOT
BRANCH   1   2
ATOM      2  O   UNL     1       3.244   0.947  -0.690  1.00  0.00    -0.376 OA
BRANCH   2   3
ATOM      3  C   UNL     1       3.579   0.031  -1.723  1.00  0.00     0.202 C 
BRANCH   3   4
ATOM      4  C   UNL     1       2.597  -1.110  -2.036  1.00  0.00     0.261 C 
BRANCH   4   5
ATOM      5  O   UNL     1       1.203  -0.739  -2.049  1.00  0.00    -0.459 OA
BRANCH   5   6
ATOM      6  C   UNL     1       0.383  -1.444  -1.222  1.00  0.00     0.368 C 
ATOM      7  O   UNL     1       0.754  -2.434  -0.597  1.00  0.00    -0.245 OA
BRANCH   6   8
ATOM      8  C   UNL     1      -1.087  -0.934  -1.198  1.00  0.00     0.200 C 
ATOM      9  C   UNL     1      -1.503   0.255  -2.075  1.00  0.00     0.087 C 
ATOM     10  C   UNL     1      -1.908  -2.040  -1.890  1.00  0.00     0.146 C 
ATOM     11  C   UNL     1      -3.017   0.096  -2.237  1.00  0.00     0.072 C 
ATOM     12  C   UNL     1      -3.269  -1.427  -2.299  1.00  0.00     0.191 C 
BRANCH   8  13
ATOM     13  N   UNL     1      -1.627  -0.642   0.159  1.00  0.00    -0.334 N 
ATOM     14  C   UNL     1      -0.728  -0.714   1.294  1.00  0.00     0.331 C 
ATOM     15  H   UNL     1      -2.006   0.305   0.134  1.00  0.00     0.347 HD
ATOM     16  H   UNL     1      -2.300  -1.391   0.326  1.00  0.00     0.347 HD
ENDBRANCH   8  13
BRANCH  12  17
ATOM     17  N   UNL     1      -4.370  -2.006  -1.475  1.00  0.00    -0.332 N 
ATOM     18  H   UNL     1      -4.091  -2.018  -0.494  1.00  0.00     0.348 HD
BRANCH  17  19
ATOM     19  C   UNL     1      -4.625  -3.391  -1.952  1.00  0.00     0.265 C 
BRANCH  19  20
ATOM     20  C   UNL     1      -4.970  -4.523  -1.030  1.00  0.00     0.044 C 
ATOM     21  C   UNL     1      -4.231  -4.734   0.269  1.00  0.00     0.010 C 
ATOM     22  C   UNL     1      -5.720  -4.546   0.282  1.00  0.00     0.010 C 
ENDBRANCH  19  20
ENDBRANCH  17  19
BRANCH  17  23
ATOM     23  C   UNL     1      -5.601  -1.186  -1.556  1.00  0.00     0.265 C 
BRANCH  23  24
ATOM     24  C   UNL     1      -6.485  -1.484  -0.388  1.00  0.00     0.044 C 
ATOM     25  C   UNL     1      -6.038  -1.004   0.978  1.00  0.00     0.010 C 
ATOM     26  C   UNL     1      -7.291  -0.454   0.366  1.00  0.00     0.010 C 
ENDBRANCH  23  24
ENDBRANCH  17  23
ENDBRANCH  12  17
ENDBRANCH   6   8
ENDBRANCH   5   6
ENDBRANCH   4   5
ENDBRANCH   3   4
ENDBRANCH   2   3
ENDBRANCH   1   2
BRANCH   1  27
ATOM     27  C   UNL     1       1.452   2.082  -2.118  1.00  0.00     0.188 C 
BRANCH  27  28
ATOM     28  O   UNL     1       2.416   2.016  -3.145  1.00  0.00    -0.376 OA
BRANCH  28  29
ATOM     29  C   UNL     1       2.634   3.183  -3.903  1.00  0.00     0.202 C 
BRANCH  29  30
ATOM     30  C   UNL     1       3.224   4.383  -3.147  1.00  0.00     0.261 C 
BRANCH  30  31
ATOM     31  O   UNL     1       2.678   4.660  -1.843  1.00  0.00    -0.460 OA
BRANCH  31  32
ATOM     32  C   UNL     1       1.487   5.299  -1.793  1.00  0.00     0.338 C 
ATOM     33  O   UNL     1       0.816   5.655  -2.751  1.00  0.00    -0.246 OA
BRANCH  32  34
ATOM     34  C   UNL     1       1.016   5.307  -0.385  1.00  0.00     0.060 A 
ATOM     35  C   UNL     1      -0.207   4.699  -0.065  1.00  0.00     0.016 A 
ATOM     36  C   UNL     1       1.773   5.919   0.616  1.00  0.00     0.016 A 
ATOM     37  C   UNL     1      -0.692   4.733   1.249  1.00  0.00     0.010 A 
ATOM     38  C   UNL     1       1.278   5.968   1.925  1.00  0.00     0.010 A 
ATOM     39  C   UNL     1       0.027   5.406   2.245  1.00  0.00    -0.014 A 
BRANCH  39  40
ATOM     40  C   UNL     1      -0.593   5.700   3.567  1.00  0.00     0.031 A 
ATOM     41  C   UNL     1      -1.161   7.078   3.800  1.00  0.00     0.074 A 
ATOM     42  C   UNL     1      -0.642   4.786   4.555  1.00  0.00     0.049 A 
ATOM     43  N   UNL     1      -1.639   7.609   4.895  1.00  0.00    -0.248 NA
ATOM     44  C   UNL     1      -1.182   7.978   2.635  1.00  0.00     0.031 C 
ATOM     45  C   UNL     1      -0.176   3.405   4.457  1.00  0.00     0.029 A 
ATOM     46  N   UNL     1      -1.095   4.897   5.849  1.00  0.00    -0.354 N 
ATOM     47  C   UNL     1      -2.003   8.909   4.558  1.00  0.00     0.074 A 
ATOM     48  C   UNL     1      -1.664   9.093   3.163  1.00  0.00     0.031 C 
ATOM     49  C   UNL     1      -0.346   2.802   5.648  1.00  0.00     0.029 A 
ATOM     50  C   UNL     1      -0.896   3.764   6.604  1.00  0.00     0.049 A 
ATOM     51  H   UNL     1      -1.521   5.711   6.203  1.00  0.00     0.167 HD
ATOM     52  C   UNL     1      -2.572   9.861   5.335  1.00  0.00     0.037 A 
ATOM     53  C   UNL     1      -1.104   3.538   7.919  1.00  0.00     0.037 A 
ATOM     54  C   UNL     1      -2.911   9.679   6.723  1.00  0.00     0.049 A 
ATOM     55  C   UNL     1      -1.669   4.638   8.787  1.00  0.00     0.074 A 
ATOM     56  C   UNL     1      -3.508  10.581   7.587  1.00  0.00     0.029 A 
ATOM     57  N   UNL     1      -2.676   8.524   7.453  1.00  0.00    -0.354 N 
ATOM     58  N   UNL     1      -2.024   5.857   8.452  1.00  0.00    -0.248 NA
ATOM     59  C   UNL     1      -1.861   4.332  10.213  1.00  0.00     0.031 C 
ATOM     60  C   UNL     1      -3.580   9.992   8.853  1.00  0.00     0.029 A 
ATOM     61  C   UNL     1      -3.090   8.700   8.764  1.00  0.00     0.049 A 
ATOM     62  H   UNL     1      -2.274   7.700   7.094  1.00  0.00     0.167 HD
ATOM     63  C   UNL     1      -2.513   6.447   9.616  1.00  0.00     0.074 A 
ATOM     64  C   UNL     1      -2.415   5.450  10.661  1.00  0.00     0.031 C 
ATOM     65  C   UNL     1      -3.002   7.699   9.800  1.00  0.00     0.037 A 
BRANCH  52  66
ATOM     66  C   UNL     1      -2.840  11.204   4.709  1.00  0.00     0.058 A 
ATOM     67  C   UNL     1      -3.840  11.386   3.741  1.00  0.00     0.135 A 
ATOM     68  C   UNL     1      -2.106  12.333   5.111  1.00  0.00     0.135 A 
ATOM     69  F   UNL     1      -4.559  10.339   3.306  1.00  0.00    -0.206 F 
ATOM     70  C   UNL     1      -4.085  12.632   3.173  1.00  0.00     0.059 A 
ATOM     71  C   UNL     1      -2.355  13.595   4.580  1.00  0.00     0.059 A 
ATOM     72  F   UNL     1      -1.137  12.216   6.032  1.00  0.00    -0.206 F 
ATOM     73  C   UNL     1      -3.337  13.731   3.601  1.00  0.00     0.060 A 
BRANCH  73  74
ATOM     74  S   UNL     1      -3.672  15.342   2.858  1.00  0.00     0.124 S 
ATOM     75  O   UNL     1      -3.135  15.159   1.513  1.00  0.00    -0.237 OA
ATOM     76  O   UNL     1      -5.125  15.433   2.952  1.00  0.00    -0.237 OA
ATOM     77  O   UNL     1      -2.932  16.270   3.707  1.00  0.00    -0.744 OA
ENDBRANCH  73  74
ENDBRANCH  52  66
BRANCH  53  78
ATOM     78  C   UNL     1      -0.760   2.216   8.514  1.00  0.00     0.058 A 
ATOM     79  C   UNL     1      -1.758   1.353   8.993  1.00  0.00     0.135 A 
ATOM     80  C   UNL     1       0.574   1.795   8.631  1.00  0.00     0.135 A 
ATOM     81  F   UNL     1      -3.048   1.716   8.925  1.00  0.00    -0.206 F 
ATOM     82  C   UNL     1      -1.447   0.130   9.579  1.00  0.00     0.059 A 
ATOM     83  C   UNL     1       0.909   0.563   9.186  1.00  0.00     0.059 A 
ATOM     84  F   UNL     1       1.569   2.580   8.188  1.00  0.00    -0.206 F 
ATOM     85  C   UNL     1      -0.109  -0.259   9.666  1.00  0.00     0.060 A 
BRANCH  85  86
ATOM     86  S   UNL     1       0.279  -1.871  10.383  1.00  0.00     0.124 S 
ATOM     87  O   UNL     1      -0.011  -1.645  11.794  1.00  0.00    -0.237 OA
ATOM     88  O   UNL     1      -0.646  -2.751   9.674  1.00  0.00    -0.237 OA
ATOM     89  O   UNL     1       1.688  -2.057  10.051  1.00  0.00    -0.744 OA
ENDBRANCH  85  86
ENDBRANCH  53  78
BRANCH  65  90
ATOM     90  C   UNL     1      -3.519   8.061  11.168  1.00  0.00     0.058 A 
ATOM     91  C   UNL     1      -2.662   8.257  12.262  1.00  0.00     0.135 A 
ATOM     92  C   UNL     1      -4.894   8.277  11.372  1.00  0.00     0.135 A 
ATOM     93  F   UNL     1      -1.340   8.063  12.128  1.00  0.00    -0.206 F 
ATOM     94  C   UNL     1      -3.149   8.629  13.513  1.00  0.00     0.059 A 
ATOM     95  C   UNL     1      -5.399   8.678  12.605  1.00  0.00     0.059 A 
ATOM     96  F   UNL     1      -5.761   8.117  10.359  1.00  0.00    -0.206 F 
ATOM     97  C   UNL     1      -4.519   8.841  13.674  1.00  0.00     0.060 A 
BRANCH  97  98
ATOM     98  S   UNL     1      -5.133   9.357  15.292  1.00  0.00     0.124 S 
ATOM     99  O   UNL     1      -4.987   8.130  16.068  1.00  0.00    -0.237 OA
ATOM    100  O   UNL     1      -4.220  10.440  15.641  1.00  0.00    -0.237 OA
ATOM    101  O   UNL     1      -6.508   9.767  15.021  1.00  0.00    -0.744 OA
ENDBRANCH  97  98
ENDBRANCH  65  90
ENDBRANCH  39  40
ENDBRANCH  32  34
ENDBRANCH  31  32
ENDBRANCH  30  31
ENDBRANCH  29  30
ENDBRANCH  28  29
ENDBRANCH  27  28
ENDBRANCH   1  27
TORSDOF 26
