REMARK SMILES O=C(Cc1ccn(-c2ccccc2F)c1)OCCOCCOCCOC(=O)c1ccc(-c2c3nc(c(-c4c(F)cc(S(=O)(=O)[O-])cc4F)c4ccc([nH]4)c(-c4c(F)cc(S(=O)(=O)[O-])cc4F)c4nc(c(-c5c(F)cc(S(=O)(=O)[O-])cc5F)c5ccc2[nH]5)C=C4)C=C3)cc1
REMARK SMILES IDX 21 1 20 2 19 3 18 4 17 5 16 6 2 7 1 8 3 9 4 10 5 11 15 12
REMARK SMILES IDX 6 13 7 14 8 15 9 16 13 17 10 18 12 19 14 20 11 21 22 22
REMARK SMILES IDX 23 23 24 24 25 25 26 26 27 27 28 28 29 29 93 30 30 31 92 32
REMARK SMILES IDX 31 33 32 34 33 35 86 36 34 37 91 38 85 39 87 40 35 41 90 42
REMARK SMILES IDX 84 43 83 44 36 46 70 47 49 48 69 49 50 50 53 51 68 52 88 53
REMARK SMILES IDX 51 54 52 55 67 57 89 58 54 59 37 60 38 61 47 62 39 63 40 64
REMARK SMILES IDX 46 65 48 66 41 67 42 68 43 69 44 70 45 71 71 72 72 73 81 74
REMARK SMILES IDX 73 75 74 76 80 77 82 78 75 79 76 80 77 81 78 82 79 83 55 84
REMARK SMILES IDX 56 85 65 86 57 87 58 88 64 89 66 90 59 91 60 92 61 93 62 94
REMARK SMILES IDX 63 95
REMARK H PARENT 87 45 53 56
REMARK Flexibility Score: inf
ROOT
ATOM      1  C   UNL     1       2.346  -1.646   1.916  1.00  0.00     0.188 C 
ENDROOT
BRANCH   1   2
ATOM      2  C   UNL     1       3.154  -2.019   0.657  1.00  0.00     0.188 C 
BRANCH   2   3
ATOM      3  O   UNL     1       4.504  -1.588   0.649  1.00  0.00    -0.376 OA
BRANCH   3   4
ATOM      4  C   UNL     1       4.802  -0.433  -0.117  1.00  0.00     0.202 C 
BRANCH   4   5
ATOM      5  C   UNL     1       4.202   0.861   0.426  1.00  0.00     0.261 C 
BRANCH   5   6
ATOM      6  O   UNL     1       2.763   0.989   0.356  1.00  0.00    -0.463 OA
BRANCH   6   7
ATOM      7  C   UNL     1       1.951   1.083  -0.717  1.00  0.00     0.310 C 
ATOM      8  O   UNL     1       0.764   1.366  -0.547  1.00  0.00    -0.252 OA
BRANCH   7   9
ATOM      9  C   UNL     1       2.457   0.740  -2.093  1.00  0.00     0.159 C 
BRANCH   9  10
ATOM     10  C   UNL     1       3.610   1.549  -2.578  1.00  0.00    -0.019 A 
ATOM     11  C   UNL     1       3.882   2.916  -2.326  1.00  0.00     0.024 A 
ATOM     12  C   UNL     1       4.635   1.091  -3.386  1.00  0.00     0.095 A 
ATOM     13  C   UNL     1       5.103   3.204  -2.893  1.00  0.00     0.091 A 
ATOM     14  N   UNL     1       5.559   2.096  -3.580  1.00  0.00    -0.321 N 
BRANCH  14  15
ATOM     15  C   UNL     1       6.759   2.014  -4.330  1.00  0.00     0.081 A 
ATOM     16  C   UNL     1       7.836   2.857  -4.021  1.00  0.00     0.030 A 
ATOM     17  C   UNL     1       6.883   1.113  -5.393  1.00  0.00     0.147 A 
ATOM     18  C   UNL     1       9.013   2.794  -4.771  1.00  0.00     0.002 A 
ATOM     19  C   UNL     1       8.049   1.069  -6.154  1.00  0.00     0.041 A 
ATOM     20  F   UNL     1       5.870   0.317  -5.766  1.00  0.00    -0.205 F 
ATOM     21  C   UNL     1       9.116   1.909  -5.844  1.00  0.00     0.003 A 
ENDBRANCH  14  15
ENDBRANCH   9  10
ENDBRANCH   7   9
ENDBRANCH   6   7
ENDBRANCH   5   6
ENDBRANCH   4   5
ENDBRANCH   3   4
ENDBRANCH   2   3
ENDBRANCH   1   2
BRANCH   1  22
ATOM     22  O   UNL     1       2.917  -1.536   3.217  1.00  0.00    -0.376 OA
BRANCH  22  23
ATOM     23  C   UNL     1       4.299  -1.730   3.446  1.00  0.00     0.202 C 
BRANCH  23  24
ATOM     24  C   UNL     1       4.747  -3.178   3.641  1.00  0.00     0.261 C 
BRANCH  24  25
ATOM     25  O   UNL     1       4.423  -4.064   2.572  1.00  0.00    -0.460 OA
BRANCH  25  26
ATOM     26  C   UNL     1       3.220  -4.649   2.702  1.00  0.00     0.338 C 
ATOM     27  O   UNL     1       2.308  -4.337   3.473  1.00  0.00    -0.246 OA
BRANCH  26  28
ATOM     28  C   UNL     1       3.118  -5.817   1.836  1.00  0.00     0.060 A 
ATOM     29  C   UNL     1       1.860  -6.142   1.315  1.00  0.00     0.016 A 
ATOM     30  C   UNL     1       4.196  -6.709   1.780  1.00  0.00     0.016 A 
ATOM     31  C   UNL     1       1.644  -7.419   0.833  1.00  0.00     0.010 A 
ATOM     32  C   UNL     1       3.966  -7.999   1.340  1.00  0.00     0.010 A 
ATOM     33  C   UNL     1       2.680  -8.358   0.913  1.00  0.00    -0.014 A 
BRANCH  33  34
ATOM     34  C   UNL     1       2.390  -9.765   0.586  1.00  0.00     0.031 A 
ATOM     35  C   UNL     1       2.705 -10.121  -0.859  1.00  0.00     0.074 A 
ATOM     36  C   UNL     1       1.879 -10.509   1.612  1.00  0.00     0.049 A 
ATOM     37  N   UNL     1       2.256 -11.100  -1.581  1.00  0.00    -0.248 NA
ATOM     38  C   UNL     1       3.591  -9.223  -1.649  1.00  0.00     0.031 C 
ATOM     39  C   UNL     1       1.617  -9.978   2.967  1.00  0.00     0.029 A 
ATOM     40  N   UNL     1       1.478 -11.823   1.752  1.00  0.00    -0.354 N 
ATOM     41  C   UNL     1       2.938 -11.055  -2.810  1.00  0.00     0.074 A 
ATOM     42  C   UNL     1       3.661  -9.820  -2.840  1.00  0.00     0.031 C 
ATOM     43  C   UNL     1       1.043 -10.913   3.748  1.00  0.00     0.029 A 
ATOM     44  C   UNL     1       0.908 -12.152   3.010  1.00  0.00     0.049 A 
ATOM     45  H   UNL     1       1.581 -12.485   1.031  1.00  0.00     0.167 HD
ATOM     46  C   UNL     1       2.964 -12.092  -3.690  1.00  0.00     0.037 A 
ATOM     47  C   UNL     1       0.336 -13.326   3.425  1.00  0.00     0.037 A 
ATOM     48  C   UNL     1       2.203 -13.192  -3.202  1.00  0.00     0.049 A 
ATOM     49  C   UNL     1       0.586 -14.296   2.341  1.00  0.00     0.074 A 
ATOM     50  C   UNL     1       0.857 -13.432  -3.139  1.00  0.00     0.029 A 
ATOM     51  N   UNL     1       2.857 -14.098  -2.400  1.00  0.00    -0.354 N 
ATOM     52  N   UNL     1       1.743 -14.812   2.047  1.00  0.00    -0.248 NA
ATOM     53  C   UNL     1      -0.528 -14.663   1.456  1.00  0.00     0.031 C 
ATOM     54  C   UNL     1       0.696 -14.255  -2.006  1.00  0.00     0.029 A 
ATOM     55  C   UNL     1       1.953 -14.566  -1.474  1.00  0.00     0.049 A 
ATOM     56  H   UNL     1       3.801 -14.364  -2.475  1.00  0.00     0.167 HD
ATOM     57  C   UNL     1       1.550 -15.290   0.771  1.00  0.00     0.074 A 
ATOM     58  C   UNL     1       0.124 -15.447   0.602  1.00  0.00     0.031 C 
ATOM     59  C   UNL     1       2.463 -15.020  -0.196  1.00  0.00     0.037 A 
BRANCH  46  60
ATOM     60  C   UNL     1       3.791 -12.307  -4.919  1.00  0.00     0.058 A 
ATOM     61  C   UNL     1       5.161 -12.020  -4.984  1.00  0.00     0.135 A 
ATOM     62  C   UNL     1       3.266 -13.131  -5.941  1.00  0.00     0.135 A 
ATOM     63  F   UNL     1       5.749 -11.252  -4.057  1.00  0.00    -0.206 F 
ATOM     64  C   UNL     1       5.983 -12.589  -5.959  1.00  0.00     0.059 A 
ATOM     65  C   UNL     1       4.072 -13.735  -6.900  1.00  0.00     0.059 A 
ATOM     66  F   UNL     1       1.954 -13.417  -5.983  1.00  0.00    -0.206 F 
ATOM     67  C   UNL     1       5.437 -13.478  -6.885  1.00  0.00     0.060 A 
BRANCH  67  68
ATOM     68  S   UNL     1       6.536 -14.396  -7.986  1.00  0.00     0.124 S 
ATOM     69  O   UNL     1       6.849 -13.390  -8.994  1.00  0.00    -0.237 OA
ATOM     70  O   UNL     1       7.631 -14.769  -7.097  1.00  0.00    -0.237 OA
ATOM     71  O   UNL     1       5.705 -15.506  -8.444  1.00  0.00    -0.744 OA
ENDBRANCH  67  68
ENDBRANCH  46  60
BRANCH  47  72
ATOM     72  C   UNL     1      -0.541 -13.789   4.577  1.00  0.00     0.058 A 
ATOM     73  C   UNL     1      -1.164 -15.069   4.514  1.00  0.00     0.135 A 
ATOM     74  C   UNL     1      -0.943 -13.025   5.683  1.00  0.00     0.135 A 
ATOM     75  F   UNL     1      -0.767 -16.003   3.638  1.00  0.00    -0.206 F 
ATOM     76  C   UNL     1      -2.242 -15.452   5.309  1.00  0.00     0.059 A 
ATOM     77  C   UNL     1      -1.996 -13.409   6.533  1.00  0.00     0.059 A 
ATOM     78  F   UNL     1      -0.340 -11.875   5.997  1.00  0.00    -0.206 F 
ATOM     79  C   UNL     1      -2.692 -14.586   6.286  1.00  0.00     0.060 A 
BRANCH  79  80
ATOM     80  S   UNL     1      -4.183 -15.013   7.204  1.00  0.00     0.124 S 
ATOM     81  O   UNL     1      -5.225 -14.552   6.290  1.00  0.00    -0.237 OA
ATOM     82  O   UNL     1      -4.073 -16.461   7.352  1.00  0.00    -0.237 OA
ATOM     83  O   UNL     1      -4.045 -14.249   8.440  1.00  0.00    -0.744 OA
ENDBRANCH  79  80
ENDBRANCH  47  72
BRANCH  59  84
ATOM     84  C   UNL     1       3.873 -14.822   0.319  1.00  0.00     0.058 A 
ATOM     85  C   UNL     1       4.506 -13.570   0.397  1.00  0.00     0.135 A 
ATOM     86  C   UNL     1       4.591 -15.912   0.835  1.00  0.00     0.135 A 
ATOM     87  F   UNL     1       3.888 -12.473  -0.041  1.00  0.00    -0.206 F 
ATOM     88  C   UNL     1       5.785 -13.401   0.930  1.00  0.00     0.059 A 
ATOM     89  C   UNL     1       5.869 -15.771   1.386  1.00  0.00     0.059 A 
ATOM     90  F   UNL     1       4.051 -17.141   0.804  1.00  0.00    -0.206 F 
ATOM     91  C   UNL     1       6.460 -14.509   1.428  1.00  0.00     0.060 A 
BRANCH  91  92
ATOM     92  S   UNL     1       8.122 -14.277   2.100  1.00  0.00     0.124 S 
ATOM     93  O   UNL     1       8.809 -13.602   1.003  1.00  0.00    -0.237 OA
ATOM     94  O   UNL     1       7.869 -13.456   3.280  1.00  0.00    -0.237 OA
ATOM     95  O   UNL     1       8.575 -15.639   2.372  1.00  0.00    -0.744 OA
ENDBRANCH  91  92
ENDBRANCH  59  84
ENDBRANCH  33  34
ENDBRANCH  26  28
ENDBRANCH  25  26
ENDBRANCH  24  25
ENDBRANCH  23  24
ENDBRANCH  22  23
ENDBRANCH   1  22
TORSDOF 22
