REMARK SMILES Cc1cccc(CS[C@@H]2CC[C@]([NH3+])(C(=O)OCCOCCOCCOC(=O)c3ccc(-c4c5nc(c(-c6c(F)cc(S(=O)(=O)[O-])cc6F)c6ccc([nH]6)c(-c6c(F)cc(S(=O)(=O)[O-])cc6F)c6nc(c(-c7c(F)cc(S(=O)(=O)[O-])cc7F)c7ccc4[nH]7)C=C6)C=C5)cc3)C2)c1
REMARK SMILES IDX 20 1 19 2 18 3 17 4 16 5 14 6 15 7 12 8 9 9 10 10 94 11
REMARK SMILES IDX 11 12 8 13 7 14 6 15 1 16 2 17 3 18 95 19 4 20 5 21 13 22
REMARK SMILES IDX 21 26 22 27 23 28 24 29 25 30 26 31 27 32 28 33 29 34 93 35
REMARK SMILES IDX 30 36 92 37 31 38 32 39 33 40 86 41 34 42 91 43 85 44 87 45
REMARK SMILES IDX 35 46 90 47 84 48 83 49 36 51 70 52 49 53 69 54 50 55 53 56
REMARK SMILES IDX 68 57 88 58 51 59 52 60 67 62 89 63 54 64 37 65 38 66 47 67
REMARK SMILES IDX 39 68 40 69 46 70 48 71 41 72 42 73 43 74 44 75 45 76 71 77
REMARK SMILES IDX 72 78 81 79 73 80 74 81 80 82 82 83 75 84 76 85 77 86 78 87
REMARK SMILES IDX 79 88 55 89 56 90 65 91 57 92 58 93 64 94 66 95 59 96 60 97
REMARK SMILES IDX 61 98 62 99 63 100
REMARK H PARENT 13 23 13 24 13 25 87 50 53 61
REMARK Flexibility Score: inf
ROOT
ATOM      1  C   UNL     1       4.926   5.675  -5.288  1.00  0.00     0.188 C 
ENDROOT
BRANCH   1   2
ATOM      2  O   UNL     1       5.196   4.354  -4.782  1.00  0.00    -0.376 OA
BRANCH   2   3
ATOM      3  C   UNL     1       4.861   3.094  -5.415  1.00  0.00     0.202 C 
BRANCH   3   4
ATOM      4  C   UNL     1       3.574   1.897  -5.268  1.00  0.00     0.261 C 
BRANCH   4   5
ATOM      5  O   UNL     1       1.735   1.903  -4.971  1.00  0.00    -0.459 OA
BRANCH   5   6
ATOM      6  C   UNL     1       0.681   2.457  -4.048  1.00  0.00     0.368 C 
ATOM      7  O   UNL     1       0.852   3.337  -3.190  1.00  0.00    -0.245 OA
BRANCH   6   8
ATOM      8  C   UNL     1      -0.807   2.074  -4.059  1.00  0.00     0.193 C 
ATOM      9  C   UNL     1      -2.784   2.113  -2.521  1.00  0.00     0.054 C 
ATOM     10  C   UNL     1      -2.608   0.705  -3.096  1.00  0.00     0.022 C 
ATOM     11  C   UNL     1      -1.441   2.763  -2.737  1.00  0.00     0.095 C 
ATOM     12  C   UNL     1      -1.196   0.643  -3.729  1.00  0.00     0.082 C 
BRANCH   9  13
ATOM     13  S   UNL     1      -3.568   2.313  -0.859  1.00  0.00    -0.154 SA
BRANCH  13  14
ATOM     14  C   UNL     1      -2.262   1.904   0.379  1.00  0.00     0.105 C 
BRANCH  14  15
ATOM     15  C   UNL     1      -1.849   0.453   0.465  1.00  0.00    -0.038 A 
ATOM     16  C   UNL     1       1.082  -1.650   1.763  1.00  0.00     0.044 C 
ATOM     17  C   UNL     1      -0.180  -1.228   1.074  1.00  0.00    -0.051 A 
ATOM     18  C   UNL     1      -1.022  -2.231   0.592  1.00  0.00     0.003 A 
ATOM     19  C   UNL     1      -0.588   0.113   0.986  1.00  0.00     0.008 A 
ATOM     20  C   UNL     1      -2.302  -1.917   0.159  1.00  0.00     0.001 A 
ATOM     21  C   UNL     1      -2.728  -0.591   0.152  1.00  0.00     0.004 A 
ENDBRANCH  14  15
ENDBRANCH  13  14
ENDBRANCH   9  13
BRANCH   8  22
ATOM     22  N   UNL     1      -1.476   2.666  -5.235  1.00  0.00    -0.343 N 
ATOM     23  H   UNL     1      -2.463   2.406  -5.232  1.00  0.00     0.345 HD
ATOM     24  H   UNL     1      -1.036   2.320  -6.087  1.00  0.00     0.345 HD
ATOM     25  H   UNL     1      -1.393   3.682  -5.198  1.00  0.00     0.345 HD
ENDBRANCH   8  22
ENDBRANCH   6   8
ENDBRANCH   5   6
ENDBRANCH   4   5
ENDBRANCH   3   4
ENDBRANCH   2   3
ENDBRANCH   1   2
BRANCH   1  26
ATOM     26  C   UNL     1       4.994   5.957  -6.768  1.00  0.00     0.188 C 
BRANCH  26  27
ATOM     27  O   UNL     1       4.559   4.800  -7.441  1.00  0.00    -0.376 OA
BRANCH  27  28
ATOM     28  C   UNL     1       4.883   4.715  -8.801  1.00  0.00     0.202 C 
BRANCH  28  29
ATOM     29  C   UNL     1       4.079   5.712  -9.631  1.00  0.00     0.261 C 
BRANCH  29  30
ATOM     30  O   UNL     1       2.670   5.379  -9.729  1.00  0.00    -0.460 OA
BRANCH  30  31
ATOM     31  C   UNL     1       1.748   6.101  -8.975  1.00  0.00     0.338 C 
ATOM     32  O   UNL     1       0.995   6.892  -9.462  1.00  0.00    -0.246 OA
BRANCH  31  33
ATOM     33  C   UNL     1       1.613   5.511  -7.603  1.00  0.00     0.060 A 
ATOM     34  C   UNL     1       1.380   6.126  -6.366  1.00  0.00     0.016 A 
ATOM     35  C   UNL     1       1.801   4.184  -7.556  1.00  0.00     0.016 A 
ATOM     36  C   UNL     1       1.704   5.501  -5.073  1.00  0.00     0.010 A 
ATOM     37  C   UNL     1       2.187   3.663  -6.335  1.00  0.00     0.010 A 
ATOM     38  C   UNL     1       2.313   4.247  -4.986  1.00  0.00    -0.014 A 
BRANCH  38  39
ATOM     39  C   UNL     1       3.025   3.488  -3.475  1.00  0.00     0.031 A 
ATOM     40  C   UNL     1       2.831   1.801  -2.782  1.00  0.00     0.074 A 
ATOM     41  C   UNL     1       3.685   4.245  -2.567  1.00  0.00     0.049 A 
ATOM     42  N   UNL     1       2.781   1.484  -1.504  1.00  0.00    -0.248 NA
ATOM     43  C   UNL     1       2.513   0.448  -3.494  1.00  0.00     0.031 C 
ATOM     44  C   UNL     1       4.560   3.747  -1.503  1.00  0.00     0.029 A 
ATOM     45  N   UNL     1       3.751   5.633  -2.428  1.00  0.00    -0.354 N 
ATOM     46  C   UNL     1       2.696   0.072  -1.397  1.00  0.00     0.074 A 
ATOM     47  C   UNL     1       2.161  -0.421  -2.586  1.00  0.00     0.031 C 
ATOM     48  C   UNL     1       4.881   4.767  -0.693  1.00  0.00     0.029 A 
ATOM     49  C   UNL     1       4.050   5.889  -1.086  1.00  0.00     0.049 A 
ATOM     50  H   UNL     1       3.614   6.302  -3.138  1.00  0.00     0.167 HD
ATOM     51  C   UNL     1       3.372  -0.675  -0.481  1.00  0.00     0.037 A 
ATOM     52  C   UNL     1       3.201   6.601  -0.294  1.00  0.00     0.037 A 
ATOM     53  C   UNL     1       3.933   0.213   0.506  1.00  0.00     0.049 A 
ATOM     54  C   UNL     1       2.853   5.850   0.961  1.00  0.00     0.074 A 
ATOM     55  C   UNL     1       5.189   0.651   0.869  1.00  0.00     0.029 A 
ATOM     56  N   UNL     1       3.041   1.093   1.092  1.00  0.00    -0.354 N 
ATOM     57  N   UNL     1       3.112   4.579   1.110  1.00  0.00    -0.248 NA
ATOM     58  C   UNL     1       2.245   6.424   2.156  1.00  0.00     0.031 C 
ATOM     59  C   UNL     1       5.020   1.778   1.734  1.00  0.00     0.029 A 
ATOM     60  C   UNL     1       3.663   2.001   1.894  1.00  0.00     0.049 A 
ATOM     61  H   UNL     1       2.067   1.065   0.947  1.00  0.00     0.167 HD
ATOM     62  C   UNL     1       2.709   4.156   2.335  1.00  0.00     0.074 A 
ATOM     63  C   UNL     1       2.183   5.350   2.966  1.00  0.00     0.031 C 
ATOM     64  C   UNL     1       2.803   2.849   2.696  1.00  0.00     0.037 A 
BRANCH  51  65
ATOM     65  C   UNL     1       3.651  -2.188  -0.656  1.00  0.00     0.058 A 
ATOM     66  C   UNL     1       4.814  -2.776  -0.125  1.00  0.00     0.135 A 
ATOM     67  C   UNL     1       2.809  -3.126  -1.324  1.00  0.00     0.135 A 
ATOM     68  F   UNL     1       5.690  -2.052   0.583  1.00  0.00    -0.206 F 
ATOM     69  C   UNL     1       5.133  -4.138  -0.275  1.00  0.00     0.059 A 
ATOM     70  C   UNL     1       3.154  -4.462  -1.578  1.00  0.00     0.059 A 
ATOM     71  F   UNL     1       1.550  -2.823  -1.670  1.00  0.00    -0.206 F 
ATOM     72  C   UNL     1       4.308  -4.973  -1.018  1.00  0.00     0.060 A 
BRANCH  72  73
ATOM     73  S   UNL     1       4.698  -6.731  -1.159  1.00  0.00     0.124 S 
ATOM     74  O   UNL     1       6.101  -6.711  -1.562  1.00  0.00    -0.237 OA
ATOM     75  O   UNL     1       4.432  -7.205   0.194  1.00  0.00    -0.237 OA
ATOM     76  O   UNL     1       3.771  -7.207  -2.183  1.00  0.00    -0.744 OA
ENDBRANCH  72  73
ENDBRANCH  51  65
BRANCH  52  77
ATOM     77  C   UNL     1       2.417   7.617  -1.060  1.00  0.00     0.058 A 
ATOM     78  C   UNL     1       3.164   8.642  -1.685  1.00  0.00     0.135 A 
ATOM     79  C   UNL     1       1.133   7.370  -1.573  1.00  0.00     0.135 A 
ATOM     80  F   UNL     1       4.404   8.924  -1.250  1.00  0.00    -0.206 F 
ATOM     81  C   UNL     1       2.735   9.277  -2.845  1.00  0.00     0.059 A 
ATOM     82  C   UNL     1       0.665   8.025  -2.727  1.00  0.00     0.059 A 
ATOM     83  F   UNL     1       0.370   6.404  -1.042  1.00  0.00    -0.206 F 
ATOM     84  C   UNL     1       1.502   8.931  -3.387  1.00  0.00     0.060 A 
BRANCH  84  85
ATOM     85  S   UNL     1       1.136   9.555  -5.048  1.00  0.00     0.124 S 
ATOM     86  O   UNL     1       1.109  10.998  -4.844  1.00  0.00    -0.237 OA
ATOM     87  O   UNL     1       2.282   9.056  -5.810  1.00  0.00    -0.237 OA
ATOM     88  O   UNL     1      -0.147   8.940  -5.366  1.00  0.00    -0.744 OA
ENDBRANCH  84  85
ENDBRANCH  52  77
BRANCH  64  89
ATOM     89  C   UNL     1       1.981   2.200   3.779  1.00  0.00     0.058 A 
ATOM     90  C   UNL     1       0.715   2.670   4.163  1.00  0.00     0.135 A 
ATOM     91  C   UNL     1       2.356   0.939   4.303  1.00  0.00     0.135 A 
ATOM     92  F   UNL     1       0.177   3.766   3.610  1.00  0.00    -0.206 F 
ATOM     93  C   UNL     1      -0.078   1.998   5.087  1.00  0.00     0.059 A 
ATOM     94  C   UNL     1       1.548   0.218   5.175  1.00  0.00     0.059 A 
ATOM     95  F   UNL     1       3.507   0.346   3.951  1.00  0.00    -0.206 F 
ATOM     96  C   UNL     1       0.353   0.780   5.598  1.00  0.00     0.060 A 
BRANCH  96  97
ATOM     97  S   UNL     1      -0.649  -0.081   6.818  1.00  0.00     0.124 S 
ATOM     98  O   UNL     1      -0.044   0.389   8.060  1.00  0.00    -0.237 OA
ATOM     99  O   UNL     1      -1.995   0.414   6.549  1.00  0.00    -0.237 OA
ATOM    100  O   UNL     1      -0.426  -1.486   6.496  1.00  0.00    -0.744 OA
ENDBRANCH  96  97
ENDBRANCH  64  89
ENDBRANCH  38  39
ENDBRANCH  31  33
ENDBRANCH  30  31
ENDBRANCH  29  30
ENDBRANCH  28  29
ENDBRANCH  27  28
ENDBRANCH  26  27
ENDBRANCH   1  26
TORSDOF 24
