REMARK SMILES COc1cc(/C=C/C(=O)c2ccc(OCC(=O)OCCOCCOCCOC(=O)c3ccc(-c4c5nc(c(-c6c(F)cc(S(=O)(=O)[O-])cc6F)c6ccc([nH]6)c(-c6c(F)cc(S(=O)(=O)[O-])cc6F)c6nc(c(-c7c(F)cc(S(=O)(=O)[O-])cc7F)c7ccc4[nH]7)C=C6)C=C5)cc3)cc2)cc2c1OCCO2
REMARK SMILES IDX 21 1 20 2 19 3 18 4 16 5 17 6 15 7 14 8 13 9 10 10 11 11
REMARK SMILES IDX 97 12 12 13 96 14 8 15 9 16 7 17 6 18 5 19 3 20 4 21 100 22
REMARK SMILES IDX 99 23 101 24 98 25 104 26 102 27 103 28 2 29 1 30 22 31
REMARK SMILES IDX 23 32 24 33 25 34 26 35 27 36 28 37 29 38 30 39 31 40 95 41
REMARK SMILES IDX 32 42 94 43 33 44 34 45 35 46 88 47 36 48 93 49 87 50 89 51
REMARK SMILES IDX 37 52 92 53 86 54 85 55 38 57 72 58 51 59 71 60 52 61 55 62
REMARK SMILES IDX 70 63 90 64 53 65 54 66 69 68 91 69 56 70 39 71 40 72 49 73
REMARK SMILES IDX 41 74 42 75 48 76 50 77 43 78 44 79 45 80 46 81 47 82 73 83
REMARK SMILES IDX 74 84 83 85 75 86 76 87 82 88 84 89 77 90 78 91 79 92 80 93
REMARK SMILES IDX 81 94 57 95 58 96 67 97 59 98 60 99 66 100 68 101 61 102
REMARK SMILES IDX 62 103 63 104 64 105 65 106
REMARK H PARENT 89 56 55 67
REMARK Flexibility Score: inf
ROOT
ATOM      1  O   UNL     1      -6.205  -0.569   2.941  1.00  0.00    -0.376 OA
ENDROOT
BRANCH   1   2
ATOM      2  C   UNL     1      -7.053   0.086   3.880  1.00  0.00     0.202 C 
BRANCH   2   3
ATOM      3  C   UNL     1      -8.274  -0.743   4.304  1.00  0.00     0.261 C 
BRANCH   3   4
ATOM      4  O   UNL     1      -7.863  -1.891   5.086  1.00  0.00    -0.461 OA
BRANCH   4   5
ATOM      5  C   UNL     1      -8.467  -3.079   4.819  1.00  0.00     0.344 C 
ATOM      6  O   UNL     1      -9.492  -3.192   4.156  1.00  0.00    -0.248 OA
BRANCH   5   7
ATOM      7  C   UNL     1      -7.633  -4.293   5.293  1.00  0.00     0.351 C 
BRANCH   7   8
ATOM      8  O   UNL     1      -6.757  -4.097   6.400  1.00  0.00    -0.482 OA
BRANCH   8   9
ATOM      9  C   UNL     1      -5.557  -4.764   6.456  1.00  0.00     0.120 A 
ATOM     10  C   UNL     1      -2.853  -5.659   6.578  1.00  0.00     0.022 A 
ATOM     11  C   UNL     1      -3.361  -4.763   7.528  1.00  0.00     0.016 A 
ATOM     12  C   UNL     1      -3.747  -6.209   5.654  1.00  0.00     0.016 A 
ATOM     13  C   UNL     1      -4.693  -4.318   7.460  1.00  0.00     0.047 A 
ATOM     14  C   UNL     1      -5.098  -5.774   5.606  1.00  0.00     0.047 A 
BRANCH  10  15
ATOM     15  C   UNL     1      -1.371  -5.905   6.596  1.00  0.00     0.185 C 
ATOM     16  O   UNL     1      -0.816  -6.144   7.665  1.00  0.00    -0.289 OA
BRANCH  15  17
ATOM     17  C   UNL     1      -0.575  -5.657   5.342  1.00  0.00     0.053 C 
ATOM     18  C   UNL     1       0.564  -4.936   5.438  1.00  0.00     0.012 C 
BRANCH  18  19
ATOM     19  C   UNL     1       1.322  -4.321   4.322  1.00  0.00    -0.018 A 
ATOM     20  C   UNL     1       1.509  -2.428   2.737  1.00  0.00     0.165 A 
ATOM     21  C   UNL     1       0.856  -3.120   3.773  1.00  0.00     0.058 A 
ATOM     22  C   UNL     1       2.755  -2.883   2.320  1.00  0.00     0.203 A 
ATOM     23  C   UNL     1       3.288  -4.036   2.927  1.00  0.00     0.165 A 
ATOM     24  O   UNL     1       3.452  -2.144   1.397  1.00  0.00    -0.483 OA
ATOM     25  C   UNL     1       2.561  -4.777   3.881  1.00  0.00     0.058 A 
ATOM     26  O   UNL     1       4.564  -4.480   2.663  1.00  0.00    -0.486 OA
ATOM     27  C   UNL     1       4.639  -2.792   0.940  1.00  0.00     0.271 C 
ATOM     28  C   UNL     1       5.366  -3.431   2.106  1.00  0.00     0.271 C 
BRANCH  20  29
ATOM     29  O   UNL     1       0.843  -1.314   2.296  1.00  0.00    -0.493 OA
ATOM     30  C   UNL     1       1.073  -0.891   0.954  1.00  0.00     0.278 C 
ENDBRANCH  20  29
ENDBRANCH  18  19
ENDBRANCH  15  17
ENDBRANCH  10  15
ENDBRANCH   8   9
ENDBRANCH   7   8
ENDBRANCH   5   7
ENDBRANCH   4   5
ENDBRANCH   3   4
ENDBRANCH   2   3
ENDBRANCH   1   2
BRANCH   1  31
ATOM     31  C   UNL     1      -5.527  -1.737   3.399  1.00  0.00     0.188 C 
BRANCH  31  32
ATOM     32  C   UNL     1      -4.940  -1.676   4.815  1.00  0.00     0.188 C 
BRANCH  32  33
ATOM     33  O   UNL     1      -4.128  -0.523   5.000  1.00  0.00    -0.376 OA
BRANCH  33  34
ATOM     34  C   UNL     1      -2.751  -0.828   5.157  1.00  0.00     0.202 C 
BRANCH  34  35
ATOM     35  C   UNL     1      -2.041  -0.918   3.798  1.00  0.00     0.261 C 
BRANCH  35  36
ATOM     36  O   UNL     1      -2.330  -2.033   2.906  1.00  0.00    -0.460 OA
BRANCH  36  37
ATOM     37  C   UNL     1      -2.380  -3.272   3.431  1.00  0.00     0.338 C 
ATOM     38  O   UNL     1      -2.299  -3.542   4.614  1.00  0.00    -0.246 OA
BRANCH  37  39
ATOM     39  C   UNL     1      -2.574  -4.354   2.446  1.00  0.00     0.060 A 
ATOM     40  C   UNL     1      -3.749  -5.104   2.531  1.00  0.00     0.016 A 
ATOM     41  C   UNL     1      -1.514  -4.823   1.668  1.00  0.00     0.016 A 
ATOM     42  C   UNL     1      -3.846  -6.343   1.892  1.00  0.00     0.010 A 
ATOM     43  C   UNL     1      -1.629  -6.048   0.989  1.00  0.00     0.010 A 
ATOM     44  C   UNL     1      -2.792  -6.828   1.101  1.00  0.00    -0.014 A 
BRANCH  44  45
ATOM     45  C   UNL     1      -2.956  -8.077   0.303  1.00  0.00     0.031 A 
ATOM     46  C   UNL     1      -2.146  -9.320   0.565  1.00  0.00     0.074 A 
ATOM     47  C   UNL     1      -3.853  -8.079  -0.704  1.00  0.00     0.049 A 
ATOM     48  N   UNL     1      -2.079 -10.423  -0.141  1.00  0.00    -0.248 NA
ATOM     49  C   UNL     1      -1.314  -9.335   1.776  1.00  0.00     0.031 C 
ATOM     50  C   UNL     1      -4.735  -6.961  -1.045  1.00  0.00     0.029 A 
ATOM     51  N   UNL     1      -4.168  -9.044  -1.628  1.00  0.00    -0.354 N 
ATOM     52  C   UNL     1      -1.184 -11.256   0.521  1.00  0.00     0.074 A 
ATOM     53  C   UNL     1      -0.736 -10.529   1.694  1.00  0.00     0.031 C 
ATOM     54  C   UNL     1      -5.501  -7.307  -2.088  1.00  0.00     0.029 A 
ATOM     55  C   UNL     1      -5.110  -8.638  -2.542  1.00  0.00     0.049 A 
ATOM     56  H   UNL     1      -3.758  -9.939  -1.635  1.00  0.00     0.167 HD
ATOM     57  C   UNL     1      -0.770 -12.503   0.179  1.00  0.00     0.037 A 
ATOM     58  C   UNL     1      -5.580  -9.237  -3.652  1.00  0.00     0.037 A 
ATOM     59  C   UNL     1      -1.218 -13.228  -0.987  1.00  0.00     0.049 A 
ATOM     60  C   UNL     1      -5.051 -10.579  -4.053  1.00  0.00     0.074 A 
ATOM     61  C   UNL     1      -0.843 -14.493  -1.414  1.00  0.00     0.029 A 
ATOM     62  N   UNL     1      -2.136 -12.758  -1.914  1.00  0.00    -0.354 N 
ATOM     63  N   UNL     1      -4.164 -11.328  -3.444  1.00  0.00    -0.248 NA
ATOM     64  C   UNL     1      -5.570 -11.150  -5.303  1.00  0.00     0.031 C 
ATOM     65  C   UNL     1      -1.507 -14.771  -2.616  1.00  0.00     0.029 A 
ATOM     66  C   UNL     1      -2.325 -13.697  -2.918  1.00  0.00     0.049 A 
ATOM     67  H   UNL     1      -2.588 -11.885  -1.866  1.00  0.00     0.167 HD
ATOM     68  C   UNL     1      -4.022 -12.462  -4.234  1.00  0.00     0.074 A 
ATOM     69  C   UNL     1      -4.924 -12.307  -5.357  1.00  0.00     0.031 C 
ATOM     70  C   UNL     1      -3.213 -13.532  -4.042  1.00  0.00     0.037 A 
BRANCH  57  71
ATOM     71  C   UNL     1       0.259 -13.165   1.058  1.00  0.00     0.058 A 
ATOM     72  C   UNL     1      -0.077 -13.728   2.299  1.00  0.00     0.135 A 
ATOM     73  C   UNL     1       1.589 -13.289   0.623  1.00  0.00     0.135 A 
ATOM     74  F   UNL     1      -1.332 -13.636   2.764  1.00  0.00    -0.206 F 
ATOM     75  C   UNL     1       0.875 -14.367   3.090  1.00  0.00     0.059 A 
ATOM     76  C   UNL     1       2.554 -13.939   1.388  1.00  0.00     0.059 A 
ATOM     77  F   UNL     1       1.963 -12.778  -0.561  1.00  0.00    -0.206 F 
ATOM     78  C   UNL     1       2.191 -14.461   2.629  1.00  0.00     0.060 A 
BRANCH  78  79
ATOM     79  S   UNL     1       3.422 -15.281   3.665  1.00  0.00     0.124 S 
ATOM     80  O   UNL     1       3.699 -14.248   4.657  1.00  0.00    -0.237 OA
ATOM     81  O   UNL     1       2.698 -16.451   4.154  1.00  0.00    -0.237 OA
ATOM     82  O   UNL     1       4.511 -15.567   2.736  1.00  0.00    -0.744 OA
ENDBRANCH  78  79
ENDBRANCH  57  71
BRANCH  58  83
ATOM     83  C   UNL     1      -6.589  -8.530  -4.479  1.00  0.00     0.058 A 
ATOM     84  C   UNL     1      -7.930  -8.934  -4.477  1.00  0.00     0.135 A 
ATOM     85  C   UNL     1      -6.243  -7.393  -5.228  1.00  0.00     0.135 A 
ATOM     86  F   UNL     1      -8.302 -10.020  -3.782  1.00  0.00    -0.206 F 
ATOM     87  C   UNL     1      -8.900  -8.228  -5.179  1.00  0.00     0.059 A 
ATOM     88  C   UNL     1      -7.199  -6.658  -5.918  1.00  0.00     0.059 A 
ATOM     89  F   UNL     1      -4.972  -6.962  -5.246  1.00  0.00    -0.206 F 
ATOM     90  C   UNL     1      -8.526  -7.085  -5.888  1.00  0.00     0.060 A 
BRANCH  90  91
ATOM     91  S   UNL     1      -9.805  -6.111  -6.710  1.00  0.00     0.124 S 
ATOM     92  O   UNL     1     -10.028  -6.888  -7.924  1.00  0.00    -0.237 OA
ATOM     93  O   UNL     1     -10.887  -6.130  -5.731  1.00  0.00    -0.237 OA
ATOM     94  O   UNL     1      -9.164  -4.813  -6.897  1.00  0.00    -0.744 OA
ENDBRANCH  90  91
ENDBRANCH  58  83
BRANCH  70  95
ATOM     95  C   UNL     1      -3.280 -14.627  -5.068  1.00  0.00     0.058 A 
ATOM     96  C   UNL     1      -2.668 -14.492  -6.324  1.00  0.00     0.135 A 
ATOM     97  C   UNL     1      -3.956 -15.826  -4.792  1.00  0.00     0.135 A 
ATOM     98  F   UNL     1      -2.020 -13.360  -6.641  1.00  0.00    -0.206 F 
ATOM     99  C   UNL     1      -2.744 -15.500  -7.281  1.00  0.00     0.059 A 
ATOM    100  C   UNL     1      -4.029 -16.854  -5.728  1.00  0.00     0.059 A 
ATOM    101  F   UNL     1      -4.555 -16.006  -3.604  1.00  0.00    -0.206 F 
ATOM    102  C   UNL     1      -3.432 -16.675  -6.975  1.00  0.00     0.060 A 
BRANCH 102 103
ATOM    103  S   UNL     1      -3.517 -17.983  -8.218  1.00  0.00     0.124 S 
ATOM    104  O   UNL     1      -4.555 -17.474  -9.108  1.00  0.00    -0.237 OA
ATOM    105  O   UNL     1      -2.163 -17.990  -8.763  1.00  0.00    -0.237 OA
ATOM    106  O   UNL     1      -3.878 -19.165  -7.441  1.00  0.00    -0.744 OA
ENDBRANCH 102 103
ENDBRANCH  70  95
ENDBRANCH  44  45
ENDBRANCH  37  39
ENDBRANCH  36  37
ENDBRANCH  35  36
ENDBRANCH  34  35
ENDBRANCH  33  34
ENDBRANCH  32  33
ENDBRANCH  31  32
ENDBRANCH   1  31
TORSDOF 26
