REMARK SMILES COCC[C@@H](C)NC(=O)N[C@@H]1C=C[C@@H](C(=O)OCCOCCOCCOC(=O)c2ccc(-c3c4nc(c(-c5c(F)cc(S(=O)(=O)[O-])cc5F)c5ccc([nH]5)c(-c5c(F)cc(S(=O)(=O)[O-])cc5F)c5nc(c(-c6c(F)cc(S(=O)(=O)[O-])cc6F)c6ccc3[nH]6)C=C5)C=C4)cc2)C1
REMARK SMILES IDX 21 1 20 2 19 3 18 4 17 5 15 6 16 7 14 8 11 9 12 10 95 11
REMARK SMILES IDX 13 12 10 13 7 14 8 15 9 17 5 19 6 20 4 21 3 22 2 23 1 24
REMARK SMILES IDX 22 25 23 26 24 27 25 28 26 29 27 30 28 31 29 32 30 33 94 34
REMARK SMILES IDX 31 35 93 36 32 37 33 38 34 39 87 40 35 41 92 42 86 43 88 44
REMARK SMILES IDX 36 45 91 46 85 47 84 48 37 50 71 51 50 52 70 53 51 54 54 55
REMARK SMILES IDX 69 56 89 57 52 58 53 59 68 61 90 62 55 63 38 64 39 65 48 66
REMARK SMILES IDX 40 67 41 68 47 69 49 70 42 71 43 72 44 73 45 74 46 75 72 76
REMARK SMILES IDX 73 77 82 78 74 79 75 80 81 81 83 82 76 83 77 84 78 85 79 86
REMARK SMILES IDX 80 87 56 88 57 89 66 90 58 91 59 92 65 93 67 94 60 95 61 96
REMARK SMILES IDX 62 97 63 98 64 99
REMARK H PARENT 7 16 10 18 88 49 54 60
REMARK Flexibility Score: inf
ROOT
ATOM      1  C   UNL     1      -1.432  -4.872   3.327  1.00  0.00     0.188 C 
ENDROOT
BRANCH   1   2
ATOM      2  O   UNL     1      -0.985  -5.547   4.495  1.00  0.00    -0.376 OA
BRANCH   2   3
ATOM      3  C   UNL     1      -0.411  -4.787   5.551  1.00  0.00     0.202 C 
BRANCH   3   4
ATOM      4  C   UNL     1       0.703  -3.768   5.239  1.00  0.00     0.261 C 
BRANCH   4   5
ATOM      5  O   UNL     1       0.452  -2.888   4.119  1.00  0.00    -0.463 OA
BRANCH   5   6
ATOM      6  C   UNL     1       1.471  -2.754   3.228  1.00  0.00     0.312 C 
ATOM      7  O   UNL     1       2.573  -3.276   3.381  1.00  0.00    -0.252 OA
BRANCH   6   8
ATOM      8  C   UNL     1       1.139  -1.936   1.968  1.00  0.00     0.124 C 
ATOM      9  C   UNL     1       0.152   0.328   1.803  1.00  0.00     0.107 C 
ATOM     10  C   UNL     1       1.630   0.366   1.774  1.00  0.00    -0.006 C 
ATOM     11  C   UNL     1      -0.180  -1.158   1.842  1.00  0.00     0.048 C 
ATOM     12  C   UNL     1       2.169  -0.852   1.849  1.00  0.00    -0.014 C 
BRANCH   9  13
ATOM     13  N   UNL     1      -0.374   1.102   0.712  1.00  0.00    -0.332 N 
ATOM     14  N   UNL     1      -0.290   3.337   1.526  1.00  0.00    -0.336 N 
ATOM     15  C   UNL     1      -0.477   2.434   0.543  1.00  0.00     0.315 C 
ATOM     16  H   UNL     1      -0.190   4.257   1.187  1.00  0.00     0.165 HD
ATOM     17  O   UNL     1      -0.739   2.865  -0.582  1.00  0.00    -0.249 OA
ATOM     18  H   UNL     1      -0.719   0.567  -0.040  1.00  0.00     0.165 HD
BRANCH  14  19
ATOM     19  C   UNL     1      -0.204   3.255   2.981  1.00  0.00     0.083 C 
ATOM     20  C   UNL     1      -1.381   3.969   3.635  1.00  0.00     0.031 C 
BRANCH  19  21
ATOM     21  C   UNL     1       1.164   3.688   3.516  1.00  0.00     0.053 C 
BRANCH  21  22
ATOM     22  C   UNL     1       1.468   3.099   4.901  1.00  0.00     0.162 C 
BRANCH  22  23
ATOM     23  O   UNL     1       1.635   1.682   4.840  1.00  0.00    -0.385 OA
ATOM     24  C   UNL     1       0.626   0.935   5.509  1.00  0.00     0.194 C 
ENDBRANCH  22  23
ENDBRANCH  21  22
ENDBRANCH  19  21
ENDBRANCH  14  19
ENDBRANCH   9  13
ENDBRANCH   6   8
ENDBRANCH   5   6
ENDBRANCH   4   5
ENDBRANCH   3   4
ENDBRANCH   2   3
ENDBRANCH   1   2
BRANCH   1  25
ATOM     25  C   UNL     1      -2.219  -3.566   3.488  1.00  0.00     0.188 C 
BRANCH  25  26
ATOM     26  O   UNL     1      -2.428  -3.128   4.806  1.00  0.00    -0.376 OA
BRANCH  26  27
ATOM     27  C   UNL     1      -3.734  -3.208   5.346  1.00  0.00     0.202 C 
BRANCH  27  28
ATOM     28  C   UNL     1      -4.704  -4.362   5.011  1.00  0.00     0.261 C 
BRANCH  28  29
ATOM     29  O   UNL     1      -4.606  -4.981   3.718  1.00  0.00    -0.460 OA
BRANCH  29  30
ATOM     30  C   UNL     1      -5.203  -4.353   2.675  1.00  0.00     0.338 C 
ATOM     31  O   UNL     1      -5.830  -3.305   2.721  1.00  0.00    -0.246 OA
BRANCH  30  32
ATOM     32  C   UNL     1      -4.734  -5.007   1.427  1.00  0.00     0.060 A 
ATOM     33  C   UNL     1      -3.966  -4.269   0.510  1.00  0.00     0.016 A 
ATOM     34  C   UNL     1      -5.018  -6.350   1.180  1.00  0.00     0.016 A 
ATOM     35  C   UNL     1      -3.491  -4.870  -0.660  1.00  0.00     0.010 A 
ATOM     36  C   UNL     1      -4.571  -6.939  -0.008  1.00  0.00     0.010 A 
ATOM     37  C   UNL     1      -3.826  -6.199  -0.945  1.00  0.00    -0.014 A 
BRANCH  37  38
ATOM     38  C   UNL     1      -3.574  -6.770  -2.293  1.00  0.00     0.031 A 
ATOM     39  C   UNL     1      -4.712  -6.790  -3.278  1.00  0.00     0.074 A 
ATOM     40  C   UNL     1      -2.378  -7.282  -2.636  1.00  0.00     0.049 A 
ATOM     41  N   UNL     1      -4.786  -7.355  -4.454  1.00  0.00    -0.248 NA
ATOM     42  C   UNL     1      -5.936  -6.080  -2.872  1.00  0.00     0.031 C 
ATOM     43  C   UNL     1      -1.181  -7.276  -1.798  1.00  0.00     0.029 A 
ATOM     44  N   UNL     1      -1.983  -7.930  -3.783  1.00  0.00    -0.354 N 
ATOM     45  C   UNL     1      -6.067  -7.085  -4.922  1.00  0.00     0.074 A 
ATOM     46  C   UNL     1      -6.743  -6.325  -3.894  1.00  0.00     0.031 C 
ATOM     47  C   UNL     1      -0.191  -7.915  -2.448  1.00  0.00     0.029 A 
ATOM     48  C   UNL     1      -0.697  -8.413  -3.728  1.00  0.00     0.049 A 
ATOM     49  H   UNL     1      -2.566  -8.038  -4.568  1.00  0.00     0.167 HD
ATOM     50  C   UNL     1      -6.628  -7.438  -6.103  1.00  0.00     0.037 A 
ATOM     51  C   UNL     1      -0.020  -9.198  -4.593  1.00  0.00     0.037 A 
ATOM     52  C   UNL     1      -5.952  -8.198  -7.122  1.00  0.00     0.049 A 
ATOM     53  C   UNL     1      -0.695  -9.655  -5.864  1.00  0.00     0.074 A 
ATOM     54  C   UNL     1      -6.429  -8.592  -8.359  1.00  0.00     0.029 A 
ATOM     55  N   UNL     1      -4.659  -8.691  -7.018  1.00  0.00    -0.354 N 
ATOM     56  N   UNL     1      -1.901  -9.383  -6.305  1.00  0.00    -0.248 NA
ATOM     57  C   UNL     1       0.082 -10.530  -6.755  1.00  0.00     0.031 C 
ATOM     58  C   UNL     1      -5.448  -9.373  -8.978  1.00  0.00     0.029 A 
ATOM     59  C   UNL     1      -4.334  -9.412  -8.155  1.00  0.00     0.049 A 
ATOM     60  H   UNL     1      -4.060  -8.549  -6.249  1.00  0.00     0.167 HD
ATOM     61  C   UNL     1      -2.015 -10.028  -7.533  1.00  0.00     0.074 A 
ATOM     62  C   UNL     1      -0.752 -10.694  -7.773  1.00  0.00     0.031 C 
ATOM     63  C   UNL     1      -3.070 -10.066  -8.387  1.00  0.00     0.037 A 
BRANCH  50  64
ATOM     64  C   UNL     1      -8.057  -7.035  -6.344  1.00  0.00     0.058 A 
ATOM     65  C   UNL     1      -8.426  -5.698  -6.561  1.00  0.00     0.135 A 
ATOM     66  C   UNL     1      -9.069  -8.008  -6.390  1.00  0.00     0.135 A 
ATOM     67  F   UNL     1      -7.503  -4.725  -6.508  1.00  0.00    -0.206 F 
ATOM     68  C   UNL     1      -9.749  -5.337  -6.791  1.00  0.00     0.059 A 
ATOM     69  C   UNL     1     -10.395  -7.674  -6.649  1.00  0.00     0.059 A 
ATOM     70  F   UNL     1      -8.774  -9.302  -6.184  1.00  0.00    -0.206 F 
ATOM     71  C   UNL     1     -10.727  -6.333  -6.835  1.00  0.00     0.060 A 
BRANCH  71  72
ATOM     72  S   UNL     1     -12.438  -5.848  -7.142  1.00  0.00     0.124 S 
ATOM     73  O   UNL     1     -12.780  -5.180  -5.890  1.00  0.00    -0.237 OA
ATOM     74  O   UNL     1     -12.310  -4.980  -8.308  1.00  0.00    -0.237 OA
ATOM     75  O   UNL     1     -13.116  -7.118  -7.380  1.00  0.00    -0.744 OA
ENDBRANCH  71  72
ENDBRANCH  50  64
BRANCH  51  76
ATOM     76  C   UNL     1       1.370  -9.633  -4.279  1.00  0.00     0.058 A 
ATOM     77  C   UNL     1       2.459  -9.186  -5.040  1.00  0.00     0.135 A 
ATOM     78  C   UNL     1       1.635 -10.518  -3.221  1.00  0.00     0.135 A 
ATOM     79  F   UNL     1       2.258  -8.355  -6.074  1.00  0.00    -0.206 F 
ATOM     80  C   UNL     1       3.759  -9.608  -4.775  1.00  0.00     0.059 A 
ATOM     81  C   UNL     1       2.929 -10.931  -2.917  1.00  0.00     0.059 A 
ATOM     82  F   UNL     1       0.630 -10.976  -2.458  1.00  0.00    -0.206 F 
ATOM     83  C   UNL     1       3.984 -10.478  -3.707  1.00  0.00     0.060 A 
BRANCH  83  84
ATOM     84  S   UNL     1       5.681 -10.980  -3.343  1.00  0.00     0.124 S 
ATOM     85  O   UNL     1       5.973 -11.866  -4.464  1.00  0.00    -0.237 OA
ATOM     86  O   UNL     1       6.383  -9.701  -3.339  1.00  0.00    -0.237 OA
ATOM     87  O   UNL     1       5.567 -11.629  -2.040  1.00  0.00    -0.744 OA
ENDBRANCH  83  84
ENDBRANCH  51  76
BRANCH  63  88
ATOM     88  C   UNL     1      -2.901 -10.822  -9.679  1.00  0.00     0.058 A 
ATOM     89  C   UNL     1      -2.844 -12.224  -9.717  1.00  0.00     0.135 A 
ATOM     90  C   UNL     1      -2.863 -10.135 -10.905  1.00  0.00     0.135 A 
ATOM     91  F   UNL     1      -2.870 -12.932  -8.576  1.00  0.00    -0.206 F 
ATOM     92  C   UNL     1      -2.733 -12.916 -10.919  1.00  0.00     0.059 A 
ATOM     93  C   UNL     1      -2.785 -10.807 -12.120  1.00  0.00     0.059 A 
ATOM     94  F   UNL     1      -2.927  -8.794 -10.930  1.00  0.00    -0.206 F 
ATOM     95  C   UNL     1      -2.710 -12.199 -12.117  1.00  0.00     0.060 A 
BRANCH  95  96
ATOM     96  S   UNL     1      -2.608 -13.113 -13.671  1.00  0.00     0.124 S 
ATOM     97  O   UNL     1      -1.232 -13.596 -13.640  1.00  0.00    -0.237 OA
ATOM     98  O   UNL     1      -3.641 -14.131 -13.501  1.00  0.00    -0.237 OA
ATOM     99  O   UNL     1      -2.896 -12.100 -14.682  1.00  0.00    -0.744 OA
ENDBRANCH  95  96
ENDBRANCH  63  88
ENDBRANCH  37  38
ENDBRANCH  30  32
ENDBRANCH  29  30
ENDBRANCH  28  29
ENDBRANCH  27  28
ENDBRANCH  26  27
ENDBRANCH  25  26
ENDBRANCH   1  25
TORSDOF 25
