REMARK SMILES O=C(OCCOCCOCCOC(=O)[C@@H]1CCCN1S(=O)(=O)c1ccc2c3c(cccc13)C(=O)N2)c1ccc(-c2c3nc(c(-c4c(F)cc(S(=O)(=O)[O-])cc4F)c4ccc([nH]4)c(-c4c(F)cc(S(=O)(=O)[O-])cc4F)c4nc(c(-c5c(F)cc(S(=O)(=O)[O-])cc5F)c5ccc2[nH]5)C=C4)C=C3)cc1
REMARK SMILES IDX 7 1 6 2 5 3 4 4 3 5 2 6 1 7 36 8 37 9 101 10 38 11 100 12
REMARK SMILES IDX 39 13 40 14 41 15 94 16 42 17 99 18 93 19 95 20 43 21 98 22
REMARK SMILES IDX 92 23 91 24 44 26 78 27 57 28 77 29 58 30 61 31 76 32 96 33
REMARK SMILES IDX 59 34 60 35 75 37 97 38 62 39 45 40 46 41 55 42 47 43 48 44
REMARK SMILES IDX 54 45 56 46 49 47 50 48 51 49 52 50 53 51 79 52 80 53 89 54
REMARK SMILES IDX 81 55 82 56 88 57 90 58 83 59 84 60 85 61 86 62 87 63 63 64
REMARK SMILES IDX 64 65 73 66 65 67 66 68 72 69 74 70 67 71 68 72 69 73 70 74
REMARK SMILES IDX 71 75 8 76 9 77 10 78 11 79 12 80 13 81 14 82 15 83 16 84
REMARK SMILES IDX 19 85 17 86 18 87 20 88 21 89 22 90 23 91 24 92 32 93 25 94
REMARK SMILES IDX 27 95 31 96 26 97 28 98 30 99 35 100 29 101 33 102 34 104
REMARK H PARENT 95 25 61 36 35 103
REMARK Flexibility Score: inf
ROOT
ATOM      1  C   UNL     1       2.454   2.149   0.240  1.00  0.00     0.188 C 
ENDROOT
BRANCH   1   2
ATOM      2  O   UNL     1       3.881   1.549   0.052  1.00  0.00    -0.376 OA
BRANCH   2   3
ATOM      3  C   UNL     1       4.964   0.732  -1.466  1.00  0.00     0.202 C 
BRANCH   3   4
ATOM      4  C   UNL     1       3.349  -0.664  -2.171  1.00  0.00     0.261 C 
BRANCH   4   5
ATOM      5  O   UNL     1       2.074  -1.204  -1.120  1.00  0.00    -0.460 OA
BRANCH   5   6
ATOM      6  C   UNL     1       1.509  -1.663   0.033  1.00  0.00     0.338 C 
ATOM      7  O   UNL     1       0.297  -1.898   0.028  1.00  0.00    -0.246 OA
BRANCH   6   8
ATOM      8  C   UNL     1       2.180  -1.911   1.367  1.00  0.00     0.060 A 
ATOM      9  C   UNL     1       2.736  -0.879   2.098  1.00  0.00     0.016 A 
ATOM     10  C   UNL     1       2.065  -3.122   2.069  1.00  0.00     0.016 A 
ATOM     11  C   UNL     1       3.392  -1.079   3.319  1.00  0.00     0.010 A 
ATOM     12  C   UNL     1       2.613  -3.293   3.388  1.00  0.00     0.010 A 
ATOM     13  C   UNL     1       3.326  -2.267   4.024  1.00  0.00    -0.014 A 
BRANCH  13  14
ATOM     14  C   UNL     1       4.172  -2.351   5.274  1.00  0.00     0.031 A 
ATOM     15  C   UNL     1       5.446  -3.149   5.228  1.00  0.00     0.074 A 
ATOM     16  C   UNL     1       3.989  -1.542   6.351  1.00  0.00     0.049 A 
ATOM     17  N   UNL     1       6.323  -3.365   6.174  1.00  0.00    -0.248 NA
ATOM     18  C   UNL     1       5.773  -3.790   3.947  1.00  0.00     0.031 C 
ATOM     19  C   UNL     1       2.874  -0.616   6.516  1.00  0.00     0.029 A 
ATOM     20  N   UNL     1       4.771  -1.293   7.468  1.00  0.00    -0.354 N 
ATOM     21  C   UNL     1       7.241  -4.257   5.638  1.00  0.00     0.074 A 
ATOM     22  C   UNL     1       6.865  -4.471   4.258  1.00  0.00     0.031 C 
ATOM     23  C   UNL     1       3.115   0.189   7.566  1.00  0.00     0.029 A 
ATOM     24  C   UNL     1       4.338  -0.232   8.247  1.00  0.00     0.049 A 
ATOM     25  H   UNL     1       5.569  -1.826   7.690  1.00  0.00     0.167 HD
ATOM     26  C   UNL     1       8.256  -4.894   6.269  1.00  0.00     0.037 A 
ATOM     27  C   UNL     1       4.838   0.319   9.384  1.00  0.00     0.037 A 
ATOM     28  C   UNL     1       8.639  -4.650   7.635  1.00  0.00     0.049 A 
ATOM     29  C   UNL     1       5.977  -0.396  10.079  1.00  0.00     0.074 A 
ATOM     30  C   UNL     1       9.576  -5.325   8.398  1.00  0.00     0.029 A 
ATOM     31  N   UNL     1       8.118  -3.648   8.440  1.00  0.00    -0.354 N 
ATOM     32  N   UNL     1       6.715  -1.388   9.640  1.00  0.00    -0.248 NA
ATOM     33  C   UNL     1       6.280   0.002  11.465  1.00  0.00     0.031 C 
ATOM     34  C   UNL     1       9.568  -4.779   9.684  1.00  0.00     0.029 A 
ATOM     35  C   UNL     1       8.687  -3.709   9.701  1.00  0.00     0.049 A 
ATOM     36  H   UNL     1       7.442  -2.990   8.156  1.00  0.00     0.167 HD
ATOM     37  C   UNL     1       7.524  -1.768  10.708  1.00  0.00     0.074 A 
ATOM     38  C   UNL     1       7.237  -0.856  11.796  1.00  0.00     0.031 C 
ATOM     39  C   UNL     1       8.390  -2.808  10.789  1.00  0.00     0.037 A 
BRANCH  26  40
ATOM     40  C   UNL     1       8.890  -6.044   5.540  1.00  0.00     0.058 A 
ATOM     41  C   UNL     1       9.753  -5.886   4.447  1.00  0.00     0.135 A 
ATOM     42  C   UNL     1       8.589  -7.355   5.954  1.00  0.00     0.135 A 
ATOM     43  F   UNL     1      10.043  -4.659   3.984  1.00  0.00    -0.206 F 
ATOM     44  C   UNL     1      10.271  -6.987   3.771  1.00  0.00     0.059 A 
ATOM     45  C   UNL     1       9.123  -8.467   5.317  1.00  0.00     0.059 A 
ATOM     46  F   UNL     1       7.756  -7.563   6.986  1.00  0.00    -0.206 F 
ATOM     47  C   UNL     1       9.950  -8.273   4.214  1.00  0.00     0.060 A 
BRANCH  47  48
ATOM     48  S   UNL     1      10.610  -9.690   3.314  1.00  0.00     0.124 S 
ATOM     49  O   UNL     1       9.901  -9.583   2.042  1.00  0.00    -0.237 OA
ATOM     50  O   UNL     1      12.037  -9.390   3.271  1.00  0.00    -0.237 OA
ATOM     51  O   UNL     1      10.235 -10.829   4.146  1.00  0.00    -0.744 OA
ENDBRANCH  47  48
ENDBRANCH  26  40
BRANCH  27  52
ATOM     52  C   UNL     1       4.219   1.538  10.018  1.00  0.00     0.058 A 
ATOM     53  C   UNL     1       4.960   2.710  10.266  1.00  0.00     0.135 A 
ATOM     54  C   UNL     1       2.868   1.560  10.403  1.00  0.00     0.135 A 
ATOM     55  F   UNL     1       6.272   2.748   9.986  1.00  0.00    -0.206 F 
ATOM     56  C   UNL     1       4.380   3.855  10.821  1.00  0.00     0.059 A 
ATOM     57  C   UNL     1       2.254   2.704  10.911  1.00  0.00     0.059 A 
ATOM     58  F   UNL     1       2.109   0.464  10.258  1.00  0.00    -0.206 F 
ATOM     59  C   UNL     1       3.016   3.850  11.115  1.00  0.00     0.060 A 
BRANCH  59  60
ATOM     60  S   UNL     1       2.229   5.368  11.707  1.00  0.00     0.124 S 
ATOM     61  O   UNL     1       2.738   5.457  13.070  1.00  0.00    -0.237 OA
ATOM     62  O   UNL     1       2.737   6.362  10.767  1.00  0.00    -0.237 OA
ATOM     63  O   UNL     1       0.804   5.074  11.583  1.00  0.00    -0.744 OA
ENDBRANCH  59  60
ENDBRANCH  27  52
BRANCH  39  64
ATOM     64  C   UNL     1       9.089  -3.057  12.100  1.00  0.00     0.058 A 
ATOM     65  C   UNL     1       8.406  -3.588  13.206  1.00  0.00     0.135 A 
ATOM     66  C   UNL     1      10.477  -2.879  12.215  1.00  0.00     0.135 A 
ATOM     67  F   UNL     1       7.078  -3.779  13.153  1.00  0.00    -0.206 F 
ATOM     68  C   UNL     1       9.073  -3.930  14.379  1.00  0.00     0.059 A 
ATOM     69  C   UNL     1      11.169  -3.240  13.368  1.00  0.00     0.059 A 
ATOM     70  F   UNL     1      11.183  -2.387  11.184  1.00  0.00    -0.206 F 
ATOM     71  C   UNL     1      10.457  -3.762  14.447  1.00  0.00     0.060 A 
BRANCH  71  72
ATOM     72  S   UNL     1      11.315  -4.263  15.955  1.00  0.00     0.124 S 
ATOM     73  O   UNL     1      10.812  -3.289  16.919  1.00  0.00    -0.237 OA
ATOM     74  O   UNL     1      10.848  -5.633  16.137  1.00  0.00    -0.237 OA
ATOM     75  O   UNL     1      12.727  -4.127  15.607  1.00  0.00    -0.744 OA
ENDBRANCH  71  72
ENDBRANCH  39  64
ENDBRANCH  13  14
ENDBRANCH   6   8
ENDBRANCH   5   6
ENDBRANCH   4   5
ENDBRANCH   3   4
ENDBRANCH   2   3
ENDBRANCH   1   2
BRANCH   1  76
ATOM     76  C   UNL     1       2.122   3.705   0.316  1.00  0.00     0.188 C 
BRANCH  76  77
ATOM     77  O   UNL     1       2.521   4.734  -0.582  1.00  0.00    -0.376 OA
BRANCH  77  78
ATOM     78  C   UNL     1       3.672   5.582  -0.491  1.00  0.00     0.202 C 
BRANCH  78  79
ATOM     79  C   UNL     1       4.455   5.970   0.766  1.00  0.00     0.261 C 
BRANCH  79  80
ATOM     80  O   UNL     1       4.541   4.910   1.690  1.00  0.00    -0.462 OA
BRANCH  80  81
ATOM     81  C   UNL     1       3.670   5.029   2.701  1.00  0.00     0.324 C 
ATOM     82  O   UNL     1       2.905   5.978   2.856  1.00  0.00    -0.250 OA
BRANCH  81  83
ATOM     83  C   UNL     1       3.594   3.808   3.526  1.00  0.00     0.183 C 
ATOM     84  C   UNL     1       3.831   4.248   4.965  1.00  0.00     0.034 C 
ATOM     85  N   UNL     1       4.270   2.483   3.405  1.00  0.00    -0.184 NA
ATOM     86  C   UNL     1       3.562   2.986   5.723  1.00  0.00     0.019 C 
ATOM     87  C   UNL     1       4.036   1.886   4.779  1.00  0.00     0.103 C 
BRANCH  85  88
ATOM     88  S   UNL     1       5.850   2.235   2.709  1.00  0.00     0.244 S 
ATOM     89  O   UNL     1       6.563   3.492   2.697  1.00  0.00    -0.207 OA
ATOM     90  O   UNL     1       6.417   1.087   3.389  1.00  0.00    -0.207 OA
BRANCH  88  91
ATOM     91  C   UNL     1       5.691   1.664   0.930  1.00  0.00     0.090 A 
ATOM     92  C   UNL     1       5.340   2.848  -0.231  1.00  0.00     0.024 A 
ATOM     93  C   UNL     1       5.164   0.107   0.778  1.00  0.00     0.005 A 
ATOM     94  C   UNL     1       4.135   2.764  -1.516  1.00  0.00     0.028 A 
ATOM     95  C   UNL     1       3.972  -0.263  -0.445  1.00  0.00     0.019 A 
ATOM     96  C   UNL     1       5.924  -0.996   1.249  1.00  0.00     0.010 A 
ATOM     97  C   UNL     1       3.333   1.171  -1.698  1.00  0.00     0.050 A 
ATOM     98  C   UNL     1       5.089  -1.288  -1.451  1.00  0.00     0.050 A 
ATOM     99  C   UNL     1       6.193  -2.156   0.455  1.00  0.00     0.002 A 
ATOM    100  N   UNL     1       4.127   0.752  -3.290  1.00  0.00    -0.321 N 
ATOM    101  C   UNL     1       5.910  -2.258  -0.909  1.00  0.00     0.014 A 
ATOM    102  C   UNL     1       5.234  -0.590  -3.130  1.00  0.00     0.256 C 
ATOM    103  H   UNL     1       3.952   1.225  -4.136  1.00  0.00     0.170 HD
ATOM    104  O   UNL     1       5.979  -0.891  -4.057  1.00  0.00    -0.269 OA
ENDBRANCH  88  91
ENDBRANCH  85  88
ENDBRANCH  81  83
ENDBRANCH  80  81
ENDBRANCH  79  80
ENDBRANCH  78  79
ENDBRANCH  77  78
ENDBRANCH  76  77
ENDBRANCH   1  76
TORSDOF 22
