REMARK SMILES CCC[NH2+][C@]1(C(=O)OCCOCCOCCOC(=O)c2ccc(-c3c4nc(c(-c5c(F)cc(S(=O)(=O)[O-])cc5F)c5ccc([nH]5)c(-c5c(F)cc(S(=O)(=O)[O-])cc5F)c5nc(c(-c6c(F)cc(S(=O)(=O)[O-])cc6F)c6ccc3[nH]6)C=C5)C=C4)cc2)CC[C@@H](Sc2nnc(C)n2C)C1
REMARK SMILES IDX 12 1 11 2 10 3 9 4 8 5 6 6 7 7 5 8 86 9 97 10 87 11 88 12
REMARK SMILES IDX 4 13 3 16 2 17 1 18 89 19 90 20 91 21 95 22 92 23 93 24
REMARK SMILES IDX 96 25 94 26 13 27 14 28 15 29 16 30 17 31 18 32 19 33 20 34
REMARK SMILES IDX 21 35 85 36 22 37 84 38 23 39 24 40 25 41 78 42 26 43 83 44
REMARK SMILES IDX 77 45 79 46 27 47 82 48 76 49 75 50 28 52 62 53 41 54 61 55
REMARK SMILES IDX 42 56 45 57 60 58 80 59 43 60 44 61 59 63 81 64 46 65 29 66
REMARK SMILES IDX 30 67 39 68 31 69 32 70 38 71 40 72 33 73 34 74 35 75 36 76
REMARK SMILES IDX 37 77 63 78 64 79 73 80 65 81 66 82 72 83 74 84 67 85 68 86
REMARK SMILES IDX 69 87 70 88 71 89 47 90 48 91 57 92 49 93 50 94 56 95 58 96
REMARK SMILES IDX 51 97 52 98 53 99 54 100 55 101
REMARK H PARENT 4 14 4 15 79 51 45 62
REMARK Flexibility Score: inf
ROOT
ATOM      1  C   UNL     1       1.882   0.249  -0.924  1.00  0.00     0.188 C 
ENDROOT
BRANCH   1   2
ATOM      2  O   UNL     1       0.781  -0.161  -0.119  1.00  0.00    -0.376 OA
BRANCH   2   3
ATOM      3  C   UNL     1      -0.485  -0.334  -0.731  1.00  0.00     0.202 C 
BRANCH   3   4
ATOM      4  C   UNL     1      -1.214   0.944  -1.127  1.00  0.00     0.261 C 
BRANCH   4   5
ATOM      5  O   UNL     1      -0.534   1.694  -2.143  1.00  0.00    -0.459 OA
BRANCH   5   6
ATOM      6  C   UNL     1       0.062   2.850  -1.732  1.00  0.00     0.368 C 
ATOM      7  O   UNL     1       0.178   3.183  -0.556  1.00  0.00    -0.245 OA
BRANCH   6   8
ATOM      8  C   UNL     1       0.519   3.728  -2.921  1.00  0.00     0.195 C 
ATOM      9  C   UNL     1      -0.497   3.620  -4.081  1.00  0.00     0.082 C 
ATOM     10  C   UNL     1       0.346   5.204  -2.495  1.00  0.00     0.096 C 
ATOM     11  C   UNL     1      -0.394   4.952  -4.815  1.00  0.00     0.022 C 
ATOM     12  C   UNL     1      -0.107   5.987  -3.725  1.00  0.00     0.062 C 
BRANCH   8  13
ATOM     13  N   UNL     1       1.860   3.328  -3.432  1.00  0.00    -0.332 N 
ATOM     14  H   UNL     1       1.961   2.323  -3.287  1.00  0.00     0.347 HD
ATOM     15  H   UNL     1       1.876   3.614  -4.411  1.00  0.00     0.347 HD
BRANCH  13  16
ATOM     16  C   UNL     1       3.009   3.986  -2.811  1.00  0.00     0.261 C 
BRANCH  16  17
ATOM     17  C   UNL     1       4.326   3.608  -3.500  1.00  0.00     0.058 C 
ATOM     18  C   UNL     1       4.482   4.184  -4.900  1.00  0.00     0.010 C 
ENDBRANCH  16  17
ENDBRANCH  13  16
ENDBRANCH   8  13
BRANCH  12  19
ATOM     19  S   UNL     1      -1.503   7.106  -3.319  1.00  0.00    -0.082 SA
BRANCH  19  20
ATOM     20  C   UNL     1      -2.764   5.992  -2.923  1.00  0.00     0.191 A 
ATOM     21  N   UNL     1      -3.524   5.383  -3.802  1.00  0.00    -0.123 NA
ATOM     22  N   UNL     1      -3.091   5.573  -1.662  1.00  0.00    -0.309 N 
ATOM     23  N   UNL     1      -4.340   4.513  -3.122  1.00  0.00    -0.135 NA
ATOM     24  C   UNL     1      -4.065   4.615  -1.838  1.00  0.00     0.130 A 
ATOM     25  C   UNL     1      -2.535   5.963  -0.390  1.00  0.00     0.154 C 
ATOM     26  C   UNL     1      -4.683   3.830  -0.747  1.00  0.00     0.090 C 
ENDBRANCH  19  20
ENDBRANCH  12  19
ENDBRANCH   6   8
ENDBRANCH   5   6
ENDBRANCH   4   5
ENDBRANCH   3   4
ENDBRANCH   2   3
ENDBRANCH   1   2
BRANCH   1  27
ATOM     27  C   UNL     1       1.972  -0.230  -2.388  1.00  0.00     0.188 C 
BRANCH  27  28
ATOM     28  O   UNL     1       1.544  -1.558  -2.689  1.00  0.00    -0.376 OA
BRANCH  28  29
ATOM     29  C   UNL     1       2.047  -2.608  -1.867  1.00  0.00     0.202 C 
BRANCH  29  30
ATOM     30  C   UNL     1       3.558  -2.783  -1.949  1.00  0.00     0.261 C 
BRANCH  30  31
ATOM     31  O   UNL     1       4.184  -1.742  -1.183  1.00  0.00    -0.460 OA
BRANCH  31  32
ATOM     32  C   UNL     1       5.503  -1.598  -1.397  1.00  0.00     0.338 C 
ATOM     33  O   UNL     1       6.222  -2.324  -2.072  1.00  0.00    -0.246 OA
BRANCH  32  34
ATOM     34  C   UNL     1       5.974  -0.382  -0.715  1.00  0.00     0.060 A 
ATOM     35  C   UNL     1       5.567   0.872  -1.180  1.00  0.00     0.016 A 
ATOM     36  C   UNL     1       6.954  -0.485   0.271  1.00  0.00     0.016 A 
ATOM     37  C   UNL     1       6.222   2.020  -0.736  1.00  0.00     0.010 A 
ATOM     38  C   UNL     1       7.588   0.672   0.735  1.00  0.00     0.010 A 
ATOM     39  C   UNL     1       7.281   1.925   0.173  1.00  0.00    -0.014 A 
BRANCH  39  40
ATOM     40  C   UNL     1       8.231   3.064   0.311  1.00  0.00     0.031 A 
ATOM     41  C   UNL     1       9.606   2.922  -0.293  1.00  0.00     0.074 A 
ATOM     42  C   UNL     1       7.879   4.239   0.864  1.00  0.00     0.049 A 
ATOM     43  N   UNL     1      10.653   3.697  -0.179  1.00  0.00    -0.248 NA
ATOM     44  C   UNL     1       9.826   1.737  -1.139  1.00  0.00     0.031 C 
ATOM     45  C   UNL     1       6.556   4.569   1.388  1.00  0.00     0.029 A 
ATOM     46  N   UNL     1       8.617   5.380   1.067  1.00  0.00    -0.354 N 
ATOM     47  C   UNL     1      11.673   3.058  -0.877  1.00  0.00     0.074 A 
ATOM     48  C   UNL     1      11.116   1.839  -1.419  1.00  0.00     0.031 C 
ATOM     49  C   UNL     1       6.573   5.833   1.846  1.00  0.00     0.029 A 
ATOM     50  C   UNL     1       7.923   6.380   1.704  1.00  0.00     0.049 A 
ATOM     51  H   UNL     1       9.555   5.472   0.782  1.00  0.00     0.167 HD
ATOM     52  C   UNL     1      12.960   3.445  -1.046  1.00  0.00     0.037 A 
ATOM     53  C   UNL     1       8.335   7.582   2.155  1.00  0.00     0.037 A 
ATOM     54  C   UNL     1      13.504   4.682  -0.557  1.00  0.00     0.049 A 
ATOM     55  C   UNL     1       9.772   7.996   1.971  1.00  0.00     0.074 A 
ATOM     56  C   UNL     1      14.802   5.152  -0.649  1.00  0.00     0.029 A 
ATOM     57  N   UNL     1      12.771   5.658   0.101  1.00  0.00    -0.354 N 
ATOM     58  N   UNL     1      10.754   7.340   1.400  1.00  0.00    -0.248 NA
ATOM     59  C   UNL     1      10.160   9.309   2.506  1.00  0.00     0.031 C 
ATOM     60  C   UNL     1      14.858   6.406  -0.027  1.00  0.00     0.029 A 
ATOM     61  C   UNL     1      13.587   6.730   0.421  1.00  0.00     0.049 A 
ATOM     62  H   UNL     1      11.811   5.598   0.310  1.00  0.00     0.167 HD
ATOM     63  C   UNL     1      11.874   8.161   1.502  1.00  0.00     0.074 A 
ATOM     64  C   UNL     1      11.443   9.371   2.171  1.00  0.00     0.031 C 
ATOM     65  C   UNL     1      13.144   7.930   1.086  1.00  0.00     0.037 A 
BRANCH  52  66
ATOM     66  C   UNL     1      13.872   2.467  -1.731  1.00  0.00     0.058 A 
ATOM     67  C   UNL     1      13.806   2.220  -3.111  1.00  0.00     0.135 A 
ATOM     68  C   UNL     1      14.787   1.719  -0.973  1.00  0.00     0.135 A 
ATOM     69  F   UNL     1      12.930   2.890  -3.877  1.00  0.00    -0.206 F 
ATOM     70  C   UNL     1      14.578   1.227  -3.707  1.00  0.00     0.059 A 
ATOM     71  C   UNL     1      15.587   0.740  -1.551  1.00  0.00     0.059 A 
ATOM     72  F   UNL     1      14.888   1.916   0.351  1.00  0.00    -0.206 F 
ATOM     73  C   UNL     1      15.454   0.481  -2.915  1.00  0.00     0.060 A 
BRANCH  73  74
ATOM     74  S   UNL     1      16.405  -0.849  -3.678  1.00  0.00     0.124 S 
ATOM     75  O   UNL     1      15.405  -1.910  -3.758  1.00  0.00    -0.237 OA
ATOM     76  O   UNL     1      16.807  -0.262  -4.952  1.00  0.00    -0.237 OA
ATOM     77  O   UNL     1      17.489  -1.077  -2.728  1.00  0.00    -0.744 OA
ENDBRANCH  73  74
ENDBRANCH  52  66
BRANCH  53  78
ATOM     78  C   UNL     1       7.372   8.466   2.863  1.00  0.00     0.058 A 
ATOM     79  C   UNL     1       6.885   9.638   2.268  1.00  0.00     0.135 A 
ATOM     80  C   UNL     1       6.893   8.131   4.140  1.00  0.00     0.135 A 
ATOM     81  F   UNL     1       7.327  10.009   1.057  1.00  0.00    -0.206 F 
ATOM     82  C   UNL     1       5.947  10.442   2.908  1.00  0.00     0.059 A 
ATOM     83  C   UNL     1       5.937   8.905   4.788  1.00  0.00     0.059 A 
ATOM     84  F   UNL     1       7.326   7.017   4.750  1.00  0.00    -0.206 F 
ATOM     85  C   UNL     1       5.470  10.061   4.164  1.00  0.00     0.060 A 
BRANCH  85  86
ATOM     86  S   UNL     1       4.173  11.049   4.941  1.00  0.00     0.124 S 
ATOM     87  O   UNL     1       4.933  12.184   5.450  1.00  0.00    -0.237 OA
ATOM     88  O   UNL     1       3.282  11.327   3.819  1.00  0.00    -0.237 OA
ATOM     89  O   UNL     1       3.628  10.146   5.952  1.00  0.00    -0.744 OA
ENDBRANCH  85  86
ENDBRANCH  53  78
BRANCH  65  90
ATOM     90  C   UNL     1      14.158   9.015   1.320  1.00  0.00     0.058 A 
ATOM     91  C   UNL     1      14.692   9.261   2.595  1.00  0.00     0.135 A 
ATOM     92  C   UNL     1      14.634   9.788   0.249  1.00  0.00     0.135 A 
ATOM     93  F   UNL     1      14.269   8.551   3.653  1.00  0.00    -0.206 F 
ATOM     94  C   UNL     1      15.644  10.254   2.805  1.00  0.00     0.059 A 
ATOM     95  C   UNL     1      15.601  10.772   0.432  1.00  0.00     0.059 A 
ATOM     96  F   UNL     1      14.166   9.584  -0.992  1.00  0.00    -0.206 F 
ATOM     97  C   UNL     1      16.090  11.008   1.717  1.00  0.00     0.060 A 
BRANCH  97  98
ATOM     98  S   UNL     1      17.339  12.283   1.993  1.00  0.00     0.124 S 
ATOM     99  O   UNL     1      16.535  13.361   2.560  1.00  0.00    -0.237 OA
ATOM    100  O   UNL     1      18.262  11.628   2.915  1.00  0.00    -0.237 OA
ATOM    101  O   UNL     1      17.870  12.531   0.656  1.00  0.00    -0.744 OA
ENDBRANCH  97  98
ENDBRANCH  65  90
ENDBRANCH  39  40
ENDBRANCH  32  34
ENDBRANCH  31  32
ENDBRANCH  30  31
ENDBRANCH  29  30
ENDBRANCH  28  29
ENDBRANCH  27  28
ENDBRANCH   1  27
TORSDOF 25
