REMARK SMILES CC[C@]1(C(=O)OCCOCCOCCOC(=O)c2ccc(-c3c4nc(c(-c5c(F)cc(S(=O)(=O)[O-])cc5F)c5ccc([nH]5)c(-c5c(F)cc(S(=O)(=O)[O-])cc5F)c5nc(c(-c6c(F)cc(S(=O)(=O)[O-])cc6F)c6ccc3[nH]6)C=C5)C=C4)cc2)CCN(C(=O)N(C)CCc2cccs2)C1
REMARK SMILES IDX 10 1 9 2 8 3 7 4 6 5 4 6 5 7 3 8 84 9 98 10 85 11 86 12 2 13
REMARK SMILES IDX 1 14 87 15 88 16 89 17 90 18 91 19 92 20 93 21 94 22 97 23
REMARK SMILES IDX 95 24 96 25 11 26 12 27 13 28 14 29 15 30 16 31 17 32 18 33
REMARK SMILES IDX 19 34 83 35 20 36 82 37 21 38 22 39 23 40 76 41 24 42 81 43
REMARK SMILES IDX 75 44 77 45 25 46 80 47 74 48 73 49 26 51 60 52 39 53 59 54
REMARK SMILES IDX 40 55 43 56 58 57 78 58 41 59 42 60 57 62 79 63 44 64 27 65
REMARK SMILES IDX 28 66 37 67 29 68 30 69 36 70 38 71 31 72 32 73 33 74 34 75
REMARK SMILES IDX 35 76 61 77 62 78 71 79 63 80 64 81 70 82 72 83 65 84 66 85
REMARK SMILES IDX 67 86 68 87 69 88 45 89 46 90 55 91 47 92 48 93 54 94 56 95
REMARK SMILES IDX 49 96 50 97 51 98 52 99 53 100
REMARK H PARENT 77 50 43 61
REMARK Flexibility Score: inf
ROOT
ATOM      1  C   UNL     1       4.047   2.426  -0.922  1.00  0.00     0.188 C 
ENDROOT
BRANCH   1   2
ATOM      2  O   UNL     1       5.302   1.773  -1.076  1.00  0.00    -0.376 OA
BRANCH   2   3
ATOM      3  C   UNL     1       5.563   1.070  -2.288  1.00  0.00     0.202 C 
BRANCH   3   4
ATOM      4  C   UNL     1       4.523   0.052  -2.792  1.00  0.00     0.261 C 
BRANCH   4   5
ATOM      5  O   UNL     1       3.178   0.567  -2.883  1.00  0.00    -0.463 OA
BRANCH   5   6
ATOM      6  C   UNL     1       2.174  -0.256  -2.478  1.00  0.00     0.314 C 
ATOM      7  O   UNL     1       2.353  -1.422  -2.145  1.00  0.00    -0.252 OA
BRANCH   6   8
ATOM      8  C   UNL     1       0.791   0.428  -2.428  1.00  0.00     0.087 C 
ATOM      9  C   UNL     1       0.641   1.668  -3.337  1.00  0.00     0.042 C 
ATOM     10  C   UNL     1      -0.212  -0.558  -3.062  1.00  0.00     0.140 C 
ATOM     11  C   UNL     1      -0.742   1.600  -3.934  1.00  0.00     0.122 C 
ATOM     12  N   UNL     1      -1.083   0.206  -3.954  1.00  0.00    -0.323 N 
BRANCH   8  13
ATOM     13  C   UNL     1       0.398   0.810  -0.977  1.00  0.00     0.017 C 
ATOM     14  C   UNL     1       0.713  -0.225   0.096  1.00  0.00     0.005 C 
ENDBRANCH   8  13
BRANCH  12  15
ATOM     15  C   UNL     1      -1.959  -0.477  -4.763  1.00  0.00     0.319 C 
ATOM     16  O   UNL     1      -2.112  -1.691  -4.612  1.00  0.00    -0.248 OA
BRANCH  15  17
ATOM     17  N   UNL     1      -2.562   0.183  -5.819  1.00  0.00    -0.327 N 
ATOM     18  C   UNL     1      -2.998   1.569  -5.842  1.00  0.00     0.148 C 
BRANCH  17  19
ATOM     19  C   UNL     1      -2.877  -0.618  -7.010  1.00  0.00     0.126 C 
BRANCH  19  20
ATOM     20  C   UNL     1      -1.661  -0.862  -7.928  1.00  0.00     0.068 C 
BRANCH  20  21
ATOM     21  C   UNL     1      -0.688  -1.871  -7.382  1.00  0.00     0.006 A 
ATOM     22  C   UNL     1       0.513  -1.643  -6.737  1.00  0.00     0.015 A 
ATOM     23  S   UNL     1      -1.033  -3.548  -7.487  1.00  0.00    -0.149 S 
ATOM     24  C   UNL     1       1.083  -2.842  -6.219  1.00  0.00     0.012 A 
ATOM     25  C   UNL     1       0.328  -3.949  -6.533  1.00  0.00     0.065 A 
ENDBRANCH  20  21
ENDBRANCH  19  20
ENDBRANCH  17  19
ENDBRANCH  15  17
ENDBRANCH  12  15
ENDBRANCH   6   8
ENDBRANCH   5   6
ENDBRANCH   4   5
ENDBRANCH   3   4
ENDBRANCH   2   3
ENDBRANCH   1   2
BRANCH   1  26
ATOM     26  C   UNL     1       3.493   3.232  -2.106  1.00  0.00     0.188 C 
BRANCH  26  27
ATOM     27  O   UNL     1       4.342   3.296  -3.226  1.00  0.00    -0.376 OA
BRANCH  27  28
ATOM     28  C   UNL     1       4.812   4.556  -3.654  1.00  0.00     0.202 C 
BRANCH  28  29
ATOM     29  C   UNL     1       5.451   5.518  -2.637  1.00  0.00     0.261 C 
BRANCH  29  30
ATOM     30  O   UNL     1       4.836   5.612  -1.341  1.00  0.00    -0.460 OA
BRANCH  30  31
ATOM     31  C   UNL     1       3.696   6.336  -1.246  1.00  0.00     0.338 C 
ATOM     32  O   UNL     1       3.133   6.928  -2.155  1.00  0.00    -0.246 OA
BRANCH  31  33
ATOM     33  C   UNL     1       3.101   6.075   0.089  1.00  0.00     0.060 A 
ATOM     34  C   UNL     1       1.814   5.521   0.163  1.00  0.00     0.016 A 
ATOM     35  C   UNL     1       3.812   6.352   1.258  1.00  0.00     0.016 A 
ATOM     36  C   UNL     1       1.225   5.268   1.406  1.00  0.00     0.010 A 
ATOM     37  C   UNL     1       3.211   6.122   2.501  1.00  0.00     0.010 A 
ATOM     38  C   UNL     1       1.903   5.608   2.583  1.00  0.00    -0.014 A 
BRANCH  38  39
ATOM     39  C   UNL     1       1.183   5.624   3.884  1.00  0.00     0.031 A 
ATOM     40  C   UNL     1       0.657   6.942   4.389  1.00  0.00     0.074 A 
ATOM     41  C   UNL     1       0.992   4.505   4.608  1.00  0.00     0.049 A 
ATOM     42  N   UNL     1       0.082   7.229   5.528  1.00  0.00    -0.248 NA
ATOM     43  C   UNL     1       0.805   8.093   3.483  1.00  0.00     0.031 C 
ATOM     44  C   UNL     1       1.405   3.160   4.216  1.00  0.00     0.029 A 
ATOM     45  N   UNL     1       0.410   4.332   5.841  1.00  0.00    -0.354 N 
ATOM     46  C   UNL     1      -0.192   8.592   5.480  1.00  0.00     0.074 A 
ATOM     47  C   UNL     1       0.308   9.080   4.213  1.00  0.00     0.031 C 
ATOM     48  C   UNL     1       1.083   2.301   5.200  1.00  0.00     0.029 A 
ATOM     49  C   UNL     1       0.475   3.040   6.307  1.00  0.00     0.049 A 
ATOM     50  H   UNL     1      -0.013   5.065   6.344  1.00  0.00     0.167 HD
ATOM     51  C   UNL     1      -0.810   9.367   6.403  1.00  0.00     0.037 A 
ATOM     52  C   UNL     1       0.115   2.520   7.500  1.00  0.00     0.037 A 
ATOM     53  C   UNL     1      -1.300   8.883   7.667  1.00  0.00     0.049 A 
ATOM     54  C   UNL     1      -0.495   3.419   8.549  1.00  0.00     0.074 A 
ATOM     55  C   UNL     1      -1.945   9.590   8.667  1.00  0.00     0.029 A 
ATOM     56  N   UNL     1      -1.193   7.573   8.111  1.00  0.00    -0.354 N 
ATOM     57  N   UNL     1      -0.762   4.703   8.487  1.00  0.00    -0.248 NA
ATOM     58  C   UNL     1      -0.856   2.797   9.833  1.00  0.00     0.031 C 
ATOM     59  C   UNL     1      -2.179   8.721   9.737  1.00  0.00     0.029 A 
ATOM     60  C   UNL     1      -1.738   7.457   9.380  1.00  0.00     0.049 A 
ATOM     61  H   UNL     1      -0.790   6.835   7.600  1.00  0.00     0.167 HD
ATOM     62  C   UNL     1      -1.352   5.031   9.706  1.00  0.00     0.074 A 
ATOM     63  C   UNL     1      -1.412   3.811  10.481  1.00  0.00     0.031 C 
ATOM     64  C   UNL     1      -1.806   6.234  10.141  1.00  0.00     0.037 A 
BRANCH  51  65
ATOM     65  C   UNL     1      -0.968  10.830   6.089  1.00  0.00     0.058 A 
ATOM     66  C   UNL     1      -1.853  11.283   5.097  1.00  0.00     0.135 A 
ATOM     67  C   UNL     1      -0.245  11.794   6.811  1.00  0.00     0.135 A 
ATOM     68  F   UNL     1      -2.553  10.404   4.362  1.00  0.00    -0.206 F 
ATOM     69  C   UNL     1      -1.995  12.637   4.813  1.00  0.00     0.059 A 
ATOM     70  C   UNL     1      -0.395  13.155   6.565  1.00  0.00     0.059 A 
ATOM     71  F   UNL     1       0.617  11.416   7.767  1.00  0.00    -0.206 F 
ATOM     72  C   UNL     1      -1.262  13.566   5.554  1.00  0.00     0.060 A 
BRANCH  72  73
ATOM     73  S   UNL     1      -1.461  15.319   5.173  1.00  0.00     0.124 S 
ATOM     74  O   UNL     1      -0.792  15.414   3.880  1.00  0.00    -0.237 OA
ATOM     75  O   UNL     1      -2.913  15.468   5.148  1.00  0.00    -0.237 OA
ATOM     76  O   UNL     1      -0.784  15.987   6.280  1.00  0.00    -0.744 OA
ENDBRANCH  72  73
ENDBRANCH  51  65
BRANCH  52  77
ATOM     77  C   UNL     1       0.338   1.075   7.787  1.00  0.00     0.058 A 
ATOM     78  C   UNL     1      -0.739   0.193   7.957  1.00  0.00     0.135 A 
ATOM     79  C   UNL     1       1.634   0.553   7.923  1.00  0.00     0.135 A 
ATOM     80  F   UNL     1      -1.999   0.644   7.855  1.00  0.00    -0.206 F 
ATOM     81  C   UNL     1      -0.542  -1.149   8.271  1.00  0.00     0.059 A 
ATOM     82  C   UNL     1       1.858  -0.791   8.206  1.00  0.00     0.059 A 
ATOM     83  F   UNL     1       2.701   1.352   7.766  1.00  0.00    -0.206 F 
ATOM     84  C   UNL     1       0.762  -1.632   8.391  1.00  0.00     0.060 A 
BRANCH  84  85
ATOM     85  S   UNL     1       1.006  -3.383   8.761  1.00  0.00     0.124 S 
ATOM     86  O   UNL     1       0.586  -3.450  10.155  1.00  0.00    -0.237 OA
ATOM     87  O   UNL     1       0.121  -4.025   7.795  1.00  0.00    -0.237 OA
ATOM     88  O   UNL     1       2.433  -3.580   8.521  1.00  0.00    -0.744 OA
ENDBRANCH  84  85
ENDBRANCH  52  77
BRANCH  64  89
ATOM     89  C   UNL     1      -2.458   6.290  11.499  1.00  0.00     0.058 A 
ATOM     90  C   UNL     1      -1.720   6.154  12.686  1.00  0.00     0.135 A 
ATOM     91  C   UNL     1      -3.836   6.541  11.613  1.00  0.00     0.135 A 
ATOM     92  F   UNL     1      -0.401   5.911  12.637  1.00  0.00    -0.206 F 
ATOM     93  C   UNL     1      -2.329   6.237  13.935  1.00  0.00     0.059 A 
ATOM     94  C   UNL     1      -4.460   6.659  12.852  1.00  0.00     0.059 A 
ATOM     95  F   UNL     1      -4.589   6.693  10.512  1.00  0.00    -0.206 F 
ATOM     96  C   UNL     1      -3.700   6.493  14.008  1.00  0.00     0.060 A 
BRANCH  96  97
ATOM     97  S   UNL     1      -4.471   6.628  15.635  1.00  0.00     0.124 S 
ATOM     98  O   UNL     1      -4.464   5.239  16.082  1.00  0.00    -0.237 OA
ATOM     99  O   UNL     1      -3.559   7.525  16.339  1.00  0.00    -0.237 OA
ATOM    100  O   UNL     1      -5.788   7.187  15.343  1.00  0.00    -0.744 OA
ENDBRANCH  96  97
ENDBRANCH  64  89
ENDBRANCH  38  39
ENDBRANCH  31  33
ENDBRANCH  30  31
ENDBRANCH  29  30
ENDBRANCH  28  29
ENDBRANCH  27  28
ENDBRANCH  26  27
ENDBRANCH   1  26
TORSDOF 26
