REMARK SMILES COc1ccc2c(c1)c(CC(=O)OCCOCCOCCOC(=O)c1ccc(-c3c4nc(c(-c5c(F)cc(S(=O)(=O)[O-])cc5F)c5ccc([nH]5)c(-c5c(F)cc(S(=O)(=O)[O-])cc5F)c5nc(c(-c6c(F)cc(S(=O)(=O)[O-])cc6F)c6ccc3[nH]6)C=C5)C=C4)cc1)c(C)n2Cc1ccc(Br)cc1
REMARK SMILES IDX 17 1 16 2 15 3 14 4 13 5 11 6 12 7 10 8 9 9 3 10 4 11 8 12
REMARK SMILES IDX 5 13 7 14 6 15 93 16 91 17 92 18 2 19 1 20 94 21 95 22 96 23
REMARK SMILES IDX 101 24 97 25 100 26 98 27 99 28 18 29 19 30 20 31 21 32
REMARK SMILES IDX 22 33 23 34 24 35 25 36 26 37 90 38 27 39 89 40 28 41 29 42
REMARK SMILES IDX 30 43 83 44 31 45 88 46 82 47 84 48 32 49 87 50 81 51 80 52
REMARK SMILES IDX 33 54 67 55 46 56 66 57 47 58 50 59 65 60 85 61 48 62 49 63
REMARK SMILES IDX 64 65 86 66 51 67 34 68 35 69 44 70 36 71 37 72 43 73 45 74
REMARK SMILES IDX 38 75 39 76 40 77 41 78 42 79 68 80 69 81 78 82 70 83 71 84
REMARK SMILES IDX 77 85 79 86 72 87 73 88 74 89 75 90 76 91 52 92 53 93 62 94
REMARK SMILES IDX 54 95 55 96 61 97 63 98 56 99 57 100 58 101 59 102 60 103
REMARK H PARENT 84 53 50 64
REMARK Flexibility Score: inf
ROOT
ATOM      1  C   UNL     1      -2.210   3.960   3.735  1.00  0.00     0.188 C 
ENDROOT
BRANCH   1   2
ATOM      2  O   UNL     1      -2.579   5.266   4.129  1.00  0.00    -0.376 OA
BRANCH   2   3
ATOM      3  C   UNL     1      -2.039   5.734   5.357  1.00  0.00     0.202 C 
BRANCH   3   4
ATOM      4  C   UNL     1      -2.206   4.791   6.561  1.00  0.00     0.261 C 
BRANCH   4   5
ATOM      5  O   UNL     1      -1.293   3.670   6.450  1.00  0.00    -0.463 OA
BRANCH   5   6
ATOM      6  C   UNL     1      -1.734   2.474   6.924  1.00  0.00     0.310 C 
ATOM      7  O   UNL     1      -2.642   2.381   7.743  1.00  0.00    -0.252 OA
BRANCH   6   8
ATOM      8  C   UNL     1      -1.177   1.272   6.163  1.00  0.00     0.160 C 
BRANCH   8   9
ATOM      9  C   UNL     1       0.272   0.894   6.247  1.00  0.00    -0.008 A 
ATOM     10  C   UNL     1       2.027   0.097   2.908  1.00  0.00     0.119 A 
ATOM     11  C   UNL     1       3.172  -0.452   3.450  1.00  0.00     0.048 A 
ATOM     12  C   UNL     1       1.097   0.674   3.775  1.00  0.00     0.057 A 
ATOM     13  C   UNL     1       3.381  -0.424   4.850  1.00  0.00     0.031 A 
ATOM     14  C   UNL     1       1.187   0.614   5.172  1.00  0.00     0.007 A 
ATOM     15  C   UNL     1       2.354   0.064   5.695  1.00  0.00     0.049 A 
ATOM     16  N   UNL     1       2.197   0.131   7.068  1.00  0.00    -0.340 N 
ATOM     17  C   UNL     1       0.858   0.317   7.360  1.00  0.00     0.020 A 
ATOM     18  C   UNL     1       0.173  -0.106   8.616  1.00  0.00     0.065 C 
BRANCH  10  19
ATOM     19  O   UNL     1       1.647   0.167   1.601  1.00  0.00    -0.497 OA
ATOM     20  C   UNL     1       2.333  -0.560   0.597  1.00  0.00     0.278 C 
ENDBRANCH  10  19
BRANCH  16  21
ATOM     21  C   UNL     1       3.258  -0.025   8.053  1.00  0.00     0.157 C 
BRANCH  21  22
ATOM     22  C   UNL     1       3.537   1.295   8.746  1.00  0.00    -0.028 A 
ATOM     23  C   UNL     1       2.692   1.771   9.762  1.00  0.00     0.007 A 
ATOM     24  C   UNL     1       4.613   2.099   8.346  1.00  0.00     0.007 A 
ATOM     25  C   UNL     1       2.890   3.021  10.346  1.00  0.00     0.016 A 
ATOM     26  C   UNL     1       4.838   3.338   8.955  1.00  0.00     0.016 A 
ATOM     27  C   UNL     1       3.971   3.796   9.947  1.00  0.00     0.017 A 
ATOM     28  Br  UNL     1       4.267   5.474  10.761  1.00  0.00    -0.051 Br
ENDBRANCH  21  22
ENDBRANCH  16  21
ENDBRANCH   8   9
ENDBRANCH   6   8
ENDBRANCH   5   6
ENDBRANCH   4   5
ENDBRANCH   3   4
ENDBRANCH   2   3
ENDBRANCH   1   2
BRANCH   1  29
ATOM     29  C   UNL     1      -0.710   3.627   3.660  1.00  0.00     0.188 C 
BRANCH  29  30
ATOM     30  O   UNL     1       0.215   4.643   3.344  1.00  0.00    -0.376 OA
BRANCH  30  31
ATOM     31  C   UNL     1       0.214   5.117   2.009  1.00  0.00     0.202 C 
BRANCH  31  32
ATOM     32  C   UNL     1      -0.063   4.111   0.865  1.00  0.00     0.261 C 
BRANCH  32  33
ATOM     33  O   UNL     1      -1.379   3.512   0.946  1.00  0.00    -0.460 OA
BRANCH  33  34
ATOM     34  C   UNL     1      -1.465   2.201   0.515  1.00  0.00     0.338 C 
ATOM     35  O   UNL     1      -0.712   1.681  -0.255  1.00  0.00    -0.246 OA
BRANCH  34  36
ATOM     36  C   UNL     1      -2.396   1.441   1.419  1.00  0.00     0.060 A 
ATOM     37  C   UNL     1      -3.746   1.711   1.627  1.00  0.00     0.016 A 
ATOM     38  C   UNL     1      -1.812   0.412   2.167  1.00  0.00     0.016 A 
ATOM     39  C   UNL     1      -4.451   1.011   2.636  1.00  0.00     0.010 A 
ATOM     40  C   UNL     1      -2.477  -0.223   3.224  1.00  0.00     0.010 A 
ATOM     41  C   UNL     1      -3.810   0.075   3.485  1.00  0.00    -0.014 A 
BRANCH  41  42
ATOM     42  C   UNL     1      -4.602  -0.917   4.255  1.00  0.00     0.031 A 
ATOM     43  C   UNL     1      -5.216  -1.870   3.312  1.00  0.00     0.074 A 
ATOM     44  C   UNL     1      -4.750  -1.215   5.572  1.00  0.00     0.049 A 
ATOM     45  N   UNL     1      -6.342  -1.679   2.711  1.00  0.00    -0.248 NA
ATOM     46  C   UNL     1      -4.450  -3.024   2.820  1.00  0.00     0.031 C 
ATOM     47  C   UNL     1      -4.072  -0.626   6.714  1.00  0.00     0.029 A 
ATOM     48  N   UNL     1      -5.546  -2.165   6.184  1.00  0.00    -0.354 N 
ATOM     49  C   UNL     1      -6.583  -2.877   2.074  1.00  0.00     0.074 A 
ATOM     50  C   UNL     1      -5.301  -3.516   1.913  1.00  0.00     0.031 C 
ATOM     51  C   UNL     1      -4.271  -1.364   7.834  1.00  0.00     0.029 A 
ATOM     52  C   UNL     1      -5.299  -2.350   7.549  1.00  0.00     0.049 A 
ATOM     53  H   UNL     1      -6.234  -2.672   5.696  1.00  0.00     0.167 HD
ATOM     54  C   UNL     1      -7.826  -3.420   2.148  1.00  0.00     0.037 A 
ATOM     55  C   UNL     1      -5.994  -3.098   8.450  1.00  0.00     0.037 A 
ATOM     56  C   UNL     1      -8.774  -2.501   2.736  1.00  0.00     0.049 A 
ATOM     57  C   UNL     1      -7.402  -3.124   7.993  1.00  0.00     0.074 A 
ATOM     58  C   UNL     1      -9.416  -1.334   2.383  1.00  0.00     0.029 A 
ATOM     59  N   UNL     1      -8.866  -2.607   4.097  1.00  0.00    -0.354 N 
ATOM     60  N   UNL     1      -8.178  -2.075   7.973  1.00  0.00    -0.248 NA
ATOM     61  C   UNL     1      -7.916  -4.306   7.310  1.00  0.00     0.031 C 
ATOM     62  C   UNL     1      -9.852  -0.716   3.595  1.00  0.00     0.029 A 
ATOM     63  C   UNL     1      -9.487  -1.525   4.663  1.00  0.00     0.049 A 
ATOM     64  H   UNL     1      -8.524  -3.374   4.611  1.00  0.00     0.167 HD
ATOM     65  C   UNL     1      -9.049  -2.329   6.938  1.00  0.00     0.074 A 
ATOM     66  C   UNL     1      -8.962  -3.760   6.690  1.00  0.00     0.031 C 
ATOM     67  C   UNL     1      -9.434  -1.331   6.098  1.00  0.00     0.037 A 
BRANCH  54  68
ATOM     68  C   UNL     1      -8.091  -4.900   2.179  1.00  0.00     0.058 A 
ATOM     69  C   UNL     1      -9.388  -5.358   1.889  1.00  0.00     0.135 A 
ATOM     70  C   UNL     1      -7.204  -5.853   2.727  1.00  0.00     0.135 A 
ATOM     71  F   UNL     1     -10.319  -4.511   1.423  1.00  0.00    -0.206 F 
ATOM     72  C   UNL     1      -9.776  -6.674   2.123  1.00  0.00     0.059 A 
ATOM     73  C   UNL     1      -7.548  -7.185   2.907  1.00  0.00     0.059 A 
ATOM     74  F   UNL     1      -6.000  -5.513   3.205  1.00  0.00    -0.206 F 
ATOM     75  C   UNL     1      -8.845  -7.582   2.624  1.00  0.00     0.060 A 
BRANCH  75  76
ATOM     76  S   UNL     1      -9.349  -9.280   2.930  1.00  0.00     0.124 S 
ATOM     77  O   UNL     1     -10.199  -9.122   4.104  1.00  0.00    -0.237 OA
ATOM     78  O   UNL     1     -10.031  -9.621   1.685  1.00  0.00    -0.237 OA
ATOM     79  O   UNL     1      -8.081  -9.970   3.149  1.00  0.00    -0.744 OA
ENDBRANCH  75  76
ENDBRANCH  54  68
BRANCH  55  80
ATOM     80  C   UNL     1      -5.570  -3.895   9.640  1.00  0.00     0.058 A 
ATOM     81  C   UNL     1      -6.530  -4.478  10.498  1.00  0.00     0.135 A 
ATOM     82  C   UNL     1      -4.261  -4.394   9.758  1.00  0.00     0.135 A 
ATOM     83  F   UNL     1      -7.803  -4.054  10.482  1.00  0.00    -0.206 F 
ATOM     84  C   UNL     1      -6.241  -5.569  11.324  1.00  0.00     0.059 A 
ATOM     85  C   UNL     1      -3.945  -5.478  10.587  1.00  0.00     0.059 A 
ATOM     86  F   UNL     1      -3.272  -3.903   8.995  1.00  0.00    -0.206 F 
ATOM     87  C   UNL     1      -4.951  -6.090  11.331  1.00  0.00     0.060 A 
BRANCH  87  88
ATOM     88  S   UNL     1      -4.642  -7.650  12.199  1.00  0.00     0.124 S 
ATOM     89  O   UNL     1      -4.781  -7.253  13.596  1.00  0.00    -0.237 OA
ATOM     90  O   UNL     1      -5.698  -8.509  11.674  1.00  0.00    -0.237 OA
ATOM     91  O   UNL     1      -3.288  -8.005  11.783  1.00  0.00    -0.744 OA
ENDBRANCH  87  88
ENDBRANCH  55  80
BRANCH  67  92
ATOM     92  C   UNL     1      -9.717   0.019   6.677  1.00  0.00     0.058 A 
ATOM     93  C   UNL     1      -8.773   0.906   7.218  1.00  0.00     0.135 A 
ATOM     94  C   UNL     1     -11.051   0.457   6.614  1.00  0.00     0.135 A 
ATOM     95  F   UNL     1      -7.472   0.582   7.271  1.00  0.00    -0.206 F 
ATOM     96  C   UNL     1      -9.147   2.175   7.674  1.00  0.00     0.059 A 
ATOM     97  C   UNL     1     -11.440   1.722   7.037  1.00  0.00     0.059 A 
ATOM     98  F   UNL     1     -11.997  -0.345   6.096  1.00  0.00    -0.206 F 
ATOM     99  C   UNL     1     -10.481   2.578   7.567  1.00  0.00     0.060 A 
BRANCH  99 100
ATOM    100  S   UNL     1     -10.949   4.255   8.052  1.00  0.00     0.124 S 
ATOM    101  O   UNL     1     -10.787   4.217   9.501  1.00  0.00    -0.237 OA
ATOM    102  O   UNL     1      -9.982   5.073   7.324  1.00  0.00    -0.237 OA
ATOM    103  O   UNL     1     -12.328   4.375   7.583  1.00  0.00    -0.744 OA
ENDBRANCH  99 100
ENDBRANCH  67  92
ENDBRANCH  41  42
ENDBRANCH  34  36
ENDBRANCH  33  34
ENDBRANCH  32  33
ENDBRANCH  31  32
ENDBRANCH  30  31
ENDBRANCH  29  30
ENDBRANCH   1  29
TORSDOF 24
