REMARK SMILES Nc1ccc(O)c(C(=O)OCCOCCOCCOC(=O)c2ccc(-c3c4nc(c(-c5c(F)cc(S(=O)(=O)[O-])cc5F)c5ccc([nH]5)c(-c5c(F)cc(S(=O)(=O)[O-])cc5F)c5nc(c(-c6c(F)cc(S(=O)(=O)[O-])cc6F)c6ccc3[nH]6)C=C5)C=C4)cc2)c1
REMARK SMILES IDX 15 1 14 2 13 3 12 4 11 5 10 6 8 7 9 8 7 9 2 10 3 11 88 12
REMARK SMILES IDX 4 13 5 14 1 15 6 18 16 20 17 21 18 22 19 23 20 24 21 25
REMARK SMILES IDX 22 26 23 27 87 28 24 29 86 30 25 31 26 32 27 33 80 34 28 35
REMARK SMILES IDX 85 36 79 37 81 38 29 39 84 40 78 41 77 42 30 44 64 45 43 46
REMARK SMILES IDX 63 47 44 48 47 49 62 50 82 51 45 52 46 53 61 55 83 56 48 57
REMARK SMILES IDX 31 58 32 59 41 60 33 61 34 62 40 63 42 64 35 65 36 66 37 67
REMARK SMILES IDX 38 68 39 69 65 70 66 71 75 72 67 73 68 74 74 75 76 76 69 77
REMARK SMILES IDX 70 78 71 79 72 80 73 81 49 82 50 83 59 84 51 85 52 86 58 87
REMARK SMILES IDX 60 88 53 89 54 90 55 91 56 92 57 93
REMARK H PARENT 1 16 1 17 6 19 81 43 47 54
REMARK Flexibility Score: inf
ROOT
ATOM      1  C   UNL     1       1.363  -2.923  -2.138  1.00  0.00     0.188 C 
ENDROOT
BRANCH   1   2
ATOM      2  C   UNL     1       2.692  -3.083  -1.373  1.00  0.00     0.188 C 
BRANCH   2   3
ATOM      3  O   UNL     1       3.160  -4.367  -1.023  1.00  0.00    -0.376 OA
BRANCH   3   4
ATOM      4  C   UNL     1       2.423  -5.210  -0.159  1.00  0.00     0.202 C 
BRANCH   4   5
ATOM      5  C   UNL     1       1.528  -4.714   0.987  1.00  0.00     0.261 C 
BRANCH   5   6
ATOM      6  O   UNL     1       0.754  -3.536   0.743  1.00  0.00    -0.460 OA
BRANCH   6   7
ATOM      7  C   UNL     1       1.159  -2.438   1.430  1.00  0.00     0.342 C 
ATOM      8  O   UNL     1       2.106  -2.365   2.200  1.00  0.00    -0.246 OA
BRANCH   7   9
ATOM      9  C   UNL     1       0.456  -1.233   0.955  1.00  0.00     0.103 A 
ATOM     10  C   UNL     1      -1.556  -0.098   0.215  1.00  0.00     0.032 A 
ATOM     11  C   UNL     1      -0.799   1.061   0.007  1.00  0.00     0.029 A 
ATOM     12  C   UNL     1      -0.923  -1.243   0.708  1.00  0.00     0.045 A 
ATOM     13  C   UNL     1       0.579   1.069   0.232  1.00  0.00     0.049 A 
ATOM     14  C   UNL     1       1.202  -0.074   0.714  1.00  0.00     0.130 A 
BRANCH  10  15
ATOM     15  N   UNL     1      -2.933  -0.068   0.052  1.00  0.00    -0.399 N 
ATOM     16  H   UNL     1      -3.369   0.743  -0.296  1.00  0.00     0.156 HD
ATOM     17  H   UNL     1      -3.473  -0.857   0.284  1.00  0.00     0.156 HD
ENDBRANCH  10  15
BRANCH  14  18
ATOM     18  O   UNL     1       2.556   0.002   0.900  1.00  0.00    -0.507 OA
ATOM     19  H   UNL     1       3.009   0.803   0.724  1.00  0.00     0.293 HD
ENDBRANCH  14  18
ENDBRANCH   7   9
ENDBRANCH   6   7
ENDBRANCH   5   6
ENDBRANCH   4   5
ENDBRANCH   3   4
ENDBRANCH   2   3
ENDBRANCH   1   2
BRANCH   1  20
ATOM     20  O   UNL     1       0.594  -4.055  -2.484  1.00  0.00    -0.376 OA
BRANCH  20  21
ATOM     21  C   UNL     1       1.129  -5.053  -3.334  1.00  0.00     0.202 C 
BRANCH  21  22
ATOM     22  C   UNL     1       2.135  -4.787  -4.466  1.00  0.00     0.261 C 
BRANCH  22  23
ATOM     23  O   UNL     1       3.095  -3.748  -4.257  1.00  0.00    -0.460 OA
BRANCH  23  24
ATOM     24  C   UNL     1       2.919  -2.640  -5.013  1.00  0.00     0.338 C 
ATOM     25  O   UNL     1       2.022  -2.433  -5.826  1.00  0.00    -0.246 OA
BRANCH  24  26
ATOM     26  C   UNL     1       3.888  -1.611  -4.607  1.00  0.00     0.060 A 
ATOM     27  C   UNL     1       3.414  -0.440  -4.000  1.00  0.00     0.016 A 
ATOM     28  C   UNL     1       5.250  -1.778  -4.864  1.00  0.00     0.016 A 
ATOM     29  C   UNL     1       4.304   0.580  -3.665  1.00  0.00     0.010 A 
ATOM     30  C   UNL     1       6.136  -0.745  -4.546  1.00  0.00     0.010 A 
ATOM     31  C   UNL     1       5.664   0.450  -3.971  1.00  0.00    -0.014 A 
BRANCH  31  32
ATOM     32  C   UNL     1       6.568   1.620  -3.845  1.00  0.00     0.031 A 
ATOM     33  C   UNL     1       6.893   2.414  -5.082  1.00  0.00     0.074 A 
ATOM     34  C   UNL     1       7.085   1.976  -2.656  1.00  0.00     0.049 A 
ATOM     35  N   UNL     1       7.713   3.421  -5.230  1.00  0.00    -0.248 NA
ATOM     36  C   UNL     1       6.201   2.014  -6.319  1.00  0.00     0.031 C 
ATOM     37  C   UNL     1       6.810   1.316  -1.381  1.00  0.00     0.029 A 
ATOM     38  N   UNL     1       7.965   2.980  -2.332  1.00  0.00    -0.354 N 
ATOM     39  C   UNL     1       7.641   3.773  -6.573  1.00  0.00     0.074 A 
ATOM     40  C   UNL     1       6.720   2.853  -7.204  1.00  0.00     0.031 C 
ATOM     41  C   UNL     1       7.526   1.920  -0.415  1.00  0.00     0.029 A 
ATOM     42  C   UNL     1       8.332   2.986  -1.008  1.00  0.00     0.049 A 
ATOM     43  H   UNL     1       8.301   3.634  -2.987  1.00  0.00     0.167 HD
ATOM     44  C   UNL     1       8.278   4.778  -7.220  1.00  0.00     0.037 A 
ATOM     45  C   UNL     1       9.236   3.746  -0.356  1.00  0.00     0.037 A 
ATOM     46  C   UNL     1       9.194   5.691  -6.587  1.00  0.00     0.049 A 
ATOM     47  C   UNL     1       9.991   4.810  -1.115  1.00  0.00     0.074 A 
ATOM     48  C   UNL     1       9.882   6.749  -7.155  1.00  0.00     0.029 A 
ATOM     49  N   UNL     1       9.557   5.651  -5.249  1.00  0.00    -0.354 N 
ATOM     50  N   UNL     1       9.900   5.146  -2.381  1.00  0.00    -0.248 NA
ATOM     51  C   UNL     1      10.971   5.601  -0.356  1.00  0.00     0.031 C 
ATOM     52  C   UNL     1      10.699   7.317  -6.173  1.00  0.00     0.029 A 
ATOM     53  C   UNL     1      10.477   6.651  -4.979  1.00  0.00     0.049 A 
ATOM     54  H   UNL     1       9.212   5.008  -4.589  1.00  0.00     0.167 HD
ATOM     55  C   UNL     1      10.784   6.207  -2.559  1.00  0.00     0.074 A 
ATOM     56  C   UNL     1      11.393   6.463  -1.271  1.00  0.00     0.031 C 
ATOM     57  C   UNL     1      11.066   6.906  -3.687  1.00  0.00     0.037 A 
BRANCH  44  58
ATOM     58  C   UNL     1       8.024   4.933  -8.693  1.00  0.00     0.058 A 
ATOM     59  C   UNL     1       6.800   5.413  -9.186  1.00  0.00     0.135 A 
ATOM     60  C   UNL     1       9.036   4.646  -9.624  1.00  0.00     0.135 A 
ATOM     61  F   UNL     1       5.791   5.684  -8.342  1.00  0.00    -0.206 F 
ATOM     62  C   UNL     1       6.582   5.587 -10.549  1.00  0.00     0.059 A 
ATOM     63  C   UNL     1       8.850   4.838 -10.989  1.00  0.00     0.059 A 
ATOM     64  F   UNL     1      10.224   4.180  -9.208  1.00  0.00    -0.206 F 
ATOM     65  C   UNL     1       7.616   5.301 -11.443  1.00  0.00     0.060 A 
BRANCH  65  66
ATOM     66  S   UNL     1       7.324   5.555 -13.206  1.00  0.00     0.124 S 
ATOM     67  O   UNL     1       6.403   4.464 -13.510  1.00  0.00    -0.237 OA
ATOM     68  O   UNL     1       6.749   6.896 -13.236  1.00  0.00    -0.237 OA
ATOM     69  O   UNL     1       8.655   5.434 -13.793  1.00  0.00    -0.744 OA
ENDBRANCH  65  66
ENDBRANCH  44  58
BRANCH  45  70
ATOM     70  C   UNL     1       9.501   3.521   1.092  1.00  0.00     0.058 A 
ATOM     71  C   UNL     1       9.157   4.483   2.053  1.00  0.00     0.135 A 
ATOM     72  C   UNL     1      10.132   2.349   1.540  1.00  0.00     0.135 A 
ATOM     73  F   UNL     1       8.566   5.627   1.674  1.00  0.00    -0.206 F 
ATOM     74  C   UNL     1       9.450   4.305   3.402  1.00  0.00     0.059 A 
ATOM     75  C   UNL     1      10.409   2.135   2.887  1.00  0.00     0.059 A 
ATOM     76  F   UNL     1      10.477   1.393   0.664  1.00  0.00    -0.206 F 
ATOM     77  C   UNL     1      10.077   3.127   3.809  1.00  0.00     0.060 A 
BRANCH  77  78
ATOM     78  S   UNL     1      10.430   2.895   5.565  1.00  0.00     0.124 S 
ATOM     79  O   UNL     1      11.533   3.826   5.768  1.00  0.00    -0.237 OA
ATOM     80  O   UNL     1       9.161   3.263   6.185  1.00  0.00    -0.237 OA
ATOM     81  O   UNL     1      10.775   1.479   5.654  1.00  0.00    -0.744 OA
ENDBRANCH  77  78
ENDBRANCH  45  70
BRANCH  57  82
ATOM     82  C   UNL     1      12.040   8.049  -3.578  1.00  0.00     0.058 A 
ATOM     83  C   UNL     1      13.415   7.837  -3.395  1.00  0.00     0.135 A 
ATOM     84  C   UNL     1      11.596   9.375  -3.718  1.00  0.00     0.135 A 
ATOM     85  F   UNL     1      13.894   6.591  -3.251  1.00  0.00    -0.206 F 
ATOM     86  C   UNL     1      14.313   8.899  -3.330  1.00  0.00     0.059 A 
ATOM     87  C   UNL     1      12.479  10.450  -3.687  1.00  0.00     0.059 A 
ATOM     88  F   UNL     1      10.293   9.635  -3.908  1.00  0.00    -0.206 F 
ATOM     89  C   UNL     1      13.835  10.203  -3.481  1.00  0.00     0.060 A 
BRANCH  89  90
ATOM     90  S   UNL     1      15.015  11.569  -3.430  1.00  0.00     0.124 S 
ATOM     91  O   UNL     1      15.351  11.616  -2.010  1.00  0.00    -0.237 OA
ATOM     92  O   UNL     1      16.075  11.100  -4.317  1.00  0.00    -0.237 OA
ATOM     93  O   UNL     1      14.244  12.704  -3.930  1.00  0.00    -0.744 OA
ENDBRANCH  89  90
ENDBRANCH  57  82
ENDBRANCH  31  32
ENDBRANCH  24  26
ENDBRANCH  23  24
ENDBRANCH  22  23
ENDBRANCH  21  22
ENDBRANCH  20  21
ENDBRANCH   1  20
TORSDOF 22
