REMARK SMILES O=C(Cc1ccccc1)Nc1cccc(C(=O)Nc2ccccc2C(=O)OCCOCCOCCOC(=O)c2ccc(-c3c4nc(c(-c5c(F)cc(S(=O)(=O)[O-])cc5F)c5ccc([nH]5)c(-c5c(F)cc(S(=O)(=O)[O-])cc5F)c5nc(c(-c6c(F)cc(S(=O)(=O)[O-])cc6F)c6ccc3[nH]6)C=C5)C=C4)cc2)c1
REMARK SMILES IDX 31 1 30 2 29 3 28 4 27 5 25 6 26 7 24 8 19 9 20 10 21 11
REMARK SMILES IDX 23 12 22 13 18 14 16 15 17 16 15 18 11 19 12 20 105 21 13 22
REMARK SMILES IDX 14 23 10 24 1 25 2 26 3 28 4 29 5 30 9 31 6 32 8 33 7 34
REMARK SMILES IDX 32 35 33 36 34 37 35 38 36 39 37 40 38 41 39 42 40 43 104 44
REMARK SMILES IDX 41 45 103 46 42 47 43 48 44 49 97 50 45 51 102 52 96 53
REMARK SMILES IDX 98 54 46 55 101 56 95 57 94 58 47 60 81 61 60 62 80 63 61 64
REMARK SMILES IDX 64 65 79 66 99 67 62 68 63 69 78 71 100 72 65 73 48 74 49 75
REMARK SMILES IDX 58 76 50 77 51 78 57 79 59 80 52 81 53 82 54 83 55 84 56 85
REMARK SMILES IDX 82 86 83 87 92 88 84 89 85 90 91 91 93 92 86 93 87 94 88 95
REMARK SMILES IDX 89 96 90 97 66 98 67 99 76 100 68 101 69 102 75 103 77 104
REMARK SMILES IDX 70 105 71 106 72 107 73 108 74 109
REMARK H PARENT 18 17 10 27 98 59 64 70
REMARK Flexibility Score: inf
ROOT
ATOM      1  C   UNL     1       3.587  -5.107  -2.413  1.00  0.00     0.188 C 
ENDROOT
BRANCH   1   2
ATOM      2  O   UNL     1       3.907  -6.270  -1.691  1.00  0.00    -0.376 OA
BRANCH   2   3
ATOM      3  C   UNL     1       3.383  -6.482  -0.396  1.00  0.00     0.202 C 
BRANCH   3   4
ATOM      4  C   UNL     1       2.425  -5.541   0.344  1.00  0.00     0.261 C 
BRANCH   4   5
ATOM      5  O   UNL     1       1.565  -4.686  -0.414  1.00  0.00    -0.460 OA
BRANCH   5   6
ATOM      6  C   UNL     1       1.933  -3.378  -0.422  1.00  0.00     0.340 C 
ATOM      7  O   UNL     1       2.992  -2.939   0.010  1.00  0.00    -0.246 OA
BRANCH   6   8
ATOM      8  C   UNL     1       0.991  -2.528  -1.195  1.00  0.00     0.083 A 
ATOM      9  C   UNL     1      -0.412  -2.633  -1.223  1.00  0.00     0.056 A 
ATOM     10  C   UNL     1      -1.116  -1.796  -2.112  1.00  0.00     0.027 A 
ATOM     11  C   UNL     1      -0.466  -0.826  -2.882  1.00  0.00     0.002 A 
ATOM     12  C   UNL     1       1.638  -1.570  -2.011  1.00  0.00     0.018 A 
ATOM     13  C   UNL     1       0.915  -0.709  -2.829  1.00  0.00     0.001 A 
BRANCH   9  14
ATOM     14  N   UNL     1      -1.246  -3.459  -0.430  1.00  0.00    -0.321 N 
ATOM     15  C   UNL     1      -1.161  -3.919   0.869  1.00  0.00     0.255 C 
ATOM     16  O   UNL     1      -1.941  -4.788   1.258  1.00  0.00    -0.269 OA
ATOM     17  H   UNL     1      -2.052  -3.771  -0.902  1.00  0.00     0.170 HD
BRANCH  15  18
ATOM     18  C   UNL     1      -0.182  -3.356   1.831  1.00  0.00     0.042 A 
ATOM     19  C   UNL     1       1.462  -1.665   2.269  1.00  0.00     0.041 A 
ATOM     20  C   UNL     1       2.135  -2.561   3.114  1.00  0.00     0.026 A 
ATOM     21  C   UNL     1       0.226  -2.023   1.742  1.00  0.00     0.040 A 
ATOM     22  C   UNL     1       1.607  -3.827   3.376  1.00  0.00     0.003 A 
ATOM     23  C   UNL     1       0.456  -4.238   2.710  1.00  0.00     0.014 A 
BRANCH  19  24
ATOM     24  N   UNL     1       2.202  -0.575   1.770  1.00  0.00    -0.326 N 
ATOM     25  O   UNL     1       0.657   0.621   0.506  1.00  0.00    -0.274 OA
ATOM     26  C   UNL     1       1.817   0.347   0.807  1.00  0.00     0.228 C 
ATOM     27  H   UNL     1       3.101  -0.452   2.151  1.00  0.00     0.169 HD
BRANCH  26  28
ATOM     28  C   UNL     1       2.995   0.943   0.034  1.00  0.00     0.135 C 
BRANCH  28  29
ATOM     29  C   UNL     1       3.903   1.780   0.894  1.00  0.00    -0.039 A 
ATOM     30  C   UNL     1       4.926   1.181   1.644  1.00  0.00     0.004 A 
ATOM     31  C   UNL     1       3.696   3.160   0.995  1.00  0.00     0.004 A 
ATOM     32  C   UNL     1       5.668   1.936   2.548  1.00  0.00     0.000 A 
ATOM     33  C   UNL     1       4.465   3.919   1.875  1.00  0.00     0.000 A 
ATOM     34  C   UNL     1       5.433   3.303   2.667  1.00  0.00     0.000 A 
ENDBRANCH  28  29
ENDBRANCH  26  28
ENDBRANCH  19  24
ENDBRANCH  15  18
ENDBRANCH   9  14
ENDBRANCH   6   8
ENDBRANCH   5   6
ENDBRANCH   4   5
ENDBRANCH   3   4
ENDBRANCH   2   3
ENDBRANCH   1   2
BRANCH   1  35
ATOM     35  C   UNL     1       2.246  -5.112  -3.183  1.00  0.00     0.188 C 
BRANCH  35  36
ATOM     36  O   UNL     1       1.399  -6.244  -3.154  1.00  0.00    -0.376 OA
BRANCH  36  37
ATOM     37  C   UNL     1       1.962  -7.517  -3.416  1.00  0.00     0.202 C 
BRANCH  37  38
ATOM     38  C   UNL     1       2.912  -7.734  -4.610  1.00  0.00     0.261 C 
BRANCH  38  39
ATOM     39  O   UNL     1       3.933  -6.739  -4.810  1.00  0.00    -0.460 OA
BRANCH  39  40
ATOM     40  C   UNL     1       3.751  -5.895  -5.860  1.00  0.00     0.338 C 
ATOM     41  O   UNL     1       2.843  -5.933  -6.677  1.00  0.00    -0.246 OA
BRANCH  40  42
ATOM     42  C   UNL     1       4.687  -4.747  -5.749  1.00  0.00     0.060 A 
ATOM     43  C   UNL     1       4.157  -3.447  -5.654  1.00  0.00     0.016 A 
ATOM     44  C   UNL     1       6.068  -4.938  -5.742  1.00  0.00     0.016 A 
ATOM     45  C   UNL     1       5.002  -2.337  -5.582  1.00  0.00     0.010 A 
ATOM     46  C   UNL     1       6.915  -3.822  -5.710  1.00  0.00     0.010 A 
ATOM     47  C   UNL     1       6.388  -2.516  -5.668  1.00  0.00    -0.014 A 
BRANCH  47  48
ATOM     48  C   UNL     1       7.266  -1.360  -5.989  1.00  0.00     0.031 A 
ATOM     49  C   UNL     1       7.617  -1.137  -7.438  1.00  0.00     0.074 A 
ATOM     50  C   UNL     1       7.747  -0.529  -5.045  1.00  0.00     0.049 A 
ATOM     51  N   UNL     1       8.456  -0.290  -7.972  1.00  0.00    -0.248 NA
ATOM     52  C   UNL     1       6.927  -1.997  -8.417  1.00  0.00     0.031 C 
ATOM     53  C   UNL     1       7.437  -0.591  -3.618  1.00  0.00     0.029 A 
ATOM     54  N   UNL     1       8.621   0.527  -5.152  1.00  0.00    -0.354 N 
ATOM     55  C   UNL     1       8.414  -0.530  -9.341  1.00  0.00     0.074 A 
ATOM     56  C   UNL     1       7.479  -1.611  -9.557  1.00  0.00     0.031 C 
ATOM     57  C   UNL     1       8.133   0.368  -2.978  1.00  0.00     0.029 A 
ATOM     58  C   UNL     1       8.968   1.085  -3.942  1.00  0.00     0.049 A 
ATOM     59  H   UNL     1       8.968   0.853  -6.014  1.00  0.00     0.167 HD
ATOM     60  C   UNL     1       9.093   0.094 -10.331  1.00  0.00     0.037 A 
ATOM     61  C   UNL     1       9.879   2.038  -3.648  1.00  0.00     0.037 A 
ATOM     62  C   UNL     1      10.017   1.175 -10.117  1.00  0.00     0.049 A 
ATOM     63  C   UNL     1      10.682   2.667  -4.765  1.00  0.00     0.074 A 
ATOM     64  C   UNL     1      10.740   1.885 -11.059  1.00  0.00     0.029 A 
ATOM     65  N   UNL     1      10.351   1.698  -8.877  1.00  0.00    -0.354 N 
ATOM     66  N   UNL     1      10.624   2.441  -6.056  1.00  0.00    -0.248 NA
ATOM     67  C   UNL     1      11.678   3.682  -4.383  1.00  0.00     0.031 C 
ATOM     68  C   UNL     1      11.554   2.799 -10.385  1.00  0.00     0.029 A 
ATOM     69  C   UNL     1      11.288   2.706  -9.029  1.00  0.00     0.049 A 
ATOM     70  H   UNL     1       9.977   1.398  -8.017  1.00  0.00     0.167 HD
ATOM     71  C   UNL     1      11.539   3.315  -6.641  1.00  0.00     0.074 A 
ATOM     72  C   UNL     1      12.136   4.074  -5.564  1.00  0.00     0.031 C 
ATOM     73  C   UNL     1      11.852   3.478  -7.950  1.00  0.00     0.037 A 
BRANCH  60  74
ATOM     74  C   UNL     1       8.891  -0.393 -11.739  1.00  0.00     0.058 A 
ATOM     75  C   UNL     1       7.700  -0.156 -12.443  1.00  0.00     0.135 A 
ATOM     76  C   UNL     1       9.931  -1.055 -12.413  1.00  0.00     0.135 A 
ATOM     77  F   UNL     1       6.666   0.450 -11.838  1.00  0.00    -0.206 F 
ATOM     78  C   UNL     1       7.544  -0.565 -13.763  1.00  0.00     0.059 A 
ATOM     79  C   UNL     1       9.807  -1.446 -13.742  1.00  0.00     0.059 A 
ATOM     80  F   UNL     1      11.087  -1.314 -11.783  1.00  0.00    -0.206 F 
ATOM     81  C   UNL     1       8.607  -1.202 -14.407  1.00  0.00     0.060 A 
BRANCH  81  82
ATOM     82  S   UNL     1       8.402  -1.687 -16.133  1.00  0.00     0.124 S 
ATOM     83  O   UNL     1       7.452  -2.790 -16.015  1.00  0.00    -0.237 OA
ATOM     84  O   UNL     1       7.882  -0.466 -16.738  1.00  0.00    -0.237 OA
ATOM     85  O   UNL     1       9.751  -2.063 -16.544  1.00  0.00    -0.744 OA
ENDBRANCH  81  82
ENDBRANCH  60  74
BRANCH  61  86
ATOM     86  C   UNL     1      10.118   2.447  -2.234  1.00  0.00     0.058 A 
ATOM     87  C   UNL     1       9.813   3.743  -1.789  1.00  0.00     0.135 A 
ATOM     88  C   UNL     1      10.704   1.566  -1.310  1.00  0.00     0.135 A 
ATOM     89  F   UNL     1       9.271   4.631  -2.636  1.00  0.00    -0.206 F 
ATOM     90  C   UNL     1      10.103   4.160  -0.493  1.00  0.00     0.059 A 
ATOM     91  C   UNL     1      10.975   1.950   0.000  1.00  0.00     0.059 A 
ATOM     92  F   UNL     1      11.014   0.313  -1.678  1.00  0.00    -0.206 F 
ATOM     93  C   UNL     1      10.684   3.255   0.396  1.00  0.00     0.060 A 
BRANCH  93  94
ATOM     94  S   UNL     1      11.038   3.796   2.083  1.00  0.00     0.124 S 
ATOM     95  O   UNL     1      12.174   4.686   1.874  1.00  0.00    -0.237 OA
ATOM     96  O   UNL     1       9.785   4.438   2.470  1.00  0.00    -0.237 OA
ATOM     97  O   UNL     1      11.333   2.548   2.781  1.00  0.00    -0.744 OA
ENDBRANCH  93  94
ENDBRANCH  61  86
BRANCH  73  98
ATOM     98  C   UNL     1      12.831   4.562  -8.317  1.00  0.00     0.058 A 
ATOM     99  C   UNL     1      14.203   4.454  -8.045  1.00  0.00     0.135 A 
ATOM    100  C   UNL     1      12.393   5.694  -9.026  1.00  0.00     0.135 A 
ATOM    101  F   UNL     1      14.677   3.396  -7.368  1.00  0.00    -0.206 F 
ATOM    102  C   UNL     1      15.104   5.437  -8.445  1.00  0.00     0.059 A 
ATOM    103  C   UNL     1      13.280   6.674  -9.464  1.00  0.00     0.059 A 
ATOM    104  F   UNL     1      11.093   5.843  -9.326  1.00  0.00    -0.206 F 
ATOM    105  C   UNL     1      14.633   6.541  -9.160  1.00  0.00     0.060 A 
BRANCH 105 106
ATOM    106  S   UNL     1      15.818   7.786  -9.713  1.00  0.00     0.124 S 
ATOM    107  O   UNL     1      16.162   8.444  -8.457  1.00  0.00    -0.237 OA
ATOM    108  O   UNL     1      16.871   6.970 -10.310  1.00  0.00    -0.237 OA
ATOM    109  O   UNL     1      15.050   8.595 -10.654  1.00  0.00    -0.744 OA
ENDBRANCH 105 106
ENDBRANCH  73  98
ENDBRANCH  47  48
ENDBRANCH  40  42
ENDBRANCH  39  40
ENDBRANCH  38  39
ENDBRANCH  37  38
ENDBRANCH  36  37
ENDBRANCH  35  36
ENDBRANCH   1  35
TORSDOF 25
