REMARK SMILES CC1(C)CC[NH+](CC[C@H]2CCC[C@]2([NH3+])C(=O)OCCOCCOCCOC(=O)c2ccc(-c3c4nc(c(-c5c(F)cc(S(=O)(=O)[O-])cc5F)c5ccc([nH]5)c(-c5c(F)cc(S(=O)(=O)[O-])cc5F)c5nc(c(-c6c(F)cc(S(=O)(=O)[O-])cc6F)c6ccc3[nH]6)C=C5)C=C4)cc2)CC1
REMARK SMILES IDX 21 1 20 2 19 3 18 4 17 5 15 6 16 7 13 8 9 9 10 10 11 11
REMARK SMILES IDX 12 12 8 13 7 14 6 15 1 16 2 17 3 18 4 19 96 20 5 21 95 22
REMARK SMILES IDX 14 24 22 28 23 29 24 30 25 31 26 32 27 33 28 34 29 35 30 36
REMARK SMILES IDX 94 37 31 38 93 39 32 40 33 41 34 42 87 43 35 44 92 45 86 46
REMARK SMILES IDX 88 47 36 48 91 49 85 50 84 51 37 53 71 54 50 55 70 56 51 57
REMARK SMILES IDX 54 58 69 59 89 60 52 61 53 62 68 64 90 65 55 66 38 67 39 68
REMARK SMILES IDX 48 69 40 70 41 71 47 72 49 73 42 74 43 75 44 76 45 77 46 78
REMARK SMILES IDX 72 79 73 80 82 81 74 82 75 83 81 84 83 85 76 86 77 87 78 88
REMARK SMILES IDX 79 89 80 90 56 91 57 92 66 93 58 94 59 95 65 96 67 97 60 98
REMARK SMILES IDX 61 99 62 100 63 101 64 102
REMARK H PARENT 6 23 14 25 14 26 14 27 88 52 54 63
REMARK Flexibility Score: inf
ROOT
ATOM      1  C   UNL     1      -3.621   1.028   6.697  1.00  0.00     0.188 C 
ENDROOT
BRANCH   1   2
ATOM      2  O   UNL     1      -5.012   0.883   6.546  1.00  0.00    -0.376 OA
BRANCH   2   3
ATOM      3  C   UNL     1      -5.582   1.410   5.372  1.00  0.00     0.202 C 
BRANCH   3   4
ATOM      4  C   UNL     1      -4.784   1.673   4.082  1.00  0.00     0.261 C 
BRANCH   4   5
ATOM      5  O   UNL     1      -3.389   1.289   3.946  1.00  0.00    -0.459 OA
BRANCH   5   6
ATOM      6  C   UNL     1      -2.445   2.283   3.823  1.00  0.00     0.368 C 
ATOM      7  O   UNL     1      -2.698   3.441   4.149  1.00  0.00    -0.245 OA
BRANCH   6   8
ATOM      8  C   UNL     1      -1.030   1.823   3.181  1.00  0.00     0.195 C 
ATOM      9  C   UNL     1      -0.680   0.289   3.147  1.00  0.00     0.068 C 
ATOM     10  C   UNL     1       0.400   0.147   4.259  1.00  0.00     0.011 C 
ATOM     11  C   UNL     1       0.437   1.458   5.027  1.00  0.00     0.008 C 
ATOM     12  C   UNL     1       0.079   2.498   4.006  1.00  0.00     0.081 C 
BRANCH   9  13
ATOM     13  C   UNL     1      -0.087  -0.336   1.824  1.00  0.00     0.072 C 
BRANCH  13  14
ATOM     14  C   UNL     1      -1.010  -0.699   0.619  1.00  0.00     0.262 C 
BRANCH  14  15
ATOM     15  N   UNL     1      -1.982   0.332   0.294  1.00  0.00    -0.335 N 
ATOM     16  C   UNL     1      -5.219   2.792  -0.487  1.00  0.00     0.011 C 
ATOM     17  C   UNL     1      -3.844   2.497   0.133  1.00  0.00    -0.025 C 
ATOM     18  C   UNL     1      -3.587   3.748   1.035  1.00  0.00     0.011 C 
ATOM     19  C   UNL     1      -4.016   1.216   0.976  1.00  0.00     0.068 C 
ATOM     20  C   UNL     1      -2.687   2.374  -0.916  1.00  0.00     0.068 C 
ATOM     21  C   UNL     1      -3.367  -0.062   0.502  1.00  0.00     0.262 C 
ATOM     22  C   UNL     1      -1.917   1.018  -0.996  1.00  0.00     0.262 C 
ATOM     23  H   UNL     1      -1.664   1.015   0.982  1.00  0.00     0.348 HD
ENDBRANCH  14  15
ENDBRANCH  13  14
ENDBRANCH   9  13
BRANCH   8  24
ATOM     24  N   UNL     1      -0.872   2.413   1.847  1.00  0.00    -0.343 N 
ATOM     25  H   UNL     1       0.020   2.119   1.450  1.00  0.00     0.345 HD
ATOM     26  H   UNL     1      -0.893   3.430   1.921  1.00  0.00     0.345 HD
ATOM     27  H   UNL     1      -1.633   2.100   1.245  1.00  0.00     0.345 HD
ENDBRANCH   8  24
ENDBRANCH   6   8
ENDBRANCH   5   6
ENDBRANCH   4   5
ENDBRANCH   3   4
ENDBRANCH   2   3
ENDBRANCH   1   2
BRANCH   1  28
ATOM     28  C   UNL     1      -2.836  -0.180   6.144  1.00  0.00     0.188 C 
BRANCH  28  29
ATOM     29  O   UNL     1      -3.537  -1.327   5.698  1.00  0.00    -0.376 OA
BRANCH  29  30
ATOM     30  C   UNL     1      -4.430  -1.931   6.623  1.00  0.00     0.202 C 
BRANCH  30  31
ATOM     31  C   UNL     1      -4.012  -2.126   8.102  1.00  0.00     0.261 C 
BRANCH  31  32
ATOM     32  O   UNL     1      -3.391  -0.997   8.763  1.00  0.00    -0.460 OA
BRANCH  32  33
ATOM     33  C   UNL     1      -2.060  -1.103   9.037  1.00  0.00     0.338 C 
ATOM     34  O   UNL     1      -1.376  -2.110   8.880  1.00  0.00    -0.246 OA
BRANCH  33  35
ATOM     35  C   UNL     1      -1.450   0.244   9.244  1.00  0.00     0.060 A 
ATOM     36  C   UNL     1      -0.416   0.637   8.377  1.00  0.00     0.016 A 
ATOM     37  C   UNL     1      -1.871   1.129  10.236  1.00  0.00     0.016 A 
ATOM     38  C   UNL     1       0.187   1.895   8.485  1.00  0.00     0.010 A 
ATOM     39  C   UNL     1      -1.215   2.370  10.390  1.00  0.00     0.010 A 
ATOM     40  C   UNL     1      -0.166   2.753   9.529  1.00  0.00    -0.014 A 
BRANCH  40  41
ATOM     41  C   UNL     1       0.802   3.822   9.913  1.00  0.00     0.031 A 
ATOM     42  C   UNL     1       1.912   3.417  10.854  1.00  0.00     0.074 A 
ATOM     43  C   UNL     1       0.802   5.069   9.402  1.00  0.00     0.049 A 
ATOM     44  N   UNL     1       2.852   4.138  11.407  1.00  0.00    -0.248 NA
ATOM     45  C   UNL     1       1.966   1.988  11.205  1.00  0.00     0.031 C 
ATOM     46  C   UNL     1      -0.101   5.573   8.370  1.00  0.00     0.029 A 
ATOM     47  N   UNL     1       1.614   6.144   9.688  1.00  0.00    -0.354 N 
ATOM     48  C   UNL     1       3.598   3.253  12.178  1.00  0.00     0.074 A 
ATOM     49  C   UNL     1       2.991   1.949  12.036  1.00  0.00     0.031 C 
ATOM     50  C   UNL     1       0.200   6.863   8.120  1.00  0.00     0.029 A 
ATOM     51  C   UNL     1       1.287   7.292   9.002  1.00  0.00     0.049 A 
ATOM     52  H   UNL     1       2.362   6.096  10.327  1.00  0.00     0.167 HD
ATOM     53  C   UNL     1       4.689   3.494  12.942  1.00  0.00     0.037 A 
ATOM     54  C   UNL     1       1.790   8.543   9.095  1.00  0.00     0.037 A 
ATOM     55  C   UNL     1       5.283   4.792  13.113  1.00  0.00     0.049 A 
ATOM     56  C   UNL     1       2.907   8.831  10.075  1.00  0.00     0.074 A 
ATOM     57  C   UNL     1       6.352   5.150  13.914  1.00  0.00     0.029 A 
ATOM     58  N   UNL     1       4.851   5.948  12.480  1.00  0.00    -0.354 N 
ATOM     59  N   UNL     1       3.565   8.002  10.852  1.00  0.00    -0.248 NA
ATOM     60  C   UNL     1       3.344  10.232  10.197  1.00  0.00     0.031 C 
ATOM     61  C   UNL     1       6.532   6.534  13.809  1.00  0.00     0.029 A 
ATOM     62  C   UNL     1       5.620   7.026  12.888  1.00  0.00     0.049 A 
ATOM     63  H   UNL     1       4.108   5.996  11.836  1.00  0.00     0.167 HD
ATOM     64  C   UNL     1       4.522   8.771  11.514  1.00  0.00     0.074 A 
ATOM     65  C   UNL     1       4.353  10.132  11.053  1.00  0.00     0.031 C 
ATOM     66  C   UNL     1       5.461   8.379  12.413  1.00  0.00     0.037 A 
BRANCH  53  67
ATOM     67  C   UNL     1       5.246   2.326  13.710  1.00  0.00     0.058 A 
ATOM     68  C   UNL     1       5.879   1.247  13.071  1.00  0.00     0.135 A 
ATOM     69  C   UNL     1       5.083   2.258  15.103  1.00  0.00     0.135 A 
ATOM     70  F   UNL     1       6.035   1.247  11.737  1.00  0.00    -0.206 F 
ATOM     71  C   UNL     1       6.278   0.118  13.779  1.00  0.00     0.059 A 
ATOM     72  C   UNL     1       5.507   1.155  15.835  1.00  0.00     0.059 A 
ATOM     73  F   UNL     1       4.481   3.259  15.764  1.00  0.00    -0.206 F 
ATOM     74  C   UNL     1       6.077   0.077  15.159  1.00  0.00     0.060 A 
BRANCH  74  75
ATOM     75  S   UNL     1       6.545  -1.417  16.057  1.00  0.00     0.124 S 
ATOM     76  O   UNL     1       5.500  -2.346  15.638  1.00  0.00    -0.237 OA
ATOM     77  O   UNL     1       7.881  -1.688  15.537  1.00  0.00    -0.237 OA
ATOM     78  O   UNL     1       6.492  -1.003  17.456  1.00  0.00    -0.744 OA
ENDBRANCH  74  75
ENDBRANCH  53  67
BRANCH  54  79
ATOM     79  C   UNL     1       1.242   9.646   8.251  1.00  0.00     0.058 A 
ATOM     80  C   UNL     1       2.024  10.258   7.258  1.00  0.00     0.135 A 
ATOM     81  C   UNL     1      -0.061  10.134   8.439  1.00  0.00     0.135 A 
ATOM     82  F   UNL     1       3.288   9.855   7.057  1.00  0.00    -0.206 F 
ATOM     83  C   UNL     1       1.537  11.310   6.485  1.00  0.00     0.059 A 
ATOM     84  C   UNL     1      -0.580  11.167   7.660  1.00  0.00     0.059 A 
ATOM     85  F   UNL     1      -0.850   9.599   9.384  1.00  0.00    -0.206 F 
ATOM     86  C   UNL     1       0.229  11.752   6.687  1.00  0.00     0.060 A 
BRANCH  86  87
ATOM     87  S   UNL     1      -0.413  13.073   5.634  1.00  0.00     0.124 S 
ATOM     88  O   UNL     1       0.350  14.224   6.102  1.00  0.00    -0.237 OA
ATOM     89  O   UNL     1      -0.079  12.587   4.298  1.00  0.00    -0.237 OA
ATOM     90  O   UNL     1      -1.839  13.092   5.948  1.00  0.00    -0.744 OA
ENDBRANCH  86  87
ENDBRANCH  54  79
BRANCH  66  91
ATOM     91  C   UNL     1       6.437   9.413  12.917  1.00  0.00     0.058 A 
ATOM     92  C   UNL     1       6.059  10.440  13.795  1.00  0.00     0.135 A 
ATOM     93  C   UNL     1       7.795   9.329  12.561  1.00  0.00     0.135 A 
ATOM     94  F   UNL     1       4.777  10.570  14.171  1.00  0.00    -0.206 F 
ATOM     95  C   UNL     1       6.984  11.362  14.281  1.00  0.00     0.059 A 
ATOM     96  C   UNL     1       8.742  10.219  13.059  1.00  0.00     0.059 A 
ATOM     97  F   UNL     1       8.220   8.358  11.736  1.00  0.00    -0.206 F 
ATOM     98  C   UNL     1       8.325  11.242  13.909  1.00  0.00     0.060 A 
BRANCH  98  99
ATOM     99  S   UNL     1       9.520  12.424  14.569  1.00  0.00     0.124 S 
ATOM    100  O   UNL     1       9.177  13.634  13.829  1.00  0.00    -0.237 OA
ATOM    101  O   UNL     1       9.193  12.437  15.991  1.00  0.00    -0.237 OA
ATOM    102  O   UNL     1      10.810  11.829  14.234  1.00  0.00    -0.744 OA
ENDBRANCH  98  99
ENDBRANCH  66  91
ENDBRANCH  40  41
ENDBRANCH  33  35
ENDBRANCH  32  33
ENDBRANCH  31  32
ENDBRANCH  30  31
ENDBRANCH  29  30
ENDBRANCH  28  29
ENDBRANCH   1  28
TORSDOF 24
