REMARK SMILES O=C(CCc1nc(-c2ccccc2)c(-c2ccccc2)o1)OCCOCCOCCOC(=O)c1ccc(-c2c3nc(c(-c4c(F)cc(S(=O)(=O)[O-])cc4F)c4ccc([nH]4)c(-c4c(F)cc(S(=O)(=O)[O-])cc4F)c4nc(c(-c5c(F)cc(S(=O)(=O)[O-])cc5F)c5ccc2[nH]5)C=C4)C=C3)cc1
REMARK SMILES IDX 26 1 25 2 24 3 23 4 22 5 2 6 1 7 3 8 4 9 5 10 6 11 21 12
REMARK SMILES IDX 7 13 14 14 8 15 9 16 13 17 10 18 12 19 11 20 15 21 16 22
REMARK SMILES IDX 20 23 17 24 19 25 18 26 27 27 28 28 29 29 30 30 31 31 32 32
REMARK SMILES IDX 33 33 34 34 35 35 99 36 36 37 98 38 37 39 38 40 39 41 92 42
REMARK SMILES IDX 40 43 97 44 91 45 93 46 41 47 96 48 90 49 89 50 42 52 76 53
REMARK SMILES IDX 55 54 75 55 56 56 59 57 74 58 94 59 57 60 58 61 73 63 95 64
REMARK SMILES IDX 60 65 43 66 44 67 53 68 45 69 46 70 52 71 54 72 47 73 48 74
REMARK SMILES IDX 49 75 50 76 51 77 77 78 78 79 87 80 79 81 80 82 86 83 88 84
REMARK SMILES IDX 81 85 82 86 83 87 84 88 85 89 61 90 62 91 71 92 63 93 64 94
REMARK SMILES IDX 70 95 72 96 65 97 66 98 67 99 68 100 69 101
REMARK H PARENT 93 51 59 62
REMARK Flexibility Score: inf
ROOT
ATOM      1  C   UNL     1       1.949  -1.906  -0.318  1.00  0.00     0.188 C 
ENDROOT
BRANCH   1   2
ATOM      2  O   UNL     1       3.272  -1.672  -0.766  1.00  0.00    -0.376 OA
BRANCH   2   3
ATOM      3  C   UNL     1       4.214  -1.174   0.178  1.00  0.00     0.202 C 
BRANCH   3   4
ATOM      4  C   UNL     1       3.721  -0.175   1.232  1.00  0.00     0.261 C 
BRANCH   4   5
ATOM      5  O   UNL     1       2.675   0.765   0.904  1.00  0.00    -0.463 OA
BRANCH   5   6
ATOM      6  C   UNL     1       2.534   1.614  -0.124  1.00  0.00     0.306 C 
ATOM      7  O   UNL     1       1.638   2.458  -0.076  1.00  0.00    -0.252 OA
BRANCH   6   8
ATOM      8  C   UNL     1       3.430   1.542  -1.323  1.00  0.00     0.132 C 
BRANCH   8   9
ATOM      9  C   UNL     1       4.539   2.581  -1.285  1.00  0.00     0.109 C 
BRANCH   9  10
ATOM     10  C   UNL     1       5.606   2.248  -0.305  1.00  0.00     0.196 A 
ATOM     11  N   UNL     1       6.194   1.089  -0.080  1.00  0.00    -0.213 NA
ATOM     12  O   UNL     1       5.991   3.245   0.549  1.00  0.00    -0.440 OA
ATOM     13  C   UNL     1       6.898   1.289   1.081  1.00  0.00     0.117 A 
ATOM     14  C   UNL     1       6.858   2.627   1.408  1.00  0.00     0.162 A 
BRANCH  13  15
ATOM     15  C   UNL     1       7.426   0.221   1.916  1.00  0.00     0.004 A 
ATOM     16  C   UNL     1       7.153   0.216   3.296  1.00  0.00     0.010 A 
ATOM     17  C   UNL     1       8.154  -0.840   1.372  1.00  0.00     0.010 A 
ATOM     18  C   UNL     1       7.643  -0.794   4.125  1.00  0.00     0.001 A 
ATOM     19  C   UNL     1       8.651  -1.851   2.205  1.00  0.00     0.001 A 
ATOM     20  C   UNL     1       8.404  -1.822   3.579  1.00  0.00     0.000 A 
ENDBRANCH  13  15
BRANCH  14  21
ATOM     21  C   UNL     1       7.497   3.447   2.410  1.00  0.00     0.020 A 
ATOM     22  C   UNL     1       6.775   4.368   3.173  1.00  0.00     0.012 A 
ATOM     23  C   UNL     1       8.872   3.288   2.636  1.00  0.00     0.012 A 
ATOM     24  C   UNL     1       7.425   5.121   4.151  1.00  0.00     0.001 A 
ATOM     25  C   UNL     1       9.520   4.044   3.607  1.00  0.00     0.001 A 
ATOM     26  C   UNL     1       8.796   4.961   4.363  1.00  0.00     0.000 A 
ENDBRANCH  14  21
ENDBRANCH   9  10
ENDBRANCH   8   9
ENDBRANCH   6   8
ENDBRANCH   5   6
ENDBRANCH   4   5
ENDBRANCH   3   4
ENDBRANCH   2   3
ENDBRANCH   1   2
BRANCH   1  27
ATOM     27  C   UNL     1       1.766  -2.993   0.742  1.00  0.00     0.188 C 
BRANCH  27  28
ATOM     28  O   UNL     1       2.899  -3.137   1.591  1.00  0.00    -0.376 OA
BRANCH  28  29
ATOM     29  C   UNL     1       3.495  -4.431   1.558  1.00  0.00     0.202 C 
BRANCH  29  30
ATOM     30  C   UNL     1       4.341  -4.798   0.320  1.00  0.00     0.261 C 
BRANCH  30  31
ATOM     31  O   UNL     1       3.812  -4.458  -0.972  1.00  0.00    -0.460 OA
BRANCH  31  32
ATOM     32  C   UNL     1       2.828  -5.227  -1.475  1.00  0.00     0.338 C 
ATOM     33  O   UNL     1       2.269  -6.159  -0.904  1.00  0.00    -0.246 OA
BRANCH  32  34
ATOM     34  C   UNL     1       2.431  -4.697  -2.797  1.00  0.00     0.060 A 
ATOM     35  C   UNL     1       1.143  -4.175  -2.969  1.00  0.00     0.016 A 
ATOM     36  C   UNL     1       3.311  -4.755  -3.882  1.00  0.00     0.016 A 
ATOM     37  C   UNL     1       0.735  -3.701  -4.220  1.00  0.00     0.010 A 
ATOM     38  C   UNL     1       2.887  -4.318  -5.144  1.00  0.00     0.010 A 
ATOM     39  C   UNL     1       1.589  -3.807  -5.326  1.00  0.00    -0.014 A 
BRANCH  39  40
ATOM     40  C   UNL     1       1.055  -3.582  -6.695  1.00  0.00     0.031 A 
ATOM     41  C   UNL     1       0.505  -4.766  -7.446  1.00  0.00     0.074 A 
ATOM     42  C   UNL     1       1.034  -2.361  -7.262  1.00  0.00     0.049 A 
ATOM     43  N   UNL     1       0.021  -4.833  -8.659  1.00  0.00    -0.248 NA
ATOM     44  C   UNL     1       0.500  -6.050  -6.725  1.00  0.00     0.031 C 
ATOM     45  C   UNL     1       1.486  -1.125  -6.627  1.00  0.00     0.029 A 
ATOM     46  N   UNL     1       0.616  -1.964  -8.510  1.00  0.00    -0.354 N 
ATOM     47  C   UNL     1      -0.350  -6.160  -8.845  1.00  0.00     0.074 A 
ATOM     48  C   UNL     1      -0.006  -6.870  -7.633  1.00  0.00     0.031 C 
ATOM     49  C   UNL     1       1.334  -0.108  -7.496  1.00  0.00     0.029 A 
ATOM     50  C   UNL     1       0.803  -0.625  -8.758  1.00  0.00     0.049 A 
ATOM     51  H   UNL     1       0.219  -2.582  -9.166  1.00  0.00     0.167 HD
ATOM     52  C   UNL     1      -0.931  -6.735  -9.925  1.00  0.00     0.037 A 
ATOM     53  C   UNL     1       0.589   0.096  -9.880  1.00  0.00     0.037 A 
ATOM     54  C   UNL     1      -1.253  -6.033 -11.139  1.00  0.00     0.049 A 
ATOM     55  C   UNL     1       0.029  -0.586 -11.105  1.00  0.00     0.074 A 
ATOM     56  C   UNL     1      -1.839  -6.531 -12.290  1.00  0.00     0.029 A 
ATOM     57  N   UNL     1      -1.008  -4.687 -11.366  1.00  0.00    -0.354 N 
ATOM     58  N   UNL     1      -0.331  -1.839 -11.264  1.00  0.00    -0.248 NA
ATOM     59  C   UNL     1      -0.155   0.244 -12.306  1.00  0.00     0.031 C 
ATOM     60  C   UNL     1      -1.899  -5.498 -13.232  1.00  0.00     0.029 A 
ATOM     61  C   UNL     1      -1.407  -4.342 -12.647  1.00  0.00     0.049 A 
ATOM     62  H   UNL     1      -0.609  -4.067 -10.713  1.00  0.00     0.167 HD
ATOM     63  C   UNL     1      -0.814  -1.937 -12.566  1.00  0.00     0.074 A 
ATOM     64  C   UNL     1      -0.707  -0.617 -13.151  1.00  0.00     0.031 C 
ATOM     65  C   UNL     1      -1.307  -3.021 -13.217  1.00  0.00     0.037 A 
BRANCH  52  66
ATOM     66  C   UNL     1      -1.226  -8.208  -9.850  1.00  0.00     0.058 A 
ATOM     67  C   UNL     1      -2.247  -8.715  -9.030  1.00  0.00     0.135 A 
ATOM     68  C   UNL     1      -0.497  -9.121 -10.628  1.00  0.00     0.135 A 
ATOM     69  F   UNL     1      -2.962  -7.888  -8.249  1.00  0.00    -0.206 F 
ATOM     70  C   UNL     1      -2.517 -10.078  -8.964  1.00  0.00     0.059 A 
ATOM     71  C   UNL     1      -0.769 -10.486 -10.600  1.00  0.00     0.059 A 
ATOM     72  F   UNL     1       0.493  -8.691 -11.426  1.00  0.00    -0.206 F 
ATOM     73  C   UNL     1      -1.773 -10.956  -9.754  1.00  0.00     0.060 A 
BRANCH  73  74
ATOM     74  S   UNL     1      -2.140 -12.721  -9.661  1.00  0.00     0.124 S 
ATOM     75  O   UNL     1      -1.620 -13.057  -8.339  1.00  0.00    -0.237 OA
ATOM     76  O   UNL     1      -3.593 -12.744  -9.795  1.00  0.00    -0.237 OA
ATOM     77  O   UNL     1      -1.400 -13.283 -10.787  1.00  0.00    -0.744 OA
ENDBRANCH  73  74
ENDBRANCH  52  66
BRANCH  53  78
ATOM     78  C   UNL     1       0.915   1.549  -9.911  1.00  0.00     0.058 A 
ATOM     79  C   UNL     1      -0.094   2.519 -10.015  1.00  0.00     0.135 A 
ATOM     80  C   UNL     1       2.245   1.998  -9.856  1.00  0.00     0.135 A 
ATOM     81  F   UNL     1      -1.379   2.143 -10.091  1.00  0.00    -0.206 F 
ATOM     82  C   UNL     1       0.202   3.878 -10.075  1.00  0.00     0.059 A 
ATOM     83  C   UNL     1       2.564   3.352  -9.887  1.00  0.00     0.059 A 
ATOM     84  F   UNL     1       3.249   1.113  -9.755  1.00  0.00    -0.206 F 
ATOM     85  C   UNL     1       1.535   4.285 -10.005  1.00  0.00     0.060 A 
BRANCH  85  86
ATOM     86  S   UNL     1       1.904   6.053 -10.033  1.00  0.00     0.124 S 
ATOM     87  O   UNL     1       1.618   6.393 -11.422  1.00  0.00    -0.237 OA
ATOM     88  O   UNL     1       0.970   6.576  -9.041  1.00  0.00    -0.237 OA
ATOM     89  O   UNL     1       3.311   6.108  -9.646  1.00  0.00    -0.744 OA
ENDBRANCH  85  86
ENDBRANCH  53  78
BRANCH  65  90
ATOM     90  C   UNL     1      -1.813  -2.828 -14.623  1.00  0.00     0.058 A 
ATOM     91  C   UNL     1      -0.943  -2.611 -15.703  1.00  0.00     0.135 A 
ATOM     92  C   UNL     1      -3.187  -2.928 -14.901  1.00  0.00     0.135 A 
ATOM     93  F   UNL     1       0.379  -2.503 -15.495  1.00  0.00    -0.206 F 
ATOM     94  C   UNL     1      -1.419  -2.478 -17.005  1.00  0.00     0.059 A 
ATOM     95  C   UNL     1      -3.681  -2.829 -16.198  1.00  0.00     0.059 A 
ATOM     96  F   UNL     1      -4.064  -3.148 -13.908  1.00  0.00    -0.206 F 
ATOM     97  C   UNL     1      -2.790  -2.592 -17.243  1.00  0.00     0.060 A 
BRANCH  97  98
ATOM     98  S   UNL     1      -3.388  -2.456 -18.941  1.00  0.00     0.124 S 
ATOM     99  O   UNL     1      -3.231  -1.028 -19.196  1.00  0.00    -0.237 OA
ATOM    100  O   UNL     1      -2.474  -3.334 -19.666  1.00  0.00    -0.237 OA
ATOM    101  O   UNL     1      -4.767  -2.930 -18.856  1.00  0.00    -0.744 OA
ENDBRANCH  97  98
ENDBRANCH  65  90
ENDBRANCH  39  40
ENDBRANCH  32  34
ENDBRANCH  31  32
ENDBRANCH  30  31
ENDBRANCH  29  30
ENDBRANCH  28  29
ENDBRANCH  27  28
ENDBRANCH   1  27
TORSDOF 24
