REMARK SMILES CCOc1cc2nccc(Nc3ccc(C(=O)OCCOCCOCCOC(=O)c4ccc(-c5c6nc(c(-c7c(F)cc(S(=O)(=O)[O-])cc7F)c7ccc([nH]7)c(-c7c(F)cc(S(=O)(=O)[O-])cc7F)c7nc(c(-c8c(F)cc(S(=O)(=O)[O-])cc8F)c8ccc5[nH]8)C=C7)C=C6)cc4)cc3)c2cc1OCC
REMARK SMILES IDX 22 1 21 2 20 3 19 4 18 5 16 6 17 7 15 8 12 9 13 10 97 11
REMARK SMILES IDX 14 12 96 13 11 14 10 16 4 17 5 18 100 19 6 20 99 21 7 22
REMARK SMILES IDX 98 23 8 24 9 25 3 26 2 27 1 28 101 29 102 30 103 31 23 32
REMARK SMILES IDX 24 33 25 34 26 35 27 36 28 37 29 38 30 39 31 40 95 41 32 42
REMARK SMILES IDX 94 43 33 44 34 45 35 46 88 47 36 48 93 49 87 50 89 51 37 52
REMARK SMILES IDX 92 53 86 54 85 55 38 57 72 58 51 59 71 60 52 61 55 62 70 63
REMARK SMILES IDX 90 64 53 65 54 66 69 68 91 69 56 70 39 71 40 72 49 73 41 74
REMARK SMILES IDX 42 75 48 76 50 77 43 78 44 79 45 80 46 81 47 82 73 83 74 84
REMARK SMILES IDX 83 85 75 86 76 87 82 88 84 89 77 90 78 91 79 92 80 93 81 94
REMARK SMILES IDX 57 95 58 96 67 97 59 98 60 99 66 100 68 101 61 102 62 103
REMARK SMILES IDX 63 104 64 105 65 106
REMARK H PARENT 11 15 89 56 55 67
REMARK Flexibility Score: inf
ROOT
ATOM      1  C   UNL     1      14.324  -2.193  -0.930  1.00  0.00     0.188 C 
ENDROOT
BRANCH   1   2
ATOM      2  O   UNL     1      15.597  -2.523  -1.467  1.00  0.00    -0.376 OA
BRANCH   2   3
ATOM      3  C   UNL     1      15.933  -2.171  -2.801  1.00  0.00     0.202 C 
BRANCH   3   4
ATOM      4  C   UNL     1      14.946  -2.331  -3.971  1.00  0.00     0.261 C 
BRANCH   4   5
ATOM      5  O   UNL     1      13.595  -1.932  -3.714  1.00  0.00    -0.460 OA
BRANCH   5   6
ATOM      6  C   UNL     1      12.704  -2.951  -3.654  1.00  0.00     0.338 C 
ATOM      7  O   UNL     1      12.928  -4.131  -3.858  1.00  0.00    -0.246 OA
BRANCH   6   8
ATOM      8  C   UNL     1      11.404  -2.467  -3.146  1.00  0.00     0.060 A 
ATOM      9  C   UNL     1       8.818  -1.805  -2.322  1.00  0.00     0.038 A 
ATOM     10  C   UNL     1       9.463  -2.923  -1.782  1.00  0.00     0.027 A 
ATOM     11  C   UNL     1       9.520  -0.965  -3.196  1.00  0.00     0.027 A 
ATOM     12  C   UNL     1      10.746  -3.263  -2.203  1.00  0.00     0.018 A 
ATOM     13  C   UNL     1      10.818  -1.285  -3.604  1.00  0.00     0.018 A 
BRANCH   9  14
ATOM     14  N   UNL     1       7.438  -1.656  -2.100  1.00  0.00    -0.355 N 
ATOM     15  H   UNL     1       7.168  -1.533  -1.161  1.00  0.00     0.167 HD
BRANCH  14  16
ATOM     16  C   UNL     1       6.379  -1.660  -3.050  1.00  0.00     0.050 A 
ATOM     17  C   UNL     1       2.333  -1.334  -1.830  1.00  0.00     0.163 A 
ATOM     18  C   UNL     1       2.675  -1.464  -3.182  1.00  0.00     0.079 A 
ATOM     19  C   UNL     1       3.347  -1.239  -0.880  1.00  0.00     0.161 A 
ATOM     20  C   UNL     1       4.005  -1.540  -3.602  1.00  0.00     0.076 A 
ATOM     21  C   UNL     1       4.676  -1.322  -1.283  1.00  0.00     0.063 A 
ATOM     22  N   UNL     1       4.269  -1.688  -4.912  1.00  0.00    -0.256 NA
ATOM     23  C   UNL     1       5.033  -1.496  -2.631  1.00  0.00     0.028 A 
ATOM     24  C   UNL     1       5.558  -1.826  -5.287  1.00  0.00     0.114 A 
ATOM     25  C   UNL     1       6.626  -1.817  -4.412  1.00  0.00     0.047 A 
BRANCH  17  26
ATOM     26  O   UNL     1       1.040  -1.465  -1.405  1.00  0.00    -0.490 OA
BRANCH  26  27
ATOM     27  C   UNL     1       0.123  -0.489  -1.906  1.00  0.00     0.226 C 
ATOM     28  C   UNL     1      -0.916  -0.244  -0.816  1.00  0.00     0.049 C 
ENDBRANCH  26  27
ENDBRANCH  17  26
BRANCH  19  29
ATOM     29  O   UNL     1       3.213  -1.095   0.472  1.00  0.00    -0.490 OA
BRANCH  29  30
ATOM     30  C   UNL     1       2.226  -0.180   0.938  1.00  0.00     0.226 C 
ATOM     31  C   UNL     1       2.360   1.224   0.359  1.00  0.00     0.049 C 
ENDBRANCH  29  30
ENDBRANCH  19  29
ENDBRANCH  14  16
ENDBRANCH   9  14
ENDBRANCH   6   8
ENDBRANCH   5   6
ENDBRANCH   4   5
ENDBRANCH   3   4
ENDBRANCH   2   3
ENDBRANCH   1   2
BRANCH   1  32
ATOM     32  C   UNL     1      13.800  -0.745  -1.033  1.00  0.00     0.188 C 
BRANCH  32  33
ATOM     33  O   UNL     1      14.585   0.099  -1.842  1.00  0.00    -0.376 OA
BRANCH  33  34
ATOM     34  C   UNL     1      15.573   0.919  -1.242  1.00  0.00     0.202 C 
BRANCH  34  35
ATOM     35  C   UNL     1      16.296   0.619   0.091  1.00  0.00     0.261 C 
BRANCH  35  36
ATOM     36  O   UNL     1      15.769  -0.396   0.949  1.00  0.00    -0.460 OA
BRANCH  36  37
ATOM     37  C   UNL     1      14.926   0.027   1.921  1.00  0.00     0.338 C 
ATOM     38  O   UNL     1      14.533   1.163   2.104  1.00  0.00    -0.246 OA
BRANCH  37  39
ATOM     39  C   UNL     1      14.391  -1.153   2.631  1.00  0.00     0.060 A 
ATOM     40  C   UNL     1      13.017  -1.408   2.549  1.00  0.00     0.016 A 
ATOM     41  C   UNL     1      15.219  -1.959   3.415  1.00  0.00     0.016 A 
ATOM     42  C   UNL     1      12.454  -2.433   3.306  1.00  0.00     0.010 A 
ATOM     43  C   UNL     1      14.649  -2.979   4.186  1.00  0.00     0.010 A 
ATOM     44  C   UNL     1      13.257  -3.184   4.174  1.00  0.00    -0.014 A 
BRANCH  44  45
ATOM     45  C   UNL     1      12.601  -4.003   5.224  1.00  0.00     0.031 A 
ATOM     46  C   UNL     1      12.479  -3.425   6.610  1.00  0.00     0.074 A 
ATOM     47  C   UNL     1      12.065  -5.204   4.946  1.00  0.00     0.049 A 
ATOM     48  N   UNL     1      11.919  -3.931   7.678  1.00  0.00    -0.248 NA
ATOM     49  C   UNL     1      13.073  -2.094   6.816  1.00  0.00     0.031 C 
ATOM     50  C   UNL     1      12.097  -5.860   3.641  1.00  0.00     0.029 A 
ATOM     51  N   UNL     1      11.390  -6.085   5.753  1.00  0.00    -0.354 N 
ATOM     52  C   UNL     1      12.095  -2.984   8.681  1.00  0.00     0.074 A 
ATOM     53  C   UNL     1      12.856  -1.897   8.106  1.00  0.00     0.031 C 
ATOM     54  C   UNL     1      11.481  -7.051   3.740  1.00  0.00     0.029 A 
ATOM     55  C   UNL     1      11.031  -7.249   5.118  1.00  0.00     0.049 A 
ATOM     56  H   UNL     1      11.184  -5.900   6.698  1.00  0.00     0.167 HD
ATOM     57  C   UNL     1      11.649  -3.006   9.961  1.00  0.00     0.037 A 
ATOM     58  C   UNL     1      10.424  -8.353   5.598  1.00  0.00     0.037 A 
ATOM     59  C   UNL     1      10.906  -4.099  10.533  1.00  0.00     0.049 A 
ATOM     60  C   UNL     1       9.974  -8.384   7.036  1.00  0.00     0.074 A 
ATOM     61  C   UNL     1      10.403  -4.222  11.816  1.00  0.00     0.029 A 
ATOM     62  N   UNL     1      10.570  -5.267   9.860  1.00  0.00    -0.354 N 
ATOM     63  N   UNL     1      10.119  -7.470   7.968  1.00  0.00    -0.248 NA
ATOM     64  C   UNL     1       9.258  -9.587   7.482  1.00  0.00     0.031 C 
ATOM     65  C   UNL     1       9.813  -5.485  11.936  1.00  0.00     0.029 A 
ATOM     66  C   UNL     1       9.885  -6.123  10.707  1.00  0.00     0.049 A 
ATOM     67  H   UNL     1      10.787  -5.458   8.919  1.00  0.00     0.167 HD
ATOM     68  C   UNL     1       9.489  -7.976   9.102  1.00  0.00     0.074 A 
ATOM     69  C   UNL     1       8.953  -9.271   8.733  1.00  0.00     0.031 C 
ATOM     70  C   UNL     1       9.359  -7.415  10.332  1.00  0.00     0.037 A 
BRANCH  57  71
ATOM     71  C   UNL     1      11.996  -1.824  10.828  1.00  0.00     0.058 A 
ATOM     72  C   UNL     1      11.458  -0.546  10.593  1.00  0.00     0.135 A 
ATOM     73  C   UNL     1      12.901  -1.963  11.892  1.00  0.00     0.135 A 
ATOM     74  F   UNL     1      10.599  -0.349   9.579  1.00  0.00    -0.206 F 
ATOM     75  C   UNL     1      11.848   0.558  11.344  1.00  0.00     0.059 A 
ATOM     76  C   UNL     1      13.279  -0.878  12.678  1.00  0.00     0.059 A 
ATOM     77  F   UNL     1      13.446  -3.159  12.166  1.00  0.00    -0.206 F 
ATOM     78  C   UNL     1      12.767   0.383  12.379  1.00  0.00     0.060 A 
BRANCH  78  79
ATOM     79  S   UNL     1      13.299   1.832  13.316  1.00  0.00     0.124 S 
ATOM     80  O   UNL     1      14.158   2.505  12.346  1.00  0.00    -0.237 OA
ATOM     81  O   UNL     1      12.033   2.496  13.610  1.00  0.00    -0.237 OA
ATOM     82  O   UNL     1      13.985   1.259  14.469  1.00  0.00    -0.744 OA
ENDBRANCH  78  79
ENDBRANCH  57  71
BRANCH  58  83
ATOM     83  C   UNL     1      10.212  -9.517   4.697  1.00  0.00     0.058 A 
ATOM     84  C   UNL     1       8.934  -9.866   4.238  1.00  0.00     0.135 A 
ATOM     85  C   UNL     1      11.301 -10.277   4.241  1.00  0.00     0.135 A 
ATOM     86  F   UNL     1       7.860  -9.179   4.656  1.00  0.00    -0.206 F 
ATOM     87  C   UNL     1       8.742 -10.924   3.355  1.00  0.00     0.059 A 
ATOM     88  C   UNL     1      11.137 -11.322   3.338  1.00  0.00     0.059 A 
ATOM     89  F   UNL     1      12.545  -9.979   4.646  1.00  0.00    -0.206 F 
ATOM     90  C   UNL     1       9.852 -11.639   2.901  1.00  0.00     0.060 A 
BRANCH  90  91
ATOM     91  S   UNL     1       9.601 -12.948   1.682  1.00  0.00     0.124 S 
ATOM     92  O   UNL     1       8.951 -13.978   2.484  1.00  0.00    -0.237 OA
ATOM     93  O   UNL     1       8.759 -12.283   0.692  1.00  0.00    -0.237 OA
ATOM     94  O   UNL     1      10.956 -13.257   1.236  1.00  0.00    -0.744 OA
ENDBRANCH  90  91
ENDBRANCH  58  83
BRANCH  70  95
ATOM     95  C   UNL     1       8.567  -8.177  11.363  1.00  0.00     0.058 A 
ATOM     96  C   UNL     1       9.039  -9.367  11.941  1.00  0.00     0.135 A 
ATOM     97  C   UNL     1       7.324  -7.689  11.801  1.00  0.00     0.135 A 
ATOM     98  F   UNL     1      10.220  -9.880  11.562  1.00  0.00    -0.206 F 
ATOM     99  C   UNL     1       8.289 -10.066  12.883  1.00  0.00     0.059 A 
ATOM    100  C   UNL     1       6.573  -8.354  12.766  1.00  0.00     0.059 A 
ATOM    101  F   UNL     1       6.829  -6.547  11.297  1.00  0.00    -0.206 F 
ATOM    102  C   UNL     1       7.055  -9.553  13.286  1.00  0.00     0.060 A 
BRANCH 102 103
ATOM    103  S   UNL     1       6.090 -10.470  14.507  1.00  0.00     0.124 S 
ATOM    104  O   UNL     1       5.614 -11.600  13.716  1.00  0.00    -0.237 OA
ATOM    105  O   UNL     1       7.089 -10.784  15.523  1.00  0.00    -0.237 OA
ATOM    106  O   UNL     1       5.065  -9.515  14.918  1.00  0.00    -0.744 OA
ENDBRANCH 102 103
ENDBRANCH  70  95
ENDBRANCH  44  45
ENDBRANCH  37  39
ENDBRANCH  36  37
ENDBRANCH  35  36
ENDBRANCH  34  35
ENDBRANCH  33  34
ENDBRANCH  32  33
ENDBRANCH   1  32
TORSDOF 26
