REMARK SMILES COC(=O)[C@H]1CC[C@]2(C)[C@H]3CC=C4[C@@H]5CC(C)(C)CC[C@@]5(C(=O)OCCOCCOCCOC(=O)c5ccc(-c6c7nc(c(-c8c(F)cc(S(=O)(=O)[O-])cc8F)c8ccc([nH]8)c(-c8c(F)cc(S(=O)(=O)[O-])cc8F)c8nc(c(-c9c(F)cc(S(=O)(=O)[O-])cc9F)c9ccc6[nH]9)C=C8)C=C7)cc5)CC[C@@]4(C)[C@@]3(C)CC[C@H]2C1(C)C
REMARK SMILES IDX 29 1 28 2 27 3 26 4 25 5 24 6 22 7 23 8 21 9 5 10 6 11
REMARK SMILES IDX 111 12 7 13 110 14 112 15 113 16 8 17 109 18 9 19 10 20
REMARK SMILES IDX 108 21 11 22 106 23 12 24 104 25 107 26 13 27 103 28 105 29
REMARK SMILES IDX 14 30 102 31 15 32 16 33 20 34 17 35 18 36 19 37 3 38 4 39
REMARK SMILES IDX 2 40 1 41 30 42 31 43 32 44 33 45 34 46 35 47 36 48 37 49
REMARK SMILES IDX 101 50 38 51 100 52 39 53 40 54 41 55 94 56 42 57 99 58
REMARK SMILES IDX 93 59 95 60 43 61 98 62 92 63 91 64 44 66 78 67 57 68 77 69
REMARK SMILES IDX 58 70 61 71 76 72 96 73 59 74 60 75 75 77 97 78 62 79 45 80
REMARK SMILES IDX 46 81 55 82 47 83 48 84 54 85 56 86 49 87 50 88 51 89 52 90
REMARK SMILES IDX 53 91 79 92 80 93 89 94 81 95 82 96 88 97 90 98 83 99 84 100
REMARK SMILES IDX 85 101 86 102 87 103 63 104 64 105 73 106 65 107 66 108
REMARK SMILES IDX 72 109 74 110 67 111 68 112 69 113 70 114 71 115
REMARK H PARENT 95 65 61 76
REMARK Flexibility Score: inf
ROOT
ATOM      1  C   UNL     1      -6.631  -9.275   1.583  1.00  0.00     0.188 C 
ENDROOT
BRANCH   1   2
ATOM      2  C   UNL     1      -6.169  -8.204   2.625  1.00  0.00     0.188 C 
BRANCH   2   3
ATOM      3  O   UNL     1      -6.555  -6.896   2.252  1.00  0.00    -0.376 OA
BRANCH   3   4
ATOM      4  C   UNL     1      -5.580  -6.243   1.489  1.00  0.00     0.202 C 
BRANCH   4   5
ATOM      5  C   UNL     1      -4.794  -7.047   0.445  1.00  0.00     0.261 C 
BRANCH   5   6
ATOM      6  O   UNL     1      -4.327  -8.472   0.586  1.00  0.00    -0.463 OA
BRANCH   6   7
ATOM      7  C   UNL     1      -3.457  -9.214   1.353  1.00  0.00     0.312 C 
ATOM      8  O   UNL     1      -3.783  -9.803   2.380  1.00  0.00    -0.252 OA
BRANCH   7   9
ATOM      9  C   UNL     1      -2.130  -9.513   0.679  1.00  0.00     0.075 C 
ATOM     10  C   UNL     1       1.699  -3.256  -1.618  1.00  0.00     0.105 C 
ATOM     11  C   UNL     1       1.022  -2.302  -0.588  1.00  0.00     0.016 C 
ATOM     12  C   UNL     1       1.020  -4.663  -1.678  1.00  0.00    -0.019 C 
ATOM     13  C   UNL     1       0.739  -2.924   0.833  1.00  0.00     0.008 C 
ATOM     14  C   UNL     1       1.055  -5.116  -0.158  1.00  0.00     0.002 C 
ATOM     15  C   UNL     1      -0.334  -4.560  -2.439  1.00  0.00     0.012 C 
ATOM     16  C   UNL     1       1.804  -5.690  -2.540  1.00  0.00     0.012 C 
ATOM     17  C   UNL     1       0.074  -4.355   0.778  1.00  0.00    -0.026 C 
ATOM     18  C   UNL     1       1.174  -6.606   0.041  1.00  0.00     0.005 C 
ATOM     19  C   UNL     1      -1.341  -4.039   0.179  1.00  0.00     0.012 C 
ATOM     20  C   UNL     1      -0.052  -5.054   2.273  1.00  0.00     0.006 C 
ATOM     21  C   UNL     1       1.466  -7.051   1.460  1.00  0.00     0.008 C 
ATOM     22  C   UNL     1      -1.533  -5.029   2.718  1.00  0.00     0.032 C 
ATOM     23  C   UNL     1       0.495  -6.607   2.562  1.00  0.00    -0.020 C 
ATOM     24  C   UNL     1      -2.266  -6.107   1.902  1.00  0.00    -0.027 C 
ATOM     25  C   UNL     1      -0.721  -7.684   2.739  1.00  0.00    -0.006 C 
ATOM     26  C   UNL     1       1.313  -6.598   3.886  1.00  0.00     0.012 C 
ATOM     27  C   UNL     1      -1.624  -7.251   1.580  1.00  0.00    -0.063 C 
ATOM     28  C   UNL     1      -0.472  -9.228   2.733  1.00  0.00     0.013 C 
ATOM     29  C   UNL     1      -1.399  -7.576   4.191  1.00  0.00     0.017 C 
ATOM     30  C   UNL     1      -1.652  -8.157   0.262  1.00  0.00     0.033 C 
ATOM     31  C   UNL     1      -1.006 -10.089   1.594  1.00  0.00     0.020 C 
ATOM     32  C   UNL     1      -2.227  -7.733  -1.132  1.00  0.00     0.015 C 
ATOM     33  C   UNL     1      -2.266  -8.791  -2.266  1.00  0.00    -0.035 C 
ATOM     34  C   UNL     1      -2.264 -10.579  -0.433  1.00  0.00     0.020 C 
ATOM     35  C   UNL     1      -3.222  -8.324  -3.397  1.00  0.00     0.011 C 
ATOM     36  C   UNL     1      -0.867  -8.932  -2.881  1.00  0.00     0.011 C 
ATOM     37  C   UNL     1      -2.836 -10.122  -1.756  1.00  0.00     0.007 C 
BRANCH  10  38
ATOM     38  C   UNL     1       1.809  -2.703  -3.036  1.00  0.00     0.309 C 
ATOM     39  O   UNL     1       0.956  -2.061  -3.622  1.00  0.00    -0.252 OA
BRANCH  38  40
ATOM     40  O   UNL     1       2.937  -3.231  -3.604  1.00  0.00    -0.469 OA
ATOM     41  C   UNL     1       2.876  -3.532  -5.000  1.00  0.00     0.282 C 
ENDBRANCH  38  40
ENDBRANCH  10  38
ENDBRANCH   7   9
ENDBRANCH   6   7
ENDBRANCH   5   6
ENDBRANCH   4   5
ENDBRANCH   3   4
ENDBRANCH   2   3
ENDBRANCH   1   2
BRANCH   1  42
ATOM     42  O   UNL     1      -7.549  -8.847   0.587  1.00  0.00    -0.376 OA
BRANCH  42  43
ATOM     43  C   UNL     1      -8.709  -8.199   1.084  1.00  0.00     0.202 C 
BRANCH  43  44
ATOM     44  C   UNL     1      -9.443  -8.834   2.295  1.00  0.00     0.261 C 
BRANCH  44  45
ATOM     45  O   UNL     1      -8.650  -9.126   3.487  1.00  0.00    -0.460 OA
BRANCH  45  46
ATOM     46  C   UNL     1      -8.396 -10.444   3.777  1.00  0.00     0.338 C 
ATOM     47  O   UNL     1      -8.918 -11.392   3.221  1.00  0.00    -0.246 OA
BRANCH  46  48
ATOM     48  C   UNL     1      -7.183 -10.618   4.662  1.00  0.00     0.060 A 
ATOM     49  C   UNL     1      -6.101 -11.400   4.205  1.00  0.00     0.016 A 
ATOM     50  C   UNL     1      -7.110 -10.074   5.943  1.00  0.00     0.016 A 
ATOM     51  C   UNL     1      -5.009 -11.707   5.037  1.00  0.00     0.010 A 
ATOM     52  C   UNL     1      -6.035 -10.416   6.794  1.00  0.00     0.010 A 
ATOM     53  C   UNL     1      -5.007 -11.287   6.371  1.00  0.00    -0.014 A 
BRANCH  53  54
ATOM     54  C   UNL     1      -4.173 -12.021   7.380  1.00  0.00     0.031 A 
ATOM     55  C   UNL     1      -4.819 -13.203   8.077  1.00  0.00     0.074 A 
ATOM     56  C   UNL     1      -2.896 -11.715   7.688  1.00  0.00     0.049 A 
ATOM     57  N   UNL     1      -4.358 -13.976   9.028  1.00  0.00    -0.248 NA
ATOM     58  C   UNL     1      -6.179 -13.550   7.633  1.00  0.00     0.031 C 
ATOM     59  C   UNL     1      -2.100 -10.653   7.080  1.00  0.00     0.029 A 
ATOM     60  N   UNL     1      -2.043 -12.277   8.617  1.00  0.00    -0.354 N 
ATOM     61  C   UNL     1      -5.372 -14.891   9.300  1.00  0.00     0.074 A 
ATOM     62  C   UNL     1      -6.484 -14.555   8.438  1.00  0.00     0.031 C 
ATOM     63  C   UNL     1      -0.887 -10.624   7.666  1.00  0.00     0.029 A 
ATOM     64  C   UNL     1      -0.819 -11.651   8.709  1.00  0.00     0.049 A 
ATOM     65  H   UNL     1      -2.287 -13.058   9.165  1.00  0.00     0.167 HD
ATOM     66  C   UNL     1      -5.388 -15.924  10.177  1.00  0.00     0.037 A 
ATOM     67  C   UNL     1       0.224 -11.867   9.543  1.00  0.00     0.037 A 
ATOM     68  C   UNL     1      -4.298 -16.271  11.051  1.00  0.00     0.049 A 
ATOM     69  C   UNL     1       0.160 -12.979  10.570  1.00  0.00     0.074 A 
ATOM     70  C   UNL     1      -4.228 -17.308  11.966  1.00  0.00     0.029 A 
ATOM     71  N   UNL     1      -3.094 -15.591  11.128  1.00  0.00    -0.354 N 
ATOM     72  N   UNL     1      -0.800 -13.843  10.801  1.00  0.00    -0.248 NA
ATOM     73  C   UNL     1       1.332 -13.148  11.445  1.00  0.00     0.031 C 
ATOM     74  C   UNL     1      -3.003 -17.221  12.636  1.00  0.00     0.029 A 
ATOM     75  C   UNL     1      -2.284 -16.169  12.094  1.00  0.00     0.049 A 
ATOM     76  H   UNL     1      -2.849 -14.811  10.579  1.00  0.00     0.167 HD
ATOM     77  C   UNL     1      -0.334 -14.674  11.820  1.00  0.00     0.074 A 
ATOM     78  C   UNL     1       0.999 -14.220  12.150  1.00  0.00     0.031 C 
ATOM     79  C   UNL     1      -0.955 -15.719  12.425  1.00  0.00     0.037 A 
BRANCH  66  80
ATOM     80  C   UNL     1      -6.650 -16.742  10.256  1.00  0.00     0.058 A 
ATOM     81  C   UNL     1      -7.041 -17.604   9.218  1.00  0.00     0.135 A 
ATOM     82  C   UNL     1      -7.468 -16.678  11.396  1.00  0.00     0.135 A 
ATOM     83  F   UNL     1      -6.308 -17.689   8.097  1.00  0.00    -0.206 F 
ATOM     84  C   UNL     1      -8.213 -18.349   9.295  1.00  0.00     0.059 A 
ATOM     85  C   UNL     1      -8.628 -17.439  11.507  1.00  0.00     0.059 A 
ATOM     86  F   UNL     1      -7.144 -15.868  12.416  1.00  0.00    -0.206 F 
ATOM     87  C   UNL     1      -8.999 -18.261  10.445  1.00  0.00     0.060 A 
BRANCH  87  88
ATOM     88  S   UNL     1     -10.512 -19.242  10.533  1.00  0.00     0.124 S 
ATOM     89  O   UNL     1     -11.371 -18.541   9.583  1.00  0.00    -0.237 OA
ATOM     90  O   UNL     1     -10.052 -20.563  10.117  1.00  0.00    -0.237 OA
ATOM     91  O   UNL     1     -10.908 -19.133  11.934  1.00  0.00    -0.744 OA
ENDBRANCH  87  88
ENDBRANCH  66  80
BRANCH  67  92
ATOM     92  C   UNL     1       1.442 -11.005   9.468  1.00  0.00     0.058 A 
ATOM     93  C   UNL     1       2.679 -11.522   9.049  1.00  0.00     0.135 A 
ATOM     94  C   UNL     1       1.404  -9.657   9.858  1.00  0.00     0.135 A 
ATOM     95  F   UNL     1       2.780 -12.812   8.694  1.00  0.00    -0.206 F 
ATOM     96  C   UNL     1       3.832 -10.741   9.027  1.00  0.00     0.059 A 
ATOM     97  C   UNL     1       2.537  -8.847   9.818  1.00  0.00     0.059 A 
ATOM     98  F   UNL     1       0.252  -9.110  10.276  1.00  0.00    -0.206 F 
ATOM     99  C   UNL     1       3.749  -9.400   9.407  1.00  0.00     0.060 A 
BRANCH  99 100
ATOM    100  S   UNL     1       5.236  -8.377   9.309  1.00  0.00     0.124 S 
ATOM    101  O   UNL     1       6.023  -8.888  10.425  1.00  0.00    -0.237 OA
ATOM    102  O   UNL     1       5.737  -8.694   7.975  1.00  0.00    -0.237 OA
ATOM    103  O   UNL     1       4.720  -7.021   9.469  1.00  0.00    -0.744 OA
ENDBRANCH  99 100
ENDBRANCH  67  92
BRANCH  79 104
ATOM    104  C   UNL     1      -0.187 -16.479  13.479  1.00  0.00     0.058 A 
ATOM    105  C   UNL     1       0.126 -15.915  14.727  1.00  0.00     0.135 A 
ATOM    106  C   UNL     1       0.228 -17.802  13.244  1.00  0.00     0.135 A 
ATOM    107  F   UNL     1      -0.248 -14.658  15.013  1.00  0.00    -0.206 F 
ATOM    108  C   UNL     1       0.865 -16.613  15.680  1.00  0.00     0.059 A 
ATOM    109  C   UNL     1       0.939 -18.530  14.195  1.00  0.00     0.059 A 
ATOM    110  F   UNL     1      -0.059 -18.404  12.079  1.00  0.00    -0.206 F 
ATOM    111  C   UNL     1       1.274 -17.918  15.402  1.00  0.00     0.060 A 
BRANCH 111 112
ATOM    112  S   UNL     1       2.249 -18.806  16.636  1.00  0.00     0.124 S 
ATOM    113  O   UNL     1       3.547 -18.150  16.512  1.00  0.00    -0.237 OA
ATOM    114  O   UNL     1       1.518 -18.535  17.869  1.00  0.00    -0.237 OA
ATOM    115  O   UNL     1       2.200 -20.191  16.177  1.00  0.00    -0.744 OA
ENDBRANCH 111 112
ENDBRANCH  79 104
ENDBRANCH  53  54
ENDBRANCH  46  48
ENDBRANCH  45  46
ENDBRANCH  44  45
ENDBRANCH  43  44
ENDBRANCH  42  43
ENDBRANCH   1  42
TORSDOF 22
