REMARK SMILES O=C(Cn1cnc(-c2ccccc2)c1-c1ccccc1)OCCOCCOCCOC(=O)c1ccc(-c2c3nc(c(-c4c(F)cc(S(=O)(=O)[O-])cc4F)c4ccc([nH]4)c(-c4c(F)cc(S(=O)(=O)[O-])cc4F)c4nc(c(-c5c(F)cc(S(=O)(=O)[O-])cc5F)c5ccc2[nH]5)C=C4)C=C3)cc1
REMARK SMILES IDX 26 1 25 2 24 3 23 4 22 5 21 6 2 7 1 8 3 9 4 10 5 11 14 12
REMARK SMILES IDX 6 13 7 14 15 15 16 16 20 17 17 18 19 19 18 20 8 21 9 22
REMARK SMILES IDX 13 23 10 24 12 25 11 26 27 27 28 28 29 29 30 30 31 31 32 32
REMARK SMILES IDX 33 33 34 34 98 35 35 36 97 37 36 38 37 39 38 40 91 41 39 42
REMARK SMILES IDX 96 43 90 44 92 45 40 46 95 47 89 48 88 49 41 51 75 52 54 53
REMARK SMILES IDX 74 54 55 55 58 56 73 57 93 58 56 59 57 60 72 62 94 63 59 64
REMARK SMILES IDX 42 65 43 66 52 67 44 68 45 69 51 70 53 71 46 72 47 73 48 74
REMARK SMILES IDX 49 75 50 76 76 77 77 78 86 79 78 80 79 81 85 82 87 83 80 84
REMARK SMILES IDX 81 85 82 86 83 87 84 88 60 89 61 90 70 91 62 92 63 93 69 94
REMARK SMILES IDX 71 95 64 96 65 97 66 98 67 99 68 100
REMARK H PARENT 92 50 58 61
REMARK Flexibility Score: inf
ROOT
ATOM      1  C   UNL     1       2.166   3.147   0.039  1.00  0.00     0.188 C 
ENDROOT
BRANCH   1   2
ATOM      2  C   UNL     1       2.777   1.965   0.807  1.00  0.00     0.188 C 
BRANCH   2   3
ATOM      3  O   UNL     1       4.188   1.957   0.884  1.00  0.00    -0.376 OA
BRANCH   3   4
ATOM      4  C   UNL     1       4.958   1.035   0.131  1.00  0.00     0.202 C 
BRANCH   4   5
ATOM      5  C   UNL     1       4.479   0.578  -1.248  1.00  0.00     0.261 C 
BRANCH   5   6
ATOM      6  O   UNL     1       3.176  -0.035  -1.399  1.00  0.00    -0.462 OA
BRANCH   6   7
ATOM      7  C   UNL     1       2.551  -1.024  -0.734  1.00  0.00     0.326 C 
ATOM      8  O   UNL     1       1.480  -1.444  -1.174  1.00  0.00    -0.250 OA
BRANCH   7   9
ATOM      9  C   UNL     1       3.116  -1.559   0.552  1.00  0.00     0.246 C 
BRANCH   9  10
ATOM     10  N   UNL     1       3.902  -2.747   0.330  1.00  0.00    -0.319 N 
ATOM     11  C   UNL     1       5.210  -2.762  -0.060  1.00  0.00     0.201 A 
ATOM     12  C   UNL     1       3.486  -4.051   0.492  1.00  0.00     0.076 A 
ATOM     13  N   UNL     1       5.626  -3.980  -0.298  1.00  0.00    -0.236 NA
ATOM     14  C   UNL     1       4.555  -4.787   0.003  1.00  0.00     0.096 A 
BRANCH  12  15
ATOM     15  C   UNL     1       2.240  -4.447   1.145  1.00  0.00     0.000 A 
ATOM     16  C   UNL     1       2.293  -5.081   2.392  1.00  0.00     0.010 A 
ATOM     17  C   UNL     1       0.992  -4.145   0.590  1.00  0.00     0.010 A 
ATOM     18  C   UNL     1       1.119  -5.377   3.087  1.00  0.00     0.001 A 
ATOM     19  C   UNL     1      -0.182  -4.425   1.293  1.00  0.00     0.001 A 
ATOM     20  C   UNL     1      -0.117  -5.037   2.542  1.00  0.00     0.000 A 
ENDBRANCH  12  15
BRANCH  14  21
ATOM     21  C   UNL     1       4.598  -6.223  -0.160  1.00  0.00     0.002 A 
ATOM     22  C   UNL     1       5.715  -6.938   0.280  1.00  0.00     0.010 A 
ATOM     23  C   UNL     1       3.546  -6.899  -0.791  1.00  0.00     0.010 A 
ATOM     24  C   UNL     1       5.767  -8.322   0.116  1.00  0.00     0.001 A 
ATOM     25  C   UNL     1       3.603  -8.281  -0.962  1.00  0.00     0.001 A 
ATOM     26  C   UNL     1       4.711  -8.992  -0.503  1.00  0.00     0.000 A 
ENDBRANCH  14  21
ENDBRANCH   9  10
ENDBRANCH   7   9
ENDBRANCH   6   7
ENDBRANCH   5   6
ENDBRANCH   4   5
ENDBRANCH   3   4
ENDBRANCH   2   3
ENDBRANCH   1   2
BRANCH   1  27
ATOM     27  O   UNL     1       2.910   3.752  -1.008  1.00  0.00    -0.376 OA
BRANCH  27  28
ATOM     28  C   UNL     1       4.188   4.331  -0.745  1.00  0.00     0.202 C 
BRANCH  28  29
ATOM     29  C   UNL     1       4.402   5.251   0.458  1.00  0.00     0.261 C 
BRANCH  29  30
ATOM     30  O   UNL     1       4.394   4.529   1.688  1.00  0.00    -0.460 OA
BRANCH  30  31
ATOM     31  C   UNL     1       3.317   4.741   2.471  1.00  0.00     0.338 C 
ATOM     32  O   UNL     1       2.372   5.470   2.225  1.00  0.00    -0.246 OA
BRANCH  31  33
ATOM     33  C   UNL     1       3.452   4.007   3.741  1.00  0.00     0.060 A 
ATOM     34  C   UNL     1       2.431   4.237   4.666  1.00  0.00     0.016 A 
ATOM     35  C   UNL     1       4.667   3.416   4.114  1.00  0.00     0.016 A 
ATOM     36  C   UNL     1       2.754   4.210   6.001  1.00  0.00     0.010 A 
ATOM     37  C   UNL     1       4.987   3.373   5.456  1.00  0.00     0.010 A 
ATOM     38  C   UNL     1       4.076   3.925   6.356  1.00  0.00    -0.014 A 
BRANCH  38  39
ATOM     39  C   UNL     1       4.518   4.497   7.617  1.00  0.00     0.031 A 
ATOM     40  C   UNL     1       4.039   3.838   8.844  1.00  0.00     0.074 A 
ATOM     41  C   UNL     1       5.300   5.596   7.646  1.00  0.00     0.049 A 
ATOM     42  N   UNL     1       3.271   4.321   9.764  1.00  0.00    -0.248 NA
ATOM     43  C   UNL     1       4.408   2.430   9.024  1.00  0.00     0.031 C 
ATOM     44  C   UNL     1       6.039   6.203   6.532  1.00  0.00     0.029 A 
ATOM     45  N   UNL     1       5.685   6.343   8.718  1.00  0.00    -0.354 N 
ATOM     46  C   UNL     1       3.231   3.348  10.752  1.00  0.00     0.074 A 
ATOM     47  C   UNL     1       3.830   2.160  10.193  1.00  0.00     0.031 C 
ATOM     48  C   UNL     1       6.952   7.064   7.028  1.00  0.00     0.029 A 
ATOM     49  C   UNL     1       6.777   7.158   8.467  1.00  0.00     0.049 A 
ATOM     50  H   UNL     1       5.229   6.308   9.590  1.00  0.00     0.167 HD
ATOM     51  C   UNL     1       2.923   3.638  12.043  1.00  0.00     0.037 A 
ATOM     52  C   UNL     1       7.550   7.777   9.390  1.00  0.00     0.037 A 
ATOM     53  C   UNL     1       2.235   4.890  12.192  1.00  0.00     0.049 A 
ATOM     54  C   UNL     1       6.761   7.888  10.644  1.00  0.00     0.074 A 
ATOM     55  C   UNL     1       1.054   5.414  11.703  1.00  0.00     0.029 A 
ATOM     56  N   UNL     1       2.921   5.955  12.723  1.00  0.00    -0.354 N 
ATOM     57  N   UNL     1       5.715   8.654  10.796  1.00  0.00    -0.248 NA
ATOM     58  C   UNL     1       6.919   6.850  11.652  1.00  0.00     0.031 C 
ATOM     59  C   UNL     1       1.284   6.813  11.565  1.00  0.00     0.029 A 
ATOM     60  C   UNL     1       2.593   7.062  11.979  1.00  0.00     0.049 A 
ATOM     61  H   UNL     1       3.533   5.930  13.493  1.00  0.00     0.167 HD
ATOM     62  C   UNL     1       4.883   7.959  11.661  1.00  0.00     0.074 A 
ATOM     63  C   UNL     1       5.727   6.924  12.247  1.00  0.00     0.031 C 
ATOM     64  C   UNL     1       3.527   8.108  11.618  1.00  0.00     0.037 A 
BRANCH  51  65
ATOM     65  C   UNL     1       3.562   2.912  13.191  1.00  0.00     0.058 A 
ATOM     66  C   UNL     1       2.965   2.924  14.462  1.00  0.00     0.135 A 
ATOM     67  C   UNL     1       4.883   2.412  13.125  1.00  0.00     0.135 A 
ATOM     68  F   UNL     1       1.727   3.416  14.628  1.00  0.00    -0.206 F 
ATOM     69  C   UNL     1       3.648   2.496  15.600  1.00  0.00     0.059 A 
ATOM     70  C   UNL     1       5.560   1.928  14.234  1.00  0.00     0.059 A 
ATOM     71  F   UNL     1       5.601   2.463  11.993  1.00  0.00    -0.206 F 
ATOM     72  C   UNL     1       4.950   2.014  15.475  1.00  0.00     0.060 A 
BRANCH  72  73
ATOM     73  S   UNL     1       5.882   1.567  16.950  1.00  0.00     0.124 S 
ATOM     74  O   UNL     1       6.266   2.882  17.452  1.00  0.00    -0.237 OA
ATOM     75  O   UNL     1       4.888   0.846  17.738  1.00  0.00    -0.237 OA
ATOM     76  O   UNL     1       6.968   0.747  16.421  1.00  0.00    -0.744 OA
ENDBRANCH  72  73
ENDBRANCH  51  65
BRANCH  52  77
ATOM     77  C   UNL     1       9.025   7.947   9.338  1.00  0.00     0.058 A 
ATOM     78  C   UNL     1       9.690   8.812  10.222  1.00  0.00     0.135 A 
ATOM     79  C   UNL     1       9.844   7.075   8.589  1.00  0.00     0.135 A 
ATOM     80  F   UNL     1       8.988   9.650  11.002  1.00  0.00    -0.206 F 
ATOM     81  C   UNL     1      11.080   8.793  10.377  1.00  0.00     0.059 A 
ATOM     82  C   UNL     1      11.230   7.053   8.709  1.00  0.00     0.059 A 
ATOM     83  F   UNL     1       9.317   6.145   7.779  1.00  0.00    -0.206 F 
ATOM     84  C   UNL     1      11.841   7.899   9.623  1.00  0.00     0.060 A 
BRANCH  84  85
ATOM     85  S   UNL     1      13.616   7.760   9.927  1.00  0.00     0.124 S 
ATOM     86  O   UNL     1      14.110   9.030   9.409  1.00  0.00    -0.237 OA
ATOM     87  O   UNL     1      13.667   7.596  11.376  1.00  0.00    -0.237 OA
ATOM     88  O   UNL     1      14.000   6.580   9.156  1.00  0.00    -0.744 OA
ENDBRANCH  84  85
ENDBRANCH  52  77
BRANCH  64  89
ATOM     89  C   UNL     1       2.968   9.294  10.877  1.00  0.00     0.058 A 
ATOM     90  C   UNL     1       3.089   9.472   9.487  1.00  0.00     0.135 A 
ATOM     91  C   UNL     1       2.155  10.203  11.571  1.00  0.00     0.135 A 
ATOM     92  F   UNL     1       3.759   8.585   8.737  1.00  0.00    -0.206 F 
ATOM     93  C   UNL     1       2.467  10.531   8.826  1.00  0.00     0.059 A 
ATOM     94  C   UNL     1       1.501  11.251  10.927  1.00  0.00     0.059 A 
ATOM     95  F   UNL     1       1.946  10.048  12.889  1.00  0.00    -0.206 F 
ATOM     96  C   UNL     1       1.672  11.416   9.553  1.00  0.00     0.060 A 
BRANCH  96  97
ATOM     97  S   UNL     1       0.788  12.727   8.678  1.00  0.00     0.124 S 
ATOM     98  O   UNL     1       1.851  13.694   8.420  1.00  0.00    -0.237 OA
ATOM     99  O   UNL     1       0.264  12.033   7.505  1.00  0.00    -0.237 OA
ATOM    100  O   UNL     1      -0.225  13.155   9.640  1.00  0.00    -0.744 OA
ENDBRANCH  96  97
ENDBRANCH  64  89
ENDBRANCH  38  39
ENDBRANCH  31  33
ENDBRANCH  30  31
ENDBRANCH  29  30
ENDBRANCH  28  29
ENDBRANCH  27  28
ENDBRANCH   1  27
TORSDOF 23
