REMARK SMILES Cc1cnn(C2(C(=O)OCCOCCOCCOC(=O)c3ccc(-c4c5nc(c(-c6c(F)cc(S(=O)(=O)[O-])cc6F)c6ccc([nH]6)c(-c6c(F)cc(S(=O)(=O)[O-])cc6F)c6nc(c(-c7c(F)cc(S(=O)(=O)[O-])cc7F)c7ccc4[nH]7)C=C6)C=C5)cc3)CCN(C(=O)c3cc4ccccc4[nH]3)CC2)c1
REMARK SMILES IDX 14 1 13 2 12 3 11 4 10 5 9 6 7 7 8 8 6 9 87 10 102 11 88 12
REMARK SMILES IDX 101 13 89 14 90 15 91 16 5 17 1 18 2 19 3 20 103 21 4 22
REMARK SMILES IDX 92 23 93 24 100 25 94 26 99 27 95 29 98 30 96 31 97 32 15 33
REMARK SMILES IDX 16 34 17 35 18 36 19 37 20 38 21 39 22 40 86 41 23 42 85 43
REMARK SMILES IDX 24 44 25 45 26 46 79 47 27 48 84 49 78 50 80 51 28 52 83 53
REMARK SMILES IDX 77 54 76 55 29 57 63 58 42 59 62 60 43 61 46 62 61 63 81 64
REMARK SMILES IDX 44 65 45 66 60 68 82 69 47 70 30 71 31 72 40 73 32 74 33 75
REMARK SMILES IDX 39 76 41 77 34 78 35 79 36 80 37 81 38 82 64 83 65 84 74 85
REMARK SMILES IDX 66 86 67 87 73 88 75 89 68 90 69 91 70 92 71 93 72 94 48 95
REMARK SMILES IDX 49 96 58 97 50 98 51 99 57 100 59 101 52 102 53 103 54 104
REMARK SMILES IDX 55 105 56 106
REMARK H PARENT 100 28 80 56 46 67
REMARK Flexibility Score: inf
ROOT
ATOM      1  C   UNL     1      -2.874   4.278   4.090  1.00  0.00     0.188 C 
ENDROOT
BRANCH   1   2
ATOM      2  C   UNL     1      -2.076   3.252   4.892  1.00  0.00     0.188 C 
BRANCH   2   3
ATOM      3  O   UNL     1      -1.966   3.548   6.282  1.00  0.00    -0.376 OA
BRANCH   3   4
ATOM      4  C   UNL     1      -1.512   4.863   6.585  1.00  0.00     0.202 C 
BRANCH   4   5
ATOM      5  C   UNL     1      -0.095   5.227   6.095  1.00  0.00     0.261 C 
BRANCH   5   6
ATOM      6  O   UNL     1       0.110   5.103   4.667  1.00  0.00    -0.461 OA
BRANCH   6   7
ATOM      7  C   UNL     1       0.993   4.163   4.221  1.00  0.00     0.334 C 
ATOM      8  O   UNL     1       1.745   3.557   4.981  1.00  0.00    -0.249 OA
BRANCH   7   9
ATOM      9  C   UNL     1       1.046   4.027   2.664  1.00  0.00     0.163 C 
ATOM     10  C   UNL     1       0.170   5.073   1.923  1.00  0.00     0.064 C 
ATOM     11  C   UNL     1       2.546   4.298   2.406  1.00  0.00     0.064 C 
ATOM     12  C   UNL     1       0.610   5.380   0.491  1.00  0.00     0.123 C 
ATOM     13  C   UNL     1       2.909   4.562   0.964  1.00  0.00     0.123 C 
ATOM     14  N   UNL     1       2.050   5.595   0.397  1.00  0.00    -0.337 N 
ATOM     15  C   UNL     1       2.535   6.759  -0.196  1.00  0.00     0.270 C 
ATOM     16  O   UNL     1       1.824   7.724  -0.453  1.00  0.00    -0.267 OA
BRANCH   9  17
ATOM     17  N   UNL     1       0.701   2.647   2.230  1.00  0.00    -0.255 N 
ATOM     18  C   UNL     1       0.826  -0.303   0.065  1.00  0.00     0.048 C 
ATOM     19  C   UNL     1       0.635   0.733   1.103  1.00  0.00    -0.013 A 
ATOM     20  C   UNL     1       0.218   0.583   2.436  1.00  0.00     0.138 A 
ATOM     21  C   UNL     1       0.839   2.089   0.981  1.00  0.00     0.113 A 
ATOM     22  N   UNL     1       0.239   1.734   3.108  1.00  0.00    -0.180 NA
ENDBRANCH   9  17
BRANCH  15  23
ATOM     23  C   UNL     1       3.957   6.794  -0.429  1.00  0.00     0.105 A 
ATOM     24  C   UNL     1       4.746   5.993  -1.236  1.00  0.00     0.042 A 
ATOM     25  N   UNL     1       4.793   7.675   0.208  1.00  0.00    -0.351 N 
ATOM     26  C   UNL     1       6.103   6.332  -0.994  1.00  0.00     0.000 A 
ATOM     27  C   UNL     1       6.106   7.356  -0.047  1.00  0.00     0.046 A 
ATOM     28  H   UNL     1       4.496   8.428   0.768  1.00  0.00     0.167 HD
ATOM     29  C   UNL     1       7.332   5.845  -1.473  1.00  0.00     0.010 A 
ATOM     30  C   UNL     1       7.284   7.894   0.480  1.00  0.00     0.026 A 
ATOM     31  C   UNL     1       8.521   6.393  -0.979  1.00  0.00     0.001 A 
ATOM     32  C   UNL     1       8.494   7.393  -0.008  1.00  0.00     0.002 A 
ENDBRANCH  15  23
ENDBRANCH   7   9
ENDBRANCH   6   7
ENDBRANCH   5   6
ENDBRANCH   4   5
ENDBRANCH   3   4
ENDBRANCH   2   3
ENDBRANCH   1   2
BRANCH   1  33
ATOM     33  O   UNL     1      -2.310   5.575   3.981  1.00  0.00    -0.376 OA
BRANCH  33  34
ATOM     34  C   UNL     1      -3.121   6.753   3.938  1.00  0.00     0.202 C 
BRANCH  34  35
ATOM     35  C   UNL     1      -4.651   6.791   4.101  1.00  0.00     0.261 C 
BRANCH  35  36
ATOM     36  O   UNL     1      -5.368   5.646   3.696  1.00  0.00    -0.460 OA
BRANCH  36  37
ATOM     37  C   UNL     1      -5.078   5.102   2.502  1.00  0.00     0.338 C 
ATOM     38  O   UNL     1      -4.483   5.620   1.569  1.00  0.00    -0.246 OA
BRANCH  37  39
ATOM     39  C   UNL     1      -5.564   3.714   2.584  1.00  0.00     0.060 A 
ATOM     40  C   UNL     1      -5.808   3.061   1.385  1.00  0.00     0.016 A 
ATOM     41  C   UNL     1      -5.984   3.186   3.826  1.00  0.00     0.016 A 
ATOM     42  C   UNL     1      -6.843   2.164   1.390  1.00  0.00     0.010 A 
ATOM     43  C   UNL     1      -6.975   2.258   3.837  1.00  0.00     0.010 A 
ATOM     44  C   UNL     1      -7.505   1.941   2.601  1.00  0.00    -0.014 A 
BRANCH  44  45
ATOM     45  C   UNL     1      -8.866   1.481   2.568  1.00  0.00     0.031 A 
ATOM     46  C   UNL     1      -8.930   0.028   2.402  1.00  0.00     0.074 A 
ATOM     47  C   UNL     1      -9.891   2.334   2.766  1.00  0.00     0.049 A 
ATOM     48  N   UNL     1      -9.152  -0.621   1.309  1.00  0.00    -0.248 NA
ATOM     49  C   UNL     1      -8.400  -0.793   3.503  1.00  0.00     0.031 C 
ATOM     50  C   UNL     1      -9.863   3.741   3.194  1.00  0.00     0.029 A 
ATOM     51  N   UNL     1     -11.221   2.074   2.686  1.00  0.00    -0.354 N 
ATOM     52  C   UNL     1      -9.082  -1.952   1.686  1.00  0.00     0.074 A 
ATOM     53  C   UNL     1      -8.336  -1.988   2.915  1.00  0.00     0.031 C 
ATOM     54  C   UNL     1     -11.111   4.130   3.548  1.00  0.00     0.029 A 
ATOM     55  C   UNL     1     -12.039   3.059   3.238  1.00  0.00     0.049 A 
ATOM     56  H   UNL     1     -11.579   1.256   2.272  1.00  0.00     0.167 HD
ATOM     57  C   UNL     1      -9.957  -2.856   1.173  1.00  0.00     0.037 A 
ATOM     58  C   UNL     1     -13.368   2.914   3.483  1.00  0.00     0.037 A 
ATOM     59  C   UNL     1     -10.567  -2.363  -0.040  1.00  0.00     0.049 A 
ATOM     60  C   UNL     1     -13.833   1.804   2.599  1.00  0.00     0.074 A 
ATOM     61  C   UNL     1     -10.087  -1.954  -1.270  1.00  0.00     0.029 A 
ATOM     62  N   UNL     1     -11.836  -1.842   0.058  1.00  0.00    -0.354 N 
ATOM     63  N   UNL     1     -13.815   1.870   1.292  1.00  0.00    -0.248 NA
ATOM     64  C   UNL     1     -13.816   0.457   3.152  1.00  0.00     0.031 C 
ATOM     65  C   UNL     1     -10.902  -0.843  -1.642  1.00  0.00     0.029 A 
ATOM     66  C   UNL     1     -11.877  -0.670  -0.658  1.00  0.00     0.049 A 
ATOM     67  H   UNL     1     -12.587  -2.240   0.555  1.00  0.00     0.167 HD
ATOM     68  C   UNL     1     -13.377   0.620   0.870  1.00  0.00     0.074 A 
ATOM     69  C   UNL     1     -13.445  -0.224   2.063  1.00  0.00     0.031 C 
ATOM     70  C   UNL     1     -12.724   0.459  -0.321  1.00  0.00     0.037 A 
BRANCH  57  71
ATOM     71  C   UNL     1     -10.553  -3.962   2.006  1.00  0.00     0.058 A 
ATOM     72  C   UNL     1     -11.267  -4.987   1.364  1.00  0.00     0.135 A 
ATOM     73  C   UNL     1     -10.676  -3.922   3.417  1.00  0.00     0.135 A 
ATOM     74  F   UNL     1     -11.236  -5.104   0.027  1.00  0.00    -0.206 F 
ATOM     75  C   UNL     1     -12.089  -5.869   2.065  1.00  0.00     0.059 A 
ATOM     76  C   UNL     1     -11.434  -4.828   4.139  1.00  0.00     0.059 A 
ATOM     77  F   UNL     1     -10.153  -2.946   4.167  1.00  0.00    -0.206 F 
ATOM     78  C   UNL     1     -12.173  -5.772   3.453  1.00  0.00     0.060 A 
BRANCH  78  79
ATOM     79  S   UNL     1     -13.309  -6.834   4.354  1.00  0.00     0.124 S 
ATOM     80  O   UNL     1     -14.598  -6.324   3.901  1.00  0.00    -0.237 OA
ATOM     81  O   UNL     1     -12.933  -8.156   3.865  1.00  0.00    -0.237 OA
ATOM     82  O   UNL     1     -12.979  -6.570   5.751  1.00  0.00    -0.744 OA
ENDBRANCH  78  79
ENDBRANCH  57  71
BRANCH  58  83
ATOM     83  C   UNL     1     -14.087   3.306   4.731  1.00  0.00     0.058 A 
ATOM     84  C   UNL     1     -15.492   3.312   4.804  1.00  0.00     0.135 A 
ATOM     85  C   UNL     1     -13.406   3.412   5.962  1.00  0.00     0.135 A 
ATOM     86  F   UNL     1     -16.224   3.184   3.687  1.00  0.00    -0.206 F 
ATOM     87  C   UNL     1     -16.180   3.389   6.025  1.00  0.00     0.059 A 
ATOM     88  C   UNL     1     -14.067   3.493   7.187  1.00  0.00     0.059 A 
ATOM     89  F   UNL     1     -12.068   3.350   6.018  1.00  0.00    -0.206 F 
ATOM     90  C   UNL     1     -15.455   3.463   7.215  1.00  0.00     0.060 A 
BRANCH  90  91
ATOM     91  S   UNL     1     -16.325   3.419   8.803  1.00  0.00     0.124 S 
ATOM     92  O   UNL     1     -17.013   4.705   8.806  1.00  0.00    -0.237 OA
ATOM     93  O   UNL     1     -17.175   2.242   8.659  1.00  0.00    -0.237 OA
ATOM     94  O   UNL     1     -15.245   3.289   9.778  1.00  0.00    -0.744 OA
ENDBRANCH  90  91
ENDBRANCH  58  83
BRANCH  70  95
ATOM     95  C   UNL     1     -12.710   1.627  -1.284  1.00  0.00     0.058 A 
ATOM     96  C   UNL     1     -12.021   2.834  -1.062  1.00  0.00     0.135 A 
ATOM     97  C   UNL     1     -13.285   1.449  -2.550  1.00  0.00     0.135 A 
ATOM     98  F   UNL     1     -11.361   3.047   0.085  1.00  0.00    -0.206 F 
ATOM     99  C   UNL     1     -11.935   3.829  -2.042  1.00  0.00     0.059 A 
ATOM    100  C   UNL     1     -13.190   2.414  -3.550  1.00  0.00     0.059 A 
ATOM    101  F   UNL     1     -13.904   0.295  -2.848  1.00  0.00    -0.206 F 
ATOM    102  C   UNL     1     -12.522   3.608  -3.287  1.00  0.00     0.060 A 
BRANCH 102 103
ATOM    103  S   UNL     1     -12.347   4.856  -4.584  1.00  0.00     0.124 S 
ATOM    104  O   UNL     1     -13.190   5.938  -4.086  1.00  0.00    -0.237 OA
ATOM    105  O   UNL     1     -10.911   5.118  -4.580  1.00  0.00    -0.237 OA
ATOM    106  O   UNL     1     -12.844   4.178  -5.779  1.00  0.00    -0.744 OA
ENDBRANCH 102 103
ENDBRANCH  70  95
ENDBRANCH  44  45
ENDBRANCH  37  39
ENDBRANCH  36  37
ENDBRANCH  35  36
ENDBRANCH  34  35
ENDBRANCH  33  34
ENDBRANCH   1  33
TORSDOF 22
