REMARK SMILES COc1ccccc1-n1nnc(C(=O)OCCOCCOCCOC(=O)c2ccc(-c3c4nc(c(-c5c(F)cc(S(=O)(=O)[O-])cc5F)c5ccc([nH]5)c(-c5c(F)cc(S(=O)(=O)[O-])cc5F)c5nc(c(-c6c(F)cc(S(=O)(=O)[O-])cc6F)c6ccc3[nH]6)C=C5)C=C4)cc2)c1-c1ccc(Cl)cc1
REMARK SMILES IDX 20 1 19 2 18 3 17 4 16 5 15 6 13 7 14 8 12 9 9 10 10 11
REMARK SMILES IDX 93 12 11 13 8 14 3 15 4 16 5 17 7 18 6 19 2 20 1 21 94 22
REMARK SMILES IDX 95 23 100 24 96 25 99 26 97 27 98 28 21 29 22 30 23 31 24 32
REMARK SMILES IDX 25 33 26 34 27 35 28 36 92 37 29 38 91 39 30 40 31 41 32 42
REMARK SMILES IDX 85 43 33 44 90 45 84 46 86 47 34 48 89 49 83 50 82 51 35 53
REMARK SMILES IDX 69 54 48 55 68 56 49 57 52 58 67 59 87 60 50 61 51 62 66 64
REMARK SMILES IDX 88 65 53 66 36 67 37 68 46 69 38 70 39 71 45 72 47 73 40 74
REMARK SMILES IDX 41 75 42 76 43 77 44 78 70 79 71 80 80 81 72 82 73 83 79 84
REMARK SMILES IDX 81 85 74 86 75 87 76 88 77 89 78 90 54 91 55 92 64 93 56 94
REMARK SMILES IDX 57 95 63 96 65 97 58 98 59 99 60 100 61 101 62 102
REMARK H PARENT 86 52 52 63
REMARK Flexibility Score: inf
ROOT
ATOM      1  C   UNL     1       6.531  -2.275   0.455  1.00  0.00     0.188 C 
ENDROOT
BRANCH   1   2
ATOM      2  C   UNL     1       7.039  -1.398   1.624  1.00  0.00     0.188 C 
BRANCH   2   3
ATOM      3  O   UNL     1       7.296  -1.978   2.898  1.00  0.00    -0.376 OA
BRANCH   3   4
ATOM      4  C   UNL     1       6.325  -2.821   3.509  1.00  0.00     0.202 C 
BRANCH   4   5
ATOM      5  C   UNL     1       4.861  -2.357   3.620  1.00  0.00     0.261 C 
BRANCH   5   6
ATOM      6  O   UNL     1       4.254  -2.038   2.363  1.00  0.00    -0.458 OA
BRANCH   6   7
ATOM      7  C   UNL     1       3.926  -0.733   2.125  1.00  0.00     0.361 C 
ATOM      8  O   UNL     1       3.946   0.143   2.961  1.00  0.00    -0.244 OA
BRANCH   7   9
ATOM      9  C   UNL     1       3.633  -0.494   0.713  1.00  0.00     0.198 A 
ATOM     10  N   UNL     1       2.986  -0.543  -1.360  1.00  0.00    -0.208 N 
ATOM     11  N   UNL     1       3.733   0.573  -1.200  1.00  0.00    -0.061 NA
ATOM     12  C   UNL     1       3.077  -1.348  -0.233  1.00  0.00     0.109 A 
ATOM     13  N   UNL     1       4.026   0.671   0.089  1.00  0.00    -0.122 NA
BRANCH  10  14
ATOM     14  C   UNL     1       2.078  -0.639  -2.430  1.00  0.00     0.109 A 
ATOM     15  C   UNL     1       0.729  -0.927  -2.186  1.00  0.00     0.144 A 
ATOM     16  C   UNL     1      -0.129  -1.157  -3.260  1.00  0.00     0.049 A 
ATOM     17  C   UNL     1       0.344  -1.042  -4.568  1.00  0.00     0.004 A 
ATOM     18  C   UNL     1       2.543  -0.458  -3.739  1.00  0.00     0.032 A 
ATOM     19  C   UNL     1       1.671  -0.679  -4.808  1.00  0.00     0.003 A 
BRANCH  15  20
ATOM     20  O   UNL     1       0.177  -1.016  -0.934  1.00  0.00    -0.494 OA
ATOM     21  C   UNL     1       0.099   0.255  -0.279  1.00  0.00     0.278 C 
ENDBRANCH  15  20
ENDBRANCH  10  14
BRANCH  12  22
ATOM     22  C   UNL     1       2.662  -2.750  -0.169  1.00  0.00     0.003 A 
ATOM     23  C   UNL     1       1.898  -3.212   0.910  1.00  0.00     0.012 A 
ATOM     24  C   UNL     1       3.082  -3.668  -1.145  1.00  0.00     0.012 A 
ATOM     25  C   UNL     1       1.598  -4.569   1.039  1.00  0.00     0.021 A 
ATOM     26  C   UNL     1       2.771  -5.026  -1.024  1.00  0.00     0.021 A 
ATOM     27  C   UNL     1       2.042  -5.471   0.076  1.00  0.00     0.041 A 
ATOM     28  Cl  UNL     1       1.700  -7.147   0.259  1.00  0.00    -0.084 Cl
ENDBRANCH  12  22
ENDBRANCH   7   9
ENDBRANCH   6   7
ENDBRANCH   5   6
ENDBRANCH   4   5
ENDBRANCH   3   4
ENDBRANCH   2   3
ENDBRANCH   1   2
BRANCH   1  29
ATOM     29  O   UNL     1       5.907  -3.477   0.857  1.00  0.00    -0.376 OA
BRANCH  29  30
ATOM     30  C   UNL     1       6.498  -4.743   0.599  1.00  0.00     0.202 C 
BRANCH  30  31
ATOM     31  C   UNL     1       7.987  -5.023   0.818  1.00  0.00     0.261 C 
BRANCH  31  32
ATOM     32  O   UNL     1       8.799  -3.878   0.932  1.00  0.00    -0.460 OA
BRANCH  32  33
ATOM     33  C   UNL     1       9.231  -3.390  -0.248  1.00  0.00     0.338 C 
ATOM     34  O   UNL     1       8.888  -3.753  -1.361  1.00  0.00    -0.246 OA
BRANCH  33  35
ATOM     35  C   UNL     1      10.204  -2.333   0.025  1.00  0.00     0.060 A 
ATOM     36  C   UNL     1      10.639  -1.601  -1.078  1.00  0.00     0.016 A 
ATOM     37  C   UNL     1      10.899  -2.361   1.244  1.00  0.00     0.016 A 
ATOM     38  C   UNL     1      11.941  -1.179  -1.074  1.00  0.00     0.010 A 
ATOM     39  C   UNL     1      12.204  -1.955   1.241  1.00  0.00     0.010 A 
ATOM     40  C   UNL     1      12.728  -1.496   0.038  1.00  0.00    -0.014 A 
BRANCH  40  41
ATOM     41  C   UNL     1      14.155  -1.367  -0.108  1.00  0.00     0.031 A 
ATOM     42  C   UNL     1      14.593   0.028   0.018  1.00  0.00     0.074 A 
ATOM     43  C   UNL     1      14.943  -2.447  -0.269  1.00  0.00     0.049 A 
ATOM     44  N   UNL     1      14.947   0.832  -0.926  1.00  0.00    -0.248 NA
ATOM     45  C   UNL     1      14.390   0.677   1.324  1.00  0.00     0.031 C 
ATOM     46  C   UNL     1      14.571  -3.855  -0.073  1.00  0.00     0.029 A 
ATOM     47  N   UNL     1      16.275  -2.517  -0.533  1.00  0.00    -0.354 N 
ATOM     48  C   UNL     1      15.307   1.999  -0.265  1.00  0.00     0.074 A 
ATOM     49  C   UNL     1      14.689   1.944   1.032  1.00  0.00     0.031 C 
ATOM     50  C   UNL     1      15.694  -4.603   0.018  1.00  0.00     0.029 A 
ATOM     51  C   UNL     1      16.840  -3.758  -0.269  1.00  0.00     0.049 A 
ATOM     52  H   UNL     1      16.793  -1.755  -0.880  1.00  0.00     0.167 HD
ATOM     53  C   UNL     1      16.390   2.708  -0.679  1.00  0.00     0.037 A 
ATOM     54  C   UNL     1      18.167  -4.031  -0.216  1.00  0.00     0.037 A 
ATOM     55  C   UNL     1      16.803   2.303  -1.998  1.00  0.00     0.049 A 
ATOM     56  C   UNL     1      18.867  -2.972  -0.987  1.00  0.00     0.074 A 
ATOM     57  C   UNL     1      16.384   2.525  -3.290  1.00  0.00     0.029 A 
ATOM     58  N   UNL     1      17.613   1.197  -2.012  1.00  0.00    -0.354 N 
ATOM     59  N   UNL     1      18.704  -2.789  -2.272  1.00  0.00    -0.248 NA
ATOM     60  C   UNL     1      19.484  -1.856  -0.275  1.00  0.00     0.031 C 
ATOM     61  C   UNL     1      16.881   1.438  -4.068  1.00  0.00     0.029 A 
ATOM     62  C   UNL     1      17.614   0.591  -3.241  1.00  0.00     0.049 A 
ATOM     63  H   UNL     1      18.130   0.878  -1.237  1.00  0.00     0.167 HD
ATOM     64  C   UNL     1      18.816  -1.422  -2.445  1.00  0.00     0.074 A 
ATOM     65  C   UNL     1      19.450  -0.925  -1.232  1.00  0.00     0.031 C 
ATOM     66  C   UNL     1      18.090  -0.768  -3.395  1.00  0.00     0.037 A 
BRANCH  53  67
ATOM     67  C   UNL     1      17.358   3.377   0.267  1.00  0.00     0.058 A 
ATOM     68  C   UNL     1      18.314   4.271  -0.250  1.00  0.00     0.135 A 
ATOM     69  C   UNL     1      17.571   2.964   1.604  1.00  0.00     0.135 A 
ATOM     70  F   UNL     1      18.224   4.704  -1.518  1.00  0.00    -0.206 F 
ATOM     71  C   UNL     1      19.418   4.693   0.493  1.00  0.00     0.059 A 
ATOM     72  C   UNL     1      18.627   3.419   2.380  1.00  0.00     0.059 A 
ATOM     73  F   UNL     1      16.828   2.020   2.194  1.00  0.00    -0.206 F 
ATOM     74  C   UNL     1      19.567   4.254   1.806  1.00  0.00     0.060 A 
BRANCH  74  75
ATOM     75  S   UNL     1      21.024   4.731   2.747  1.00  0.00     0.124 S 
ATOM     76  O   UNL     1      22.071   3.978   2.066  1.00  0.00    -0.237 OA
ATOM     77  O   UNL     1      21.047   6.178   2.557  1.00  0.00    -0.237 OA
ATOM     78  O   UNL     1      20.707   4.290   4.103  1.00  0.00    -0.744 OA
ENDBRANCH  74  75
ENDBRANCH  53  67
BRANCH  54  79
ATOM     79  C   UNL     1      18.865  -4.916   0.752  1.00  0.00     0.058 A 
ATOM     80  C   UNL     1      20.188  -5.335   0.532  1.00  0.00     0.135 A 
ATOM     81  C   UNL     1      18.350  -5.131   2.047  1.00  0.00     0.135 A 
ATOM     82  F   UNL     1      20.761  -5.151  -0.668  1.00  0.00    -0.206 F 
ATOM     83  C   UNL     1      20.974  -5.885   1.550  1.00  0.00     0.059 A 
ATOM     84  C   UNL     1      19.112  -5.684   3.075  1.00  0.00     0.059 A 
ATOM     85  F   UNL     1      17.116  -4.723   2.378  1.00  0.00    -0.206 F 
ATOM     86  C   UNL     1      20.433  -6.035   2.826  1.00  0.00     0.060 A 
BRANCH  86  87
ATOM     87  S   UNL     1      21.497  -6.579   4.184  1.00  0.00     0.124 S 
ATOM     88  O   UNL     1      21.747  -7.972   3.829  1.00  0.00    -0.237 OA
ATOM     89  O   UNL     1      22.636  -5.676   4.064  1.00  0.00    -0.237 OA
ATOM     90  O   UNL     1      20.666  -6.377   5.368  1.00  0.00    -0.744 OA
ENDBRANCH  86  87
ENDBRANCH  54  79
BRANCH  66  91
ATOM     91  C   UNL     1      17.647  -1.540  -4.600  1.00  0.00     0.058 A 
ATOM     92  C   UNL     1      16.644  -2.522  -4.607  1.00  0.00     0.135 A 
ATOM     93  C   UNL     1      18.207  -1.177  -5.834  1.00  0.00     0.135 A 
ATOM     94  F   UNL     1      16.018  -2.873  -3.473  1.00  0.00    -0.206 F 
ATOM     95  C   UNL     1      16.225  -3.126  -5.795  1.00  0.00     0.059 A 
ATOM     96  C   UNL     1      17.787  -1.745  -7.031  1.00  0.00     0.059 A 
ATOM     97  F   UNL     1      19.143  -0.215  -5.890  1.00  0.00    -0.206 F 
ATOM     98  C   UNL     1      16.799  -2.724  -7.004  1.00  0.00     0.060 A 
BRANCH  98  99
ATOM     99  S   UNL     1      16.197  -3.434  -8.553  1.00  0.00     0.124 S 
ATOM    100  O   UNL     1      16.710  -4.798  -8.486  1.00  0.00    -0.237 OA
ATOM    101  O   UNL     1      14.750  -3.293  -8.424  1.00  0.00    -0.237 OA
ATOM    102  O   UNL     1      16.807  -2.588  -9.576  1.00  0.00    -0.744 OA
ENDBRANCH  98  99
ENDBRANCH  66  91
ENDBRANCH  40  41
ENDBRANCH  33  35
ENDBRANCH  32  33
ENDBRANCH  31  32
ENDBRANCH  30  31
ENDBRANCH  29  30
ENDBRANCH   1  29
TORSDOF 23
