REMARK SMILES NS(=O)(=O)c1ccc(-n2ccnc2-c2ccc(O)c(C(=O)OCCOCCOCCOC(=O)c3ccc(-c4c5nc(c(-c6c(F)cc(S(=O)(=O)[O-])cc6F)c6ccc([nH]6)c(-c6c(F)cc(S(=O)(=O)[O-])cc6F)c6nc(c(-c7c(F)cc(S(=O)(=O)[O-])cc7F)c7ccc4[nH]7)C=C6)C=C5)cc3)c2)cc1
REMARK SMILES IDX 26 1 25 2 24 3 23 4 22 5 20 6 21 7 19 8 14 9 15 10 100 11
REMARK SMILES IDX 16 12 17 13 13 14 9 15 10 16 11 17 12 18 8 19 5 20 6 21
REMARK SMILES IDX 102 22 7 23 101 24 2 25 3 26 4 27 1 28 18 31 27 33 28 34
REMARK SMILES IDX 29 35 30 36 31 37 32 38 33 39 34 40 35 41 99 42 36 43 98 44
REMARK SMILES IDX 37 45 38 46 39 47 92 48 40 49 97 50 91 51 93 52 41 53 96 54
REMARK SMILES IDX 90 55 89 56 42 58 76 59 55 60 75 61 56 62 59 63 74 64 94 65
REMARK SMILES IDX 57 66 58 67 73 69 95 70 60 71 43 72 44 73 53 74 45 75 46 76
REMARK SMILES IDX 52 77 54 78 47 79 48 80 49 81 50 82 51 83 77 84 78 85 87 86
REMARK SMILES IDX 79 87 80 88 86 89 88 90 81 91 82 92 83 93 84 94 85 95 61 96
REMARK SMILES IDX 62 97 71 98 63 99 64 100 70 101 72 102 65 103 66 104 67 105
REMARK SMILES IDX 68 106 69 107
REMARK H PARENT 1 29 1 30 18 32 93 57 59 68
REMARK Flexibility Score: inf
ROOT
ATOM      1  C   UNL     1       8.870   2.940   3.756  1.00  0.00     0.188 C 
ENDROOT
BRANCH   1   2
ATOM      2  O   UNL     1       9.374   3.303   2.482  1.00  0.00    -0.376 OA
BRANCH   2   3
ATOM      3  C   UNL     1       8.559   3.945   1.517  1.00  0.00     0.202 C 
BRANCH   3   4
ATOM      4  C   UNL     1       7.073   3.599   1.276  1.00  0.00     0.261 C 
BRANCH   4   5
ATOM      5  O   UNL     1       6.276   3.269   2.421  1.00  0.00    -0.460 OA
BRANCH   5   6
ATOM      6  C   UNL     1       6.028   1.955   2.615  1.00  0.00     0.342 C 
ATOM      7  O   UNL     1       6.356   1.030   1.887  1.00  0.00    -0.246 OA
BRANCH   6   8
ATOM      8  C   UNL     1       5.503   1.720   3.979  1.00  0.00     0.102 A 
ATOM      9  C   UNL     1       4.075   2.332   5.856  1.00  0.00     0.019 A 
ATOM     10  C   UNL     1       4.614   1.273   6.596  1.00  0.00     0.016 A 
ATOM     11  C   UNL     1       4.574   2.587   4.564  1.00  0.00     0.031 A 
ATOM     12  C   UNL     1       5.575   0.432   6.031  1.00  0.00     0.048 A 
ATOM     13  C   UNL     1       5.992   0.636   4.718  1.00  0.00     0.130 A 
BRANCH   9  14
ATOM     14  C   UNL     1       2.974   3.127   6.418  1.00  0.00     0.144 A 
ATOM     15  N   UNL     1       1.846   3.533   5.707  1.00  0.00    -0.300 N 
ATOM     16  C   UNL     1       1.192   4.455   6.491  1.00  0.00     0.113 A 
ATOM     17  C   UNL     1       1.841   4.429   7.701  1.00  0.00     0.132 A 
ATOM     18  N   UNL     1       2.924   3.594   7.655  1.00  0.00    -0.236 NA
BRANCH  15  19
ATOM     19  C   UNL     1       1.431   3.093   4.426  1.00  0.00     0.047 A 
ATOM     20  C   UNL     1       0.842   2.242   1.847  1.00  0.00     0.082 A 
ATOM     21  C   UNL     1       1.214   1.302   2.809  1.00  0.00     0.024 A 
ATOM     22  C   UNL     1       0.744   3.602   2.172  1.00  0.00     0.024 A 
ATOM     23  C   UNL     1       1.514   1.730   4.101  1.00  0.00     0.028 A 
ATOM     24  C   UNL     1       1.014   4.029   3.474  1.00  0.00     0.028 A 
BRANCH  20  25
ATOM     25  S   UNL     1       0.541   1.755   0.174  1.00  0.00     0.238 S 
ATOM     26  O   UNL     1       1.269   2.640  -0.700  1.00  0.00    -0.207 OA
ATOM     27  O   UNL     1      -0.876   1.500   0.029  1.00  0.00    -0.207 OA
BRANCH  25  28
ATOM     28  N   UNL     1       1.297   0.262   0.028  1.00  0.00    -0.225 NA
ATOM     29  H   UNL     1       1.169  -0.092  -0.919  1.00  0.00     0.137 HD
ATOM     30  H   UNL     1       0.887  -0.392   0.695  1.00  0.00     0.137 HD
ENDBRANCH  25  28
ENDBRANCH  20  25
ENDBRANCH  15  19
ENDBRANCH   9  14
BRANCH  13  31
ATOM     31  O   UNL     1       6.922  -0.243   4.232  1.00  0.00    -0.507 OA
ATOM     32  H   UNL     1       7.219  -0.954   4.766  1.00  0.00     0.293 HD
ENDBRANCH  13  31
ENDBRANCH   6   8
ENDBRANCH   5   6
ENDBRANCH   4   5
ENDBRANCH   3   4
ENDBRANCH   2   3
ENDBRANCH   1   2
BRANCH   1  33
ATOM     33  C   UNL     1       8.088   3.951   4.621  1.00  0.00     0.188 C 
BRANCH  33  34
ATOM     34  O   UNL     1       7.605   5.090   3.945  1.00  0.00    -0.376 OA
BRANCH  34  35
ATOM     35  C   UNL     1       8.333   6.307   3.923  1.00  0.00     0.202 C 
BRANCH  35  36
ATOM     36  C   UNL     1       9.841   6.436   4.134  1.00  0.00     0.261 C 
BRANCH  36  37
ATOM     37  O   UNL     1      10.536   5.270   4.517  1.00  0.00    -0.460 OA
BRANCH  37  38
ATOM     38  C   UNL     1      10.626   5.112   5.854  1.00  0.00     0.338 C 
ATOM     39  O   UNL     1       9.946   5.662   6.704  1.00  0.00    -0.246 OA
BRANCH  38  40
ATOM     40  C   UNL     1      11.769   4.251   6.147  1.00  0.00     0.060 A 
ATOM     41  C   UNL     1      11.887   3.814   7.466  1.00  0.00     0.016 A 
ATOM     42  C   UNL     1      12.847   4.263   5.251  1.00  0.00     0.016 A 
ATOM     43  C   UNL     1      13.155   3.652   7.968  1.00  0.00     0.010 A 
ATOM     44  C   UNL     1      14.111   4.125   5.762  1.00  0.00     0.010 A 
ATOM     45  C   UNL     1      14.245   3.922   7.133  1.00  0.00    -0.014 A 
BRANCH  45  46
ATOM     46  C   UNL     1      15.570   3.840   7.701  1.00  0.00     0.031 A 
ATOM     47  C   UNL     1      15.944   2.435   7.961  1.00  0.00     0.074 A 
ATOM     48  C   UNL     1      16.362   4.917   7.865  1.00  0.00     0.049 A 
ATOM     49  N   UNL     1      16.023   1.858   9.112  1.00  0.00    -0.248 NA
ATOM     50  C   UNL     1      15.969   1.502   6.821  1.00  0.00     0.031 C 
ATOM     51  C   UNL     1      16.124   6.293   7.423  1.00  0.00     0.029 A 
ATOM     52  N   UNL     1      17.614   4.985   8.392  1.00  0.00    -0.354 N 
ATOM     53  C   UNL     1      16.407   0.554   8.832  1.00  0.00     0.074 A 
ATOM     54  C   UNL     1      16.096   0.332   7.447  1.00  0.00     0.031 C 
ATOM     55  C   UNL     1      17.283   6.989   7.486  1.00  0.00     0.029 A 
ATOM     56  C   UNL     1      18.311   6.151   8.079  1.00  0.00     0.049 A 
ATOM     57  H   UNL     1      17.997   4.269   8.948  1.00  0.00     0.167 HD
ATOM     58  C   UNL     1      17.261  -0.095   9.667  1.00  0.00     0.037 A 
ATOM     59  C   UNL     1      19.649   6.350   8.233  1.00  0.00     0.037 A 
ATOM     60  C   UNL     1      17.278   0.532  10.969  1.00  0.00     0.049 A 
ATOM     61  C   UNL     1      20.125   5.343   9.224  1.00  0.00     0.074 A 
ATOM     62  C   UNL     1      16.308   0.836  11.908  1.00  0.00     0.029 A 
ATOM     63  N   UNL     1      18.364   1.314  11.284  1.00  0.00    -0.354 N 
ATOM     64  N   UNL     1      19.790   5.368  10.486  1.00  0.00    -0.248 NA
ATOM     65  C   UNL     1      20.537   4.041   8.718  1.00  0.00     0.031 C 
ATOM     66  C   UNL     1      16.683   2.107  12.431  1.00  0.00     0.029 A 
ATOM     67  C   UNL     1      17.901   2.470  11.857  1.00  0.00     0.049 A 
ATOM     68  H   UNL     1      19.308   1.084  11.126  1.00  0.00     0.167 HD
ATOM     69  C   UNL     1      19.507   4.047  10.803  1.00  0.00     0.074 A 
ATOM     70  C   UNL     1      20.055   3.265   9.694  1.00  0.00     0.031 C 
ATOM     71  C   UNL     1      18.595   3.735  11.771  1.00  0.00     0.037 A 
BRANCH  58  72
ATOM     72  C   UNL     1      18.387  -0.977   9.175  1.00  0.00     0.058 A 
ATOM     73  C   UNL     1      19.168  -1.662  10.127  1.00  0.00     0.135 A 
ATOM     74  C   UNL     1      18.915  -0.952   7.863  1.00  0.00     0.135 A 
ATOM     75  F   UNL     1      18.766  -1.750  11.405  1.00  0.00    -0.206 F 
ATOM     76  C   UNL     1      20.418  -2.197   9.820  1.00  0.00     0.059 A 
ATOM     77  C   UNL     1      20.132  -1.526   7.524  1.00  0.00     0.059 A 
ATOM     78  F   UNL     1      18.337  -0.292   6.854  1.00  0.00    -0.206 F 
ATOM     79  C   UNL     1      20.896  -2.110   8.516  1.00  0.00     0.060 A 
BRANCH  79  80
ATOM     80  S   UNL     1      22.541  -2.724   8.131  1.00  0.00     0.124 S 
ATOM     81  O   UNL     1      23.381  -1.772   8.849  1.00  0.00    -0.237 OA
ATOM     82  O   UNL     1      22.489  -4.075   8.678  1.00  0.00    -0.237 OA
ATOM     83  O   UNL     1      22.596  -2.644   6.675  1.00  0.00    -0.744 OA
ENDBRANCH  79  80
ENDBRANCH  58  72
BRANCH  59  84
ATOM     84  C   UNL     1      20.588   7.092   7.341  1.00  0.00     0.058 A 
ATOM     85  C   UNL     1      21.923   7.338   7.721  1.00  0.00     0.135 A 
ATOM     86  C   UNL     1      20.288   7.321   5.984  1.00  0.00     0.135 A 
ATOM     87  F   UNL     1      22.312   7.134   8.989  1.00  0.00    -0.206 F 
ATOM     88  C   UNL     1      22.907   7.730   6.803  1.00  0.00     0.059 A 
ATOM     89  C   UNL     1      21.248   7.720   5.053  1.00  0.00     0.059 A 
ATOM     90  F   UNL     1      19.066   7.072   5.491  1.00  0.00    -0.206 F 
ATOM     91  C   UNL     1      22.563   7.895   5.462  1.00  0.00     0.060 A 
BRANCH  91  92
ATOM     92  S   UNL     1      23.854   8.210   4.233  1.00  0.00     0.124 S 
ATOM     93  O   UNL     1      24.251   9.577   4.552  1.00  0.00    -0.237 OA
ATOM     94  O   UNL     1      24.834   7.173   4.538  1.00  0.00    -0.237 OA
ATOM     95  O   UNL     1      23.157   8.046   2.959  1.00  0.00    -0.744 OA
ENDBRANCH  91  92
ENDBRANCH  59  84
BRANCH  71  96
ATOM     96  C   UNL     1      18.140   4.829  12.703  1.00  0.00     0.058 A 
ATOM     97  C   UNL     1      17.480   6.007  12.309  1.00  0.00     0.135 A 
ATOM     98  C   UNL     1      18.286   4.609  14.081  1.00  0.00     0.135 A 
ATOM     99  F   UNL     1      17.190   6.240  11.020  1.00  0.00    -0.206 F 
ATOM    100  C   UNL     1      17.050   6.955  13.242  1.00  0.00     0.059 A 
ATOM    101  C   UNL     1      17.833   5.521  15.028  1.00  0.00     0.059 A 
ATOM    102  F   UNL     1      18.845   3.472  14.526  1.00  0.00    -0.206 F 
ATOM    103  C   UNL     1      17.241   6.706  14.601  1.00  0.00     0.060 A 
BRANCH 103 104
ATOM    104  S   UNL     1      16.684   7.922  15.813  1.00  0.00     0.124 S 
ATOM    105  O   UNL     1      17.627   9.015  15.605  1.00  0.00    -0.237 OA
ATOM    106  O   UNL     1      15.309   8.181  15.396  1.00  0.00    -0.237 OA
ATOM    107  O   UNL     1      16.817   7.219  17.088  1.00  0.00    -0.744 OA
ENDBRANCH 103 104
ENDBRANCH  71  96
ENDBRANCH  45  46
ENDBRANCH  38  40
ENDBRANCH  37  38
ENDBRANCH  36  37
ENDBRANCH  35  36
ENDBRANCH  34  35
ENDBRANCH  33  34
ENDBRANCH   1  33
TORSDOF 25
