REMARK SMILES NC(=O)c1ccsc1NS(=O)(=O)c1ccc(C(=O)OCCOCCOCCOC(=O)c2ccc(-c3c4nc(c(-c5c(F)cc(S(=O)(=O)[O-])cc5F)c5ccc([nH]5)c(-c5c(F)cc(S(=O)(=O)[O-])cc5F)c5nc(c(-c6c(F)cc(S(=O)(=O)[O-])cc6F)c6ccc3[nH]6)C=C5)C=C4)cc2)cc1
REMARK SMILES IDX 23 1 22 2 21 3 20 4 19 5 17 6 18 7 16 8 13 9 14 10 98 11
REMARK SMILES IDX 15 12 97 13 10 14 11 15 12 16 9 17 8 19 4 20 5 21 6 22 7 23
REMARK SMILES IDX 2 24 1 25 3 28 24 29 25 30 26 31 27 32 28 33 29 34 30 35
REMARK SMILES IDX 31 36 32 37 96 38 33 39 95 40 34 41 35 42 36 43 89 44 37 45
REMARK SMILES IDX 94 46 88 47 90 48 38 49 93 50 87 51 86 52 39 54 73 55 52 56
REMARK SMILES IDX 72 57 53 58 56 59 71 60 91 61 54 62 55 63 70 65 92 66 57 67
REMARK SMILES IDX 40 68 41 69 50 70 42 71 43 72 49 73 51 74 44 75 45 76 46 77
REMARK SMILES IDX 47 78 48 79 74 80 75 81 84 82 76 83 77 84 83 85 85 86 78 87
REMARK SMILES IDX 79 88 80 89 81 90 82 91 58 92 59 93 68 94 60 95 61 96 67 97
REMARK SMILES IDX 69 98 62 99 63 100 64 101 65 102 66 103
REMARK H PARENT 9 18 1 26 1 27 90 53 56 64
REMARK Flexibility Score: inf
ROOT
ATOM      1  C   UNL     1       2.908  -3.431  11.096  1.00  0.00     0.188 C 
ENDROOT
BRANCH   1   2
ATOM      2  O   UNL     1       3.990  -3.034  11.912  1.00  0.00    -0.376 OA
BRANCH   2   3
ATOM      3  C   UNL     1       4.813  -1.937  11.552  1.00  0.00     0.202 C 
BRANCH   3   4
ATOM      4  C   UNL     1       5.023  -1.448  10.111  1.00  0.00     0.261 C 
BRANCH   4   5
ATOM      5  O   UNL     1       3.869  -1.496   9.266  1.00  0.00    -0.460 OA
BRANCH   5   6
ATOM      6  C   UNL     1       3.995  -2.316   8.196  1.00  0.00     0.338 C 
ATOM      7  O   UNL     1       5.005  -2.902   7.841  1.00  0.00    -0.246 OA
BRANCH   6   8
ATOM      8  C   UNL     1       2.683  -2.557   7.557  1.00  0.00     0.060 A 
ATOM      9  C   UNL     1       0.455  -3.061   5.992  1.00  0.00     0.087 A 
ATOM     10  C   UNL     1       1.320  -4.114   6.313  1.00  0.00     0.023 A 
ATOM     11  C   UNL     1       0.594  -1.802   6.591  1.00  0.00     0.023 A 
ATOM     12  C   UNL     1       2.442  -3.856   7.090  1.00  0.00     0.017 A 
ATOM     13  C   UNL     1       1.730  -1.544   7.369  1.00  0.00     0.017 A 
BRANCH   9  14
ATOM     14  S   UNL     1      -0.672  -3.301   4.641  1.00  0.00     0.262 S 
ATOM     15  O   UNL     1      -1.973  -2.876   5.125  1.00  0.00    -0.201 OA
ATOM     16  O   UNL     1      -0.479  -4.637   4.127  1.00  0.00    -0.201 OA
BRANCH  14  17
ATOM     17  N   UNL     1      -0.273  -2.242   3.407  1.00  0.00    -0.270 N 
ATOM     18  H   UNL     1      -0.966  -2.091   2.724  1.00  0.00     0.181 HD
BRANCH  17  19
ATOM     19  C   UNL     1       0.953  -1.530   3.226  1.00  0.00     0.115 A 
ATOM     20  C   UNL     1       1.053  -0.491   2.309  1.00  0.00     0.074 A 
ATOM     21  C   UNL     1       2.234   0.298   2.555  1.00  0.00     0.028 A 
ATOM     22  C   UNL     1       3.055  -0.279   3.494  1.00  0.00     0.068 A 
ATOM     23  S   UNL     1       2.485  -1.832   3.908  1.00  0.00    -0.125 S 
BRANCH  20  24
ATOM     24  C   UNL     1       0.069  -0.232   1.275  1.00  0.00     0.251 C 
ATOM     25  N   UNL     1       0.598   0.165   0.084  1.00  0.00    -0.366 N 
ATOM     26  H   UNL     1       0.005   0.362  -0.677  1.00  0.00     0.159 HD
ATOM     27  H   UNL     1       1.573   0.254  -0.017  1.00  0.00     0.159 HD
ATOM     28  O   UNL     1      -1.139  -0.426   1.418  1.00  0.00    -0.269 OA
ENDBRANCH  20  24
ENDBRANCH  17  19
ENDBRANCH  14  17
ENDBRANCH   9  14
ENDBRANCH   6   8
ENDBRANCH   5   6
ENDBRANCH   4   5
ENDBRANCH   3   4
ENDBRANCH   2   3
ENDBRANCH   1   2
BRANCH   1  29
ATOM     29  C   UNL     1       1.691  -2.496  10.947  1.00  0.00     0.188 C 
BRANCH  29  30
ATOM     30  O   UNL     1       1.756  -1.174  11.431  1.00  0.00    -0.376 OA
BRANCH  30  31
ATOM     31  C   UNL     1       1.816  -0.934  12.827  1.00  0.00     0.202 C 
BRANCH  31  32
ATOM     32  C   UNL     1       1.300  -1.892  13.918  1.00  0.00     0.261 C 
BRANCH  32  33
ATOM     33  O   UNL     1       1.278  -3.291  13.623  1.00  0.00    -0.460 OA
BRANCH  33  34
ATOM     34  C   UNL     1       0.044  -3.813  13.402  1.00  0.00     0.338 C 
ATOM     35  O   UNL     1      -1.019  -3.215  13.404  1.00  0.00    -0.246 OA
BRANCH  34  36
ATOM     36  C   UNL     1       0.188  -5.213  12.965  1.00  0.00     0.060 A 
ATOM     37  C   UNL     1      -0.179  -5.555  11.655  1.00  0.00     0.016 A 
ATOM     38  C   UNL     1       0.634  -6.187  13.857  1.00  0.00     0.016 A 
ATOM     39  C   UNL     1      -0.119  -6.884  11.238  1.00  0.00     0.010 A 
ATOM     40  C   UNL     1       0.668  -7.521  13.445  1.00  0.00     0.010 A 
ATOM     41  C   UNL     1       0.264  -7.879  12.145  1.00  0.00    -0.014 A 
BRANCH  41  42
ATOM     42  C   UNL     1       0.061  -9.309  11.810  1.00  0.00     0.031 A 
ATOM     43  C   UNL     1      -1.175  -9.993  12.329  1.00  0.00     0.074 A 
ATOM     44  C   UNL     1       0.954  -9.989  11.069  1.00  0.00     0.049 A 
ATOM     45  N   UNL     1      -1.517 -11.252  12.263  1.00  0.00    -0.248 NA
ATOM     46  C   UNL     1      -2.151  -9.137  13.024  1.00  0.00     0.031 C 
ATOM     47  C   UNL     1       2.162  -9.425  10.471  1.00  0.00     0.029 A 
ATOM     48  N   UNL     1       0.987 -11.314  10.711  1.00  0.00    -0.354 N 
ATOM     49  C   UNL     1      -2.740 -11.344  12.918  1.00  0.00     0.074 A 
ATOM     50  C   UNL     1      -3.066 -10.019  13.397  1.00  0.00     0.031 C 
ATOM     51  C   UNL     1       2.831 -10.404   9.837  1.00  0.00     0.029 A 
ATOM     52  C   UNL     1       2.119 -11.669  10.018  1.00  0.00     0.049 A 
ATOM     53  H   UNL     1       0.267 -11.949  10.930  1.00  0.00     0.167 HD
ATOM     54  C   UNL     1      -3.521 -12.435  13.100  1.00  0.00     0.037 A 
ATOM     55  C   UNL     1       2.544 -12.881   9.606  1.00  0.00     0.037 A 
ATOM     56  C   UNL     1      -3.188 -13.751  12.621  1.00  0.00     0.049 A 
ATOM     57  C   UNL     1       1.693 -14.095   9.884  1.00  0.00     0.074 A 
ATOM     58  C   UNL     1      -3.918 -14.920  12.741  1.00  0.00     0.029 A 
ATOM     59  N   UNL     1      -2.024 -14.075  11.939  1.00  0.00    -0.354 N 
ATOM     60  N   UNL     1       0.533 -14.171  10.493  1.00  0.00    -0.248 NA
ATOM     61  C   UNL     1       2.210 -15.391   9.420  1.00  0.00     0.031 C 
ATOM     62  C   UNL     1      -3.171 -15.961  12.181  1.00  0.00     0.029 A 
ATOM     63  C   UNL     1      -2.003 -15.431  11.655  1.00  0.00     0.049 A 
ATOM     64  H   UNL     1      -1.317 -13.436  11.693  1.00  0.00     0.167 HD
ATOM     65  C   UNL     1       0.167 -15.514  10.455  1.00  0.00     0.074 A 
ATOM     66  C   UNL     1       1.225 -16.213   9.757  1.00  0.00     0.031 C 
ATOM     67  C   UNL     1      -0.946 -16.113  10.950  1.00  0.00     0.037 A 
BRANCH  54  68
ATOM     68  C   UNL     1      -4.796 -12.256  13.877  1.00  0.00     0.058 A 
ATOM     69  C   UNL     1      -5.893 -11.553  13.354  1.00  0.00     0.135 A 
ATOM     70  C   UNL     1      -4.933 -12.822  15.156  1.00  0.00     0.135 A 
ATOM     71  F   UNL     1      -5.811 -10.974  12.145  1.00  0.00    -0.206 F 
ATOM     72  C   UNL     1      -7.069 -11.393  14.080  1.00  0.00     0.059 A 
ATOM     73  C   UNL     1      -6.110 -12.700  15.888  1.00  0.00     0.059 A 
ATOM     74  F   UNL     1      -3.914 -13.501  15.707  1.00  0.00    -0.206 F 
ATOM     75  C   UNL     1      -7.168 -11.972  15.347  1.00  0.00     0.060 A 
BRANCH  75  76
ATOM     76  S   UNL     1      -8.702 -11.762  16.273  1.00  0.00     0.124 S 
ATOM     77  O   UNL     1      -8.631 -10.351  16.640  1.00  0.00    -0.237 OA
ATOM     78  O   UNL     1      -9.715 -12.108  15.282  1.00  0.00    -0.237 OA
ATOM     79  O   UNL     1      -8.565 -12.704  17.380  1.00  0.00    -0.744 OA
ENDBRANCH  75  76
ENDBRANCH  54  68
BRANCH  55  80
ATOM     80  C   UNL     1       3.849 -13.014   8.902  1.00  0.00     0.058 A 
ATOM     81  C   UNL     1       3.909 -13.377   7.548  1.00  0.00     0.135 A 
ATOM     82  C   UNL     1       5.063 -12.791   9.571  1.00  0.00     0.135 A 
ATOM     83  F   UNL     1       2.778 -13.616   6.867  1.00  0.00    -0.206 F 
ATOM     84  C   UNL     1       5.124 -13.528   6.886  1.00  0.00     0.059 A 
ATOM     85  C   UNL     1       6.289 -12.909   8.924  1.00  0.00     0.059 A 
ATOM     86  F   UNL     1       5.063 -12.437  10.866  1.00  0.00    -0.206 F 
ATOM     87  C   UNL     1       6.310 -13.288   7.583  1.00  0.00     0.060 A 
BRANCH  87  88
ATOM     88  S   UNL     1       7.879 -13.443   6.701  1.00  0.00     0.124 S 
ATOM     89  O   UNL     1       7.980 -14.888   6.532  1.00  0.00    -0.237 OA
ATOM     90  O   UNL     1       7.624 -12.674   5.487  1.00  0.00    -0.237 OA
ATOM     91  O   UNL     1       8.842 -12.847   7.622  1.00  0.00    -0.744 OA
ENDBRANCH  87  88
ENDBRANCH  55  80
BRANCH  67  92
ATOM     92  C   UNL     1      -1.105 -17.593  10.718  1.00  0.00     0.058 A 
ATOM     93  C   UNL     1      -0.322 -18.540  11.396  1.00  0.00     0.135 A 
ATOM     94  C   UNL     1      -2.101 -18.070   9.849  1.00  0.00     0.135 A 
ATOM     95  F   UNL     1       0.647 -18.140  12.235  1.00  0.00    -0.206 F 
ATOM     96  C   UNL     1      -0.504 -19.906  11.203  1.00  0.00     0.059 A 
ATOM     97  C   UNL     1      -2.321 -19.432   9.664  1.00  0.00     0.059 A 
ATOM     98  F   UNL     1      -2.889 -17.209   9.184  1.00  0.00    -0.206 F 
ATOM     99  C   UNL     1      -1.509 -20.343  10.337  1.00  0.00     0.060 A 
BRANCH  99 100
ATOM    100  S   UNL     1      -1.757 -22.119  10.123  1.00  0.00     0.124 S 
ATOM    101  O   UNL     1      -0.591 -22.485   9.326  1.00  0.00    -0.237 OA
ATOM    102  O   UNL     1      -1.760 -22.601  11.501  1.00  0.00    -0.237 OA
ATOM    103  O   UNL     1      -3.040 -22.203   9.433  1.00  0.00    -0.744 OA
ENDBRANCH  99 100
ENDBRANCH  67  92
ENDBRANCH  41  42
ENDBRANCH  34  36
ENDBRANCH  33  34
ENDBRANCH  32  33
ENDBRANCH  31  32
ENDBRANCH  30  31
ENDBRANCH  29  30
ENDBRANCH   1  29
TORSDOF 24
