REMARK SMILES O=C(OCCOCCOCCOC(=O)[C@H]1[C@H]2CC[C@H](CC2)[C@H]1C(=O)Nc1ccc(C(=O)N2CCCC2)cc1)c1ccc(-c2c3nc(c(-c4c(F)cc(S(=O)(=O)[O-])cc4F)c4ccc([nH]4)c(-c4c(F)cc(S(=O)(=O)[O-])cc4F)c4nc(c(-c5c(F)cc(S(=O)(=O)[O-])cc5F)c5ccc2[nH]5)C=C4)C=C3)cc1
REMARK SMILES IDX 7 1 6 2 5 3 4 4 3 5 2 6 1 7 39 8 40 9 104 10 41 11 103 12
REMARK SMILES IDX 42 13 43 14 44 15 97 16 45 17 102 18 96 19 98 20 46 21
REMARK SMILES IDX 101 22 95 23 94 24 47 26 81 27 60 28 80 29 61 30 64 31 79 32
REMARK SMILES IDX 99 33 62 34 63 35 78 37 100 38 65 39 48 40 49 41 58 42 50 43
REMARK SMILES IDX 51 44 57 45 59 46 52 47 53 48 54 49 55 50 56 51 82 52 83 53
REMARK SMILES IDX 92 54 84 55 85 56 91 57 93 58 86 59 87 60 88 61 89 62 90 63
REMARK SMILES IDX 66 64 67 65 76 66 68 67 69 68 75 69 77 70 70 71 71 72 72 73
REMARK SMILES IDX 73 74 74 75 8 76 9 77 10 78 11 79 12 80 13 81 14 82 15 83
REMARK SMILES IDX 16 84 22 85 21 86 17 87 19 88 20 89 18 90 23 91 24 92 25 93
REMARK SMILES IDX 26 95 27 96 38 97 28 98 37 99 29 100 30 101 31 102 32 103
REMARK SMILES IDX 33 104 36 105 34 106 35 107
REMARK H PARENT 98 25 64 36 25 94
REMARK Flexibility Score: inf
ROOT
ATOM      1  C   UNL     1       2.363  -0.420  -1.849  1.00  0.00     0.188 C 
ENDROOT
BRANCH   1   2
ATOM      2  O   UNL     1       3.741  -0.416  -1.490  1.00  0.00    -0.376 OA
BRANCH   2   3
ATOM      3  C   UNL     1       4.172  -1.500  -0.675  1.00  0.00     0.202 C 
BRANCH   3   4
ATOM      4  C   UNL     1       3.859  -1.346   0.829  1.00  0.00     0.261 C 
BRANCH   4   5
ATOM      5  O   UNL     1       2.482  -0.994   1.111  1.00  0.00    -0.460 OA
BRANCH   5   6
ATOM      6  C   UNL     1       1.979   0.171   1.612  1.00  0.00     0.338 C 
ATOM      7  O   UNL     1       0.942   0.126   2.271  1.00  0.00    -0.246 OA
BRANCH   6   8
ATOM      8  C   UNL     1       2.559   1.526   1.314  1.00  0.00     0.060 A 
ATOM      9  C   UNL     1       3.587   1.735   0.422  1.00  0.00     0.016 A 
ATOM     10  C   UNL     1       2.027   2.689   1.900  1.00  0.00     0.016 A 
ATOM     11  C   UNL     1       4.094   2.994   0.157  1.00  0.00     0.010 A 
ATOM     12  C   UNL     1       2.720   3.929   1.814  1.00  0.00     0.010 A 
ATOM     13  C   UNL     1       3.938   3.988   1.106  1.00  0.00    -0.014 A 
BRANCH  13  14
ATOM     14  C   UNL     1       5.285   4.980   1.377  1.00  0.00     0.031 A 
ATOM     15  C   UNL     1       6.896   4.821   2.820  1.00  0.00     0.074 A 
ATOM     16  C   UNL     1       5.025   5.890   0.250  1.00  0.00     0.049 A 
ATOM     17  N   UNL     1       7.672   5.807   3.419  1.00  0.00    -0.248 NA
ATOM     18  C   UNL     1       7.495   3.585   3.797  1.00  0.00     0.031 C 
ATOM     19  C   UNL     1       3.732   6.373  -0.307  1.00  0.00     0.029 A 
ATOM     20  N   UNL     1       5.895   6.781  -0.410  1.00  0.00    -0.354 N 
ATOM     21  C   UNL     1       8.189   5.559   4.651  1.00  0.00     0.074 A 
ATOM     22  C   UNL     1       8.061   4.159   4.854  1.00  0.00     0.031 C 
ATOM     23  C   UNL     1       3.934   7.479  -1.075  1.00  0.00     0.029 A 
ATOM     24  C   UNL     1       5.336   7.853  -1.016  1.00  0.00     0.049 A 
ATOM     25  H   UNL     1       6.868   6.631  -0.428  1.00  0.00     0.167 HD
ATOM     26  C   UNL     1       8.552   6.543   5.518  1.00  0.00     0.037 A 
ATOM     27  C   UNL     1       5.942   9.023  -1.309  1.00  0.00     0.037 A 
ATOM     28  C   UNL     1       8.774   7.933   5.124  1.00  0.00     0.049 A 
ATOM     29  C   UNL     1       7.048   9.614  -0.387  1.00  0.00     0.074 A 
ATOM     30  C   UNL     1       9.375   8.963   5.825  1.00  0.00     0.029 A 
ATOM     31  N   UNL     1       8.430   8.491   3.896  1.00  0.00    -0.354 N 
ATOM     32  N   UNL     1       7.375   9.335   0.866  1.00  0.00    -0.248 NA
ATOM     33  C   UNL     1       7.760  10.788  -0.910  1.00  0.00     0.031 C 
ATOM     34  C   UNL     1       9.437  10.095   4.983  1.00  0.00     0.029 A 
ATOM     35  C   UNL     1       8.901   9.775   3.737  1.00  0.00     0.049 A 
ATOM     36  H   UNL     1       7.905   8.016   3.212  1.00  0.00     0.167 HD
ATOM     37  C   UNL     1       8.298  10.307   1.292  1.00  0.00     0.074 A 
ATOM     38  C   UNL     1       8.501  11.160   0.127  1.00  0.00     0.031 C 
ATOM     39  C   UNL     1       8.909  10.555   2.498  1.00  0.00     0.037 A 
BRANCH  26  40
ATOM     40  C   UNL     1       8.589   6.166   6.970  1.00  0.00     0.058 A 
ATOM     41  C   UNL     1       9.472   5.212   7.489  1.00  0.00     0.135 A 
ATOM     42  C   UNL     1       7.630   6.711   7.847  1.00  0.00     0.135 A 
ATOM     43  F   UNL     1      10.409   4.659   6.703  1.00  0.00    -0.206 F 
ATOM     44  C   UNL     1       9.348   4.740   8.792  1.00  0.00     0.059 A 
ATOM     45  C   UNL     1       7.513   6.283   9.166  1.00  0.00     0.059 A 
ATOM     46  F   UNL     1       6.757   7.635   7.412  1.00  0.00    -0.206 F 
ATOM     47  C   UNL     1       8.349   5.263   9.614  1.00  0.00     0.060 A 
BRANCH  47  48
ATOM     48  S   UNL     1       8.116   4.572  11.265  1.00  0.00     0.124 S 
ATOM     49  O   UNL     1       7.217   3.457  10.985  1.00  0.00    -0.237 OA
ATOM     50  O   UNL     1       9.474   4.203  11.655  1.00  0.00    -0.237 OA
ATOM     51  O   UNL     1       7.534   5.682  12.012  1.00  0.00    -0.744 OA
ENDBRANCH  47  48
ENDBRANCH  26  40
BRANCH  27  52
ATOM     52  C   UNL     1       5.792   9.476  -2.724  1.00  0.00     0.058 A 
ATOM     53  C   UNL     1       6.872   9.292  -3.615  1.00  0.00     0.135 A 
ATOM     54  C   UNL     1       4.609   9.995  -3.256  1.00  0.00     0.135 A 
ATOM     55  F   UNL     1       8.031   8.779  -3.172  1.00  0.00    -0.206 F 
ATOM     56  C   UNL     1       6.791   9.627  -4.963  1.00  0.00     0.059 A 
ATOM     57  C   UNL     1       4.491  10.305  -4.612  1.00  0.00     0.059 A 
ATOM     58  F   UNL     1       3.542  10.189  -2.468  1.00  0.00    -0.206 F 
ATOM     59  C   UNL     1       5.589  10.125  -5.455  1.00  0.00     0.060 A 
BRANCH  59  60
ATOM     60  S   UNL     1       5.444  10.454  -7.227  1.00  0.00     0.124 S 
ATOM     61  O   UNL     1       6.052  11.774  -7.332  1.00  0.00    -0.237 OA
ATOM     62  O   UNL     1       6.203   9.352  -7.812  1.00  0.00    -0.237 OA
ATOM     63  O   UNL     1       4.003  10.398  -7.452  1.00  0.00    -0.744 OA
ENDBRANCH  59  60
ENDBRANCH  27  52
BRANCH  39  64
ATOM     64  C   UNL     1       9.710  11.843   2.582  1.00  0.00     0.058 A 
ATOM     65  C   UNL     1       9.069  13.090   2.688  1.00  0.00     0.135 A 
ATOM     66  C   UNL     1      11.112  11.823   2.667  1.00  0.00     0.135 A 
ATOM     67  F   UNL     1       7.731  13.169   2.617  1.00  0.00    -0.206 F 
ATOM     68  C   UNL     1       9.788  14.269   2.863  1.00  0.00     0.059 A 
ATOM     69  C   UNL     1      11.850  12.989   2.865  1.00  0.00     0.059 A 
ATOM     70  F   UNL     1      11.777  10.660   2.589  1.00  0.00    -0.206 F 
ATOM     71  C   UNL     1      11.180  14.208   2.957  1.00  0.00     0.060 A 
BRANCH  71  72
ATOM     72  S   UNL     1      12.097  15.737   3.254  1.00  0.00     0.124 S 
ATOM     73  O   UNL     1      12.053  16.369   1.940  1.00  0.00    -0.237 OA
ATOM     74  O   UNL     1      11.302  16.385   4.294  1.00  0.00    -0.237 OA
ATOM     75  O   UNL     1      13.411  15.268   3.683  1.00  0.00    -0.744 OA
ENDBRANCH  71  72
ENDBRANCH  39  64
ENDBRANCH  13  14
ENDBRANCH   6   8
ENDBRANCH   5   6
ENDBRANCH   4   5
ENDBRANCH   3   4
ENDBRANCH   2   3
ENDBRANCH   1   2
BRANCH   1  76
ATOM     76  C   UNL     1       2.062  -1.319  -3.041  1.00  0.00     0.188 C 
BRANCH  76  77
ATOM     77  O   UNL     1       3.232  -1.941  -3.562  1.00  0.00    -0.376 OA
BRANCH  77  78
ATOM     78  C   UNL     1       3.740  -1.323  -4.742  1.00  0.00     0.202 C 
BRANCH  78  79
ATOM     79  C   UNL     1       4.526  -0.018  -4.531  1.00  0.00     0.261 C 
BRANCH  79  80
ATOM     80  O   UNL     1       3.821   1.129  -4.006  1.00  0.00    -0.463 OA
BRANCH  80  81
ATOM     81  C   UNL     1       2.845   1.610  -4.791  1.00  0.00     0.310 C 
ATOM     82  O   UNL     1       2.334   0.984  -5.715  1.00  0.00    -0.252 OA
BRANCH  81  83
ATOM     83  C   UNL     1       2.478   3.048  -4.544  1.00  0.00     0.115 C 
ATOM     84  C   UNL     1       2.466   3.784  -3.181  1.00  0.00     0.004 C 
ATOM     85  C   UNL     1       3.175   3.950  -5.571  1.00  0.00     0.096 C 
ATOM     86  C   UNL     1       3.718   4.657  -3.065  1.00  0.00     0.005 C 
ATOM     87  C   UNL     1       1.308   4.797  -3.222  1.00  0.00     0.005 C 
ATOM     88  C   UNL     1       2.841   5.428  -5.190  1.00  0.00     0.002 C 
ATOM     89  C   UNL     1       3.773   5.819  -4.066  1.00  0.00     0.005 C 
ATOM     90  C   UNL     1       1.396   5.559  -4.572  1.00  0.00     0.005 C 
BRANCH  85  91
ATOM     91  C   UNL     1       4.656   3.578  -6.039  1.00  0.00     0.228 C 
ATOM     92  O   UNL     1       4.728   3.150  -7.210  1.00  0.00    -0.274 OA
ATOM     93  N   UNL     1       5.898   3.726  -5.466  1.00  0.00    -0.326 N 
ATOM     94  H   UNL     1       6.566   3.787  -6.186  1.00  0.00     0.169 HD
BRANCH  93  95
ATOM     95  C   UNL     1       6.577   3.823  -4.210  1.00  0.00     0.041 A 
ATOM     96  C   UNL     1       7.564   4.799  -4.064  1.00  0.00     0.027 A 
ATOM     97  C   UNL     1       6.424   2.973  -3.108  1.00  0.00     0.027 A 
ATOM     98  C   UNL     1       8.116   5.106  -2.786  1.00  0.00     0.016 A 
ATOM     99  C   UNL     1       7.021   3.254  -1.837  1.00  0.00     0.016 A 
ATOM    100  C   UNL     1       7.762   4.407  -1.611  1.00  0.00     0.040 A 
BRANCH 100 101
ATOM    101  C   UNL     1       8.091   5.069  -0.252  1.00  0.00     0.253 C 
ATOM    102  O   UNL     1       8.919   5.983  -0.282  1.00  0.00    -0.269 OA
ATOM    103  N   UNL     1       7.234   4.955   0.882  1.00  0.00    -0.339 N 
ATOM    104  C   UNL     1       6.539   3.323   1.566  1.00  0.00     0.120 C 
ATOM    105  C   UNL     1       6.542   6.511   1.870  1.00  0.00     0.120 C 
ATOM    106  C   UNL     1       5.264   3.787   3.089  1.00  0.00     0.023 C 
ATOM    107  C   UNL     1       5.230   5.793   3.244  1.00  0.00     0.023 C 
ENDBRANCH 100 101
ENDBRANCH  93  95
ENDBRANCH  85  91
ENDBRANCH  81  83
ENDBRANCH  80  81
ENDBRANCH  79  80
ENDBRANCH  78  79
ENDBRANCH  77  78
ENDBRANCH  76  77
ENDBRANCH   1  76
TORSDOF 23
