REMARK SMILES O=C(OCCOCCOCCOC(=O)[C@H]1CCCN(C(=O)CCOc2ccc(F)cc2)C1)c1ccc(-c2c3nc(c(-c4c(F)cc(S(=O)(=O)[O-])cc4F)c4ccc([nH]4)c(-c4c(F)cc(S(=O)(=O)[O-])cc4F)c4nc(c(-c5c(F)cc(S(=O)(=O)[O-])cc5F)c5ccc2[nH]5)C=C4)C=C3)cc1
REMARK SMILES IDX 8 1 7 2 6 3 5 4 4 5 3 6 2 7 1 8 33 9 34 10 98 11 35 12 97 13
REMARK SMILES IDX 36 14 37 15 38 16 91 17 39 18 96 19 90 20 92 21 40 22 95 23
REMARK SMILES IDX 89 24 88 25 41 27 75 28 54 29 74 30 55 31 58 32 73 33 93 34
REMARK SMILES IDX 56 35 57 36 72 38 94 39 59 40 42 41 43 42 52 43 44 44 45 45
REMARK SMILES IDX 51 46 53 47 46 48 47 49 48 50 49 51 50 52 76 53 77 54 86 55
REMARK SMILES IDX 78 56 79 57 85 58 87 59 80 60 81 61 82 62 83 63 84 64 60 65
REMARK SMILES IDX 61 66 70 67 62 68 63 69 69 70 71 71 64 72 65 73 66 74 67 75
REMARK SMILES IDX 68 76 9 77 10 78 11 79 12 80 13 81 14 82 15 83 16 84 32 85
REMARK SMILES IDX 17 86 19 87 18 88 20 89 21 90 22 91 23 92 24 93 25 94 26 95
REMARK SMILES IDX 31 96 27 97 30 98 28 99 29 100
REMARK H PARENT 92 26 58 37
REMARK Flexibility Score: inf
ROOT
ATOM      1  C   UNL     1      -1.605   4.046   3.941  1.00  0.00     0.188 C 
ENDROOT
BRANCH   1   2
ATOM      2  C   UNL     1      -1.065   3.829   2.545  1.00  0.00     0.188 C 
BRANCH   2   3
ATOM      3  O   UNL     1      -1.028   4.972   1.711  1.00  0.00    -0.376 OA
BRANCH   3   4
ATOM      4  C   UNL     1      -2.195   5.401   1.041  1.00  0.00     0.202 C 
BRANCH   4   5
ATOM      5  C   UNL     1      -2.913   4.403   0.115  1.00  0.00     0.261 C 
BRANCH   5   6
ATOM      6  O   UNL     1      -2.655   2.991   0.270  1.00  0.00    -0.460 OA
BRANCH   6   7
ATOM      7  C   UNL     1      -1.717   2.147  -0.230  1.00  0.00     0.338 C 
ATOM      8  O   UNL     1      -1.982   0.946  -0.229  1.00  0.00    -0.246 OA
BRANCH   7   9
ATOM      9  C   UNL     1      -0.344   2.560  -0.669  1.00  0.00     0.060 A 
ATOM     10  C   UNL     1       0.141   3.861  -0.641  1.00  0.00     0.016 A 
ATOM     11  C   UNL     1       0.540   1.560  -1.113  1.00  0.00     0.016 A 
ATOM     12  C   UNL     1       1.439   4.183  -1.009  1.00  0.00     0.010 A 
ATOM     13  C   UNL     1       1.840   1.875  -1.538  1.00  0.00     0.010 A 
ATOM     14  C   UNL     1       2.285   3.202  -1.507  1.00  0.00    -0.014 A 
BRANCH  14  15
ATOM     15  C   UNL     1       3.475   3.662  -2.252  1.00  0.00     0.031 A 
ATOM     16  C   UNL     1       3.377   3.668  -3.748  1.00  0.00     0.074 A 
ATOM     17  C   UNL     1       4.496   4.287  -1.635  1.00  0.00     0.049 A 
ATOM     18  N   UNL     1       4.264   4.034  -4.629  1.00  0.00    -0.248 NA
ATOM     19  C   UNL     1       2.082   3.263  -4.329  1.00  0.00     0.031 C 
ATOM     20  C   UNL     1       4.541   4.599  -0.209  1.00  0.00     0.029 A 
ATOM     21  N   UNL     1       5.661   4.822  -2.122  1.00  0.00    -0.354 N 
ATOM     22  C   UNL     1       3.632   3.919  -5.859  1.00  0.00     0.074 A 
ATOM     23  C   UNL     1       2.306   3.401  -5.625  1.00  0.00     0.031 C 
ATOM     24  C   UNL     1       5.679   5.258   0.063  1.00  0.00     0.029 A 
ATOM     25  C   UNL     1       6.483   5.328  -1.141  1.00  0.00     0.049 A 
ATOM     26  H   UNL     1       5.888   4.842  -3.079  1.00  0.00     0.167 HD
ATOM     27  C   UNL     1       4.116   4.252  -7.073  1.00  0.00     0.037 A 
ATOM     28  C   UNL     1       7.754   5.767  -1.196  1.00  0.00     0.037 A 
ATOM     29  C   UNL     1       5.434   4.783  -7.271  1.00  0.00     0.049 A 
ATOM     30  C   UNL     1       8.369   5.889  -2.558  1.00  0.00     0.074 A 
ATOM     31  C   UNL     1       6.070   5.078  -8.461  1.00  0.00     0.029 A 
ATOM     32  N   UNL     1       6.316   5.105  -6.247  1.00  0.00    -0.354 N 
ATOM     33  N   UNL     1       7.804   5.678  -3.723  1.00  0.00    -0.248 NA
ATOM     34  C   UNL     1       9.762   6.341  -2.629  1.00  0.00     0.031 C 
ATOM     35  C   UNL     1       7.360   5.519  -8.159  1.00  0.00     0.029 A 
ATOM     36  C   UNL     1       7.505   5.566  -6.779  1.00  0.00     0.049 A 
ATOM     37  H   UNL     1       6.123   5.018  -5.286  1.00  0.00     0.167 HD
ATOM     38  C   UNL     1       8.753   6.024  -4.670  1.00  0.00     0.074 A 
ATOM     39  C   UNL     1       9.929   6.458  -3.940  1.00  0.00     0.031 C 
ATOM     40  C   UNL     1       8.653   5.998  -6.021  1.00  0.00     0.037 A 
BRANCH  27  41
ATOM     41  C   UNL     1       3.238   4.011  -8.263  1.00  0.00     0.058 A 
ATOM     42  C   UNL     1       3.542   2.977  -9.161  1.00  0.00     0.135 A 
ATOM     43  C   UNL     1       2.120   4.815  -8.539  1.00  0.00     0.135 A 
ATOM     44  F   UNL     1       4.580   2.159  -8.924  1.00  0.00    -0.206 F 
ATOM     45  C   UNL     1       2.794   2.774 -10.313  1.00  0.00     0.059 A 
ATOM     46  C   UNL     1       1.341   4.613  -9.673  1.00  0.00     0.059 A 
ATOM     47  F   UNL     1       1.758   5.786  -7.684  1.00  0.00    -0.206 F 
ATOM     48  C   UNL     1       1.701   3.604 -10.566  1.00  0.00     0.060 A 
BRANCH  48  49
ATOM     49  S   UNL     1       0.761   3.339 -12.083  1.00  0.00     0.124 S 
ATOM     50  O   UNL     1       1.743   3.681 -13.106  1.00  0.00    -0.237 OA
ATOM     51  O   UNL     1       0.413   1.925 -11.982  1.00  0.00    -0.237 OA
ATOM     52  O   UNL     1      -0.360   4.264 -11.954  1.00  0.00    -0.744 OA
ENDBRANCH  48  49
ENDBRANCH  27  41
BRANCH  28  53
ATOM     53  C   UNL     1       8.515   6.095   0.043  1.00  0.00     0.058 A 
ATOM     54  C   UNL     1       8.862   5.095   0.969  1.00  0.00     0.135 A 
ATOM     55  C   UNL     1       8.938   7.403   0.321  1.00  0.00     0.135 A 
ATOM     56  F   UNL     1       8.476   3.825   0.768  1.00  0.00    -0.206 F 
ATOM     57  C   UNL     1       9.598   5.378   2.118  1.00  0.00     0.059 A 
ATOM     58  C   UNL     1       9.695   7.708   1.452  1.00  0.00     0.059 A 
ATOM     59  F   UNL     1       8.638   8.396  -0.529  1.00  0.00    -0.206 F 
ATOM     60  C   UNL     1      10.015   6.688   2.348  1.00  0.00     0.060 A 
BRANCH  60  61
ATOM     61  S   UNL     1      10.992   7.030   3.829  1.00  0.00     0.124 S 
ATOM     62  O   UNL     1      10.025   6.750   4.886  1.00  0.00    -0.237 OA
ATOM     63  O   UNL     1      12.086   6.073   3.699  1.00  0.00    -0.237 OA
ATOM     64  O   UNL     1      11.364   8.432   3.673  1.00  0.00    -0.744 OA
ENDBRANCH  60  61
ENDBRANCH  28  53
BRANCH  40  65
ATOM     65  C   UNL     1       9.837   6.482  -6.800  1.00  0.00     0.058 A 
ATOM     66  C   UNL     1       9.749   7.664  -7.552  1.00  0.00     0.135 A 
ATOM     67  C   UNL     1      11.021   5.735  -6.871  1.00  0.00     0.135 A 
ATOM     68  F   UNL     1       8.633   8.409  -7.520  1.00  0.00    -0.206 F 
ATOM     69  C   UNL     1      10.789   8.073  -8.374  1.00  0.00     0.059 A 
ATOM     70  C   UNL     1      12.089   6.147  -7.656  1.00  0.00     0.059 A 
ATOM     71  F   UNL     1      11.152   4.605  -6.157  1.00  0.00    -0.206 F 
ATOM     72  C   UNL     1      11.954   7.307  -8.419  1.00  0.00     0.060 A 
BRANCH  72  73
ATOM     73  S   UNL     1      13.296   7.861  -9.487  1.00  0.00     0.124 S 
ATOM     74  O   UNL     1      12.726   7.656 -10.813  1.00  0.00    -0.237 OA
ATOM     75  O   UNL     1      13.462   9.251  -9.073  1.00  0.00    -0.237 OA
ATOM     76  O   UNL     1      14.399   6.972  -9.133  1.00  0.00    -0.744 OA
ENDBRANCH  72  73
ENDBRANCH  40  65
ENDBRANCH  14  15
ENDBRANCH   7   9
ENDBRANCH   6   7
ENDBRANCH   5   6
ENDBRANCH   4   5
ENDBRANCH   3   4
ENDBRANCH   2   3
ENDBRANCH   1   2
BRANCH   1  77
ATOM     77  O   UNL     1      -1.689   5.422   4.255  1.00  0.00    -0.376 OA
BRANCH  77  78
ATOM     78  C   UNL     1      -0.492   6.016   4.758  1.00  0.00     0.202 C 
BRANCH  78  79
ATOM     79  C   UNL     1       0.729   6.234   3.808  1.00  0.00     0.261 C 
BRANCH  79  80
ATOM     80  O   UNL     1       1.641   5.170   3.367  1.00  0.00    -0.463 OA
BRANCH  80  81
ATOM     81  C   UNL     1       1.891   4.120   4.188  1.00  0.00     0.310 C 
ATOM     82  O   UNL     1       1.240   3.930   5.213  1.00  0.00    -0.252 OA
BRANCH  81  83
ATOM     83  C   UNL     1       3.114   3.001   3.580  1.00  0.00     0.119 C 
ATOM     84  C   UNL     1       4.883   2.116   4.587  1.00  0.00     0.019 C 
ATOM     85  C   UNL     1       1.656   1.720   3.288  1.00  0.00     0.134 C 
ATOM     86  C   UNL     1       4.546   0.281   5.240  1.00  0.00     0.022 C 
ATOM     87  N   UNL     1       1.955   0.066   3.449  1.00  0.00    -0.342 N 
ATOM     88  C   UNL     1       2.892  -0.530   4.781  1.00  0.00     0.119 C 
BRANCH  87  89
ATOM     89  C   UNL     1       2.053  -0.494   2.129  1.00  0.00     0.226 C 
ATOM     90  O   UNL     1       1.112  -0.404   1.337  1.00  0.00    -0.275 OA
BRANCH  89  91
ATOM     91  C   UNL     1       3.448  -0.965   1.601  1.00  0.00     0.141 C 
BRANCH  91  92
ATOM     92  C   UNL     1       4.325   0.113   0.818  1.00  0.00     0.239 C 
BRANCH  92  93
ATOM     93  O   UNL     1       5.173   1.188   1.375  1.00  0.00    -0.493 OA
BRANCH  93  94
ATOM     94  C   UNL     1       4.692   1.980   2.373  1.00  0.00     0.119 A 
ATOM     95  C   UNL     1       3.749   1.209   3.457  1.00  0.00     0.049 A 
ATOM     96  C   UNL     1       5.241   3.509   2.855  1.00  0.00     0.049 A 
ATOM     97  C   UNL     1       3.095   1.933   5.138  1.00  0.00     0.043 A 
ATOM     98  C   UNL     1       4.771   4.295   4.346  1.00  0.00     0.043 A 
ATOM     99  C   UNL     1       3.737   3.547   5.534  1.00  0.00     0.123 A 
ATOM    100  F   UNL     1       3.492   4.137   6.707  1.00  0.00    -0.207 F 
ENDBRANCH  93  94
ENDBRANCH  92  93
ENDBRANCH  91  92
ENDBRANCH  89  91
ENDBRANCH  87  89
ENDBRANCH  81  83
ENDBRANCH  80  81
ENDBRANCH  79  80
ENDBRANCH  78  79
ENDBRANCH  77  78
ENDBRANCH   1  77
TORSDOF 25
