REMARK SMILES O=C1O[C@@H](c2ccc(O)c(O)c2)[C@H](C(=O)OCCOCCOCCOC(=O)c2ccc(-c3c4nc(c(-c5c(F)cc(S(=O)(=O)[O-])cc5F)c5ccc([nH]5)c(-c5c(F)cc(S(=O)(=O)[O-])cc5F)c5nc(c(-c6c(F)cc(S(=O)(=O)[O-])cc6F)c6ccc3[nH]6)C=C5)C=C4)cc2)/C1=C\c1ccc(O)c(O)c1
REMARK SMILES IDX 21 1 20 2 19 3 18 4 17 5 16 6 14 7 15 8 13 9 1 10 2 11 3 12
REMARK SMILES IDX 94 13 4 14 95 15 5 16 6 17 12 18 7 19 10 20 8 21 11 22 9 24
REMARK SMILES IDX 96 26 97 27 103 28 98 29 101 30 99 31 102 32 100 34 22 36
REMARK SMILES IDX 23 37 24 38 25 39 26 40 27 41 28 42 29 43 93 44 30 45 92 46
REMARK SMILES IDX 31 47 32 48 33 49 86 50 34 51 91 52 85 53 87 54 35 55 90 56
REMARK SMILES IDX 84 57 83 58 36 60 70 61 49 62 69 63 50 64 53 65 68 66 88 67
REMARK SMILES IDX 51 68 52 69 67 71 89 72 54 73 37 74 38 75 47 76 39 77 40 78
REMARK SMILES IDX 46 79 48 80 41 81 42 82 43 83 44 84 45 85 71 86 72 87 81 88
REMARK SMILES IDX 73 89 74 90 80 91 82 92 75 93 76 94 77 95 78 96 79 97 55 98
REMARK SMILES IDX 56 99 65 100 57 101 58 102 64 103 66 104 59 105 60 106
REMARK SMILES IDX 61 107 62 108 63 109
REMARK H PARENT 11 23 9 25 102 33 100 35 87 59 53 70
REMARK Flexibility Score: inf
ROOT
ATOM      1  C   UNL     1       3.121   3.381   1.490  1.00  0.00     0.188 C 
ENDROOT
BRANCH   1   2
ATOM      2  C   UNL     1       1.965   3.364   2.522  1.00  0.00     0.188 C 
BRANCH   2   3
ATOM      3  O   UNL     1       2.290   3.366   3.885  1.00  0.00    -0.376 OA
BRANCH   3   4
ATOM      4  C   UNL     1       2.808   2.204   4.484  1.00  0.00     0.202 C 
BRANCH   4   5
ATOM      5  C   UNL     1       2.817   0.810   3.824  1.00  0.00     0.261 C 
BRANCH   5   6
ATOM      6  O   UNL     1       2.598   0.730   2.405  1.00  0.00    -0.463 OA
BRANCH   6   7
ATOM      7  C   UNL     1       1.356   0.327   1.992  1.00  0.00     0.317 C 
ATOM      8  O   UNL     1       0.482  -0.086   2.739  1.00  0.00    -0.251 OA
BRANCH   7   9
ATOM      9  C   UNL     1       1.222   0.506   0.477  1.00  0.00     0.182 C 
ATOM     10  O   UNL     1      -1.792  -1.165  -0.258  1.00  0.00    -0.247 OA
ATOM     11  C   UNL     1      -0.645  -0.780  -0.145  1.00  0.00     0.335 C 
ATOM     12  O   UNL     1       0.461  -1.584  -0.185  1.00  0.00    -0.453 OA
ATOM     13  C   UNL     1      -0.191   0.624   0.035  1.00  0.00     0.056 C 
ATOM     14  C   UNL     1       1.661  -0.792  -0.166  1.00  0.00     0.226 C 
ATOM     15  C   UNL     1      -0.969   1.677  -0.291  1.00  0.00     0.020 C 
BRANCH  14  16
ATOM     16  C   UNL     1       2.279  -0.659  -1.556  1.00  0.00    -0.002 A 
ATOM     17  C   UNL     1       3.372   0.204  -1.789  1.00  0.00     0.012 A 
ATOM     18  C   UNL     1       1.826  -1.457  -2.619  1.00  0.00     0.057 A 
ATOM     19  C   UNL     1       3.981   0.280  -3.051  1.00  0.00     0.050 A 
ATOM     20  C   UNL     1       2.442  -1.383  -3.861  1.00  0.00     0.157 A 
ATOM     21  C   UNL     1       3.511  -0.523  -4.081  1.00  0.00     0.157 A 
BRANCH  20  22
ATOM     22  O   UNL     1       1.991  -2.185  -4.870  1.00  0.00    -0.504 OA
ATOM     23  H   UNL     1       2.396  -2.147  -5.715  1.00  0.00     0.293 HD
ENDBRANCH  20  22
BRANCH  21  24
ATOM     24  O   UNL     1       4.077  -0.518  -5.325  1.00  0.00    -0.504 OA
ATOM     25  H   UNL     1       4.800   0.049  -5.509  1.00  0.00     0.293 HD
ENDBRANCH  21  24
ENDBRANCH  14  16
BRANCH  15  26
ATOM     26  C   UNL     1      -0.643   3.127  -0.267  1.00  0.00    -0.021 A 
ATOM     27  C   UNL     1       0.013   3.895  -1.727  1.00  0.00     0.012 A 
ATOM     28  C   UNL     1      -1.048   4.032   1.175  1.00  0.00     0.058 A 
ATOM     29  C   UNL     1       0.342   5.630  -1.872  1.00  0.00     0.051 A 
ATOM     30  C   UNL     1      -0.779   5.818   1.211  1.00  0.00     0.157 A 
ATOM     31  C   UNL     1      -0.011   6.702  -0.454  1.00  0.00     0.157 A 
BRANCH  30  32
ATOM     32  O   UNL     1      -1.115   6.200   2.515  1.00  0.00    -0.504 OA
ATOM     33  H   UNL     1      -1.052   7.099   2.771  1.00  0.00     0.293 HD
ENDBRANCH  30  32
BRANCH  31  34
ATOM     34  O   UNL     1       0.471   7.972  -0.775  1.00  0.00    -0.504 OA
ATOM     35  H   UNL     1       0.784   8.149  -1.640  1.00  0.00     0.293 HD
ENDBRANCH  31  34
ENDBRANCH  15  26
ENDBRANCH   7   9
ENDBRANCH   6   7
ENDBRANCH   5   6
ENDBRANCH   4   5
ENDBRANCH   3   4
ENDBRANCH   2   3
ENDBRANCH   1   2
BRANCH   1  36
ATOM     36  O   UNL     1       4.435   3.176   1.941  1.00  0.00    -0.376 OA
BRANCH  36  37
ATOM     37  C   UNL     1       5.020   4.210   2.717  1.00  0.00     0.202 C 
BRANCH  37  38
ATOM     38  C   UNL     1       4.548   5.683   2.692  1.00  0.00     0.261 C 
BRANCH  38  39
ATOM     39  O   UNL     1       3.140   5.916   2.546  1.00  0.00    -0.460 OA
BRANCH  39  40
ATOM     40  C   UNL     1       2.756   6.462   1.368  1.00  0.00     0.338 C 
ATOM     41  O   UNL     1       3.472   6.869   0.467  1.00  0.00    -0.246 OA
BRANCH  40  42
ATOM     42  C   UNL     1       1.307   6.341   1.193  1.00  0.00     0.060 A 
ATOM     43  C   UNL     1       0.581   5.029   0.165  1.00  0.00     0.016 A 
ATOM     44  C   UNL     1       0.357   7.771   1.545  1.00  0.00     0.016 A 
ATOM     45  C   UNL     1      -1.299   5.317  -0.538  1.00  0.00     0.010 A 
ATOM     46  C   UNL     1      -1.283   8.016   0.918  1.00  0.00     0.010 A 
ATOM     47  C   UNL     1      -2.125   6.859  -0.110  1.00  0.00    -0.014 A 
BRANCH  47  48
ATOM     48  C   UNL     1      -3.444   7.207  -0.645  1.00  0.00     0.031 A 
ATOM     49  C   UNL     1      -3.609   8.452  -1.463  1.00  0.00     0.074 A 
ATOM     50  C   UNL     1      -4.475   6.416  -0.313  1.00  0.00     0.049 A 
ATOM     51  N   UNL     1      -4.699   8.974  -1.957  1.00  0.00    -0.248 NA
ATOM     52  C   UNL     1      -2.400   9.238  -1.747  1.00  0.00     0.031 C 
ATOM     53  C   UNL     1      -4.383   5.229   0.536  1.00  0.00     0.029 A 
ATOM     54  N   UNL     1      -5.802   6.492  -0.623  1.00  0.00    -0.354 N 
ATOM     55  C   UNL     1      -4.301  10.146  -2.594  1.00  0.00     0.074 A 
ATOM     56  C   UNL     1      -2.885  10.294  -2.378  1.00  0.00     0.031 C 
ATOM     57  C   UNL     1      -5.590   4.663   0.650  1.00  0.00     0.029 A 
ATOM     58  C   UNL     1      -6.553   5.489  -0.058  1.00  0.00     0.049 A 
ATOM     59  H   UNL     1      -6.184   7.197  -1.195  1.00  0.00     0.167 HD
ATOM     60  C   UNL     1      -5.060  11.009  -3.305  1.00  0.00     0.037 A 
ATOM     61  C   UNL     1      -7.879   5.282  -0.088  1.00  0.00     0.037 A 
ATOM     62  C   UNL     1      -6.476  10.828  -3.470  1.00  0.00     0.049 A 
ATOM     63  C   UNL     1      -8.705   6.266  -0.861  1.00  0.00     0.074 A 
ATOM     64  C   UNL     1      -7.372  11.606  -4.176  1.00  0.00     0.029 A 
ATOM     65  N   UNL     1      -7.203   9.789  -2.899  1.00  0.00    -0.354 N 
ATOM     66  N   UNL     1      -8.310   7.343  -1.503  1.00  0.00    -0.248 NA
ATOM     67  C   UNL     1     -10.145   6.014  -0.924  1.00  0.00     0.031 C 
ATOM     68  C   UNL     1      -8.650  11.076  -3.973  1.00  0.00     0.029 A 
ATOM     69  C   UNL     1      -8.542   9.920  -3.212  1.00  0.00     0.049 A 
ATOM     70  H   UNL     1      -6.819   9.066  -2.351  1.00  0.00     0.167 HD
ATOM     71  C   UNL     1      -9.451   7.886  -2.071  1.00  0.00     0.074 A 
ATOM     72  C   UNL     1     -10.546   7.001  -1.712  1.00  0.00     0.031 C 
ATOM     73  C   UNL     1      -9.592   9.008  -2.821  1.00  0.00     0.037 A 
BRANCH  60  74
ATOM     74  C   UNL     1      -4.381  12.211  -3.912  1.00  0.00     0.058 A 
ATOM     75  C   UNL     1      -3.422  12.090  -4.933  1.00  0.00     0.135 A 
ATOM     76  C   UNL     1      -4.694  13.506  -3.469  1.00  0.00     0.135 A 
ATOM     77  F   UNL     1      -3.058  10.878  -5.382  1.00  0.00    -0.206 F 
ATOM     78  C   UNL     1      -2.784  13.203  -5.473  1.00  0.00     0.059 A 
ATOM     79  C   UNL     1      -4.094  14.637  -4.019  1.00  0.00     0.059 A 
ATOM     80  F   UNL     1      -5.588  13.687  -2.484  1.00  0.00    -0.206 F 
ATOM     81  C   UNL     1      -3.132  14.474  -5.014  1.00  0.00     0.060 A 
BRANCH  81  82
ATOM     82  S   UNL     1      -2.316  15.907  -5.749  1.00  0.00     0.124 S 
ATOM     83  O   UNL     1      -0.950  15.753  -5.256  1.00  0.00    -0.237 OA
ATOM     84  O   UNL     1      -2.503  15.669  -7.177  1.00  0.00    -0.237 OA
ATOM     85  O   UNL     1      -3.055  17.040  -5.201  1.00  0.00    -0.744 OA
ENDBRANCH  81  82
ENDBRANCH  60  74
BRANCH  61  86
ATOM     86  C   UNL     1      -8.471   4.114   0.618  1.00  0.00     0.058 A 
ATOM     87  C   UNL     1      -9.067   3.063  -0.093  1.00  0.00     0.135 A 
ATOM     88  C   UNL     1      -8.411   4.000   2.017  1.00  0.00     0.135 A 
ATOM     89  F   UNL     1      -9.141   3.116  -1.432  1.00  0.00    -0.206 F 
ATOM     90  C   UNL     1      -9.607   1.957   0.556  1.00  0.00     0.059 A 
ATOM     91  C   UNL     1      -8.911   2.888   2.686  1.00  0.00     0.059 A 
ATOM     92  F   UNL     1      -7.822   4.962   2.747  1.00  0.00    -0.206 F 
ATOM     93  C   UNL     1      -9.522   1.878   1.947  1.00  0.00     0.060 A 
BRANCH  93  94
ATOM     94  S   UNL     1     -10.213   0.431   2.776  1.00  0.00     0.124 S 
ATOM     95  O   UNL     1     -11.642   0.622   2.554  1.00  0.00    -0.237 OA
ATOM     96  O   UNL     1      -9.594  -0.666   2.040  1.00  0.00    -0.237 OA
ATOM     97  O   UNL     1      -9.765   0.586   4.156  1.00  0.00    -0.744 OA
ENDBRANCH  93  94
ENDBRANCH  61  86
BRANCH  73  98
ATOM     98  C   UNL     1     -10.972   9.301  -3.330  1.00  0.00     0.058 A 
ATOM     99  C   UNL     1     -12.010   9.693  -2.472  1.00  0.00     0.135 A 
ATOM    100  C   UNL     1     -11.242   9.216  -4.705  1.00  0.00     0.135 A 
ATOM    101  F   UNL     1     -11.801   9.781  -1.149  1.00  0.00    -0.206 F 
ATOM    102  C   UNL     1     -13.285   9.949  -2.957  1.00  0.00     0.059 A 
ATOM    103  C   UNL     1     -12.497   9.513  -5.216  1.00  0.00     0.059 A 
ATOM    104  F   UNL     1     -10.276   8.857  -5.566  1.00  0.00    -0.206 F 
ATOM    105  C   UNL     1     -13.516   9.861  -4.332  1.00  0.00     0.060 A 
BRANCH 105 106
ATOM    106  S   UNL     1     -15.170  10.221  -4.948  1.00  0.00     0.124 S 
ATOM    107  O   UNL     1     -15.921   9.068  -4.463  1.00  0.00    -0.237 OA
ATOM    108  O   UNL     1     -15.471  11.493  -4.299  1.00  0.00    -0.237 OA
ATOM    109  O   UNL     1     -14.987  10.288  -6.395  1.00  0.00    -0.744 OA
ENDBRANCH 105 106
ENDBRANCH  73  98
ENDBRANCH  47  48
ENDBRANCH  40  42
ENDBRANCH  39  40
ENDBRANCH  38  39
ENDBRANCH  37  38
ENDBRANCH  36  37
ENDBRANCH   1  36
TORSDOF 26
