REMARK SMILES C[C@@H]1[C@@H](C(=O)OCCOCCOCCOC(=O)c2ccc(-c3c4nc(c(-c5c(F)cc(S(=O)(=O)[O-])cc5F)c5ccc([nH]5)c(-c5c(F)cc(S(=O)(=O)[O-])cc5F)c5nc(c(-c6c(F)cc(S(=O)(=O)[O-])cc6F)c6ccc3[nH]6)C=C5)C=C4)cc2)CCN1C(=O)N(C)Cc1ccsc1
REMARK SMILES IDX 10 1 9 2 8 3 7 4 6 5 4 6 5 7 3 8 1 9 2 10 86 11 84 12 85 13
REMARK SMILES IDX 87 14 88 15 89 16 90 17 91 18 92 19 93 20 96 21 94 22 95 23
REMARK SMILES IDX 11 24 12 25 13 26 14 27 15 28 16 29 17 30 18 31 19 32 83 33
REMARK SMILES IDX 20 34 82 35 21 36 22 37 23 38 76 39 24 40 81 41 75 42 77 43
REMARK SMILES IDX 25 44 80 45 74 46 73 47 26 49 60 50 39 51 59 52 40 53 43 54
REMARK SMILES IDX 58 55 78 56 41 57 42 58 57 60 79 61 44 62 27 63 28 64 37 65
REMARK SMILES IDX 29 66 30 67 36 68 38 69 31 70 32 71 33 72 34 73 35 74 61 75
REMARK SMILES IDX 62 76 71 77 63 78 64 79 70 80 72 81 65 82 66 83 67 84 68 85
REMARK SMILES IDX 69 86 45 87 46 88 55 89 47 90 48 91 54 92 56 93 49 94 50 95
REMARK SMILES IDX 51 96 52 97 53 98
REMARK H PARENT 77 48 43 59
REMARK Flexibility Score: inf
ROOT
ATOM      1  C   UNL     1       0.365   2.539  -3.446  1.00  0.00     0.188 C 
ENDROOT
BRANCH   1   2
ATOM      2  O   UNL     1      -0.456   2.839  -4.550  1.00  0.00    -0.376 OA
BRANCH   2   3
ATOM      3  C   UNL     1      -1.730   2.227  -4.677  1.00  0.00     0.202 C 
BRANCH   3   4
ATOM      4  C   UNL     1      -2.571   1.665  -3.512  1.00  0.00     0.261 C 
BRANCH   4   5
ATOM      5  O   UNL     1      -2.003   1.697  -2.200  1.00  0.00    -0.463 OA
BRANCH   5   6
ATOM      6  C   UNL     1      -1.521   0.508  -1.749  1.00  0.00     0.311 C 
ATOM      7  O   UNL     1      -1.572  -0.534  -2.387  1.00  0.00    -0.252 OA
BRANCH   6   8
ATOM      8  C   UNL     1      -0.853   0.672  -0.391  1.00  0.00     0.123 C 
ATOM      9  C   UNL     1       1.403   0.280   0.707  1.00  0.00     0.032 C 
ATOM     10  C   UNL     1       0.395  -0.224  -0.336  1.00  0.00     0.098 C 
ATOM     11  N   UNL     1      -0.161  -1.523   0.036  1.00  0.00    -0.321 N 
ATOM     12  C   UNL     1      -1.725   0.144   0.732  1.00  0.00     0.039 C 
ATOM     13  C   UNL     1      -1.474  -1.349   0.662  1.00  0.00     0.122 C 
BRANCH  11  14
ATOM     14  C   UNL     1       0.128  -2.787  -0.411  1.00  0.00     0.320 C 
ATOM     15  O   UNL     1      -0.753  -3.651  -0.290  1.00  0.00    -0.248 OA
BRANCH  14  16
ATOM     16  N   UNL     1       1.364  -3.140  -0.904  1.00  0.00    -0.323 N 
ATOM     17  C   UNL     1       2.559  -2.364  -1.200  1.00  0.00     0.149 C 
BRANCH  16  18
ATOM     18  C   UNL     1       1.544  -4.578  -1.126  1.00  0.00     0.157 C 
BRANCH  18  19
ATOM     19  C   UNL     1       1.674  -5.331   0.182  1.00  0.00    -0.018 A 
ATOM     20  C   UNL     1       1.709  -6.764   0.255  1.00  0.00     0.017 A 
ATOM     21  C   UNL     1       1.726  -4.789   1.458  1.00  0.00     0.070 A 
ATOM     22  C   UNL     1       1.741  -7.234   1.549  1.00  0.00     0.065 A 
ATOM     23  S   UNL     1       1.757  -5.968   2.693  1.00  0.00    -0.152 S 
ENDBRANCH  18  19
ENDBRANCH  16  18
ENDBRANCH  14  16
ENDBRANCH  11  14
ENDBRANCH   6   8
ENDBRANCH   5   6
ENDBRANCH   4   5
ENDBRANCH   3   4
ENDBRANCH   2   3
ENDBRANCH   1   2
BRANCH   1  24
ATOM     24  C   UNL     1       0.253   3.558  -2.294  1.00  0.00     0.188 C 
BRANCH  24  25
ATOM     25  O   UNL     1      -0.826   4.475  -2.260  1.00  0.00    -0.376 OA
BRANCH  25  26
ATOM     26  C   UNL     1      -1.010   5.346  -3.370  1.00  0.00     0.202 C 
BRANCH  26  27
ATOM     27  C   UNL     1       0.172   6.032  -4.092  1.00  0.00     0.261 C 
BRANCH  27  28
ATOM     28  O   UNL     1       1.369   5.259  -4.272  1.00  0.00    -0.460 OA
BRANCH  28  29
ATOM     29  C   UNL     1       2.425   5.623  -3.505  1.00  0.00     0.338 C 
ATOM     30  O   UNL     1       2.464   6.548  -2.697  1.00  0.00    -0.246 OA
BRANCH  29  31
ATOM     31  C   UNL     1       3.490   4.608  -3.607  1.00  0.00     0.060 A 
ATOM     32  C   UNL     1       3.805   3.839  -2.475  1.00  0.00     0.016 A 
ATOM     33  C   UNL     1       4.209   4.447  -4.790  1.00  0.00     0.016 A 
ATOM     34  C   UNL     1       4.846   2.912  -2.519  1.00  0.00     0.010 A 
ATOM     35  C   UNL     1       5.275   3.542  -4.823  1.00  0.00     0.010 A 
ATOM     36  C   UNL     1       5.614   2.789  -3.682  1.00  0.00    -0.014 A 
BRANCH  36  37
ATOM     37  C   UNL     1       6.886   2.025  -3.653  1.00  0.00     0.031 A 
ATOM     38  C   UNL     1       8.169   2.784  -3.447  1.00  0.00     0.074 A 
ATOM     39  C   UNL     1       6.905   0.688  -3.802  1.00  0.00     0.049 A 
ATOM     40  N   UNL     1       9.403   2.355  -3.488  1.00  0.00    -0.248 NA
ATOM     41  C   UNL     1       8.039   4.222  -3.158  1.00  0.00     0.031 C 
ATOM     42  C   UNL     1       5.728  -0.166  -3.954  1.00  0.00     0.029 A 
ATOM     43  N   UNL     1       7.964  -0.183  -3.868  1.00  0.00    -0.354 N 
ATOM     44  C   UNL     1      10.197   3.468  -3.239  1.00  0.00     0.074 A 
ATOM     45  C   UNL     1       9.307   4.597  -3.076  1.00  0.00     0.031 C 
ATOM     46  C   UNL     1       6.132  -1.438  -4.118  1.00  0.00     0.029 A 
ATOM     47  C   UNL     1       7.594  -1.483  -4.121  1.00  0.00     0.049 A 
ATOM     48  H   UNL     1       8.900   0.096  -3.745  1.00  0.00     0.167 HD
ATOM     49  C   UNL     1      11.546   3.543  -3.147  1.00  0.00     0.037 A 
ATOM     50  C   UNL     1       8.351  -2.573  -4.360  1.00  0.00     0.037 A 
ATOM     51  C   UNL     1      12.429   2.419  -3.320  1.00  0.00     0.049 A 
ATOM     52  C   UNL     1       9.856  -2.447  -4.349  1.00  0.00     0.074 A 
ATOM     53  C   UNL     1      13.811   2.392  -3.251  1.00  0.00     0.029 A 
ATOM     54  N   UNL     1      12.018   1.125  -3.603  1.00  0.00    -0.354 N 
ATOM     55  N   UNL     1      10.596  -1.391  -4.107  1.00  0.00    -0.248 NA
ATOM     56  C   UNL     1      10.629  -3.663  -4.645  1.00  0.00     0.031 C 
ATOM     57  C   UNL     1      14.238   1.092  -3.541  1.00  0.00     0.029 A 
ATOM     58  C   UNL     1      13.120   0.296  -3.732  1.00  0.00     0.049 A 
ATOM     59  H   UNL     1      11.081   0.838  -3.699  1.00  0.00     0.167 HD
ATOM     60  C   UNL     1      11.918  -1.825  -4.185  1.00  0.00     0.074 A 
ATOM     61  C   UNL     1      11.875  -3.239  -4.489  1.00  0.00     0.031 C 
ATOM     62  C   UNL     1      13.063  -1.117  -4.017  1.00  0.00     0.037 A 
BRANCH  49  63
ATOM     63  C   UNL     1      12.153   4.891  -2.870  1.00  0.00     0.058 A 
ATOM     64  C   UNL     1      12.034   5.508  -1.615  1.00  0.00     0.135 A 
ATOM     65  C   UNL     1      12.893   5.557  -3.860  1.00  0.00     0.135 A 
ATOM     66  F   UNL     1      11.320   4.926  -0.639  1.00  0.00    -0.206 F 
ATOM     67  C   UNL     1      12.609   6.748  -1.358  1.00  0.00     0.059 A 
ATOM     68  C   UNL     1      13.501   6.784  -3.616  1.00  0.00     0.059 A 
ATOM     69  F   UNL     1      13.034   5.013  -5.080  1.00  0.00    -0.206 F 
ATOM     70  C   UNL     1      13.343   7.378  -2.365  1.00  0.00     0.060 A 
BRANCH  70  71
ATOM     71  S   UNL     1      14.093   8.981  -2.010  1.00  0.00     0.124 S 
ATOM     72  O   UNL     1      12.918   9.846  -1.956  1.00  0.00    -0.237 OA
ATOM     73  O   UNL     1      14.759   8.737  -0.734  1.00  0.00    -0.237 OA
ATOM     74  O   UNL     1      14.982   9.201  -3.146  1.00  0.00    -0.744 OA
ENDBRANCH  70  71
ENDBRANCH  49  63
BRANCH  50  75
ATOM     75  C   UNL     1       7.710  -3.885  -4.651  1.00  0.00     0.058 A 
ATOM     76  C   UNL     1       7.824  -4.959  -3.757  1.00  0.00     0.135 A 
ATOM     77  C   UNL     1       6.994  -4.099  -5.840  1.00  0.00     0.135 A 
ATOM     78  F   UNL     1       8.510  -4.809  -2.613  1.00  0.00    -0.206 F 
ATOM     79  C   UNL     1       7.271  -6.205  -4.037  1.00  0.00     0.059 A 
ATOM     80  C   UNL     1       6.407  -5.327  -6.130  1.00  0.00     0.059 A 
ATOM     81  F   UNL     1       6.848  -3.103  -6.727  1.00  0.00    -0.206 F 
ATOM     82  C   UNL     1       6.562  -6.378  -5.227  1.00  0.00     0.060 A 
BRANCH  82  83
ATOM     83  S   UNL     1       5.814  -7.987  -5.560  1.00  0.00     0.124 S 
ATOM     84  O   UNL     1       6.988  -8.804  -5.844  1.00  0.00    -0.237 OA
ATOM     85  O   UNL     1       5.126  -8.267  -4.303  1.00  0.00    -0.237 OA
ATOM     86  O   UNL     1       4.939  -7.720  -6.698  1.00  0.00    -0.744 OA
ENDBRANCH  82  83
ENDBRANCH  50  75
BRANCH  62  87
ATOM     87  C   UNL     1      14.368  -1.863  -4.102  1.00  0.00     0.058 A 
ATOM     88  C   UNL     1      14.874  -2.340  -5.321  1.00  0.00     0.135 A 
ATOM     89  C   UNL     1      15.153  -2.050  -2.951  1.00  0.00     0.135 A 
ATOM     90  F   UNL     1      14.164  -2.193  -6.451  1.00  0.00    -0.206 F 
ATOM     91  C   UNL     1      16.101  -2.994  -5.394  1.00  0.00     0.059 A 
ATOM     92  C   UNL     1      16.396  -2.674  -3.005  1.00  0.00     0.059 A 
ATOM     93  F   UNL     1      14.723  -1.603  -1.760  1.00  0.00    -0.206 F 
ATOM     94  C   UNL     1      16.856  -3.153  -4.230  1.00  0.00     0.060 A 
BRANCH  94  95
ATOM     95  S   UNL     1      18.462  -3.969  -4.346  1.00  0.00     0.124 S 
ATOM     96  O   UNL     1      18.072  -5.359  -4.558  1.00  0.00    -0.237 OA
ATOM     97  O   UNL     1      19.071  -3.300  -5.491  1.00  0.00    -0.237 OA
ATOM     98  O   UNL     1      19.084  -3.682  -3.056  1.00  0.00    -0.744 OA
ENDBRANCH  94  95
ENDBRANCH  62  87
ENDBRANCH  36  37
ENDBRANCH  29  31
ENDBRANCH  28  29
ENDBRANCH  27  28
ENDBRANCH  26  27
ENDBRANCH  25  26
ENDBRANCH  24  25
ENDBRANCH   1  24
TORSDOF 24
