REMARK SMILES CC[NH+]1CCN(c2ccc(NC(=O)C3CCCC3)c(C(=O)OCCOCCOCCOC(=O)c3ccc(-c4c5nc(c(-c6c(F)cc(S(=O)(=O)[O-])cc6F)c6ccc([nH]6)c(-c6c(F)cc(S(=O)(=O)[O-])cc6F)c6nc(c(-c7c(F)cc(S(=O)(=O)[O-])cc7F)c7ccc4[nH]7)C=C6)C=C5)cc3)c2)CC1
REMARK SMILES IDX 27 1 26 2 25 3 24 4 23 5 22 6 20 7 21 8 19 9 7 10 8 11
REMARK SMILES IDX 100 12 9 13 10 14 6 15 3 16 4 17 102 18 5 20 101 21 2 22
REMARK SMILES IDX 1 23 11 24 12 25 13 27 14 28 15 29 18 30 16 31 17 32 28 33
REMARK SMILES IDX 29 34 30 35 31 36 32 37 33 38 34 39 35 40 99 41 36 42 98 43
REMARK SMILES IDX 37 44 38 45 39 46 92 47 40 48 97 49 91 50 93 51 41 52 96 53
REMARK SMILES IDX 90 54 89 55 42 57 76 58 55 59 75 60 56 61 59 62 74 63 94 64
REMARK SMILES IDX 57 65 58 66 73 68 95 69 60 70 43 71 44 72 53 73 45 74 46 75
REMARK SMILES IDX 52 76 54 77 47 78 48 79 49 80 50 81 51 82 77 83 78 84 87 85
REMARK SMILES IDX 79 86 80 87 86 88 88 89 81 90 82 91 83 92 84 93 85 94 61 95
REMARK SMILES IDX 62 96 71 97 63 98 64 99 70 100 72 101 65 102 66 103 67 104
REMARK SMILES IDX 68 105 69 106
REMARK H PARENT 3 19 11 26 93 56 59 67
REMARK Flexibility Score: inf
ROOT
ATOM      1  C   UNL     1       2.808  -9.339  -0.591  1.00  0.00     0.188 C 
ENDROOT
BRANCH   1   2
ATOM      2  C   UNL     1       3.251 -10.396  -1.625  1.00  0.00     0.188 C 
BRANCH   2   3
ATOM      3  O   UNL     1       4.609 -10.768  -1.739  1.00  0.00    -0.376 OA
BRANCH   3   4
ATOM      4  C   UNL     1       5.595  -9.798  -2.046  1.00  0.00     0.202 C 
BRANCH   4   5
ATOM      5  C   UNL     1       5.365  -8.718  -3.110  1.00  0.00     0.261 C 
BRANCH   5   6
ATOM      6  O   UNL     1       4.147  -7.977  -2.954  1.00  0.00    -0.460 OA
BRANCH   6   7
ATOM      7  C   UNL     1       3.276  -8.043  -4.002  1.00  0.00     0.340 C 
ATOM      8  O   UNL     1       3.444  -8.616  -5.054  1.00  0.00    -0.246 OA
BRANCH   7   9
ATOM      9  C   UNL     1       1.973  -7.488  -3.564  1.00  0.00     0.085 A 
ATOM     10  C   UNL     1       0.781  -5.676  -2.418  1.00  0.00     0.038 A 
ATOM     11  C   UNL     1      -0.340  -6.507  -2.427  1.00  0.00     0.028 A 
ATOM     12  C   UNL     1       1.954  -6.221  -2.952  1.00  0.00     0.043 A 
ATOM     13  C   UNL     1      -0.322  -7.776  -3.011  1.00  0.00     0.029 A 
ATOM     14  C   UNL     1       0.798  -8.247  -3.687  1.00  0.00     0.055 A 
BRANCH  10  15
ATOM     15  N   UNL     1       0.743  -4.416  -1.867  1.00  0.00    -0.360 N 
ATOM     16  N   UNL     1       1.274  -2.118  -0.113  1.00  0.00    -0.332 N 
ATOM     17  C   UNL     1       0.416  -3.256   0.284  1.00  0.00     0.283 C 
ATOM     18  C   UNL     1       2.229  -2.580  -1.152  1.00  0.00     0.283 C 
ATOM     19  H   UNL     1       1.796  -1.794   0.702  1.00  0.00     0.348 HD
ATOM     20  C   UNL     1      -0.267  -4.013  -0.877  1.00  0.00     0.178 C 
ATOM     21  C   UNL     1       1.588  -3.317  -2.352  1.00  0.00     0.178 C 
BRANCH  16  22
ATOM     22  C   UNL     1       0.489  -0.966  -0.565  1.00  0.00     0.258 C 
ATOM     23  C   UNL     1       1.043   0.283   0.106  1.00  0.00     0.071 C 
ENDBRANCH  16  22
ENDBRANCH  10  15
BRANCH  14  24
ATOM     24  N   UNL     1       0.791  -9.450  -4.425  1.00  0.00    -0.325 N 
ATOM     25  C   UNL     1      -0.211 -10.194  -4.994  1.00  0.00     0.227 C 
ATOM     26  H   UNL     1       1.688  -9.834  -4.559  1.00  0.00     0.169 HD
ATOM     27  O   UNL     1       0.099 -11.293  -5.457  1.00  0.00    -0.274 OA
BRANCH  25  28
ATOM     28  C   UNL     1      -1.639  -9.675  -5.071  1.00  0.00     0.079 C 
ATOM     29  C   UNL     1      -1.769  -8.356  -5.836  1.00  0.00     0.013 C 
ATOM     30  C   UNL     1      -2.604 -10.563  -5.862  1.00  0.00     0.013 C 
ATOM     31  C   UNL     1      -3.270  -8.213  -6.013  1.00  0.00     0.001 C 
ATOM     32  C   UNL     1      -3.775  -9.640  -6.216  1.00  0.00     0.001 C 
ENDBRANCH  25  28
ENDBRANCH  14  24
ENDBRANCH   7   9
ENDBRANCH   6   7
ENDBRANCH   5   6
ENDBRANCH   4   5
ENDBRANCH   3   4
ENDBRANCH   2   3
ENDBRANCH   1   2
BRANCH   1  33
ATOM     33  O   UNL     1       3.723  -8.787   0.333  1.00  0.00    -0.376 OA
BRANCH  33  34
ATOM     34  C   UNL     1       4.453  -9.633   1.203  1.00  0.00     0.202 C 
BRANCH  34  35
ATOM     35  C   UNL     1       3.811 -10.825   1.923  1.00  0.00     0.261 C 
BRANCH  35  36
ATOM     36  O   UNL     1       2.977 -11.664   1.117  1.00  0.00    -0.460 OA
BRANCH  36  37
ATOM     37  C   UNL     1       1.657 -11.632   1.432  1.00  0.00     0.338 C 
ATOM     38  O   UNL     1       1.120 -10.959   2.294  1.00  0.00    -0.246 OA
BRANCH  37  39
ATOM     39  C   UNL     1       0.902 -12.428   0.449  1.00  0.00     0.060 A 
ATOM     40  C   UNL     1      -0.041 -11.780  -0.361  1.00  0.00     0.016 A 
ATOM     41  C   UNL     1       1.080 -13.809   0.373  1.00  0.00     0.016 A 
ATOM     42  C   UNL     1      -0.836 -12.521  -1.234  1.00  0.00     0.010 A 
ATOM     43  C   UNL     1       0.267 -14.552  -0.485  1.00  0.00     0.010 A 
ATOM     44  C   UNL     1      -0.716 -13.916  -1.266  1.00  0.00    -0.014 A 
BRANCH  44  45
ATOM     45  C   UNL     1      -1.737 -14.740  -1.957  1.00  0.00     0.031 A 
ATOM     46  C   UNL     1      -2.843 -15.340  -1.133  1.00  0.00     0.074 A 
ATOM     47  C   UNL     1      -1.676 -14.967  -3.280  1.00  0.00     0.049 A 
ATOM     48  N   UNL     1      -3.772 -16.190  -1.481  1.00  0.00    -0.248 NA
ATOM     49  C   UNL     1      -2.903 -14.925   0.279  1.00  0.00     0.031 C 
ATOM     50  C   UNL     1      -0.689 -14.395  -4.192  1.00  0.00     0.029 A 
ATOM     51  N   UNL     1      -2.458 -15.761  -4.083  1.00  0.00    -0.354 N 
ATOM     52  C   UNL     1      -4.516 -16.427  -0.331  1.00  0.00     0.074 A 
ATOM     53  C   UNL     1      -3.919 -15.646   0.730  1.00  0.00     0.031 C 
ATOM     54  C   UNL     1      -0.910 -14.875  -5.429  1.00  0.00     0.029 A 
ATOM     55  C   UNL     1      -2.025 -15.819  -5.386  1.00  0.00     0.049 A 
ATOM     56  H   UNL     1      -3.253 -16.242  -3.756  1.00  0.00     0.167 HD
ATOM     57  C   UNL     1      -5.599 -17.223  -0.176  1.00  0.00     0.037 A 
ATOM     58  C   UNL     1      -2.461 -16.573  -6.416  1.00  0.00     0.037 A 
ATOM     59  C   UNL     1      -6.183 -18.001  -1.237  1.00  0.00     0.049 A 
ATOM     60  C   UNL     1      -3.623 -17.512  -6.203  1.00  0.00     0.074 A 
ATOM     61  C   UNL     1      -7.285 -18.836  -1.185  1.00  0.00     0.029 A 
ATOM     62  N   UNL     1      -5.707 -18.047  -2.539  1.00  0.00    -0.354 N 
ATOM     63  N   UNL     1      -4.325 -17.724  -5.114  1.00  0.00    -0.248 NA
ATOM     64  C   UNL     1      -4.054 -18.314  -7.357  1.00  0.00     0.031 C 
ATOM     65  C   UNL     1      -7.446 -19.425  -2.443  1.00  0.00     0.029 A 
ATOM     66  C   UNL     1      -6.481 -18.911  -3.295  1.00  0.00     0.049 A 
ATOM     67  H   UNL     1      -4.934 -17.539  -2.876  1.00  0.00     0.167 HD
ATOM     68  C   UNL     1      -5.302 -18.652  -5.464  1.00  0.00     0.074 A 
ATOM     69  C   UNL     1      -5.100 -18.962  -6.864  1.00  0.00     0.031 C 
ATOM     70  C   UNL     1      -6.282 -19.193  -4.696  1.00  0.00     0.037 A 
BRANCH  57  71
ATOM     71  C   UNL     1      -6.199 -17.319   1.199  1.00  0.00     0.058 A 
ATOM     72  C   UNL     1      -6.903 -16.251   1.777  1.00  0.00     0.135 A 
ATOM     73  C   UNL     1      -6.086 -18.506   1.942  1.00  0.00     0.135 A 
ATOM     74  F   UNL     1      -7.024 -15.086   1.121  1.00  0.00    -0.206 F 
ATOM     75  C   UNL     1      -7.449 -16.346   3.054  1.00  0.00     0.059 A 
ATOM     76  C   UNL     1      -6.649 -18.633   3.208  1.00  0.00     0.059 A 
ATOM     77  F   UNL     1      -5.420 -19.557   1.439  1.00  0.00    -0.206 F 
ATOM     78  C   UNL     1      -7.316 -17.542   3.761  1.00  0.00     0.060 A 
BRANCH  78  79
ATOM     79  S   UNL     1      -8.030 -17.649   5.416  1.00  0.00     0.124 S 
ATOM     80  O   UNL     1      -7.114 -16.809   6.183  1.00  0.00    -0.237 OA
ATOM     81  O   UNL     1      -9.369 -17.105   5.213  1.00  0.00    -0.237 OA
ATOM     82  O   UNL     1      -7.975 -19.075   5.719  1.00  0.00    -0.744 OA
ENDBRANCH  78  79
ENDBRANCH  57  71
BRANCH  58  83
ATOM     83  C   UNL     1      -1.787 -16.486  -7.740  1.00  0.00     0.058 A 
ATOM     84  C   UNL     1      -2.437 -15.926  -8.849  1.00  0.00     0.135 A 
ATOM     85  C   UNL     1      -0.480 -16.966  -7.925  1.00  0.00     0.135 A 
ATOM     86  F   UNL     1      -3.693 -15.467  -8.729  1.00  0.00    -0.206 F 
ATOM     87  C   UNL     1      -1.825 -15.859 -10.098  1.00  0.00     0.059 A 
ATOM     88  C   UNL     1       0.163 -16.887  -9.157  1.00  0.00     0.059 A 
ATOM     89  F   UNL     1       0.188 -17.511  -6.897  1.00  0.00    -0.206 F 
ATOM     90  C   UNL     1      -0.523 -16.341 -10.241  1.00  0.00     0.060 A 
BRANCH  90  91
ATOM     91  S   UNL     1       0.272 -16.219 -11.859  1.00  0.00     0.124 S 
ATOM     92  O   UNL     1      -0.445 -17.239 -12.616  1.00  0.00    -0.237 OA
ATOM     93  O   UNL     1      -0.003 -14.836 -12.235  1.00  0.00    -0.237 OA
ATOM     94  O   UNL     1       1.672 -16.517 -11.571  1.00  0.00    -0.744 OA
ENDBRANCH  90  91
ENDBRANCH  58  83
BRANCH  70  95
ATOM     95  C   UNL     1      -7.257 -20.130  -5.356  1.00  0.00     0.058 A 
ATOM     96  C   UNL     1      -6.903 -21.438  -5.720  1.00  0.00     0.135 A 
ATOM     97  C   UNL     1      -8.592 -19.736  -5.547  1.00  0.00     0.135 A 
ATOM     98  F   UNL     1      -5.640 -21.865  -5.564  1.00  0.00    -0.206 F 
ATOM     99  C   UNL     1      -7.835 -22.318  -6.263  1.00  0.00     0.059 A 
ATOM    100  C   UNL     1      -9.547 -20.608  -6.061  1.00  0.00     0.059 A 
ATOM    101  F   UNL     1      -8.988 -18.499  -5.204  1.00  0.00    -0.206 F 
ATOM    102  C   UNL     1      -9.157 -21.896  -6.424  1.00  0.00     0.060 A 
BRANCH 102 103
ATOM    103  S   UNL     1     -10.368 -23.065  -7.076  1.00  0.00     0.124 S 
ATOM    104  O   UNL     1      -9.989 -23.129  -8.483  1.00  0.00    -0.237 OA
ATOM    105  O   UNL     1     -10.098 -24.266  -6.291  1.00  0.00    -0.237 OA
ATOM    106  O   UNL     1     -11.648 -22.419  -6.800  1.00  0.00    -0.744 OA
ENDBRANCH 102 103
ENDBRANCH  70  95
ENDBRANCH  44  45
ENDBRANCH  37  39
ENDBRANCH  36  37
ENDBRANCH  35  36
ENDBRANCH  34  35
ENDBRANCH  33  34
ENDBRANCH   1  33
TORSDOF 24
