REMARK SMILES O=C(OCCOCCOCCOC(=O)c1ccc(-c2c3nc(c(-c4c(F)cc(S(=O)(=O)[O-])cc4F)c4ccc([nH]4)c(-c4c(F)cc(S(=O)(=O)[O-])cc4F)c4nc(c(-c5c(F)cc(S(=O)(=O)[O-])cc5F)c5ccc2[nH]5)C=C4)C=C3)cc1)C1=Cc2cc(Cl)c(Cl)c(Cl)c2O[C@@H]1C(F)(F)F
REMARK SMILES IDX 8 1 7 2 6 3 5 4 4 5 3 6 2 7 1 8 81 9 82 10 93 11 83 12 92 13
REMARK SMILES IDX 84 14 91 15 85 16 89 17 86 18 87 19 90 20 88 21 94 22 95 23
REMARK SMILES IDX 96 24 97 25 9 26 10 27 11 28 12 29 13 30 14 31 15 32 16 33
REMARK SMILES IDX 80 34 17 35 79 36 18 37 19 38 20 39 73 40 21 41 78 42 72 43
REMARK SMILES IDX 74 44 22 45 77 46 71 47 70 48 23 50 57 51 36 52 56 53 37 54
REMARK SMILES IDX 40 55 55 56 75 57 38 58 39 59 54 61 76 62 41 63 24 64 25 65
REMARK SMILES IDX 34 66 26 67 27 68 33 69 35 70 28 71 29 72 30 73 31 74 32 75
REMARK SMILES IDX 58 76 59 77 68 78 60 79 61 80 67 81 69 82 62 83 63 84 64 85
REMARK SMILES IDX 65 86 66 87 42 88 43 89 52 90 44 91 45 92 51 93 53 94 46 95
REMARK SMILES IDX 47 96 48 97 49 98 50 99
REMARK H PARENT 74 49 40 60
REMARK Flexibility Score: inf
ROOT
ATOM      1  C   UNL     1       2.117  -0.849  -3.296  1.00  0.00     0.188 C 
ENDROOT
BRANCH   1   2
ATOM      2  C   UNL     1       2.396   0.241  -2.250  1.00  0.00     0.188 C 
BRANCH   2   3
ATOM      3  O   UNL     1       3.767   0.681  -1.878  1.00  0.00    -0.376 OA
BRANCH   3   4
ATOM      4  C   UNL     1       4.477   0.773  -0.321  1.00  0.00     0.202 C 
BRANCH   4   5
ATOM      5  C   UNL     1       3.778  -0.288   1.443  1.00  0.00     0.261 C 
BRANCH   5   6
ATOM      6  O   UNL     1       2.810   0.233   2.487  1.00  0.00    -0.460 OA
BRANCH   6   7
ATOM      7  C   UNL     1       2.975   1.544   2.711  1.00  0.00     0.338 C 
ATOM      8  O   UNL     1       2.262   2.281   3.344  1.00  0.00    -0.246 OA
BRANCH   7   9
ATOM      9  C   UNL     1       3.867   1.799   1.589  1.00  0.00     0.087 C 
ATOM     10  C   UNL     1       5.259   1.390   1.763  1.00  0.00     0.027 C 
ATOM     11  C   UNL     1       2.652   1.029   0.320  1.00  0.00     0.316 C 
ATOM     12  C   UNL     1       5.969  -0.101   1.048  1.00  0.00     0.020 A 
ATOM     13  O   UNL     1       3.329  -0.682  -0.334  1.00  0.00    -0.474 OA
ATOM     14  C   UNL     1       7.247  -0.450   1.381  1.00  0.00     0.034 A 
ATOM     15  C   UNL     1       5.045  -1.189   0.071  1.00  0.00     0.148 A 
ATOM     16  C   UNL     1       7.695  -1.682   0.858  1.00  0.00     0.062 A 
ATOM     17  C   UNL     1       5.545  -2.389  -0.375  1.00  0.00     0.103 A 
ATOM     18  Cl  UNL     1       9.336  -2.078   1.313  1.00  0.00    -0.083 Cl
ATOM     19  C   UNL     1       6.899  -2.606   0.026  1.00  0.00     0.082 A 
ATOM     20  Cl  UNL     1       4.610  -3.532  -1.228  1.00  0.00    -0.079 Cl
ATOM     21  Cl  UNL     1       7.689  -4.087  -0.488  1.00  0.00    -0.081 Cl
BRANCH  11  22
ATOM     22  C   UNL     1       2.385   2.513  -0.430  1.00  0.00     0.430 C 
ATOM     23  F   UNL     1       2.376   2.636  -1.755  1.00  0.00    -0.167 F 
ATOM     24  F   UNL     1       1.191   2.996   0.003  1.00  0.00    -0.167 F 
ATOM     25  F   UNL     1       3.302   3.448  -0.032  1.00  0.00    -0.167 F 
ENDBRANCH  11  22
ENDBRANCH   7   9
ENDBRANCH   6   7
ENDBRANCH   5   6
ENDBRANCH   4   5
ENDBRANCH   3   4
ENDBRANCH   2   3
ENDBRANCH   1   2
BRANCH   1  26
ATOM     26  O   UNL     1       3.088  -1.828  -3.554  1.00  0.00    -0.376 OA
BRANCH  26  27
ATOM     27  C   UNL     1       4.380  -1.349  -3.893  1.00  0.00     0.202 C 
BRANCH  27  28
ATOM     28  C   UNL     1       4.496  -0.352  -5.056  1.00  0.00     0.261 C 
BRANCH  28  29
ATOM     29  O   UNL     1       3.994   0.968  -4.756  1.00  0.00    -0.460 OA
BRANCH  29  30
ATOM     30  C   UNL     1       2.930   1.404  -5.478  1.00  0.00     0.338 C 
ATOM     31  O   UNL     1       2.323   0.791  -6.339  1.00  0.00    -0.246 OA
BRANCH  30  32
ATOM     32  C   UNL     1       2.503   2.725  -4.974  1.00  0.00     0.060 A 
ATOM     33  C   UNL     1       1.214   2.885  -4.443  1.00  0.00     0.016 A 
ATOM     34  C   UNL     1       3.363   3.817  -5.080  1.00  0.00     0.016 A 
ATOM     35  C   UNL     1       0.791   4.138  -3.991  1.00  0.00     0.010 A 
ATOM     36  C   UNL     1       2.923   5.078  -4.675  1.00  0.00     0.010 A 
ATOM     37  C   UNL     1       1.630   5.248  -4.147  1.00  0.00    -0.014 A 
BRANCH  37  38
ATOM     38  C   UNL     1       1.077   6.617  -4.013  1.00  0.00     0.031 A 
ATOM     39  C   UNL     1       0.543   7.271  -5.258  1.00  0.00     0.074 A 
ATOM     40  C   UNL     1       1.068   7.271  -2.838  1.00  0.00     0.049 A 
ATOM     41  N   UNL     1       0.081   8.480  -5.431  1.00  0.00    -0.248 NA
ATOM     42  C   UNL     1       0.543   6.444  -6.479  1.00  0.00     0.031 C 
ATOM     43  C   UNL     1       1.527   6.727  -1.562  1.00  0.00     0.029 A 
ATOM     44  N   UNL     1       0.668   8.550  -2.534  1.00  0.00    -0.354 N 
ATOM     45  C   UNL     1      -0.261   8.561  -6.776  1.00  0.00     0.074 A 
ATOM     46  C   UNL     1       0.080   7.293  -7.382  1.00  0.00     0.031 C 
ATOM     47  C   UNL     1       1.399   7.673  -0.614  1.00  0.00     0.029 A 
ATOM     48  C   UNL     1       0.883   8.900  -1.221  1.00  0.00     0.049 A 
ATOM     49  H   UNL     1       0.266   9.159  -3.194  1.00  0.00     0.167 HD
ATOM     50  C   UNL     1      -0.813   9.599  -7.445  1.00  0.00     0.037 A 
ATOM     51  C   UNL     1       0.705  10.082  -0.595  1.00  0.00     0.037 A 
ATOM     52  C   UNL     1      -1.123  10.865  -6.836  1.00  0.00     0.049 A 
ATOM     53  C   UNL     1       0.161  11.253  -1.380  1.00  0.00     0.074 A 
ATOM     54  C   UNL     1      -1.694  11.981  -7.419  1.00  0.00     0.029 A 
ATOM     55  N   UNL     1      -0.872  11.188  -5.510  1.00  0.00    -0.354 N 
ATOM     56  N   UNL     1      -0.191  11.310  -2.644  1.00  0.00    -0.248 NA
ATOM     57  C   UNL     1      -0.014  12.520  -0.656  1.00  0.00     0.031 C 
ATOM     58  C   UNL     1      -1.719  13.003  -6.467  1.00  0.00     0.029 A 
ATOM     59  C   UNL     1      -1.247  12.498  -5.265  1.00  0.00     0.049 A 
ATOM     60  H   UNL     1      -0.486  10.577  -4.842  1.00  0.00     0.167 HD
ATOM     61  C   UNL     1      -0.666  12.602  -2.853  1.00  0.00     0.074 A 
ATOM     62  C   UNL     1      -0.562  13.292  -1.585  1.00  0.00     0.031 C 
ATOM     63  C   UNL     1      -1.149  13.166  -3.990  1.00  0.00     0.037 A 
BRANCH  50  64
ATOM     64  C   UNL     1      -1.078   9.421  -8.916  1.00  0.00     0.058 A 
ATOM     65  C   UNL     1      -2.060   8.538  -9.393  1.00  0.00     0.135 A 
ATOM     66  C   UNL     1      -0.357  10.168  -9.862  1.00  0.00     0.135 A 
ATOM     67  F   UNL     1      -2.764   7.780  -8.536  1.00  0.00    -0.206 F 
ATOM     68  C   UNL     1      -2.302   8.385 -10.754  1.00  0.00     0.059 A 
ATOM     69  C   UNL     1      -0.607  10.058 -11.226  1.00  0.00     0.059 A 
ATOM     70  F   UNL     1       0.601  11.020  -9.463  1.00  0.00    -0.206 F 
ATOM     71  C   UNL     1      -1.574   9.155 -11.663  1.00  0.00     0.060 A 
BRANCH  71  72
ATOM     72  S   UNL     1      -1.920   8.962 -13.423  1.00  0.00     0.124 S 
ATOM     73  O   UNL     1      -1.415   7.616 -13.675  1.00  0.00    -0.237 OA
ATOM     74  O   UNL     1      -3.370   9.114 -13.471  1.00  0.00    -0.237 OA
ATOM     75  O   UNL     1      -1.158  10.042 -14.041  1.00  0.00    -0.744 OA
ENDBRANCH  71  72
ENDBRANCH  50  64
BRANCH  51  76
ATOM     76  C   UNL     1       1.052  10.231   0.848  1.00  0.00     0.058 A 
ATOM     77  C   UNL     1       0.067  10.486   1.815  1.00  0.00     0.135 A 
ATOM     78  C   UNL     1       2.383  10.140   1.289  1.00  0.00     0.135 A 
ATOM     79  F   UNL     1      -1.219  10.601   1.447  1.00  0.00    -0.206 F 
ATOM     80  C   UNL     1       0.386  10.664   3.158  1.00  0.00     0.059 A 
ATOM     81  C   UNL     1       2.724  10.280   2.631  1.00  0.00     0.059 A 
ATOM     82  F   UNL     1       3.368   9.896   0.411  1.00  0.00    -0.206 F 
ATOM     83  C   UNL     1       1.719  10.553   3.558  1.00  0.00     0.060 A 
BRANCH  83  84
ATOM     84  S   UNL     1       2.117  10.739   5.310  1.00  0.00     0.124 S 
ATOM     85  O   UNL     1       1.857  12.157   5.524  1.00  0.00    -0.237 OA
ATOM     86  O   UNL     1       1.175   9.815   5.936  1.00  0.00    -0.237 OA
ATOM     87  O   UNL     1       3.519  10.338   5.382  1.00  0.00    -0.744 OA
ENDBRANCH  83  84
ENDBRANCH  51  76
BRANCH  63  88
ATOM     88  C   UNL     1      -1.662  14.582  -3.911  1.00  0.00     0.058 A 
ATOM     89  C   UNL     1      -0.807  15.679  -3.726  1.00  0.00     0.135 A 
ATOM     90  C   UNL     1      -3.030  14.845  -4.097  1.00  0.00     0.135 A 
ATOM     91  F   UNL     1       0.509  15.489  -3.541  1.00  0.00    -0.206 F 
ATOM     92  C   UNL     1      -1.293  16.983  -3.701  1.00  0.00     0.059 A 
ATOM     93  C   UNL     1      -3.532  16.142  -4.115  1.00  0.00     0.059 A 
ATOM     94  F   UNL     1      -3.893  13.835  -4.291  1.00  0.00    -0.206 F 
ATOM     95  C   UNL     1      -2.657  17.204  -3.904  1.00  0.00     0.060 A 
BRANCH  95  96
ATOM     96  S   UNL     1      -3.265  18.904  -3.910  1.00  0.00     0.124 S 
ATOM     97  O   UNL     1      -3.115  19.277  -2.508  1.00  0.00    -0.237 OA
ATOM     98  O   UNL     1      -2.350  19.556  -4.842  1.00  0.00    -0.237 OA
ATOM     99  O   UNL     1      -4.641  18.773  -4.380  1.00  0.00    -0.744 OA
ENDBRANCH  95  96
ENDBRANCH  63  88
ENDBRANCH  37  38
ENDBRANCH  30  32
ENDBRANCH  29  30
ENDBRANCH  28  29
ENDBRANCH  27  28
ENDBRANCH  26  27
ENDBRANCH   1  26
TORSDOF 21
