REMARK SMILES [NH3+]Cc1c(-c2ccccc2)c(C(=O)OCCOCCOCCOC(=O)c2ccc(-c3c4nc(c(-c5c(F)cc(S(=O)(=O)[O-])cc5F)c5ccc([nH]5)c(-c5c(F)cc(S(=O)(=O)[O-])cc5F)c5nc(c(-c6c(F)cc(S(=O)(=O)[O-])cc6F)c6ccc3[nH]6)C=C5)C=C4)cc2)c2ccccn12
REMARK SMILES IDX 19 1 18 2 17 3 16 4 15 5 14 6 12 7 13 8 11 9 3 10 4 11 97 12
REMARK SMILES IDX 92 13 96 14 93 15 95 16 94 17 2 18 1 19 5 23 6 24 10 25 7 26
REMARK SMILES IDX 9 27 8 28 20 29 21 30 22 31 23 32 24 33 25 34 26 35 27 36
REMARK SMILES IDX 91 37 28 38 90 39 29 40 30 41 31 42 84 43 32 44 89 45 83 46
REMARK SMILES IDX 85 47 33 48 88 49 82 50 81 51 34 53 68 54 47 55 67 56 48 57
REMARK SMILES IDX 51 58 66 59 86 60 49 61 50 62 65 64 87 65 52 66 35 67 36 68
REMARK SMILES IDX 45 69 37 70 38 71 44 72 46 73 39 74 40 75 41 76 42 77 43 78
REMARK SMILES IDX 69 79 70 80 79 81 71 82 72 83 78 84 80 85 73 86 74 87 75 88
REMARK SMILES IDX 76 89 77 90 53 91 54 92 63 93 55 94 56 95 62 96 64 97 57 98
REMARK SMILES IDX 58 99 59 100 60 101 61 102
REMARK H PARENT 1 20 1 21 1 22 85 52 51 63
REMARK Flexibility Score: inf
ROOT
ATOM      1  C   UNL     1       1.120  -6.318   1.097  1.00  0.00     0.188 C 
ENDROOT
BRANCH   1   2
ATOM      2  C   UNL     1      -0.036  -7.183   0.566  1.00  0.00     0.188 C 
BRANCH   2   3
ATOM      3  O   UNL     1       0.404  -8.393  -0.049  1.00  0.00    -0.376 OA
BRANCH   3   4
ATOM      4  C   UNL     1       0.122  -8.487  -1.443  1.00  0.00     0.202 C 
BRANCH   4   5
ATOM      5  C   UNL     1       1.330  -8.046  -2.270  1.00  0.00     0.261 C 
BRANCH   5   6
ATOM      6  O   UNL     1       1.693  -6.672  -2.063  1.00  0.00    -0.460 OA
BRANCH   6   7
ATOM      7  C   UNL     1       0.849  -5.737  -2.581  1.00  0.00     0.341 C 
ATOM      8  O   UNL     1      -0.147  -6.022  -3.234  1.00  0.00    -0.246 OA
BRANCH   7   9
ATOM      9  C   UNL     1       1.229  -4.371  -2.219  1.00  0.00     0.093 A 
ATOM     10  C   UNL     1       1.099  -2.141  -1.687  1.00  0.00     0.086 A 
ATOM     11  C   UNL     1       0.343  -3.267  -1.986  1.00  0.00     0.024 A 
ATOM     12  N   UNL     1       2.434  -2.513  -1.771  1.00  0.00    -0.314 N 
ATOM     13  C   UNL     1       2.511  -3.886  -2.008  1.00  0.00     0.061 A 
ATOM     14  C   UNL     1       3.579  -1.716  -1.633  1.00  0.00     0.092 A 
ATOM     15  C   UNL     1       3.812  -4.478  -2.023  1.00  0.00     0.027 A 
ATOM     16  C   UNL     1       4.799  -2.276  -1.684  1.00  0.00     0.018 A 
ATOM     17  C   UNL     1       4.904  -3.710  -1.862  1.00  0.00     0.004 A 
BRANCH  10  18
ATOM     18  C   UNL     1       0.670  -0.752  -1.346  1.00  0.00     0.315 C 
BRANCH  18  19
ATOM     19  N   UNL     1       0.892  -0.472   0.066  1.00  0.00    -0.353 N 
ATOM     20  H   UNL     1       0.593   0.480   0.275  1.00  0.00     0.344 HD
ATOM     21  H   UNL     1       1.884  -0.571   0.280  1.00  0.00     0.344 HD
ATOM     22  H   UNL     1       0.355  -1.129   0.631  1.00  0.00     0.344 HD
ENDBRANCH  18  19
ENDBRANCH  10  18
BRANCH  11  23
ATOM     23  C   UNL     1      -1.108  -3.325  -1.973  1.00  0.00    -0.015 A 
ATOM     24  C   UNL     1      -1.734  -4.113  -1.004  1.00  0.00     0.009 A 
ATOM     25  C   UNL     1      -1.865  -2.766  -3.005  1.00  0.00     0.009 A 
ATOM     26  C   UNL     1      -3.076  -4.452  -1.140  1.00  0.00     0.001 A 
ATOM     27  C   UNL     1      -3.230  -3.046  -3.095  1.00  0.00     0.001 A 
ATOM     28  C   UNL     1      -3.825  -3.916  -2.183  1.00  0.00     0.000 A 
ENDBRANCH  11  23
ENDBRANCH   7   9
ENDBRANCH   6   7
ENDBRANCH   5   6
ENDBRANCH   4   5
ENDBRANCH   3   4
ENDBRANCH   2   3
ENDBRANCH   1   2
BRANCH   1  29
ATOM     29  O   UNL     1       2.159  -6.922   1.866  1.00  0.00    -0.376 OA
BRANCH  29  30
ATOM     30  C   UNL     1       1.875  -8.115   2.580  1.00  0.00     0.202 C 
BRANCH  30  31
ATOM     31  C   UNL     1       1.110  -7.951   3.895  1.00  0.00     0.261 C 
BRANCH  31  32
ATOM     32  O   UNL     1      -0.123  -7.227   3.759  1.00  0.00    -0.460 OA
BRANCH  32  33
ATOM     33  C   UNL     1      -0.071  -5.937   4.172  1.00  0.00     0.338 C 
ATOM     34  O   UNL     1       0.892  -5.357   4.644  1.00  0.00    -0.246 OA
BRANCH  33  35
ATOM     35  C   UNL     1      -1.344  -5.248   3.866  1.00  0.00     0.060 A 
ATOM     36  C   UNL     1      -1.274  -3.949   3.346  1.00  0.00     0.016 A 
ATOM     37  C   UNL     1      -2.585  -5.821   4.161  1.00  0.00     0.016 A 
ATOM     38  C   UNL     1      -2.440  -3.204   3.163  1.00  0.00     0.010 A 
ATOM     39  C   UNL     1      -3.752  -5.065   3.995  1.00  0.00     0.010 A 
ATOM     40  C   UNL     1      -3.682  -3.742   3.528  1.00  0.00    -0.014 A 
BRANCH  40  41
ATOM     41  C   UNL     1      -4.878  -2.862   3.555  1.00  0.00     0.031 A 
ATOM     42  C   UNL     1      -5.191  -2.092   4.802  1.00  0.00     0.074 A 
ATOM     43  C   UNL     1      -5.669  -2.727   2.477  1.00  0.00     0.049 A 
ATOM     44  N   UNL     1      -6.164  -1.250   5.027  1.00  0.00    -0.248 NA
ATOM     45  C   UNL     1      -4.298  -2.312   5.949  1.00  0.00     0.031 C 
ATOM     46  C   UNL     1      -5.473  -3.435   1.222  1.00  0.00     0.029 A 
ATOM     47  N   UNL     1      -6.782  -1.956   2.255  1.00  0.00    -0.354 N 
ATOM     48  C   UNL     1      -6.012  -0.845   6.345  1.00  0.00     0.074 A 
ATOM     49  C   UNL     1      -4.857  -1.543   6.872  1.00  0.00     0.031 C 
ATOM     50  C   UNL     1      -6.407  -3.044   0.342  1.00  0.00     0.029 A 
ATOM     51  C   UNL     1      -7.294  -2.080   0.985  1.00  0.00     0.049 A 
ATOM     52  H   UNL     1      -7.175  -1.368   2.940  1.00  0.00     0.167 HD
ATOM     53  C   UNL     1      -6.773   0.022   7.053  1.00  0.00     0.037 A 
ATOM     54  C   UNL     1      -8.361  -1.495   0.407  1.00  0.00     0.037 A 
ATOM     55  C   UNL     1      -7.935   0.693   6.535  1.00  0.00     0.049 A 
ATOM     56  C   UNL     1      -9.195  -0.540   1.214  1.00  0.00     0.074 A 
ATOM     57  C   UNL     1      -8.771   1.588   7.180  1.00  0.00     0.029 A 
ATOM     58  N   UNL     1      -8.436   0.535   5.251  1.00  0.00    -0.354 N 
ATOM     59  N   UNL     1      -9.024  -0.148   2.454  1.00  0.00    -0.248 NA
ATOM     60  C   UNL     1     -10.373   0.040   0.555  1.00  0.00     0.031 C 
ATOM     61  C   UNL     1      -9.799   1.940   6.298  1.00  0.00     0.029 A 
ATOM     62  C   UNL     1      -9.581   1.298   5.090  1.00  0.00     0.049 A 
ATOM     63  H   UNL     1      -8.036  -0.037   4.556  1.00  0.00     0.167 HD
ATOM     64  C   UNL     1     -10.072   0.723   2.725  1.00  0.00     0.074 A 
ATOM     65  C   UNL     1     -10.858   0.821   1.511  1.00  0.00     0.031 C 
ATOM     66  C   UNL     1     -10.360   1.376   3.878  1.00  0.00     0.037 A 
BRANCH  53  67
ATOM     67  C   UNL     1      -6.384   0.243   8.485  1.00  0.00     0.058 A 
ATOM     68  C   UNL     1      -5.253   0.997   8.834  1.00  0.00     0.135 A 
ATOM     69  C   UNL     1      -7.138  -0.331   9.520  1.00  0.00     0.135 A 
ATOM     70  F   UNL     1      -4.486   1.546   7.879  1.00  0.00    -0.206 F 
ATOM     71  C   UNL     1      -4.861   1.144  10.160  1.00  0.00     0.059 A 
ATOM     72  C   UNL     1      -6.778  -0.178  10.855  1.00  0.00     0.059 A 
ATOM     73  F   UNL     1      -8.225  -1.067   9.238  1.00  0.00    -0.206 F 
ATOM     74  C   UNL     1      -5.625   0.544  11.163  1.00  0.00     0.060 A 
BRANCH  74  75
ATOM     75  S   UNL     1      -5.089   0.710  12.878  1.00  0.00     0.124 S 
ATOM     76  O   UNL     1      -3.986  -0.245  12.930  1.00  0.00    -0.237 OA
ATOM     77  O   UNL     1      -4.712   2.118  12.956  1.00  0.00    -0.237 OA
ATOM     78  O   UNL     1      -6.277   0.340  13.641  1.00  0.00    -0.744 OA
ENDBRANCH  74  75
ENDBRANCH  53  67
BRANCH  54  79
ATOM     79  C   UNL     1      -8.700  -1.800  -1.010  1.00  0.00     0.058 A 
ATOM     80  C   UNL     1      -8.517  -0.842  -2.018  1.00  0.00     0.135 A 
ATOM     81  C   UNL     1      -9.188  -3.060  -1.388  1.00  0.00     0.135 A 
ATOM     82  F   UNL     1      -8.065   0.382  -1.706  1.00  0.00    -0.206 F 
ATOM     83  C   UNL     1      -8.804  -1.122  -3.350  1.00  0.00     0.059 A 
ATOM     84  C   UNL     1      -9.461  -3.371  -2.716  1.00  0.00     0.059 A 
ATOM     85  F   UNL     1      -9.371  -4.015  -0.463  1.00  0.00    -0.206 F 
ATOM     86  C   UNL     1      -9.270  -2.393  -3.691  1.00  0.00     0.060 A 
BRANCH  86  87
ATOM     87  S   UNL     1      -9.566  -2.776  -5.431  1.00  0.00     0.124 S 
ATOM     88  O   UNL     1     -10.838  -2.105  -5.668  1.00  0.00    -0.237 OA
ATOM     89  O   UNL     1      -8.400  -2.183  -6.080  1.00  0.00    -0.237 OA
ATOM     90  O   UNL     1      -9.605  -4.235  -5.448  1.00  0.00    -0.744 OA
ENDBRANCH  86  87
ENDBRANCH  54  79
BRANCH  66  91
ATOM     91  C   UNL     1     -11.578   2.255   3.883  1.00  0.00     0.058 A 
ATOM     92  C   UNL     1     -12.872   1.713   3.936  1.00  0.00     0.135 A 
ATOM     93  C   UNL     1     -11.450   3.652   3.884  1.00  0.00     0.135 A 
ATOM     94  F   UNL     1     -13.048   0.382   3.929  1.00  0.00    -0.206 F 
ATOM     95  C   UNL     1     -13.999   2.528   3.971  1.00  0.00     0.059 A 
ATOM     96  C   UNL     1     -12.562   4.486   3.940  1.00  0.00     0.059 A 
ATOM     97  F   UNL     1     -10.233   4.220   3.842  1.00  0.00    -0.206 F 
ATOM     98  C   UNL     1     -13.833   3.914   3.973  1.00  0.00     0.060 A 
BRANCH  98  99
ATOM     99  S   UNL     1     -15.300   4.964   4.055  1.00  0.00     0.124 S 
ATOM    100  O   UNL     1     -15.796   4.883   2.685  1.00  0.00    -0.237 OA
ATOM    101  O   UNL     1     -16.113   4.291   5.064  1.00  0.00    -0.237 OA
ATOM    102  O   UNL     1     -14.766   6.262   4.455  1.00  0.00    -0.744 OA
ENDBRANCH  98  99
ENDBRANCH  66  91
ENDBRANCH  40  41
ENDBRANCH  33  35
ENDBRANCH  32  33
ENDBRANCH  31  32
ENDBRANCH  30  31
ENDBRANCH  29  30
ENDBRANCH   1  29
TORSDOF 23
