REMARK SMILES O=C(OCCOCCOCCOC(=O)[C@@H]1CC=CC[C@@H]1C(=O)N1CCN(C(=O)c2sc3cc([N+](=O)[O-])ccc3c2Cl)CC1)c1ccc(-c2c3nc(c(-c4c(F)cc(S(=O)(=O)[O-])cc4F)c4ccc([nH]4)c(-c4c(F)cc(S(=O)(=O)[O-])cc4F)c4nc(c(-c5c(F)cc(S(=O)(=O)[O-])cc5F)c5ccc2[nH]5)C=C4)C=C3)cc1
REMARK SMILES IDX 7 1 6 2 5 3 4 4 3 5 2 6 1 7 44 8 45 9 109 10 46 11 108 12
REMARK SMILES IDX 47 13 48 14 49 15 102 16 50 17 107 18 101 19 103 20 51 21
REMARK SMILES IDX 106 22 100 23 99 24 52 26 86 27 65 28 85 29 66 30 69 31
REMARK SMILES IDX 84 32 104 33 67 34 68 35 83 37 105 38 70 39 53 40 54 41
REMARK SMILES IDX 63 42 55 43 56 44 62 45 64 46 57 47 58 48 59 49 60 50 61 51
REMARK SMILES IDX 87 52 88 53 97 54 89 55 90 56 96 57 98 58 91 59 92 60 93 61
REMARK SMILES IDX 94 62 95 63 71 64 72 65 81 66 73 67 74 68 80 69 82 70 75 71
REMARK SMILES IDX 76 72 77 73 78 74 79 75 8 76 9 77 10 78 11 79 12 80 13 81
REMARK SMILES IDX 14 82 15 83 16 84 20 85 17 86 19 87 18 88 21 89 22 90 23 91
REMARK SMILES IDX 24 92 43 93 25 94 42 95 26 96 27 97 28 98 29 99 30 100
REMARK SMILES IDX 40 101 31 102 39 103 41 104 32 105 38 106 33 107 37 108
REMARK SMILES IDX 34 109 35 110 36 111
REMARK H PARENT 103 25 69 36
REMARK Flexibility Score: inf
ROOT
ATOM      1  C   UNL     1      -0.673  -5.445   1.890  1.00  0.00     0.188 C 
ENDROOT
BRANCH   1   2
ATOM      2  O   UNL     1      -0.322  -6.665   1.254  1.00  0.00    -0.376 OA
BRANCH   2   3
ATOM      3  C   UNL     1      -0.693  -7.833   1.974  1.00  0.00     0.202 C 
BRANCH   3   4
ATOM      4  C   UNL     1       0.206  -8.074   3.192  1.00  0.00     0.261 C 
BRANCH   4   5
ATOM      5  O   UNL     1       1.534  -8.474   2.809  1.00  0.00    -0.460 OA
BRANCH   5   6
ATOM      6  C   UNL     1       2.268  -7.495   2.223  1.00  0.00     0.338 C 
ATOM      7  O   UNL     1       2.600  -6.450   2.755  1.00  0.00    -0.246 OA
BRANCH   6   8
ATOM      8  C   UNL     1       2.471  -7.840   0.792  1.00  0.00     0.060 A 
ATOM      9  C   UNL     1       3.071  -6.902  -0.043  1.00  0.00     0.016 A 
ATOM     10  C   UNL     1       1.915  -9.017   0.251  1.00  0.00     0.016 A 
ATOM     11  C   UNL     1       3.055  -7.126  -1.413  1.00  0.00     0.010 A 
ATOM     12  C   UNL     1       1.839  -9.206  -1.120  1.00  0.00     0.010 A 
ATOM     13  C   UNL     1       2.394  -8.248  -1.956  1.00  0.00    -0.014 A 
BRANCH  13  14
ATOM     14  C   UNL     1       2.619  -8.532  -3.373  1.00  0.00     0.031 A 
ATOM     15  C   UNL     1       4.051  -8.782  -3.606  1.00  0.00     0.074 A 
ATOM     16  C   UNL     1       1.714  -8.731  -4.354  1.00  0.00     0.049 A 
ATOM     17  N   UNL     1       4.888  -8.054  -4.264  1.00  0.00    -0.248 NA
ATOM     18  C   UNL     1       4.660  -9.884  -2.834  1.00  0.00     0.031 C 
ATOM     19  C   UNL     1       0.279  -8.882  -4.152  1.00  0.00     0.029 A 
ATOM     20  N   UNL     1       1.867  -8.896  -5.716  1.00  0.00    -0.354 N 
ATOM     21  C   UNL     1       6.049  -8.810  -4.252  1.00  0.00     0.074 A 
ATOM     22  C   UNL     1       5.940  -9.763  -3.177  1.00  0.00     0.031 C 
ATOM     23  C   UNL     1      -0.301  -9.218  -5.320  1.00  0.00     0.029 A 
ATOM     24  C   UNL     1       0.698  -9.285  -6.375  1.00  0.00     0.049 A 
ATOM     25  H   UNL     1       2.722  -8.752  -6.181  1.00  0.00     0.167 HD
ATOM     26  C   UNL     1       6.777  -8.922  -5.389  1.00  0.00     0.037 A 
ATOM     27  C   UNL     1       0.515  -9.662  -7.672  1.00  0.00     0.037 A 
ATOM     28  C   UNL     1       6.563  -7.830  -6.291  1.00  0.00     0.049 A 
ATOM     29  C   UNL     1       1.681  -9.196  -8.476  1.00  0.00     0.074 A 
ATOM     30  C   UNL     1       6.870  -6.490  -6.266  1.00  0.00     0.029 A 
ATOM     31  N   UNL     1       5.591  -8.012  -7.240  1.00  0.00    -0.354 N 
ATOM     32  N   UNL     1       1.917  -7.953  -8.794  1.00  0.00    -0.248 NA
ATOM     33  C   UNL     1       2.786 -10.112  -8.736  1.00  0.00     0.031 C 
ATOM     34  C   UNL     1       5.976  -5.857  -7.169  1.00  0.00     0.029 A 
ATOM     35  C   UNL     1       5.178  -6.819  -7.792  1.00  0.00     0.049 A 
ATOM     36  H   UNL     1       5.232  -8.892  -7.498  1.00  0.00     0.167 HD
ATOM     37  C   UNL     1       3.283  -7.858  -8.962  1.00  0.00     0.074 A 
ATOM     38  C   UNL     1       3.747  -9.237  -9.043  1.00  0.00     0.031 C 
ATOM     39  C   UNL     1       3.974  -6.724  -8.633  1.00  0.00     0.037 A 
BRANCH  26  40
ATOM     40  C   UNL     1       7.278 -10.264  -5.826  1.00  0.00     0.058 A 
ATOM     41  C   UNL     1       8.422 -10.374  -6.620  1.00  0.00     0.135 A 
ATOM     42  C   UNL     1       6.521 -11.447  -5.639  1.00  0.00     0.135 A 
ATOM     43  F   UNL     1       9.154  -9.287  -6.908  1.00  0.00    -0.206 F 
ATOM     44  C   UNL     1       8.812 -11.595  -7.170  1.00  0.00     0.059 A 
ATOM     45  C   UNL     1       6.926 -12.682  -6.113  1.00  0.00     0.059 A 
ATOM     46  F   UNL     1       5.314 -11.424  -5.056  1.00  0.00    -0.206 F 
ATOM     47  C   UNL     1       8.062 -12.742  -6.901  1.00  0.00     0.060 A 
BRANCH  47  48
ATOM     48  S   UNL     1       8.546 -14.316  -7.626  1.00  0.00     0.124 S 
ATOM     49  O   UNL     1       8.121 -14.137  -9.009  1.00  0.00    -0.237 OA
ATOM     50  O   UNL     1       9.987 -14.329  -7.392  1.00  0.00    -0.237 OA
ATOM     51  O   UNL     1       7.785 -15.289  -6.848  1.00  0.00    -0.744 OA
ENDBRANCH  47  48
ENDBRANCH  26  40
BRANCH  27  52
ATOM     52  C   UNL     1      -0.592 -10.485  -8.270  1.00  0.00     0.058 A 
ATOM     53  C   UNL     1      -0.750 -10.630  -9.665  1.00  0.00     0.135 A 
ATOM     54  C   UNL     1      -1.415 -11.328  -7.491  1.00  0.00     0.135 A 
ATOM     55  F   UNL     1       0.004  -9.913 -10.512  1.00  0.00    -0.206 F 
ATOM     56  C   UNL     1      -1.627 -11.568 -10.236  1.00  0.00     0.059 A 
ATOM     57  C   UNL     1      -2.334 -12.224  -8.034  1.00  0.00     0.059 A 
ATOM     58  F   UNL     1      -1.284 -11.406  -6.160  1.00  0.00    -0.206 F 
ATOM     59  C   UNL     1      -2.405 -12.374  -9.408  1.00  0.00     0.060 A 
BRANCH  59  60
ATOM     60  S   UNL     1      -3.373 -13.733 -10.105  1.00  0.00     0.124 S 
ATOM     61  O   UNL     1      -4.351 -13.031 -10.928  1.00  0.00    -0.237 OA
ATOM     62  O   UNL     1      -2.354 -14.489 -10.827  1.00  0.00    -0.237 OA
ATOM     63  O   UNL     1      -3.918 -14.403  -8.927  1.00  0.00    -0.744 OA
ENDBRANCH  59  60
ENDBRANCH  27  52
BRANCH  39  64
ATOM     64  C   UNL     1       3.417  -5.341  -8.965  1.00  0.00     0.058 A 
ATOM     65  C   UNL     1       2.088  -4.906  -8.829  1.00  0.00     0.135 A 
ATOM     66  C   UNL     1       4.323  -4.345  -9.398  1.00  0.00     0.135 A 
ATOM     67  F   UNL     1       1.109  -5.721  -8.416  1.00  0.00    -0.206 F 
ATOM     68  C   UNL     1       1.711  -3.566  -8.998  1.00  0.00     0.059 A 
ATOM     69  C   UNL     1       3.982  -2.995  -9.521  1.00  0.00     0.059 A 
ATOM     70  F   UNL     1       5.594  -4.669  -9.695  1.00  0.00    -0.206 F 
ATOM     71  C   UNL     1       2.672  -2.607  -9.288  1.00  0.00     0.060 A 
BRANCH  71  72
ATOM     72  S   UNL     1       2.179  -0.874  -9.393  1.00  0.00     0.124 S 
ATOM     73  O   UNL     1       0.999  -0.936 -10.251  1.00  0.00    -0.237 OA
ATOM     74  O   UNL     1       1.914  -0.527  -8.002  1.00  0.00    -0.237 OA
ATOM     75  O   UNL     1       3.342  -0.224  -9.993  1.00  0.00    -0.744 OA
ENDBRANCH  71  72
ENDBRANCH  39  64
ENDBRANCH  13  14
ENDBRANCH   6   8
ENDBRANCH   5   6
ENDBRANCH   4   5
ENDBRANCH   3   4
ENDBRANCH   2   3
ENDBRANCH   1   2
BRANCH   1  76
ATOM     76  C   UNL     1      -0.966  -4.373   0.850  1.00  0.00     0.188 C 
BRANCH  76  77
ATOM     77  O   UNL     1      -1.954  -4.742  -0.092  1.00  0.00    -0.376 OA
BRANCH  77  78
ATOM     78  C   UNL     1      -1.621  -5.617  -1.163  1.00  0.00     0.202 C 
BRANCH  78  79
ATOM     79  C   UNL     1      -0.201  -6.025  -1.579  1.00  0.00     0.261 C 
BRANCH  79  80
ATOM     80  O   UNL     1       0.923  -5.131  -1.637  1.00  0.00    -0.463 OA
BRANCH  80  81
ATOM     81  C   UNL     1       0.803  -3.813  -1.918  1.00  0.00     0.310 C 
ATOM     82  O   UNL     1      -0.248  -3.229  -2.034  1.00  0.00    -0.252 OA
BRANCH  81  83
ATOM     83  C   UNL     1       2.183  -3.147  -1.907  1.00  0.00     0.115 C 
ATOM     84  C   UNL     1       1.983  -1.639  -1.682  1.00  0.00     0.043 C 
ATOM     85  C   UNL     1       3.099  -3.446  -3.113  1.00  0.00     0.097 C 
ATOM     86  C   UNL     1       3.190  -0.802  -1.970  1.00  0.00    -0.030 C 
ATOM     87  C   UNL     1       4.457  -2.731  -2.929  1.00  0.00     0.041 C 
ATOM     88  C   UNL     1       4.311  -1.291  -2.517  1.00  0.00    -0.030 C 
BRANCH  85  89
ATOM     89  C   UNL     1       2.496  -3.049  -4.456  1.00  0.00     0.227 C 
ATOM     90  O   UNL     1       3.088  -2.388  -5.299  1.00  0.00    -0.275 OA
ATOM     91  N   UNL     1       1.265  -3.635  -4.692  1.00  0.00    -0.339 N 
ATOM     92  C   UNL     1       1.288  -4.815  -5.526  1.00  0.00     0.141 C 
ATOM     93  C   UNL     1       0.167  -2.760  -5.058  1.00  0.00     0.141 C 
ATOM     94  C   UNL     1       0.012  -5.628  -5.401  1.00  0.00     0.141 C 
ATOM     95  C   UNL     1      -1.190  -3.463  -4.902  1.00  0.00     0.141 C 
ATOM     96  N   UNL     1      -1.255  -4.886  -5.280  1.00  0.00    -0.334 N 
ATOM     97  C   UNL     1      -2.405  -5.699  -5.173  1.00  0.00     0.265 C 
ATOM     98  O   UNL     1      -2.321  -6.908  -5.399  1.00  0.00    -0.268 OA
BRANCH  97  99
ATOM     99  C   UNL     1      -3.643  -5.156  -4.632  1.00  0.00     0.112 A 
ATOM    100  S   UNL     1      -4.467  -6.132  -3.469  1.00  0.00    -0.128 S 
ATOM    101  C   UNL     1      -4.406  -4.048  -4.924  1.00  0.00     0.072 A 
ATOM    102  C   UNL     1      -5.573  -4.885  -3.075  1.00  0.00     0.043 A 
ATOM    103  C   UNL     1      -5.396  -3.780  -3.908  1.00  0.00     0.012 A 
ATOM    104  Cl  UNL     1      -4.268  -3.040  -6.308  1.00  0.00    -0.082 Cl
ATOM    105  C   UNL     1      -6.558  -4.920  -2.067  1.00  0.00     0.105 A 
ATOM    106  C   UNL     1      -6.201  -2.637  -3.670  1.00  0.00     0.018 A 
ATOM    107  C   UNL     1      -7.335  -3.771  -1.865  1.00  0.00     0.270 A 
ATOM    108  C   UNL     1      -7.146  -2.628  -2.639  1.00  0.00     0.086 A 
BRANCH 107 109
ATOM    109  N   UNL     1      -8.369  -3.775  -0.822  1.00  0.00     0.062 N 
ATOM    110  O   UNL     1      -8.531  -4.816  -0.169  1.00  0.00    -0.258 OA
ATOM    111  O   UNL     1      -9.028  -2.737  -0.658  1.00  0.00    -0.258 OA
ENDBRANCH 107 109
ENDBRANCH  97  99
ENDBRANCH  85  89
ENDBRANCH  81  83
ENDBRANCH  80  81
ENDBRANCH  79  80
ENDBRANCH  78  79
ENDBRANCH  77  78
ENDBRANCH  76  77
ENDBRANCH   1  76
TORSDOF 23
