REMARK SMILES Cc1coc2cc3c(cc12)[C@@H](C)[C@H](CCC(=O)N[C@@H](Cc1c[nH]c2ccccc12)C(=O)OCCOCCOCCOC(=O)c1ccc(-c2c4nc(c(-c5c(F)cc(S(=O)(=O)[O-])cc5F)c5ccc([nH]5)c(-c5c(F)cc(S(=O)(=O)[O-])cc5F)c5nc(c(-c6c(F)cc(S(=O)(=O)[O-])cc6F)c6ccc2[nH]6)C=C5)C=C4)cc1)C(=O)O3
REMARK SMILES IDX 36 1 35 2 34 3 33 4 32 5 30 6 31 7 19 8 18 9 16 10 17 11
REMARK SMILES IDX 15 13 14 14 13 15 1 16 2 17 3 18 10 19 4 20 5 21 9 22 6 23
REMARK SMILES IDX 8 24 7 25 11 26 112 27 12 28 110 29 111 30 20 31 21 32 22 33
REMARK SMILES IDX 29 34 23 35 24 36 28 37 25 39 27 40 26 41 37 42 38 43 39 44
REMARK SMILES IDX 40 45 41 46 42 47 43 48 44 49 45 50 109 51 46 52 108 53
REMARK SMILES IDX 47 54 48 55 49 56 102 57 50 58 107 59 101 60 103 61 51 62
REMARK SMILES IDX 106 63 100 64 99 65 52 67 86 68 65 69 85 70 66 71 69 72
REMARK SMILES IDX 84 73 104 74 67 75 68 76 83 78 105 79 70 80 53 81 54 82
REMARK SMILES IDX 63 83 55 84 56 85 62 86 64 87 57 88 58 89 59 90 60 91 61 92
REMARK SMILES IDX 87 93 88 94 97 95 89 96 90 97 96 98 98 99 91 100 92 101
REMARK SMILES IDX 93 102 94 103 95 104 71 105 72 106 81 107 73 108 74 109
REMARK SMILES IDX 80 110 82 111 75 112 76 113 77 114 78 115 79 116
REMARK H PARENT 18 12 23 38 103 66 69 77
REMARK Flexibility Score: inf
ROOT
ATOM      1  C   UNL     1      -2.358  -7.891  -3.560  1.00  0.00     0.188 C 
ENDROOT
BRANCH   1   2
ATOM      2  O   UNL     1      -3.746  -7.758  -3.299  1.00  0.00    -0.376 OA
BRANCH   2   3
ATOM      3  C   UNL     1      -4.115  -6.475  -2.786  1.00  0.00     0.202 C 
BRANCH   3   4
ATOM      4  C   UNL     1      -3.351  -6.067  -1.521  1.00  0.00     0.261 C 
BRANCH   4   5
ATOM      5  O   UNL     1      -2.080  -5.405  -1.804  1.00  0.00    -0.462 OA
BRANCH   5   6
ATOM      6  C   UNL     1      -1.097  -5.662  -0.901  1.00  0.00     0.329 C 
ATOM      7  O   UNL     1      -1.207  -6.553  -0.058  1.00  0.00    -0.250 OA
BRANCH   6   8
ATOM      8  C   UNL     1       0.183  -4.543  -0.774  1.00  0.00     0.196 C 
BRANCH   8   9
ATOM      9  N   UNL     1       1.627  -3.923  -2.071  1.00  0.00    -0.342 N 
ATOM     10  C   UNL     1       2.857  -3.828  -2.744  1.00  0.00     0.220 C 
ATOM     11  O   UNL     1       2.908  -3.037  -3.691  1.00  0.00    -0.275 OA
ATOM     12  H   UNL     1       1.130  -3.216  -2.541  1.00  0.00     0.164 HD
BRANCH  10  13
ATOM     13  C   UNL     1       4.016  -4.744  -2.501  1.00  0.00     0.101 C 
BRANCH  13  14
ATOM     14  C   UNL     1       3.700  -5.703  -1.414  1.00  0.00     0.026 C 
BRANCH  14  15
ATOM     15  C   UNL     1       2.261  -5.453  -1.015  1.00  0.00     0.107 C 
ATOM     16  C   UNL     1       0.984   2.061   0.278  1.00  0.00     0.048 C 
ATOM     17  C   UNL     1       0.515   1.327  -0.918  1.00  0.00    -0.005 A 
ATOM     18  C   UNL     1      -0.136   1.820  -2.025  1.00  0.00     0.199 A 
ATOM     19  C   UNL     1       0.637  -0.081  -1.122  1.00  0.00     0.024 A 
ATOM     20  O   UNL     1      -0.507   0.821  -2.858  1.00  0.00    -0.464 OA
ATOM     21  C   UNL     1      -0.105  -0.356  -2.292  1.00  0.00     0.137 A 
ATOM     22  C   UNL     1       1.331  -1.068  -0.373  1.00  0.00     0.020 A 
ATOM     23  C   UNL     1      -0.431  -1.594  -2.854  1.00  0.00     0.095 A 
ATOM     24  C   UNL     1       1.117  -2.355  -0.792  1.00  0.00    -0.001 A 
ATOM     25  C   UNL     1       0.011  -2.586  -2.018  1.00  0.00     0.138 A 
ATOM     26  C   UNL     1       2.268  -3.690  -0.144  1.00  0.00     0.034 C 
ATOM     27  O   UNL     1      -0.057  -4.236  -2.778  1.00  0.00    -0.426 OA
ATOM     28  C   UNL     1       2.342  -3.828   1.379  1.00  0.00     0.014 C 
ATOM     29  C   UNL     1       0.927  -5.704  -2.453  1.00  0.00     0.314 C 
ATOM     30  O   UNL     1       0.585  -6.736  -3.031  1.00  0.00    -0.251 OA
ENDBRANCH  14  15
ENDBRANCH  13  14
ENDBRANCH  10  13
ENDBRANCH   8   9
BRANCH   8  31
ATOM     31  C   UNL     1      -0.557  -3.744   0.501  1.00  0.00     0.074 C 
BRANCH  31  32
ATOM     32  C   UNL     1      -1.973  -3.212   0.564  1.00  0.00    -0.020 A 
ATOM     33  C   UNL     1      -2.586  -3.098   1.806  1.00  0.00     0.087 A 
ATOM     34  C   UNL     1      -2.885  -2.612  -0.367  1.00  0.00     0.003 A 
ATOM     35  N   UNL     1      -3.646  -2.254   1.694  1.00  0.00    -0.361 N 
ATOM     36  C   UNL     1      -3.773  -1.845   0.393  1.00  0.00     0.046 A 
ATOM     37  C   UNL     1      -3.038  -2.537  -1.765  1.00  0.00     0.010 A 
ATOM     38  H   UNL     1      -4.232  -1.978   2.435  1.00  0.00     0.166 HD
ATOM     39  C   UNL     1      -4.597  -0.859  -0.160  1.00  0.00     0.026 A 
ATOM     40  C   UNL     1      -3.855  -1.563  -2.345  1.00  0.00     0.001 A 
ATOM     41  C   UNL     1      -4.581  -0.696  -1.546  1.00  0.00     0.002 A 
ENDBRANCH  31  32
ENDBRANCH   8  31
ENDBRANCH   6   8
ENDBRANCH   5   6
ENDBRANCH   4   5
ENDBRANCH   3   4
ENDBRANCH   2   3
ENDBRANCH   1   2
BRANCH   1  42
ATOM     42  C   UNL     1      -1.937  -7.215  -4.852  1.00  0.00     0.188 C 
BRANCH  42  43
ATOM     43  O   UNL     1      -2.307  -5.855  -5.073  1.00  0.00    -0.376 OA
BRANCH  43  44
ATOM     44  C   UNL     1      -2.590  -5.610  -6.458  1.00  0.00     0.202 C 
BRANCH  44  45
ATOM     45  C   UNL     1      -1.416  -5.837  -7.440  1.00  0.00     0.261 C 
BRANCH  45  46
ATOM     46  O   UNL     1      -0.830  -7.151  -7.281  1.00  0.00    -0.460 OA
BRANCH  46  47
ATOM     47  C   UNL     1       0.522  -7.189  -7.402  1.00  0.00     0.338 C 
ATOM     48  O   UNL     1       1.172  -6.481  -8.157  1.00  0.00    -0.246 OA
BRANCH  47  49
ATOM     49  C   UNL     1       1.125  -7.972  -6.275  1.00  0.00     0.060 A 
ATOM     50  C   UNL     1       0.532  -9.087  -5.649  1.00  0.00     0.016 A 
ATOM     51  C   UNL     1       2.253  -7.402  -5.695  1.00  0.00     0.016 A 
ATOM     52  C   UNL     1       0.994  -9.544  -4.385  1.00  0.00     0.010 A 
ATOM     53  C   UNL     1       2.708  -7.868  -4.461  1.00  0.00     0.010 A 
ATOM     54  C   UNL     1       2.064  -8.906  -3.750  1.00  0.00    -0.014 A 
BRANCH  54  55
ATOM     55  C   UNL     1       2.672  -9.286  -2.444  1.00  0.00     0.031 A 
ATOM     56  C   UNL     1       3.905 -10.072  -2.595  1.00  0.00     0.074 A 
ATOM     57  C   UNL     1       2.366  -8.988  -1.149  1.00  0.00     0.049 A 
ATOM     58  N   UNL     1       3.968 -11.335  -2.322  1.00  0.00    -0.248 NA
ATOM     59  C   UNL     1       5.133  -9.498  -3.148  1.00  0.00     0.031 C 
ATOM     60  C   UNL     1       1.122  -8.458  -0.601  1.00  0.00     0.029 A 
ATOM     61  N   UNL     1       3.186  -9.028  -0.015  1.00  0.00    -0.354 N 
ATOM     62  C   UNL     1       5.304 -11.639  -2.396  1.00  0.00     0.074 A 
ATOM     63  C   UNL     1       5.936 -10.563  -3.124  1.00  0.00     0.031 C 
ATOM     64  C   UNL     1       1.304  -8.090   0.693  1.00  0.00     0.029 A 
ATOM     65  C   UNL     1       2.699  -8.304   1.076  1.00  0.00     0.049 A 
ATOM     66  H   UNL     1       4.036  -9.525   0.011  1.00  0.00     0.167 HD
ATOM     67  C   UNL     1       5.854 -12.565  -1.573  1.00  0.00     0.037 A 
ATOM     68  C   UNL     1       3.124  -8.188   2.366  1.00  0.00     0.037 A 
ATOM     69  C   UNL     1       4.888 -13.353  -0.848  1.00  0.00     0.049 A 
ATOM     70  C   UNL     1       3.626  -9.497   2.791  1.00  0.00     0.074 A 
ATOM     71  C   UNL     1       3.793 -14.125  -1.187  1.00  0.00     0.029 A 
ATOM     72  N   UNL     1       4.799 -13.134   0.505  1.00  0.00    -0.354 N 
ATOM     73  N   UNL     1       2.831 -10.486   3.066  1.00  0.00    -0.248 NA
ATOM     74  C   UNL     1       5.042  -9.830   2.701  1.00  0.00     0.031 C 
ATOM     75  C   UNL     1       2.915 -14.107  -0.063  1.00  0.00     0.029 A 
ATOM     76  C   UNL     1       3.501 -13.320   0.922  1.00  0.00     0.049 A 
ATOM     77  H   UNL     1       5.551 -12.882   1.088  1.00  0.00     0.167 HD
ATOM     78  C   UNL     1       3.560 -11.592   2.686  1.00  0.00     0.074 A 
ATOM     79  C   UNL     1       4.947 -11.161   2.693  1.00  0.00     0.031 C 
ATOM     80  C   UNL     1       2.922 -12.600   2.031  1.00  0.00     0.037 A 
BRANCH  67  81
ATOM     81  C   UNL     1       7.290 -12.457  -1.183  1.00  0.00     0.058 A 
ATOM     82  C   UNL     1       8.054 -13.608  -0.974  1.00  0.00     0.135 A 
ATOM     83  C   UNL     1       7.897 -11.218  -0.876  1.00  0.00     0.135 A 
ATOM     84  F   UNL     1       7.518 -14.823  -1.167  1.00  0.00    -0.206 F 
ATOM     85  C   UNL     1       9.373 -13.533  -0.536  1.00  0.00     0.059 A 
ATOM     86  C   UNL     1       9.227 -11.114  -0.501  1.00  0.00     0.059 A 
ATOM     87  F   UNL     1       7.192 -10.075  -0.888  1.00  0.00    -0.206 F 
ATOM     88  C   UNL     1       9.953 -12.282  -0.319  1.00  0.00     0.060 A 
BRANCH  88  89
ATOM     89  S   UNL     1      11.669 -12.182   0.217  1.00  0.00     0.124 S 
ATOM     90  O   UNL     1      11.533 -12.416   1.650  1.00  0.00    -0.237 OA
ATOM     91  O   UNL     1      12.297 -13.253  -0.550  1.00  0.00    -0.237 OA
ATOM     92  O   UNL     1      12.057 -10.831  -0.174  1.00  0.00    -0.744 OA
ENDBRANCH  88  89
ENDBRANCH  67  81
BRANCH  68  93
ATOM     93  C   UNL     1       3.664  -6.965   3.025  1.00  0.00     0.058 A 
ATOM     94  C   UNL     1       3.228  -6.566   4.300  1.00  0.00     0.135 A 
ATOM     95  C   UNL     1       4.739  -6.241   2.482  1.00  0.00     0.135 A 
ATOM     96  F   UNL     1       2.262  -7.256   4.924  1.00  0.00    -0.206 F 
ATOM     97  C   UNL     1       3.773  -5.460   4.969  1.00  0.00     0.059 A 
ATOM     98  C   UNL     1       5.300  -5.130   3.126  1.00  0.00     0.059 A 
ATOM     99  F   UNL     1       5.267  -6.612   1.306  1.00  0.00    -0.206 F 
ATOM    100  C   UNL     1       4.797  -4.733   4.364  1.00  0.00     0.060 A 
BRANCH 100 101
ATOM    101  S   UNL     1       5.417  -3.205   5.119  1.00  0.00     0.124 S 
ATOM    102  O   UNL     1       4.361  -2.843   6.060  1.00  0.00    -0.237 OA
ATOM    103  O   UNL     1       6.672  -3.647   5.715  1.00  0.00    -0.237 OA
ATOM    104  O   UNL     1       5.538  -2.317   3.965  1.00  0.00    -0.744 OA
ENDBRANCH 100 101
ENDBRANCH  68  93
BRANCH  80 105
ATOM    105  C   UNL     1       1.442 -12.660   2.287  1.00  0.00     0.058 A 
ATOM    106  C   UNL     1       0.504 -11.951   1.517  1.00  0.00     0.135 A 
ATOM    107  C   UNL     1       0.959 -13.413   3.362  1.00  0.00     0.135 A 
ATOM    108  F   UNL     1       0.899 -11.251   0.445  1.00  0.00    -0.206 F 
ATOM    109  C   UNL     1      -0.860 -11.973   1.813  1.00  0.00     0.059 A 
ATOM    110  C   UNL     1      -0.401 -13.473   3.661  1.00  0.00     0.059 A 
ATOM    111  F   UNL     1       1.810 -14.123   4.120  1.00  0.00    -0.206 F 
ATOM    112  C   UNL     1      -1.304 -12.741   2.888  1.00  0.00     0.060 A 
BRANCH 112 113
ATOM    113  S   UNL     1      -3.075 -12.889   3.223  1.00  0.00     0.124 S 
ATOM    114  O   UNL     1      -3.293 -11.841   4.215  1.00  0.00    -0.237 OA
ATOM    115  O   UNL     1      -3.684 -12.659   1.916  1.00  0.00    -0.237 OA
ATOM    116  O   UNL     1      -3.198 -14.258   3.719  1.00  0.00    -0.744 OA
ENDBRANCH 112 113
ENDBRANCH  80 105
ENDBRANCH  54  55
ENDBRANCH  47  49
ENDBRANCH  46  47
ENDBRANCH  45  46
ENDBRANCH  44  45
ENDBRANCH  43  44
ENDBRANCH  42  43
ENDBRANCH   1  42
TORSDOF 26
