REMARK SMILES CC[C@@H](C(=O)OCCOCCOCCOC(=O)c1ccc(-c2c3nc(c(-c4c(F)cc(S(=O)(=O)[O-])cc4F)c4ccc([nH]4)c(-c4c(F)cc(S(=O)(=O)[O-])cc4F)c4nc(c(-c5c(F)cc(S(=O)(=O)[O-])cc5F)c5ccc2[nH]5)C=C4)C=C3)cc1)N1CCN(Cc2cccc(C)c2)C(=O)C1=O
REMARK SMILES IDX 10 1 9 2 8 3 7 4 6 5 4 6 5 7 3 8 2 9 1 10 84 11 85 12 98 13
REMARK SMILES IDX 86 14 96 15 99 16 87 17 97 18 88 19 89 20 90 21 95 22 91 23
REMARK SMILES IDX 93 24 92 25 94 26 11 27 12 28 13 29 14 30 15 31 16 32 17 33
REMARK SMILES IDX 18 34 19 35 83 36 20 37 82 38 21 39 22 40 23 41 76 42 24 43
REMARK SMILES IDX 81 44 75 45 77 46 25 47 80 48 74 49 73 50 26 52 60 53 39 54
REMARK SMILES IDX 59 55 40 56 43 57 58 58 78 59 41 60 42 61 57 63 79 64 44 65
REMARK SMILES IDX 27 66 28 67 37 68 29 69 30 70 36 71 38 72 31 73 32 74 33 75
REMARK SMILES IDX 34 76 35 77 61 78 62 79 71 80 63 81 64 82 70 83 72 84 65 85
REMARK SMILES IDX 66 86 67 87 68 88 69 89 45 90 46 91 55 92 47 93 48 94 54 95
REMARK SMILES IDX 56 96 49 97 50 98 51 99 52 100 53 101
REMARK H PARENT 77 51 43 62
REMARK Flexibility Score: inf
ROOT
ATOM      1  C   UNL     1      -1.859   2.003   2.830  1.00  0.00     0.188 C 
ENDROOT
BRANCH   1   2
ATOM      2  O   UNL     1      -1.677   3.410   2.911  1.00  0.00    -0.376 OA
BRANCH   2   3
ATOM      3  C   UNL     1      -0.550   3.992   2.258  1.00  0.00     0.202 C 
BRANCH   3   4
ATOM      4  C   UNL     1       0.844   3.390   2.518  1.00  0.00     0.261 C 
BRANCH   4   5
ATOM      5  O   UNL     1       0.987   2.010   2.114  1.00  0.00    -0.462 OA
BRANCH   5   6
ATOM      6  C   UNL     1       1.899   1.268   2.802  1.00  0.00     0.328 C 
ATOM      7  O   UNL     1       2.567   1.724   3.726  1.00  0.00    -0.250 OA
BRANCH   6   8
ATOM      8  C   UNL     1       1.904  -0.251   2.448  1.00  0.00     0.195 C 
BRANCH   8   9
ATOM      9  C   UNL     1       1.351  -0.709   1.075  1.00  0.00     0.034 C 
ATOM     10  C   UNL     1       1.674   0.158  -0.131  1.00  0.00     0.007 C 
ENDBRANCH   8   9
BRANCH   8  11
ATOM     11  N   UNL     1       1.343  -1.103   3.541  1.00  0.00    -0.319 N 
ATOM     12  C   UNL     1       0.517  -0.542   4.603  1.00  0.00     0.142 C 
ATOM     13  C   UNL     1       1.609  -2.485   3.598  1.00  0.00     0.312 C 
ATOM     14  C   UNL     1      -0.689  -1.448   4.795  1.00  0.00     0.142 C 
ATOM     15  C   UNL     1       0.914  -3.297   4.759  1.00  0.00     0.312 C 
ATOM     16  O   UNL     1       2.314  -3.064   2.780  1.00  0.00    -0.263 OA
ATOM     17  N   UNL     1      -0.210  -2.700   5.342  1.00  0.00    -0.328 N 
ATOM     18  O   UNL     1       1.372  -4.380   5.098  1.00  0.00    -0.263 OA
BRANCH  17  19
ATOM     19  C   UNL     1      -0.867  -3.293   6.502  1.00  0.00     0.155 C 
BRANCH  19  20
ATOM     20  C   UNL     1      -0.579  -2.583   7.814  1.00  0.00    -0.028 A 
ATOM     21  C   UNL     1       0.130  -3.242   8.826  1.00  0.00     0.005 A 
ATOM     22  C   UNL     1      -1.115  -1.316   8.112  1.00  0.00     0.009 A 
ATOM     23  C   UNL     1       0.268  -2.666  10.092  1.00  0.00     0.001 A 
ATOM     24  C   UNL     1      -1.025  -0.750   9.393  1.00  0.00    -0.051 A 
ATOM     25  C   UNL     1      -0.321  -1.435  10.381  1.00  0.00     0.003 A 
ATOM     26  C   UNL     1      -1.804   0.487   9.738  1.00  0.00     0.044 C 
ENDBRANCH  19  20
ENDBRANCH  17  19
ENDBRANCH   8  11
ENDBRANCH   6   8
ENDBRANCH   5   6
ENDBRANCH   4   5
ENDBRANCH   3   4
ENDBRANCH   2   3
ENDBRANCH   1   2
BRANCH   1  27
ATOM     27  C   UNL     1      -1.716   1.320   1.464  1.00  0.00     0.188 C 
BRANCH  27  28
ATOM     28  O   UNL     1      -1.579   2.219   0.390  1.00  0.00    -0.376 OA
BRANCH  28  29
ATOM     29  C   UNL     1      -2.700   2.469  -0.435  1.00  0.00     0.202 C 
BRANCH  29  30
ATOM     30  C   UNL     1      -4.104   2.672   0.165  1.00  0.00     0.261 C 
BRANCH  30  31
ATOM     31  O   UNL     1      -4.494   1.817   1.252  1.00  0.00    -0.460 OA
BRANCH  31  32
ATOM     32  C   UNL     1      -4.806   0.537   0.949  1.00  0.00     0.338 C 
ATOM     33  O   UNL     1      -4.773   0.027  -0.159  1.00  0.00    -0.246 OA
BRANCH  32  34
ATOM     34  C   UNL     1      -4.983  -0.213   2.218  1.00  0.00     0.060 A 
ATOM     35  C   UNL     1      -4.232  -1.378   2.424  1.00  0.00     0.016 A 
ATOM     36  C   UNL     1      -5.900   0.208   3.187  1.00  0.00     0.016 A 
ATOM     37  C   UNL     1      -4.444  -2.157   3.566  1.00  0.00     0.010 A 
ATOM     38  C   UNL     1      -6.128  -0.586   4.321  1.00  0.00     0.010 A 
ATOM     39  C   UNL     1      -5.436  -1.798   4.492  1.00  0.00    -0.014 A 
BRANCH  39  40
ATOM     40  C   UNL     1      -5.915  -2.817   5.465  1.00  0.00     0.031 A 
ATOM     41  C   UNL     1      -7.026  -3.735   5.042  1.00  0.00     0.074 A 
ATOM     42  C   UNL     1      -5.396  -2.952   6.699  1.00  0.00     0.049 A 
ATOM     43  N   UNL     1      -7.573  -4.726   5.695  1.00  0.00    -0.248 NA
ATOM     44  C   UNL     1      -7.625  -3.472   3.724  1.00  0.00     0.031 C 
ATOM     45  C   UNL     1      -4.402  -2.067   7.285  1.00  0.00     0.029 A 
ATOM     46  N   UNL     1      -5.635  -3.886   7.681  1.00  0.00    -0.354 N 
ATOM     47  C   UNL     1      -8.603  -5.183   4.887  1.00  0.00     0.074 A 
ATOM     48  C   UNL     1      -8.607  -4.359   3.697  1.00  0.00     0.031 C 
ATOM     49  C   UNL     1      -4.085  -2.528   8.507  1.00  0.00     0.029 A 
ATOM     50  C   UNL     1      -4.833  -3.741   8.790  1.00  0.00     0.049 A 
ATOM     51  H   UNL     1      -6.316  -4.592   7.597  1.00  0.00     0.167 HD
ATOM     52  C   UNL     1      -9.479  -6.188   5.121  1.00  0.00     0.037 A 
ATOM     53  C   UNL     1      -4.699  -4.495   9.901  1.00  0.00     0.037 A 
ATOM     54  C   UNL     1      -9.491  -7.000   6.310  1.00  0.00     0.049 A 
ATOM     55  C   UNL     1      -5.608  -5.678  10.088  1.00  0.00     0.074 A 
ATOM     56  C   UNL     1     -10.347  -8.040   6.630  1.00  0.00     0.029 A 
ATOM     57  N   UNL     1      -8.614  -6.864   7.375  1.00  0.00    -0.354 N 
ATOM     58  N   UNL     1      -6.557  -6.117   9.298  1.00  0.00    -0.248 NA
ATOM     59  C   UNL     1      -5.449  -6.452  11.328  1.00  0.00     0.031 C 
ATOM     60  C   UNL     1     -10.012  -8.509   7.905  1.00  0.00     0.029 A 
ATOM     61  C   UNL     1      -8.910  -7.800   8.354  1.00  0.00     0.049 A 
ATOM     62  H   UNL     1      -7.889  -6.201   7.428  1.00  0.00     0.167 HD
ATOM     63  C   UNL     1      -7.114  -7.211   9.949  1.00  0.00     0.074 A 
ATOM     64  C   UNL     1      -6.364  -7.398  11.173  1.00  0.00     0.031 C 
ATOM     65  C   UNL     1      -8.167  -7.976   9.575  1.00  0.00     0.037 A 
BRANCH  52  66
ATOM     66  C   UNL     1     -10.529  -6.431   4.077  1.00  0.00     0.058 A 
ATOM     67  C   UNL     1     -10.215  -6.987   2.828  1.00  0.00     0.135 A 
ATOM     68  C   UNL     1     -11.870  -6.105   4.336  1.00  0.00     0.135 A 
ATOM     69  F   UNL     1      -8.943  -7.285   2.520  1.00  0.00    -0.206 F 
ATOM     70  C   UNL     1     -11.192  -7.191   1.860  1.00  0.00     0.059 A 
ATOM     71  C   UNL     1     -12.868  -6.329   3.394  1.00  0.00     0.059 A 
ATOM     72  F   UNL     1     -12.219  -5.558   5.511  1.00  0.00    -0.206 F 
ATOM     73  C   UNL     1     -12.516  -6.860   2.154  1.00  0.00     0.060 A 
BRANCH  73  74
ATOM     74  S   UNL     1     -13.774  -7.139   0.892  1.00  0.00     0.124 S 
ATOM     75  O   UNL     1     -13.474  -6.072  -0.057  1.00  0.00    -0.237 OA
ATOM     76  O   UNL     1     -13.467  -8.493   0.442  1.00  0.00    -0.237 OA
ATOM     77  O   UNL     1     -15.028  -6.994   1.624  1.00  0.00    -0.744 OA
ENDBRANCH  73  74
ENDBRANCH  52  66
BRANCH  53  78
ATOM     78  C   UNL     1      -3.665  -4.187  10.932  1.00  0.00     0.058 A 
ATOM     79  C   UNL     1      -2.587  -5.062  11.153  1.00  0.00     0.135 A 
ATOM     80  C   UNL     1      -3.752  -3.051  11.749  1.00  0.00     0.135 A 
ATOM     81  F   UNL     1      -2.463  -6.172  10.409  1.00  0.00    -0.206 F 
ATOM     82  C   UNL     1      -1.651  -4.838  12.159  1.00  0.00     0.059 A 
ATOM     83  C   UNL     1      -2.809  -2.787  12.739  1.00  0.00     0.059 A 
ATOM     84  F   UNL     1      -4.752  -2.172  11.576  1.00  0.00    -0.206 F 
ATOM     85  C   UNL     1      -1.768  -3.692  12.945  1.00  0.00     0.060 A 
BRANCH  85  86
ATOM     86  S   UNL     1      -0.488  -3.323  14.165  1.00  0.00     0.124 S 
ATOM     87  O   UNL     1      -0.949  -4.087  15.318  1.00  0.00    -0.237 OA
ATOM     88  O   UNL     1       0.723  -3.815  13.515  1.00  0.00    -0.237 OA
ATOM     89  O   UNL     1      -0.568  -1.870  14.290  1.00  0.00    -0.744 OA
ENDBRANCH  85  86
ENDBRANCH  53  78
BRANCH  65  90
ATOM     90  C   UNL     1      -8.554  -9.101  10.493  1.00  0.00     0.058 A 
ATOM     91  C   UNL     1      -9.140  -8.867  11.748  1.00  0.00     0.135 A 
ATOM     92  C   UNL     1      -8.331 -10.433  10.112  1.00  0.00     0.135 A 
ATOM     93  F   UNL     1      -9.371  -7.611  12.163  1.00  0.00    -0.206 F 
ATOM     94  C   UNL     1      -9.448  -9.912  12.612  1.00  0.00     0.059 A 
ATOM     95  C   UNL     1      -8.659 -11.496  10.947  1.00  0.00     0.059 A 
ATOM     96  F   UNL     1      -7.784 -10.713   8.918  1.00  0.00    -0.206 F 
ATOM     97  C   UNL     1      -9.197 -11.224  12.204  1.00  0.00     0.060 A 
BRANCH  97  98
ATOM     98  S   UNL     1      -9.589 -12.574  13.337  1.00  0.00     0.124 S 
ATOM     99  O   UNL     1      -8.504 -12.465  14.307  1.00  0.00    -0.237 OA
ATOM    100  O   UNL     1     -10.914 -12.201  13.822  1.00  0.00    -0.237 OA
ATOM    101  O   UNL     1      -9.551 -13.756  12.481  1.00  0.00    -0.744 OA
ENDBRANCH  97  98
ENDBRANCH  65  90
ENDBRANCH  39  40
ENDBRANCH  32  34
ENDBRANCH  31  32
ENDBRANCH  30  31
ENDBRANCH  29  30
ENDBRANCH  28  29
ENDBRANCH  27  28
ENDBRANCH   1  27
TORSDOF 24
