REMARK SMILES CC(C)C[NH+]1CC[NH+]([C@@H]2CC[C@]([NH3+])(C(=O)OCCOCCOCCOC(=O)c3ccc(-c4c5nc(c(-c6c(F)cc(S(=O)(=O)[O-])cc6F)c6ccc([nH]6)c(-c6c(F)cc(S(=O)(=O)[O-])cc6F)c6nc(c(-c7c(F)cc(S(=O)(=O)[O-])cc7F)c7ccc4[nH]7)C=C6)C=C5)cc3)C2)CC1
REMARK SMILES IDX 20 1 19 2 18 3 17 4 16 5 14 6 15 7 12 8 9 9 10 10 94 11
REMARK SMILES IDX 11 12 8 13 5 14 6 15 96 16 7 18 95 19 4 21 2 22 1 23 3 24
REMARK SMILES IDX 13 25 21 29 22 30 23 31 24 32 25 33 26 34 27 35 28 36 29 37
REMARK SMILES IDX 93 38 30 39 92 40 31 41 32 42 33 43 86 44 34 45 91 46 85 47
REMARK SMILES IDX 87 48 35 49 90 50 84 51 83 52 36 54 70 55 49 56 69 57 50 58
REMARK SMILES IDX 53 59 68 60 88 61 51 62 52 63 67 65 89 66 54 67 37 68 38 69
REMARK SMILES IDX 47 70 39 71 40 72 46 73 48 74 41 75 42 76 43 77 44 78 45 79
REMARK SMILES IDX 71 80 72 81 81 82 73 83 74 84 80 85 82 86 75 87 76 88 77 89
REMARK SMILES IDX 78 90 79 91 55 92 56 93 65 94 57 95 58 96 64 97 66 98 59 99
REMARK SMILES IDX 60 100 61 101 62 102 63 103
REMARK H PARENT 5 17 8 20 13 26 13 27 13 28 87 53 53 64
REMARK Flexibility Score: inf
ROOT
ATOM      1  C   UNL     1      -2.663   7.412  -1.551  1.00  0.00     0.188 C 
ENDROOT
BRANCH   1   2
ATOM      2  O   UNL     1      -1.438   8.036  -1.927  1.00  0.00    -0.376 OA
BRANCH   2   3
ATOM      3  C   UNL     1      -1.053   7.918  -3.296  1.00  0.00     0.202 C 
BRANCH   3   4
ATOM      4  C   UNL     1      -0.798   6.496  -3.818  1.00  0.00     0.261 C 
BRANCH   4   5
ATOM      5  O   UNL     1      -1.940   5.627  -3.688  1.00  0.00    -0.459 OA
BRANCH   5   6
ATOM      6  C   UNL     1      -1.754   4.516  -2.914  1.00  0.00     0.368 C 
ATOM      7  O   UNL     1      -0.656   4.112  -2.541  1.00  0.00    -0.245 OA
BRANCH   6   8
ATOM      8  C   UNL     1      -3.082   3.792  -2.568  1.00  0.00     0.198 C 
ATOM      9  C   UNL     1      -3.669   1.979  -0.966  1.00  0.00     0.191 C 
ATOM     10  C   UNL     1      -3.873   1.512  -2.420  1.00  0.00     0.072 C 
ATOM     11  C   UNL     1      -3.131   3.427  -1.071  1.00  0.00     0.145 C 
ATOM     12  C   UNL     1      -3.083   2.457  -3.304  1.00  0.00     0.087 C 
BRANCH   9  13
ATOM     13  N   UNL     1      -2.989   1.107   0.007  1.00  0.00    -0.323 N 
ATOM     14  N   UNL     1      -1.172  -1.111  -1.019  1.00  0.00    -0.325 N 
ATOM     15  C   UNL     1      -2.643  -1.305  -0.888  1.00  0.00     0.324 C 
ATOM     16  C   UNL     1      -0.894   0.332  -1.086  1.00  0.00     0.324 C 
ATOM     17  H   UNL     1      -0.816  -1.523  -1.881  1.00  0.00     0.348 HD
ATOM     18  C   UNL     1      -3.431  -0.303   0.020  1.00  0.00     0.324 C 
ATOM     19  C   UNL     1      -1.524   1.137   0.057  1.00  0.00     0.324 C 
ATOM     20  H   UNL     1      -3.316   1.574   0.852  1.00  0.00     0.348 HD
BRANCH  14  21
ATOM     21  C   UNL     1      -0.470  -1.812   0.069  1.00  0.00     0.265 C 
BRANCH  21  22
ATOM     22  C   UNL     1       1.081  -1.870   0.009  1.00  0.00     0.038 C 
ATOM     23  C   UNL     1       1.801  -0.566   0.371  1.00  0.00     0.013 C 
ATOM     24  C   UNL     1       1.557  -2.961   0.978  1.00  0.00     0.013 C 
ENDBRANCH  21  22
ENDBRANCH  14  21
ENDBRANCH   9  13
BRANCH   8  25
ATOM     25  N   UNL     1      -4.297   4.572  -2.891  1.00  0.00    -0.343 N 
ATOM     26  H   UNL     1      -5.125   4.032  -2.636  1.00  0.00     0.345 HD
ATOM     27  H   UNL     1      -4.317   4.773  -3.890  1.00  0.00     0.345 HD
ATOM     28  H   UNL     1      -4.288   5.447  -2.368  1.00  0.00     0.345 HD
ENDBRANCH   8  25
ENDBRANCH   6   8
ENDBRANCH   5   6
ENDBRANCH   4   5
ENDBRANCH   3   4
ENDBRANCH   2   3
ENDBRANCH   1   2
BRANCH   1  29
ATOM     29  C   UNL     1      -3.917   7.886  -2.287  1.00  0.00     0.188 C 
BRANCH  29  30
ATOM     30  O   UNL     1      -3.827   7.967  -3.707  1.00  0.00    -0.376 OA
BRANCH  30  31
ATOM     31  C   UNL     1      -5.007   8.430  -4.372  1.00  0.00     0.202 C 
BRANCH  31  32
ATOM     32  C   UNL     1      -5.570   9.788  -3.898  1.00  0.00     0.261 C 
BRANCH  32  33
ATOM     33  O   UNL     1      -5.989   9.840  -2.516  1.00  0.00    -0.460 OA
BRANCH  33  34
ATOM     34  C   UNL     1      -6.867   8.897  -2.098  1.00  0.00     0.338 C 
ATOM     35  O   UNL     1      -7.540   8.178  -2.820  1.00  0.00    -0.246 OA
BRANCH  34  36
ATOM     36  C   UNL     1      -6.705   8.690  -0.629  1.00  0.00     0.060 A 
ATOM     37  C   UNL     1      -6.821   7.382  -0.135  1.00  0.00     0.016 A 
ATOM     38  C   UNL     1      -6.398   9.732   0.253  1.00  0.00     0.016 A 
ATOM     39  C   UNL     1      -6.708   7.126   1.235  1.00  0.00     0.010 A 
ATOM     40  C   UNL     1      -6.291   9.475   1.629  1.00  0.00     0.010 A 
ATOM     41  C   UNL     1      -6.495   8.178   2.136  1.00  0.00    -0.014 A 
BRANCH  41  42
ATOM     42  C   UNL     1      -6.720   7.949   3.592  1.00  0.00     0.031 A 
ATOM     43  C   UNL     1      -8.060   8.333   4.173  1.00  0.00     0.074 A 
ATOM     44  C   UNL     1      -5.800   7.365   4.384  1.00  0.00     0.049 A 
ATOM     45  N   UNL     1      -8.508   8.204   5.396  1.00  0.00    -0.248 NA
ATOM     46  C   UNL     1      -9.026   8.943   3.244  1.00  0.00     0.031 C 
ATOM     47  C   UNL     1      -4.477   6.910   3.961  1.00  0.00     0.029 A 
ATOM     48  N   UNL     1      -5.847   7.052   5.724  1.00  0.00    -0.354 N 
ATOM     49  C   UNL     1      -9.798   8.722   5.385  1.00  0.00     0.074 A 
ATOM     50  C   UNL     1     -10.053   9.194   4.042  1.00  0.00     0.031 C 
ATOM     51  C   UNL     1      -3.838   6.378   5.020  1.00  0.00     0.029 A 
ATOM     52  C   UNL     1      -4.695   6.472   6.202  1.00  0.00     0.049 A 
ATOM     53  H   UNL     1      -6.634   7.228   6.288  1.00  0.00     0.167 HD
ATOM     54  C   UNL     1     -10.699   8.791   6.394  1.00  0.00     0.037 A 
ATOM     55  C   UNL     1      -4.367   6.071   7.449  1.00  0.00     0.037 A 
ATOM     56  C   UNL     1     -10.463   8.312   7.731  1.00  0.00     0.049 A 
ATOM     57  C   UNL     1      -5.371   6.208   8.571  1.00  0.00     0.074 A 
ATOM     58  C   UNL     1     -11.335   8.308   8.807  1.00  0.00     0.029 A 
ATOM     59  N   UNL     1      -9.273   7.763   8.180  1.00  0.00    -0.354 N 
ATOM     60  N   UNL     1      -6.603   6.659   8.532  1.00  0.00    -0.248 NA
ATOM     61  C   UNL     1      -4.939   5.772   9.908  1.00  0.00     0.031 C 
ATOM     62  C   UNL     1     -10.654   7.806   9.921  1.00  0.00     0.029 A 
ATOM     63  C   UNL     1      -9.378   7.443   9.524  1.00  0.00     0.049 A 
ATOM     64  H   UNL     1      -8.472   7.621   7.626  1.00  0.00     0.167 HD
ATOM     65  C   UNL     1      -7.101   6.523   9.826  1.00  0.00     0.074 A 
ATOM     66  C   UNL     1      -6.044   5.939  10.622  1.00  0.00     0.031 C 
ATOM     67  C   UNL     1      -8.326   6.849  10.311  1.00  0.00     0.037 A 
BRANCH  54  68
ATOM     68  C   UNL     1     -12.026   9.435   6.101  1.00  0.00     0.058 A 
ATOM     69  C   UNL     1     -13.001   8.802   5.314  1.00  0.00     0.135 A 
ATOM     70  C   UNL     1     -12.343  10.684   6.658  1.00  0.00     0.135 A 
ATOM     71  F   UNL     1     -12.742   7.616   4.740  1.00  0.00    -0.206 F 
ATOM     72  C   UNL     1     -14.237   9.393   5.075  1.00  0.00     0.059 A 
ATOM     73  C   UNL     1     -13.582  11.282   6.455  1.00  0.00     0.059 A 
ATOM     74  F   UNL     1     -11.444  11.335   7.414  1.00  0.00    -0.206 F 
ATOM     75  C   UNL     1     -14.519  10.633   5.653  1.00  0.00     0.060 A 
BRANCH  75  76
ATOM     76  S   UNL     1     -16.136  11.377   5.351  1.00  0.00     0.124 S 
ATOM     77  O   UNL     1     -16.012  11.786   3.956  1.00  0.00    -0.237 OA
ATOM     78  O   UNL     1     -17.044  10.264   5.607  1.00  0.00    -0.237 OA
ATOM     79  O   UNL     1     -16.195  12.467   6.321  1.00  0.00    -0.744 OA
ENDBRANCH  75  76
ENDBRANCH  54  68
BRANCH  55  80
ATOM     80  C   UNL     1      -3.019   5.499   7.731  1.00  0.00     0.058 A 
ATOM     81  C   UNL     1      -2.861   4.155   8.107  1.00  0.00     0.135 A 
ATOM     82  C   UNL     1      -1.867   6.301   7.690  1.00  0.00     0.135 A 
ATOM     83  F   UNL     1      -3.933   3.351   8.182  1.00  0.00    -0.206 F 
ATOM     84  C   UNL     1      -1.619   3.635   8.459  1.00  0.00     0.059 A 
ATOM     85  C   UNL     1      -0.610   5.796   8.009  1.00  0.00     0.059 A 
ATOM     86  F   UNL     1      -1.960   7.593   7.337  1.00  0.00    -0.206 F 
ATOM     87  C   UNL     1      -0.498   4.465   8.408  1.00  0.00     0.060 A 
BRANCH  87  88
ATOM     88  S   UNL     1       1.113   3.776   8.848  1.00  0.00     0.124 S 
ATOM     89  O   UNL     1       1.002   3.668  10.298  1.00  0.00    -0.237 OA
ATOM     90  O   UNL     1       1.120   2.515   8.113  1.00  0.00    -0.237 OA
ATOM     91  O   UNL     1       2.052   4.782   8.360  1.00  0.00    -0.744 OA
ENDBRANCH  87  88
ENDBRANCH  55  80
BRANCH  67  92
ATOM     92  C   UNL     1      -8.613   6.535  11.757  1.00  0.00     0.058 A 
ATOM     93  C   UNL     1      -8.007   7.241  12.808  1.00  0.00     0.135 A 
ATOM     94  C   UNL     1      -9.529   5.524  12.095  1.00  0.00     0.135 A 
ATOM     95  F   UNL     1      -7.125   8.218  12.545  1.00  0.00    -0.206 F 
ATOM     96  C   UNL     1      -8.262   6.926  14.141  1.00  0.00     0.059 A 
ATOM     97  C   UNL     1      -9.824   5.214  13.420  1.00  0.00     0.059 A 
ATOM     98  F   UNL     1     -10.155   4.828  11.133  1.00  0.00    -0.206 F 
ATOM     99  C   UNL     1      -9.168   5.907  14.437  1.00  0.00     0.060 A 
BRANCH  99 100
ATOM    100  S   UNL     1      -9.489   5.502  16.167  1.00  0.00     0.124 S 
ATOM    101  O   UNL     1      -8.276   4.774  16.528  1.00  0.00    -0.237 OA
ATOM    102  O   UNL     1      -9.642   6.820  16.776  1.00  0.00    -0.237 OA
ATOM    103  O   UNL     1     -10.708   4.700  16.109  1.00  0.00    -0.744 OA
ENDBRANCH  99 100
ENDBRANCH  67  92
ENDBRANCH  41  42
ENDBRANCH  34  36
ENDBRANCH  33  34
ENDBRANCH  32  33
ENDBRANCH  31  32
ENDBRANCH  30  31
ENDBRANCH  29  30
ENDBRANCH   1  29
TORSDOF 24
