REMARK SMILES COc1ccc(/C=C(\Sc2nc(C)n[nH]2)C(=O)OCCOCCOCCOC(=O)c2ccc(-c3c4nc(c(-c5c(F)cc(S(=O)(=O)[O-])cc5F)c5ccc([nH]5)c(-c5c(F)cc(S(=O)(=O)[O-])cc5F)c5nc(c(-c6c(F)cc(S(=O)(=O)[O-])cc6F)c6ccc3[nH]6)C=C5)C=C4)cc2)c(OC)c1
REMARK SMILES IDX 23 1 22 2 21 3 20 4 19 5 18 6 16 7 17 8 8 9 7 10 6 11 3 12
REMARK SMILES IDX 4 13 99 14 5 15 96 16 2 17 1 18 97 19 98 20 9 21 10 22 11 23
REMARK SMILES IDX 15 24 12 25 14 26 13 28 24 29 25 30 26 31 27 32 28 33 29 34
REMARK SMILES IDX 30 35 31 36 95 37 32 38 94 39 33 40 34 41 35 42 88 43 36 44
REMARK SMILES IDX 93 45 87 46 89 47 37 48 92 49 86 50 85 51 38 53 72 54 51 55
REMARK SMILES IDX 71 56 52 57 55 58 70 59 90 60 53 61 54 62 69 64 91 65 56 66
REMARK SMILES IDX 39 67 40 68 49 69 41 70 42 71 48 72 50 73 43 74 44 75 45 76
REMARK SMILES IDX 46 77 47 78 73 79 74 80 83 81 75 82 76 83 82 84 84 85 77 86
REMARK SMILES IDX 78 87 79 88 80 89 81 90 57 91 58 92 67 93 59 94 60 95 66 96
REMARK SMILES IDX 68 97 61 98 62 99 63 100 64 101 65 102
REMARK H PARENT 15 27 89 52 55 63
REMARK Flexibility Score: inf
ROOT
ATOM      1  C   UNL     1       0.876   7.752   5.024  1.00  0.00     0.188 C 
ENDROOT
BRANCH   1   2
ATOM      2  C   UNL     1       2.408   7.969   5.001  1.00  0.00     0.188 C 
BRANCH   2   3
ATOM      3  O   UNL     1       2.967   9.264   5.193  1.00  0.00    -0.376 OA
BRANCH   3   4
ATOM      4  C   UNL     1       2.352  10.389   4.579  1.00  0.00     0.202 C 
BRANCH   4   5
ATOM      5  C   UNL     1       2.127  10.362   3.058  1.00  0.00     0.261 C 
BRANCH   5   6
ATOM      6  O   UNL     1       1.428   9.197   2.590  1.00  0.00    -0.459 OA
BRANCH   6   7
ATOM      7  C   UNL     1       2.054   8.416   1.672  1.00  0.00     0.345 C 
ATOM      8  O   UNL     1       3.116   8.662   1.117  1.00  0.00    -0.246 OA
BRANCH   7   9
ATOM      9  C   UNL     1       1.318   7.116   1.503  1.00  0.00     0.101 C 
ATOM     10  C   UNL     1       2.070   6.031   1.794  1.00  0.00     0.035 C 
BRANCH  10  11
ATOM     11  C   UNL     1       1.765   4.586   1.765  1.00  0.00     0.018 A 
ATOM     12  C   UNL     1       1.023   1.924   1.203  1.00  0.00     0.122 A 
ATOM     13  C   UNL     1       0.197   2.752   1.965  1.00  0.00     0.047 A 
ATOM     14  C   UNL     1       2.291   2.379   0.859  1.00  0.00     0.093 A 
ATOM     15  C   UNL     1       0.572   4.065   2.267  1.00  0.00     0.016 A 
ATOM     16  C   UNL     1       2.681   3.685   1.188  1.00  0.00     0.129 A 
BRANCH  12  17
ATOM     17  O   UNL     1       0.443   0.757   0.801  1.00  0.00    -0.497 OA
ATOM     18  C   UNL     1       1.274  -0.325   0.409  1.00  0.00     0.278 C 
ENDBRANCH  12  17
BRANCH  16  19
ATOM     19  O   UNL     1       3.944   4.139   0.882  1.00  0.00    -0.496 OA
ATOM     20  C   UNL     1       4.972   3.239   1.316  1.00  0.00     0.278 C 
ENDBRANCH  16  19
ENDBRANCH  10  11
BRANCH   9  21
ATOM     21  S   UNL     1      -0.348   7.306   1.073  1.00  0.00    -0.043 SA
BRANCH  21  22
ATOM     22  C   UNL     1      -0.763   5.895   0.191  1.00  0.00     0.188 A 
ATOM     23  N   UNL     1      -1.834   5.161   0.380  1.00  0.00    -0.206 NA
ATOM     24  N   UNL     1      -0.045   5.399  -0.851  1.00  0.00    -0.254 N 
ATOM     25  C   UNL     1      -1.690   4.164  -0.551  1.00  0.00     0.148 A 
ATOM     26  N   UNL     1      -0.634   4.301  -1.366  1.00  0.00    -0.158 NA
ATOM     27  H   UNL     1       0.793   5.791  -1.186  1.00  0.00     0.192 HD
ATOM     28  C   UNL     1      -2.611   3.010  -0.605  1.00  0.00     0.092 C 
ENDBRANCH  21  22
ENDBRANCH   9  21
ENDBRANCH   7   9
ENDBRANCH   6   7
ENDBRANCH   5   6
ENDBRANCH   4   5
ENDBRANCH   3   4
ENDBRANCH   2   3
ENDBRANCH   1   2
BRANCH   1  29
ATOM     29  O   UNL     1       0.105   8.936   5.160  1.00  0.00    -0.376 OA
BRANCH  29  30
ATOM     30  C   UNL     1      -0.741   9.006   6.302  1.00  0.00     0.202 C 
BRANCH  30  31
ATOM     31  C   UNL     1      -0.020   9.257   7.625  1.00  0.00     0.261 C 
BRANCH  31  32
ATOM     32  O   UNL     1       1.114   8.428   7.844  1.00  0.00    -0.460 OA
BRANCH  32  33
ATOM     33  C   UNL     1       0.850   7.130   8.094  1.00  0.00     0.338 C 
ATOM     34  O   UNL     1      -0.224   6.567   7.976  1.00  0.00    -0.246 OA
BRANCH  33  35
ATOM     35  C   UNL     1       2.078   6.495   8.587  1.00  0.00     0.060 A 
ATOM     36  C   UNL     1       2.076   5.104   8.704  1.00  0.00     0.016 A 
ATOM     37  C   UNL     1       3.080   7.290   9.167  1.00  0.00     0.016 A 
ATOM     38  C   UNL     1       2.942   4.528   9.607  1.00  0.00     0.010 A 
ATOM     39  C   UNL     1       3.936   6.715  10.077  1.00  0.00     0.010 A 
ATOM     40  C   UNL     1       3.775   5.361  10.360  1.00  0.00    -0.014 A 
BRANCH  40  41
ATOM     41  C   UNL     1       4.357   4.799  11.560  1.00  0.00     0.031 A 
ATOM     42  C   UNL     1       5.568   3.979  11.373  1.00  0.00     0.074 A 
ATOM     43  C   UNL     1       3.840   5.086  12.770  1.00  0.00     0.049 A 
ATOM     44  N   UNL     1       5.741   2.729  11.650  1.00  0.00    -0.248 NA
ATOM     45  C   UNL     1       6.708   4.621  10.705  1.00  0.00     0.031 C 
ATOM     46  C   UNL     1       2.849   6.115  13.109  1.00  0.00     0.029 A 
ATOM     47  N   UNL     1       4.183   4.575  13.980  1.00  0.00    -0.354 N 
ATOM     48  C   UNL     1       7.075   2.467  11.364  1.00  0.00     0.074 A 
ATOM     49  C   UNL     1       7.583   3.619  10.660  1.00  0.00     0.031 C 
ATOM     50  C   UNL     1       2.837   6.290  14.449  1.00  0.00     0.029 A 
ATOM     51  C   UNL     1       3.718   5.309  15.059  1.00  0.00     0.049 A 
ATOM     52  H   UNL     1       4.716   3.753  14.082  1.00  0.00     0.167 HD
ATOM     53  C   UNL     1       7.740   1.406  11.892  1.00  0.00     0.037 A 
ATOM     54  C   UNL     1       4.117   5.174  16.346  1.00  0.00     0.037 A 
ATOM     55  C   UNL     1       6.849   0.397  12.394  1.00  0.00     0.049 A 
ATOM     56  C   UNL     1       4.733   3.828  16.484  1.00  0.00     0.074 A 
ATOM     57  C   UNL     1       5.885  -0.409  11.818  1.00  0.00     0.029 A 
ATOM     58  N   UNL     1       6.623   0.339  13.747  1.00  0.00    -0.354 N 
ATOM     59  N   UNL     1       4.079   2.701  16.386  1.00  0.00    -0.248 NA
ATOM     60  C   UNL     1       6.176   3.718  16.328  1.00  0.00     0.031 C 
ATOM     61  C   UNL     1       4.864  -0.541  12.804  1.00  0.00     0.029 A 
ATOM     62  C   UNL     1       5.271   0.174  13.932  1.00  0.00     0.049 A 
ATOM     63  H   UNL     1       7.304   0.404  14.455  1.00  0.00     0.167 HD
ATOM     64  C   UNL     1       4.960   1.823  15.769  1.00  0.00     0.074 A 
ATOM     65  C   UNL     1       6.263   2.470  15.860  1.00  0.00     0.031 C 
ATOM     66  C   UNL     1       4.511   0.782  15.006  1.00  0.00     0.037 A 
BRANCH  53  67
ATOM     67  C   UNL     1       9.212   1.438  12.186  1.00  0.00     0.058 A 
ATOM     68  C   UNL     1       9.933   0.245  12.366  1.00  0.00     0.135 A 
ATOM     69  C   UNL     1       9.897   2.630  12.517  1.00  0.00     0.135 A 
ATOM     70  F   UNL     1       9.359  -0.943  12.118  1.00  0.00    -0.206 F 
ATOM     71  C   UNL     1      11.239   0.236  12.858  1.00  0.00     0.059 A 
ATOM     72  C   UNL     1      11.215   2.649  12.950  1.00  0.00     0.059 A 
ATOM     73  F   UNL     1       9.281   3.821  12.516  1.00  0.00    -0.206 F 
ATOM     74  C   UNL     1      11.868   1.445  13.153  1.00  0.00     0.060 A 
BRANCH  74  75
ATOM     75  S   UNL     1      13.521   1.439  13.869  1.00  0.00     0.124 S 
ATOM     76  O   UNL     1      13.240   1.021  15.238  1.00  0.00    -0.237 OA
ATOM     77  O   UNL     1      14.216   0.466  13.032  1.00  0.00    -0.237 OA
ATOM     78  O   UNL     1      13.960   2.821  13.706  1.00  0.00    -0.744 OA
ENDBRANCH  74  75
ENDBRANCH  53  67
BRANCH  54  79
ATOM     79  C   UNL     1       4.324   6.264  17.334  1.00  0.00     0.058 A 
ATOM     80  C   UNL     1       4.496   5.983  18.699  1.00  0.00     0.135 A 
ATOM     81  C   UNL     1       4.622   7.582  16.927  1.00  0.00     0.135 A 
ATOM     82  F   UNL     1       4.265   4.747  19.167  1.00  0.00    -0.206 F 
ATOM     83  C   UNL     1       4.976   6.939  19.600  1.00  0.00     0.059 A 
ATOM     84  C   UNL     1       5.083   8.556  17.809  1.00  0.00     0.059 A 
ATOM     85  F   UNL     1       4.567   7.943  15.637  1.00  0.00    -0.206 F 
ATOM     86  C   UNL     1       5.283   8.220  19.141  1.00  0.00     0.060 A 
BRANCH  86  87
ATOM     87  S   UNL     1       6.066   9.403  20.259  1.00  0.00     0.124 S 
ATOM     88  O   UNL     1       4.975   9.720  21.174  1.00  0.00    -0.237 OA
ATOM     89  O   UNL     1       7.162   8.618  20.818  1.00  0.00    -0.237 OA
ATOM     90  O   UNL     1       6.472  10.490  19.372  1.00  0.00    -0.744 OA
ENDBRANCH  86  87
ENDBRANCH  54  79
BRANCH  66  91
ATOM     91  C   UNL     1       3.047   0.422  15.092  1.00  0.00     0.058 A 
ATOM     92  C   UNL     1       2.007   1.273  14.678  1.00  0.00     0.135 A 
ATOM     93  C   UNL     1       2.692  -0.884  15.463  1.00  0.00     0.135 A 
ATOM     94  F   UNL     1       2.269   2.498  14.203  1.00  0.00    -0.206 F 
ATOM     95  C   UNL     1       0.673   0.861  14.676  1.00  0.00     0.059 A 
ATOM     96  C   UNL     1       1.370  -1.328  15.438  1.00  0.00     0.059 A 
ATOM     97  F   UNL     1       3.643  -1.769  15.805  1.00  0.00    -0.206 F 
ATOM     98  C   UNL     1       0.363  -0.444  15.055  1.00  0.00     0.060 A 
BRANCH  98  99
ATOM     99  S   UNL     1      -1.353  -1.002  14.958  1.00  0.00     0.124 S 
ATOM    100  O   UNL     1      -1.953  -0.354  16.119  1.00  0.00    -0.237 OA
ATOM    101  O   UNL     1      -1.781  -0.496  13.657  1.00  0.00    -0.237 OA
ATOM    102  O   UNL     1      -1.242  -2.457  15.042  1.00  0.00    -0.744 OA
ENDBRANCH  98  99
ENDBRANCH  66  91
ENDBRANCH  40  41
ENDBRANCH  33  35
ENDBRANCH  32  33
ENDBRANCH  31  32
ENDBRANCH  30  31
ENDBRANCH  29  30
ENDBRANCH   1  29
TORSDOF 25
