REMARK SMILES C[C@H](NC(=O)N(CC(=O)OCCOCCOCCOC(=O)c1ccc(-c2c3nc(c(-c4c(F)cc(S(=O)(=O)[O-])cc4F)c4ccc([nH]4)c(-c4c(F)cc(S(=O)(=O)[O-])cc4F)c4nc(c(-c5c(F)cc(S(=O)(=O)[O-])cc5F)c5ccc2[nH]5)C=C4)C=C3)cc1)C(C)(C)C)c1ccccc1
REMARK SMILES IDX 14 1 13 2 12 3 11 4 10 5 8 6 9 7 7 8 6 9 4 10 3 11 5 13 2 14
REMARK SMILES IDX 1 15 92 16 93 17 97 18 94 19 96 20 95 21 88 22 89 23 90 24
REMARK SMILES IDX 91 25 15 26 16 27 17 28 18 29 19 30 20 31 21 32 22 33 23 34
REMARK SMILES IDX 87 35 24 36 86 37 25 38 26 39 27 40 80 41 28 42 85 43 79 44
REMARK SMILES IDX 81 45 29 46 84 47 78 48 77 49 30 51 64 52 43 53 63 54 44 55
REMARK SMILES IDX 47 56 62 57 82 58 45 59 46 60 61 62 83 63 48 64 31 65 32 66
REMARK SMILES IDX 41 67 33 68 34 69 40 70 42 71 35 72 36 73 37 74 38 75 39 76
REMARK SMILES IDX 65 77 66 78 75 79 67 80 68 81 74 82 76 83 69 84 70 85 71 86
REMARK SMILES IDX 72 87 73 88 49 89 50 90 59 91 51 92 52 93 58 94 60 95 53 96
REMARK SMILES IDX 54 97 55 98 56 99 57 100
REMARK H PARENT 3 12 81 50 47 61
REMARK Flexibility Score: inf
ROOT
ATOM      1  C   UNL     1      -0.267   4.162   5.047  1.00  0.00     0.188 C 
ENDROOT
BRANCH   1   2
ATOM      2  O   UNL     1      -1.651   4.286   4.722  1.00  0.00    -0.376 OA
BRANCH   2   3
ATOM      3  C   UNL     1      -2.392   3.105   4.456  1.00  0.00     0.202 C 
BRANCH   3   4
ATOM      4  C   UNL     1      -2.274   2.546   3.032  1.00  0.00     0.261 C 
BRANCH   4   5
ATOM      5  O   UNL     1      -0.941   2.164   2.619  1.00  0.00    -0.462 OA
BRANCH   5   6
ATOM      6  C   UNL     1      -0.306   3.104   1.874  1.00  0.00     0.325 C 
ATOM      7  O   UNL     1      -0.716   4.254   1.725  1.00  0.00    -0.250 OA
BRANCH   6   8
ATOM      8  C   UNL     1       0.887   2.605   1.056  1.00  0.00     0.244 C 
BRANCH   8   9
ATOM      9  N   UNL     1       1.643   1.348   1.255  1.00  0.00    -0.309 N 
BRANCH   9  10
ATOM     10  C   UNL     1       1.424   0.176   0.574  1.00  0.00     0.318 C 
ATOM     11  N   UNL     1       0.936   0.117  -0.674  1.00  0.00    -0.331 N 
ATOM     12  H   UNL     1       0.974  -0.802  -1.026  1.00  0.00     0.165 HD
ATOM     13  O   UNL     1       1.764  -0.925   1.021  1.00  0.00    -0.249 OA
BRANCH  11  14
ATOM     14  C   UNL     1       0.365   1.032  -1.658  1.00  0.00     0.111 C 
ATOM     15  C   UNL     1       0.671   0.567  -3.080  1.00  0.00     0.036 C 
BRANCH  14  16
ATOM     16  C   UNL     1      -1.133   1.146  -1.410  1.00  0.00    -0.026 A 
ATOM     17  C   UNL     1      -1.767   2.397  -1.409  1.00  0.00     0.006 A 
ATOM     18  C   UNL     1      -1.899   0.009  -1.094  1.00  0.00     0.006 A 
ATOM     19  C   UNL     1      -3.110   2.511  -1.044  1.00  0.00     0.000 A 
ATOM     20  C   UNL     1      -3.241   0.124  -0.735  1.00  0.00     0.000 A 
ATOM     21  C   UNL     1      -3.844   1.377  -0.700  1.00  0.00     0.000 A 
ENDBRANCH  14  16
ENDBRANCH  11  14
ENDBRANCH   9  10
BRANCH   9  22
ATOM     22  C   UNL     1       2.767   1.342   2.262  1.00  0.00     0.037 C 
ATOM     23  C   UNL     1       2.449   0.450   3.481  1.00  0.00     0.034 C 
ATOM     24  C   UNL     1       4.085   0.857   1.601  1.00  0.00     0.034 C 
ATOM     25  C   UNL     1       3.091   2.747   2.792  1.00  0.00     0.034 C 
ENDBRANCH   9  22
ENDBRANCH   8   9
ENDBRANCH   6   8
ENDBRANCH   5   6
ENDBRANCH   4   5
ENDBRANCH   3   4
ENDBRANCH   2   3
ENDBRANCH   1   2
BRANCH   1  26
ATOM     26  C   UNL     1       0.248   2.804   5.525  1.00  0.00     0.188 C 
BRANCH  26  27
ATOM     27  O   UNL     1      -0.320   2.474   6.794  1.00  0.00    -0.376 OA
BRANCH  27  28
ATOM     28  C   UNL     1       0.614   1.806   7.640  1.00  0.00     0.202 C 
BRANCH  28  29
ATOM     29  C   UNL     1       1.303   2.802   8.579  1.00  0.00     0.261 C 
BRANCH  29  30
ATOM     30  O   UNL     1       1.846   3.964   7.918  1.00  0.00    -0.460 OA
BRANCH  30  31
ATOM     31  C   UNL     1       3.078   3.819   7.391  1.00  0.00     0.338 C 
ATOM     32  O   UNL     1       3.735   2.788   7.349  1.00  0.00    -0.246 OA
BRANCH  31  33
ATOM     33  C   UNL     1       3.494   5.074   6.736  1.00  0.00     0.060 A 
ATOM     34  C   UNL     1       3.512   5.110   5.343  1.00  0.00     0.016 A 
ATOM     35  C   UNL     1       3.993   6.152   7.460  1.00  0.00     0.016 A 
ATOM     36  C   UNL     1       4.099   6.171   4.655  1.00  0.00     0.010 A 
ATOM     37  C   UNL     1       4.555   7.239   6.772  1.00  0.00     0.010 A 
ATOM     38  C   UNL     1       4.655   7.240   5.365  1.00  0.00    -0.014 A 
BRANCH  38  39
ATOM     39  C   UNL     1       5.465   8.280   4.668  1.00  0.00     0.031 A 
ATOM     40  C   UNL     1       6.938   8.379   4.973  1.00  0.00     0.074 A 
ATOM     41  C   UNL     1       4.929   9.112   3.753  1.00  0.00     0.049 A 
ATOM     42  N   UNL     1       7.783   9.338   4.700  1.00  0.00    -0.248 NA
ATOM     43  C   UNL     1       7.535   7.239   5.689  1.00  0.00     0.031 C 
ATOM     44  C   UNL     1       3.549   9.073   3.270  1.00  0.00     0.029 A 
ATOM     45  N   UNL     1       5.490  10.165   3.068  1.00  0.00    -0.354 N 
ATOM     46  C   UNL     1       8.991   8.953   5.272  1.00  0.00     0.074 A 
ATOM     47  C   UNL     1       8.774   7.662   5.889  1.00  0.00     0.031 C 
ATOM     48  C   UNL     1       3.372  10.053   2.367  1.00  0.00     0.029 A 
ATOM     49  C   UNL     1       4.599  10.838   2.265  1.00  0.00     0.049 A 
ATOM     50  H   UNL     1       6.439  10.413   3.146  1.00  0.00     0.167 HD
ATOM     51  C   UNL     1      10.169   9.622   5.291  1.00  0.00     0.037 A 
ATOM     52  C   UNL     1       4.737  11.986   1.571  1.00  0.00     0.037 A 
ATOM     53  C   UNL     1      10.394  10.879   4.627  1.00  0.00     0.049 A 
ATOM     54  C   UNL     1       6.040  12.740   1.637  1.00  0.00     0.074 A 
ATOM     55  C   UNL     1      11.543  11.651   4.604  1.00  0.00     0.029 A 
ATOM     56  N   UNL     1       9.456  11.536   3.845  1.00  0.00    -0.354 N 
ATOM     57  N   UNL     1       7.143  12.426   2.274  1.00  0.00    -0.248 NA
ATOM     58  C   UNL     1       6.107  14.019   0.915  1.00  0.00     0.031 C 
ATOM     59  C   UNL     1      11.292  12.787   3.826  1.00  0.00     0.029 A 
ATOM     60  C   UNL     1       9.998  12.705   3.338  1.00  0.00     0.049 A 
ATOM     61  H   UNL     1       8.540  11.219   3.677  1.00  0.00     0.167 HD
ATOM     62  C   UNL     1       8.035  13.463   2.024  1.00  0.00     0.074 A 
ATOM     63  C   UNL     1       7.351  14.406   1.163  1.00  0.00     0.031 C 
ATOM     64  C   UNL     1       9.304  13.626   2.474  1.00  0.00     0.037 A 
BRANCH  51  65
ATOM     65  C   UNL     1      11.287   9.032   6.102  1.00  0.00     0.058 A 
ATOM     66  C   UNL     1      12.024   7.923   5.663  1.00  0.00     0.135 A 
ATOM     67  C   UNL     1      11.633   9.602   7.339  1.00  0.00     0.135 A 
ATOM     68  F   UNL     1      11.721   7.328   4.498  1.00  0.00    -0.206 F 
ATOM     69  C   UNL     1      13.049   7.381   6.434  1.00  0.00     0.059 A 
ATOM     70  C   UNL     1      12.667   9.091   8.116  1.00  0.00     0.059 A 
ATOM     71  F   UNL     1      10.957  10.664   7.806  1.00  0.00    -0.206 F 
ATOM     72  C   UNL     1      13.359   7.969   7.662  1.00  0.00     0.060 A 
BRANCH  72  73
ATOM     73  S   UNL     1      14.682   7.253   8.661  1.00  0.00     0.124 S 
ATOM     74  O   UNL     1      14.019   6.078   9.219  1.00  0.00    -0.237 OA
ATOM     75  O   UNL     1      15.717   6.984   7.668  1.00  0.00    -0.237 OA
ATOM     76  O   UNL     1      14.996   8.310   9.617  1.00  0.00    -0.744 OA
ENDBRANCH  72  73
ENDBRANCH  51  65
BRANCH  52  77
ATOM     77  C   UNL     1       3.587  12.534   0.801  1.00  0.00     0.058 A 
ATOM     78  C   UNL     1       3.597  12.553  -0.601  1.00  0.00     0.135 A 
ATOM     79  C   UNL     1       2.455  13.049   1.453  1.00  0.00     0.135 A 
ATOM     80  F   UNL     1       4.664  12.090  -1.271  1.00  0.00    -0.206 F 
ATOM     81  C   UNL     1       2.528  13.066  -1.331  1.00  0.00     0.059 A 
ATOM     82  C   UNL     1       1.364  13.543   0.746  1.00  0.00     0.059 A 
ATOM     83  F   UNL     1       2.395  13.051   2.794  1.00  0.00    -0.206 F 
ATOM     84  C   UNL     1       1.413  13.555  -0.647  1.00  0.00     0.060 A 
BRANCH  84  85
ATOM     85  S   UNL     1       0.003  14.162  -1.598  1.00  0.00     0.124 S 
ATOM     86  O   UNL     1       0.467  15.485  -1.999  1.00  0.00    -0.237 OA
ATOM     87  O   UNL     1      -0.102  13.171  -2.666  1.00  0.00    -0.237 OA
ATOM     88  O   UNL     1      -1.087  14.140  -0.627  1.00  0.00    -0.744 OA
ENDBRANCH  84  85
ENDBRANCH  52  77
BRANCH  64  89
ATOM     89  C   UNL     1      10.045  14.851   2.023  1.00  0.00     0.058 A 
ATOM     90  C   UNL     1       9.793  16.110   2.588  1.00  0.00     0.135 A 
ATOM     91  C   UNL     1      11.055  14.755   1.052  1.00  0.00     0.135 A 
ATOM     92  F   UNL     1       8.833  16.254   3.516  1.00  0.00    -0.206 F 
ATOM     93  C   UNL     1      10.506  17.238   2.194  1.00  0.00     0.059 A 
ATOM     94  C   UNL     1      11.793  15.866   0.657  1.00  0.00     0.059 A 
ATOM     95  F   UNL     1      11.340  13.570   0.489  1.00  0.00    -0.206 F 
ATOM     96  C   UNL     1      11.505  17.106   1.227  1.00  0.00     0.060 A 
BRANCH  96  97
ATOM     97  S   UNL     1      12.450  18.567   0.747  1.00  0.00     0.124 S 
ATOM     98  O   UNL     1      11.513  19.244  -0.143  1.00  0.00    -0.237 OA
ATOM     99  O   UNL     1      12.692  19.223   2.029  1.00  0.00    -0.237 OA
ATOM    100  O   UNL     1      13.636  18.007   0.105  1.00  0.00    -0.744 OA
ENDBRANCH  96  97
ENDBRANCH  64  89
ENDBRANCH  38  39
ENDBRANCH  31  33
ENDBRANCH  30  31
ENDBRANCH  29  30
ENDBRANCH  28  29
ENDBRANCH  27  28
ENDBRANCH  26  27
ENDBRANCH   1  26
TORSDOF 25
