REMARK SMILES O=C(OCCOCCOCCOC(=O)[C@@]1([NH2+]C2CC2)CC[C@@H]([N@@H+]2CC[N@@H+]3CCC[C@@H]3C2)C1)c1ccc(-c2c3nc(c(-c4c(F)cc(S(=O)(=O)[O-])cc4F)c4ccc([nH]4)c(-c4c(F)cc(S(=O)(=O)[O-])cc4F)c4nc(c(-c5c(F)cc(S(=O)(=O)[O-])cc5F)c5ccc2[nH]5)C=C4)C=C3)cc1
REMARK SMILES IDX 7 1 6 2 5 3 4 4 3 5 2 6 1 7 33 8 34 9 98 10 35 11 97 12
REMARK SMILES IDX 36 13 37 14 38 15 91 16 39 17 96 18 90 19 92 20 40 21 95 22
REMARK SMILES IDX 89 23 88 24 41 26 75 27 54 28 74 29 55 30 58 31 73 32 93 33
REMARK SMILES IDX 56 34 57 35 72 37 94 38 59 39 42 40 43 41 52 42 44 43 45 44
REMARK SMILES IDX 51 45 53 46 46 47 47 48 48 49 49 50 50 51 76 52 77 53 86 54
REMARK SMILES IDX 78 55 79 56 85 57 87 58 80 59 81 60 82 61 83 62 84 63 60 64
REMARK SMILES IDX 61 65 70 66 62 67 63 68 69 69 71 70 64 71 65 72 66 73 67 74
REMARK SMILES IDX 68 75 8 76 9 77 10 78 11 79 12 80 13 81 14 82 15 83 20 84
REMARK SMILES IDX 32 85 21 86 22 87 16 88 17 91 18 92 19 93 23 94 24 95 31 96
REMARK SMILES IDX 25 98 30 99 26 100 29 101 27 102 28 104
REMARK H PARENT 92 25 58 36 16 89 16 90 23 97 26 103
REMARK Flexibility Score: inf
ROOT
ATOM      1  C   UNL     1       3.530   0.054   1.982  1.00  0.00     0.188 C 
ENDROOT
BRANCH   1   2
ATOM      2  O   UNL     1       4.356   1.218   2.079  1.00  0.00    -0.376 OA
BRANCH   2   3
ATOM      3  C   UNL     1       5.411   1.228   1.121  1.00  0.00     0.202 C 
BRANCH   3   4
ATOM      4  C   UNL     1       4.984   1.752  -0.263  1.00  0.00     0.261 C 
BRANCH   4   5
ATOM      5  O   UNL     1       3.629   1.418  -0.642  1.00  0.00    -0.460 OA
BRANCH   5   6
ATOM      6  C   UNL     1       3.118   0.514  -1.507  1.00  0.00     0.338 C 
ATOM      7  O   UNL     1       2.006   0.732  -1.985  1.00  0.00    -0.246 OA
BRANCH   6   8
ATOM      8  C   UNL     1       3.765  -0.803  -1.805  1.00  0.00     0.060 A 
ATOM      9  C   UNL     1       4.943  -1.269  -1.226  1.00  0.00     0.016 A 
ATOM     10  C   UNL     1       3.097  -1.667  -2.692  1.00  0.00     0.016 A 
ATOM     11  C   UNL     1       5.475  -2.522  -1.540  1.00  0.00     0.010 A 
ATOM     12  C   UNL     1       3.616  -2.932  -3.007  1.00  0.00     0.010 A 
ATOM     13  C   UNL     1       4.830  -3.355  -2.450  1.00  0.00    -0.014 A 
BRANCH  13  14
ATOM     14  C   UNL     1       5.503  -4.591  -2.916  1.00  0.00     0.031 A 
ATOM     15  C   UNL     1       6.199  -4.575  -4.228  1.00  0.00     0.074 A 
ATOM     16  C   UNL     1       5.581  -5.699  -2.157  1.00  0.00     0.049 A 
ATOM     17  N   UNL     1       6.873  -5.539  -4.787  1.00  0.00    -0.248 NA
ATOM     18  C   UNL     1       6.200  -3.308  -4.973  1.00  0.00     0.031 C 
ATOM     19  C   UNL     1       5.112  -5.756  -0.792  1.00  0.00     0.029 A 
ATOM     20  N   UNL     1       6.038  -6.975  -2.396  1.00  0.00    -0.354 N 
ATOM     21  C   UNL     1       7.413  -4.991  -5.932  1.00  0.00     0.074 A 
ATOM     22  C   UNL     1       6.955  -3.620  -6.016  1.00  0.00     0.031 C 
ATOM     23  C   UNL     1       5.175  -7.023  -0.365  1.00  0.00     0.029 A 
ATOM     24  C   UNL     1       5.729  -7.864  -1.387  1.00  0.00     0.049 A 
ATOM     25  H   UNL     1       6.535  -7.228  -3.207  1.00  0.00     0.167 HD
ATOM     26  C   UNL     1       8.238  -5.590  -6.814  1.00  0.00     0.037 A 
ATOM     27  C   UNL     1       5.861  -9.199  -1.259  1.00  0.00     0.037 A 
ATOM     28  C   UNL     1       8.658  -6.962  -6.720  1.00  0.00     0.049 A 
ATOM     29  C   UNL     1       6.640  -9.875  -2.334  1.00  0.00     0.074 A 
ATOM     30  C   UNL     1       9.470  -7.668  -7.587  1.00  0.00     0.029 A 
ATOM     31  N   UNL     1       8.281  -7.846  -5.716  1.00  0.00    -0.354 N 
ATOM     32  N   UNL     1       7.186  -9.323  -3.390  1.00  0.00    -0.248 NA
ATOM     33  C   UNL     1       6.884 -11.312  -2.193  1.00  0.00     0.031 C 
ATOM     34  C   UNL     1       9.525  -8.995  -7.149  1.00  0.00     0.029 A 
ATOM     35  C   UNL     1       8.794  -9.106  -5.978  1.00  0.00     0.049 A 
ATOM     36  H   UNL     1       7.730  -7.612  -4.934  1.00  0.00     0.167 HD
ATOM     37  C   UNL     1       7.874 -10.338  -4.022  1.00  0.00     0.074 A 
ATOM     38  C   UNL     1       7.698 -11.531  -3.215  1.00  0.00     0.031 C 
ATOM     39  C   UNL     1       8.585 -10.281  -5.170  1.00  0.00     0.037 A 
BRANCH  26  40
ATOM     40  C   UNL     1       8.674  -4.772  -7.983  1.00  0.00     0.058 A 
ATOM     41  C   UNL     1       9.639  -3.761  -7.864  1.00  0.00     0.135 A 
ATOM     42  C   UNL     1       8.112  -5.011  -9.245  1.00  0.00     0.135 A 
ATOM     43  F   UNL     1      10.165  -3.462  -6.665  1.00  0.00    -0.206 F 
ATOM     44  C   UNL     1      10.041  -3.017  -8.966  1.00  0.00     0.059 A 
ATOM     45  C   UNL     1       8.514  -4.296 -10.363  1.00  0.00     0.059 A 
ATOM     46  F   UNL     1       7.159  -5.945  -9.393  1.00  0.00    -0.206 F 
ATOM     47  C   UNL     1       9.479  -3.301 -10.213  1.00  0.00     0.060 A 
BRANCH  47  48
ATOM     48  S   UNL     1      10.052  -2.365 -11.643  1.00  0.00     0.124 S 
ATOM     49  O   UNL     1       9.476  -1.051 -11.382  1.00  0.00    -0.237 OA
ATOM     50  O   UNL     1      11.500  -2.462 -11.516  1.00  0.00    -0.237 OA
ATOM     51  O   UNL     1       9.474  -3.089 -12.775  1.00  0.00    -0.744 OA
ENDBRANCH  47  48
ENDBRANCH  26  40
BRANCH  27  52
ATOM     52  C   UNL     1       5.299  -9.967  -0.101  1.00  0.00     0.058 A 
ATOM     53  C   UNL     1       6.122 -10.638   0.820  1.00  0.00     0.135 A 
ATOM     54  C   UNL     1       3.910 -10.088   0.086  1.00  0.00     0.135 A 
ATOM     55  F   UNL     1       7.457 -10.543   0.711  1.00  0.00    -0.206 F 
ATOM     56  C   UNL     1       5.600 -11.430   1.846  1.00  0.00     0.059 A 
ATOM     57  C   UNL     1       3.365 -10.862   1.111  1.00  0.00     0.059 A 
ATOM     58  F   UNL     1       3.063  -9.451  -0.739  1.00  0.00    -0.206 F 
ATOM     59  C   UNL     1       4.218 -11.546   1.978  1.00  0.00     0.060 A 
BRANCH  59  60
ATOM     60  S   UNL     1       3.530 -12.553   3.316  1.00  0.00     0.124 S 
ATOM     61  O   UNL     1       3.633 -13.897   2.757  1.00  0.00    -0.237 OA
ATOM     62  O   UNL     1       4.415 -12.269   4.442  1.00  0.00    -0.237 OA
ATOM     63  O   UNL     1       2.173 -12.034   3.463  1.00  0.00    -0.744 OA
ENDBRANCH  59  60
ENDBRANCH  27  52
BRANCH  39  64
ATOM     64  C   UNL     1       9.200 -11.567  -5.616  1.00  0.00     0.058 A 
ATOM     65  C   UNL     1       8.405 -12.617  -6.100  1.00  0.00     0.135 A 
ATOM     66  C   UNL     1      10.589 -11.748  -5.562  1.00  0.00     0.135 A 
ATOM     67  F   UNL     1       7.069 -12.491  -6.144  1.00  0.00    -0.206 F 
ATOM     68  C   UNL     1       8.968 -13.820  -6.494  1.00  0.00     0.059 A 
ATOM     69  C   UNL     1      11.176 -12.932  -5.985  1.00  0.00     0.059 A 
ATOM     70  F   UNL     1      11.384 -10.770  -5.100  1.00  0.00    -0.206 F 
ATOM     71  C   UNL     1      10.355 -13.965  -6.439  1.00  0.00     0.060 A 
BRANCH  71  72
ATOM     72  S   UNL     1      11.075 -15.516  -7.005  1.00  0.00     0.124 S 
ATOM     73  O   UNL     1      10.728 -16.417  -5.910  1.00  0.00    -0.237 OA
ATOM     74  O   UNL     1      10.370 -15.744  -8.263  1.00  0.00    -0.237 OA
ATOM     75  O   UNL     1      12.494 -15.202  -7.136  1.00  0.00    -0.744 OA
ENDBRANCH  71  72
ENDBRANCH  39  64
ENDBRANCH  13  14
ENDBRANCH   6   8
ENDBRANCH   5   6
ENDBRANCH   4   5
ENDBRANCH   3   4
ENDBRANCH   2   3
ENDBRANCH   1   2
BRANCH   1  76
ATOM     76  C   UNL     1       2.514   0.016   3.122  1.00  0.00     0.188 C 
BRANCH  76  77
ATOM     77  O   UNL     1       3.014  -0.057   4.457  1.00  0.00    -0.376 OA
BRANCH  77  78
ATOM     78  C   UNL     1       4.298  -0.624   4.656  1.00  0.00     0.202 C 
BRANCH  78  79
ATOM     79  C   UNL     1       4.426  -2.146   4.526  1.00  0.00     0.261 C 
BRANCH  79  80
ATOM     80  O   UNL     1       3.739  -2.738   3.413  1.00  0.00    -0.459 OA
BRANCH  80  81
ATOM     81  C   UNL     1       2.471  -3.169   3.692  1.00  0.00     0.368 C 
ATOM     82  O   UNL     1       1.866  -2.878   4.720  1.00  0.00    -0.245 OA
BRANCH  81  83
ATOM     83  C   UNL     1       1.969  -4.208   2.678  1.00  0.00     0.200 C 
ATOM     84  C   UNL     1       2.865  -4.544   1.487  1.00  0.00     0.087 C 
ATOM     85  C   UNL     1       2.057  -5.550   3.495  1.00  0.00     0.146 C 
ATOM     86  C   UNL     1       2.433  -5.964   1.167  1.00  0.00     0.072 C 
ATOM     87  C   UNL     1       2.467  -6.665   2.522  1.00  0.00     0.191 C 
BRANCH  83  88
ATOM     88  N   UNL     1       0.553  -3.981   2.293  1.00  0.00    -0.329 N 
ATOM     89  H   UNL     1       0.071  -3.741   3.160  1.00  0.00     0.347 HD
ATOM     90  H   UNL     1       0.356  -4.848   1.793  1.00  0.00     0.347 HD
BRANCH  88  91
ATOM     91  C   UNL     1       0.097  -2.997   1.307  1.00  0.00     0.183 C 
ATOM     92  C   UNL     1       0.923  -2.021   0.532  1.00  0.00     0.071 C 
ATOM     93  C   UNL     1       0.329  -3.206  -0.172  1.00  0.00     0.071 C 
ENDBRANCH  88  91
ENDBRANCH  83  88
BRANCH  87  94
ATOM     94  N   UNL     1       3.717  -7.359   2.862  1.00  0.00    -0.323 N 
ATOM     95  C   UNL     1       3.507  -8.380   3.918  1.00  0.00     0.324 C 
ATOM     96  C   UNL     1       4.995  -6.659   3.060  1.00  0.00     0.328 C 
ATOM     97  H   UNL     1       3.901  -7.751   1.939  1.00  0.00     0.348 HD
ATOM     98  C   UNL     1       4.765  -8.795   4.731  1.00  0.00     0.324 C 
ATOM     99  C   UNL     1       6.151  -7.699   3.030  1.00  0.00     0.240 C 
ATOM    100  N   UNL     1       6.010  -8.818   3.966  1.00  0.00    -0.323 N 
ATOM    101  C   UNL     1       7.558  -7.149   3.243  1.00  0.00     0.077 C 
ATOM    102  C   UNL     1       7.211  -8.918   4.783  1.00  0.00     0.263 C 
ATOM    103  H   UNL     1       5.925  -9.679   3.425  1.00  0.00     0.348 HD
ATOM    104  C   UNL     1       8.286  -8.315   3.896  1.00  0.00     0.068 C 
ENDBRANCH  87  94
ENDBRANCH  81  83
ENDBRANCH  80  81
ENDBRANCH  79  80
ENDBRANCH  78  79
ENDBRANCH  77  78
ENDBRANCH  76  77
ENDBRANCH   1  76
TORSDOF 23
