REMARK SMILES C[NH2+][C@@]1(C(=O)OCCOCCOCCOC(=O)c2ccc(-c3c4nc(c(-c5c(F)cc(S(=O)(=O)[O-])cc5F)c5ccc([nH]5)c(-c5c(F)cc(S(=O)(=O)[O-])cc5F)c5nc(c(-c6c(F)cc(S(=O)(=O)[O-])cc6F)c6ccc3[nH]6)C=C5)C=C4)cc2)CCC[C@H](Oc2cccc(OC)c2)C1
REMARK SMILES IDX 10 1 9 2 8 3 7 4 6 5 4 6 5 7 3 8 84 9 97 10 85 11 87 12
REMARK SMILES IDX 86 13 2 14 1 15 88 18 89 19 90 20 96 21 91 22 93 23 92 24
REMARK SMILES IDX 94 25 95 26 11 27 12 28 13 29 14 30 15 31 16 32 17 33 18 34
REMARK SMILES IDX 19 35 83 36 20 37 82 38 21 39 22 40 23 41 76 42 24 43 81 44
REMARK SMILES IDX 75 45 77 46 25 47 80 48 74 49 73 50 26 52 60 53 39 54 59 55
REMARK SMILES IDX 40 56 43 57 58 58 78 59 41 60 42 61 57 63 79 64 44 65 27 66
REMARK SMILES IDX 28 67 37 68 29 69 30 70 36 71 38 72 31 73 32 74 33 75 34 76
REMARK SMILES IDX 35 77 61 78 62 79 71 80 63 81 64 82 70 83 72 84 65 85 66 86
REMARK SMILES IDX 67 87 68 88 69 89 45 90 46 91 55 92 47 93 48 94 54 95 56 96
REMARK SMILES IDX 49 97 50 98 51 99 52 100 53 101
REMARK H PARENT 2 16 2 17 77 51 43 62
REMARK Flexibility Score: inf
ROOT
ATOM      1  C   UNL     1      -0.583   0.450  -4.539  1.00  0.00     0.188 C 
ENDROOT
BRANCH   1   2
ATOM      2  O   UNL     1      -1.341  -0.069  -5.623  1.00  0.00    -0.376 OA
BRANCH   2   3
ATOM      3  C   UNL     1      -2.600  -0.667  -5.326  1.00  0.00     0.202 C 
BRANCH   3   4
ATOM      4  C   UNL     1      -2.633  -1.722  -4.212  1.00  0.00     0.261 C 
BRANCH   4   5
ATOM      5  O   UNL     1      -2.369  -1.200  -2.885  1.00  0.00    -0.459 OA
BRANCH   5   6
ATOM      6  C   UNL     1      -1.467  -1.889  -2.146  1.00  0.00     0.368 C 
ATOM      7  O   UNL     1      -0.877  -2.875  -2.589  1.00  0.00    -0.245 OA
BRANCH   6   8
ATOM      8  C   UNL     1      -1.145  -1.333  -0.688  1.00  0.00     0.197 C 
ATOM      9  C   UNL     1      -1.516  -2.515   0.244  1.00  0.00     0.081 C 
ATOM     10  C   UNL     1      -1.842  -0.063  -0.107  1.00  0.00     0.126 C 
ATOM     11  C   UNL     1      -3.032  -2.673   0.370  1.00  0.00     0.011 C 
ATOM     12  C   UNL     1      -3.356  -0.161   0.146  1.00  0.00     0.180 C 
ATOM     13  C   UNL     1      -3.671  -1.421   0.958  1.00  0.00     0.046 C 
BRANCH   8  14
ATOM     14  N   UNL     1       0.352  -1.229  -0.666  1.00  0.00    -0.334 N 
ATOM     15  C   UNL     1       0.996  -0.232   0.161  1.00  0.00     0.331 C 
ATOM     16  H   UNL     1       0.706  -2.136  -0.362  1.00  0.00     0.347 HD
ATOM     17  H   UNL     1       0.580  -0.930  -1.614  1.00  0.00     0.347 HD
ENDBRANCH   8  14
BRANCH  12  18
ATOM     18  O   UNL     1      -3.978  -0.140  -1.129  1.00  0.00    -0.490 OA
BRANCH  18  19
ATOM     19  C   UNL     1      -5.305   0.116  -1.276  1.00  0.00     0.123 A 
ATOM     20  C   UNL     1      -6.241   0.299  -0.265  1.00  0.00     0.047 A 
ATOM     21  C   UNL     1      -5.718   0.134  -2.613  1.00  0.00     0.092 A 
ATOM     22  C   UNL     1      -7.594   0.412  -0.591  1.00  0.00     0.008 A 
ATOM     23  C   UNL     1      -7.062   0.259  -2.950  1.00  0.00     0.122 A 
ATOM     24  C   UNL     1      -8.002   0.374  -1.927  1.00  0.00     0.046 A 
BRANCH  23  25
ATOM     25  O   UNL     1      -7.571   0.256  -4.220  1.00  0.00    -0.497 OA
ATOM     26  C   UNL     1      -6.621   0.324  -5.280  1.00  0.00     0.278 C 
ENDBRANCH  23  25
ENDBRANCH  18  19
ENDBRANCH  12  18
ENDBRANCH   6   8
ENDBRANCH   5   6
ENDBRANCH   4   5
ENDBRANCH   3   4
ENDBRANCH   2   3
ENDBRANCH   1   2
BRANCH   1  27
ATOM     27  C   UNL     1      -1.307   1.360  -3.543  1.00  0.00     0.188 C 
BRANCH  27  28
ATOM     28  O   UNL     1      -2.621   1.716  -3.929  1.00  0.00    -0.376 OA
BRANCH  28  29
ATOM     29  C   UNL     1      -3.011   3.055  -3.661  1.00  0.00     0.202 C 
BRANCH  29  30
ATOM     30  C   UNL     1      -2.433   4.022  -4.702  1.00  0.00     0.261 C 
BRANCH  30  31
ATOM     31  O   UNL     1      -0.996   4.122  -4.692  1.00  0.00    -0.460 OA
BRANCH  31  32
ATOM     32  C   UNL     1      -0.417   4.556  -3.546  1.00  0.00     0.338 C 
ATOM     33  O   UNL     1      -0.988   4.997  -2.562  1.00  0.00    -0.246 OA
BRANCH  32  34
ATOM     34  C   UNL     1       1.004   4.133  -3.577  1.00  0.00     0.060 A 
ATOM     35  C   UNL     1       1.526   3.437  -2.475  1.00  0.00     0.016 A 
ATOM     36  C   UNL     1       1.792   4.350  -4.709  1.00  0.00     0.016 A 
ATOM     37  C   UNL     1       2.850   2.991  -2.489  1.00  0.00     0.010 A 
ATOM     38  C   UNL     1       3.120   3.919  -4.715  1.00  0.00     0.010 A 
ATOM     39  C   UNL     1       3.666   3.270  -3.592  1.00  0.00    -0.014 A 
BRANCH  39  40
ATOM     40  C   UNL     1       5.138   3.105  -3.497  1.00  0.00     0.031 A 
ATOM     41  C   UNL     1       5.959   4.329  -3.189  1.00  0.00     0.074 A 
ATOM     42  C   UNL     1       5.740   1.916  -3.684  1.00  0.00     0.049 A 
ATOM     43  N   UNL     1       7.257   4.475  -3.152  1.00  0.00    -0.248 NA
ATOM     44  C   UNL     1       5.206   5.559  -2.890  1.00  0.00     0.031 C 
ATOM     45  C   UNL     1       5.058   0.651  -3.947  1.00  0.00     0.029 A 
ATOM     46  N   UNL     1       7.074   1.589  -3.697  1.00  0.00    -0.354 N 
ATOM     47  C   UNL     1       7.476   5.812  -2.840  1.00  0.00     0.074 A 
ATOM     48  C   UNL     1       6.179   6.442  -2.731  1.00  0.00     0.031 C 
ATOM     49  C   UNL     1       5.981  -0.314  -4.116  1.00  0.00     0.029 A 
ATOM     50  C   UNL     1       7.318   0.272  -4.010  1.00  0.00     0.049 A 
ATOM     51  H   UNL     1       7.790   2.236  -3.501  1.00  0.00     0.167 HD
ATOM     52  C   UNL     1       8.651   6.456  -2.652  1.00  0.00     0.037 A 
ATOM     53  C   UNL     1       8.484  -0.375  -4.215  1.00  0.00     0.037 A 
ATOM     54  C   UNL     1       9.940   5.827  -2.767  1.00  0.00     0.049 A 
ATOM     55  C   UNL     1       9.785   0.379  -4.074  1.00  0.00     0.074 A 
ATOM     56  C   UNL     1      11.190   6.390  -2.586  1.00  0.00     0.029 A 
ATOM     57  N   UNL     1      10.144   4.496  -3.102  1.00  0.00    -0.354 N 
ATOM     58  N   UNL     1       9.980   1.639  -3.761  1.00  0.00    -0.248 NA
ATOM     59  C   UNL     1      11.024  -0.376  -4.312  1.00  0.00     0.031 C 
ATOM     60  C   UNL     1      12.152   5.414  -2.866  1.00  0.00     0.029 A 
ATOM     61  C   UNL     1      11.501   4.226  -3.157  1.00  0.00     0.049 A 
ATOM     62  H   UNL     1       9.430   3.841  -3.275  1.00  0.00     0.167 HD
ATOM     63  C   UNL     1      11.362   1.817  -3.733  1.00  0.00     0.074 A 
ATOM     64  C   UNL     1      11.953   0.535  -4.052  1.00  0.00     0.031 C 
ATOM     65  C   UNL     1      12.076   2.939  -3.465  1.00  0.00     0.037 A 
BRANCH  52  66
ATOM     66  C   UNL     1       8.593   7.925  -2.331  1.00  0.00     0.058 A 
ATOM     67  C   UNL     1       8.115   8.395  -1.097  1.00  0.00     0.135 A 
ATOM     68  C   UNL     1       9.041   8.874  -3.264  1.00  0.00     0.135 A 
ATOM     69  F   UNL     1       7.652   7.534  -0.178  1.00  0.00    -0.206 F 
ATOM     70  C   UNL     1       8.056   9.755  -0.812  1.00  0.00     0.059 A 
ATOM     71  C   UNL     1       9.021  10.237  -2.987  1.00  0.00     0.059 A 
ATOM     72  F   UNL     1       9.502   8.480  -4.461  1.00  0.00    -0.206 F 
ATOM     73  C   UNL     1       8.512  10.669  -1.763  1.00  0.00     0.060 A 
BRANCH  73  74
ATOM     74  S   UNL     1       8.431  12.429  -1.374  1.00  0.00     0.124 S 
ATOM     75  O   UNL     1       6.994  12.675  -1.435  1.00  0.00    -0.237 OA
ATOM     76  O   UNL     1       9.027  12.480  -0.043  1.00  0.00    -0.237 OA
ATOM     77  O   UNL     1       9.219  13.049  -2.435  1.00  0.00    -0.744 OA
ENDBRANCH  73  74
ENDBRANCH  52  66
BRANCH  53  78
ATOM     78  C   UNL     1       8.483  -1.815  -4.597  1.00  0.00     0.058 A 
ATOM     79  C   UNL     1       8.975  -2.800  -3.727  1.00  0.00     0.135 A 
ATOM     80  C   UNL     1       8.000  -2.235  -5.847  1.00  0.00     0.135 A 
ATOM     81  F   UNL     1       9.465  -2.450  -2.528  1.00  0.00    -0.206 F 
ATOM     82  C   UNL     1       9.003  -4.145  -4.086  1.00  0.00     0.059 A 
ATOM     83  C   UNL     1       7.990  -3.577  -6.217  1.00  0.00     0.059 A 
ATOM     84  F   UNL     1       7.515  -1.336  -6.717  1.00  0.00    -0.206 F 
ATOM     85  C   UNL     1       8.503  -4.524  -5.333  1.00  0.00     0.060 A 
BRANCH  85  86
ATOM     86  S   UNL     1       8.500  -6.277  -5.768  1.00  0.00     0.124 S 
ATOM     87  O   UNL     1       9.921  -6.532  -5.976  1.00  0.00    -0.237 OA
ATOM     88  O   UNL     1       7.910  -6.886  -4.579  1.00  0.00    -0.237 OA
ATOM     89  O   UNL     1       7.668  -6.325  -6.967  1.00  0.00    -0.744 OA
ENDBRANCH  85  86
ENDBRANCH  53  78
BRANCH  65  90
ATOM     90  C   UNL     1      13.579   2.830  -3.455  1.00  0.00     0.058 A 
ATOM     91  C   UNL     1      14.321   2.667  -4.635  1.00  0.00     0.135 A 
ATOM     92  C   UNL     1      14.290   2.959  -2.250  1.00  0.00     0.135 A 
ATOM     93  F   UNL     1      13.694   2.537  -5.815  1.00  0.00    -0.206 F 
ATOM     94  C   UNL     1      15.711   2.610  -4.619  1.00  0.00     0.059 A 
ATOM     95  C   UNL     1      15.681   2.936  -2.213  1.00  0.00     0.059 A 
ATOM     96  F   UNL     1      13.632   3.131  -1.092  1.00  0.00    -0.206 F 
ATOM     97  C   UNL     1      16.383   2.749  -3.402  1.00  0.00     0.060 A 
BRANCH  97  98
ATOM     98  S   UNL     1      18.188   2.708  -3.399  1.00  0.00     0.124 S 
ATOM     99  O   UNL     1      18.452   1.297  -3.658  1.00  0.00    -0.237 OA
ATOM    100  O   UNL     1      18.522   3.625  -4.485  1.00  0.00    -0.237 OA
ATOM    101  O   UNL     1      18.538   3.177  -2.062  1.00  0.00    -0.744 OA
ENDBRANCH  97  98
ENDBRANCH  65  90
ENDBRANCH  39  40
ENDBRANCH  32  34
ENDBRANCH  31  32
ENDBRANCH  30  31
ENDBRANCH  29  30
ENDBRANCH  28  29
ENDBRANCH  27  28
ENDBRANCH   1  27
TORSDOF 24
