REMARK SMILES C[C@]([NH3+])(C(=O)N[C@H]1CCCCC[C@@H]1C(=O)OCCOCCOCCOC(=O)c1ccc(-c2c3nc(c(-c4c(F)cc(S(=O)(=O)[O-])cc4F)c4ccc([nH]4)c(-c4c(F)cc(S(=O)(=O)[O-])cc4F)c4nc(c(-c5c(F)cc(S(=O)(=O)[O-])cc5F)c5ccc2[nH]5)C=C4)C=C3)cc1)C(F)(F)F
REMARK SMILES IDX 20 1 19 2 18 3 17 4 16 5 14 6 15 7 13 8 7 9 6 10 4 11 5 12
REMARK SMILES IDX 2 14 1 15 94 16 95 17 96 18 97 19 3 20 8 24 12 26 11 27
REMARK SMILES IDX 10 28 9 29 21 31 22 32 23 33 24 34 25 35 26 36 27 37 28 38
REMARK SMILES IDX 29 39 93 40 30 41 92 42 31 43 32 44 33 45 86 46 34 47 91 48
REMARK SMILES IDX 85 49 87 50 35 51 90 52 84 53 83 54 36 56 70 57 49 58 69 59
REMARK SMILES IDX 50 60 53 61 68 62 88 63 51 64 52 65 67 67 89 68 54 69 37 70
REMARK SMILES IDX 38 71 47 72 39 73 40 74 46 75 48 76 41 77 42 78 43 79 44 80
REMARK SMILES IDX 45 81 71 82 72 83 81 84 73 85 74 86 80 87 82 88 75 89 76 90
REMARK SMILES IDX 77 91 78 92 79 93 55 94 56 95 65 96 57 97 58 98 64 99 66 100
REMARK SMILES IDX 59 101 60 102 61 103 62 104 63 105
REMARK H PARENT 6 13 3 21 3 22 3 23 87 55 53 66
REMARK Flexibility Score: 100.00
ROOT
ATOM      1  C   UNL     1      -4.648   4.877  -2.752  1.00  0.00     0.188 C 
ENDROOT
BRANCH   1   2
ATOM      2  O   UNL     1      -4.782   5.938  -1.806  1.00  0.00    -0.376 OA
BRANCH   2   3
ATOM      3  C   UNL     1      -4.736   5.452  -0.459  1.00  0.00     0.202 C 
BRANCH   3   4
ATOM      4  C   UNL     1      -3.298   5.380   0.079  1.00  0.00     0.261 C 
BRANCH   4   5
ATOM      5  O   UNL     1      -2.435   4.542  -0.730  1.00  0.00    -0.463 OA
BRANCH   5   6
ATOM      6  C   UNL     1      -1.685   3.601  -0.087  1.00  0.00     0.311 C 
ATOM      7  O   UNL     1      -1.788   3.330   1.101  1.00  0.00    -0.252 OA
BRANCH   6   8
ATOM      8  C   UNL     1      -0.658   2.959  -1.022  1.00  0.00     0.121 C 
BRANCH   8   9
ATOM      9  C   UNL     1      -0.436   1.448  -0.672  1.00  0.00     0.096 C 
BRANCH   9  10
ATOM     10  N   UNL     1      -1.183   0.400  -1.447  1.00  0.00    -0.347 N 
ATOM     11  C   UNL     1      -2.476  -0.020  -1.626  1.00  0.00     0.290 C 
ATOM     12  O   UNL     1      -2.603  -1.215  -1.882  1.00  0.00    -0.267 OA
ATOM     13  H   UNL     1      -0.562  -0.145  -1.983  1.00  0.00     0.164 HD
BRANCH  11  14
ATOM     14  C   UNL     1      -3.648   0.952  -1.669  1.00  0.00     0.266 C 
ATOM     15  C   UNL     1      -3.310   1.900  -2.824  1.00  0.00     0.100 C 
BRANCH  14  16
ATOM     16  C   UNL     1      -4.993   0.288  -2.076  1.00  0.00     0.453 C 
ATOM     17  F   UNL     1      -5.337  -0.786  -1.348  1.00  0.00    -0.164 F 
ATOM     18  F   UNL     1      -5.996   1.210  -1.911  1.00  0.00    -0.164 F 
ATOM     19  F   UNL     1      -5.040  -0.026  -3.385  1.00  0.00    -0.164 F 
ENDBRANCH  14  16
BRANCH  14  20
ATOM     20  N   UNL     1      -3.816   1.578  -0.339  1.00  0.00    -0.337 N 
ATOM     21  H   UNL     1      -4.038   0.859   0.350  1.00  0.00     0.345 HD
ATOM     22  H   UNL     1      -4.575   2.259  -0.377  1.00  0.00     0.345 HD
ATOM     23  H   UNL     1      -2.951   2.048  -0.073  1.00  0.00     0.345 HD
ENDBRANCH  14  20
ENDBRANCH  11  14
ENDBRANCH   9  10
BRANCH   9  24
ATOM     24  C   UNL     1       1.058   1.044  -0.785  1.00  0.00     0.026 CG0
ATOM     25  G   UNL     1       1.669   1.327  -2.164  1.00  0.00     0.000 G0
ENDBRANCH   9  24
ENDBRANCH   8   9
BRANCH   8  26
ATOM     26  C   UNL     1       0.575   3.887  -0.885  1.00  0.00     0.017 C 
BRANCH  26  27
ATOM     27  C   UNL     1       1.490   3.881  -2.106  1.00  0.00     0.001 C 
BRANCH  27  28
ATOM     28  C   UNL     1       2.397   2.665  -2.219  1.00  0.00     0.000 C 
BRANCH  28  29
ATOM     29  C   UNL     1       1.669   1.327  -2.164  1.00  0.00     0.002 CG0
ATOM     30  G   UNL     1       1.058   1.044  -0.785  1.00  0.00     0.000 G0
ENDBRANCH  28  29
ENDBRANCH  27  28
ENDBRANCH  26  27
ENDBRANCH   8  26
ENDBRANCH   6   8
ENDBRANCH   5   6
ENDBRANCH   4   5
ENDBRANCH   3   4
ENDBRANCH   2   3
ENDBRANCH   1   2
BRANCH   1  31
ATOM     31  C   UNL     1      -3.586   5.199  -3.811  1.00  0.00     0.188 C 
BRANCH  31  32
ATOM     32  O   UNL     1      -3.913   6.230  -4.740  1.00  0.00    -0.376 OA
BRANCH  32  33
ATOM     33  C   UNL     1      -5.260   6.270  -5.189  1.00  0.00     0.202 C 
BRANCH  33  34
ATOM     34  C   UNL     1      -5.691   5.203  -6.209  1.00  0.00     0.261 C 
BRANCH  34  35
ATOM     35  O   UNL     1      -5.453   3.824  -5.851  1.00  0.00    -0.460 OA
BRANCH  35  36
ATOM     36  C   UNL     1      -4.458   3.214  -6.551  1.00  0.00     0.338 C 
ATOM     37  O   UNL     1      -3.632   3.778  -7.260  1.00  0.00    -0.246 OA
BRANCH  36  38
ATOM     38  C   UNL     1      -4.426   1.743  -6.334  1.00  0.00     0.060 A 
ATOM     39  C   UNL     1      -3.180   1.118  -6.191  1.00  0.00     0.016 A 
ATOM     40  C   UNL     1      -5.582   0.957  -6.370  1.00  0.00     0.016 A 
ATOM     41  C   UNL     1      -3.087  -0.278  -6.061  1.00  0.00     0.010 A 
ATOM     42  C   UNL     1      -5.484  -0.447  -6.275  1.00  0.00     0.010 A 
ATOM     43  C   UNL     1      -4.236  -1.081  -6.125  1.00  0.00    -0.014 A 
BRANCH  43  44
ATOM     44  C   UNL     1      -4.104  -2.571  -6.212  1.00  0.00     0.031 A 
ATOM     45  C   UNL     1      -3.989  -3.201  -7.567  1.00  0.00     0.074 A 
ATOM     46  C   UNL     1      -4.068  -3.376  -5.131  1.00  0.00     0.049 A 
ATOM     47  N   UNL     1      -3.851  -4.462  -7.880  1.00  0.00    -0.248 NA
ATOM     48  C   UNL     1      -4.054  -2.291  -8.720  1.00  0.00     0.031 C 
ATOM     49  C   UNL     1      -4.180  -2.917  -3.764  1.00  0.00     0.029 A 
ATOM     50  N   UNL     1      -3.917  -4.739  -4.993  1.00  0.00    -0.354 N 
ATOM     51  C   UNL     1      -3.837  -4.505  -9.265  1.00  0.00     0.074 A 
ATOM     52  C   UNL     1      -3.987  -3.142  -9.732  1.00  0.00     0.031 C 
ATOM     53  C   UNL     1      -4.064  -3.944  -2.912  1.00  0.00     0.029 A 
ATOM     54  C   UNL     1      -3.902  -5.168  -3.680  1.00  0.00     0.049 A 
ATOM     55  H   UNL     1      -3.829  -5.350  -5.759  1.00  0.00     0.167 HD
ATOM     56  C   UNL     1      -3.721  -5.584 -10.074  1.00  0.00     0.037 A 
ATOM     57  C   UNL     1      -3.778  -6.399  -3.142  1.00  0.00     0.037 A 
ATOM     58  C   UNL     1      -3.593  -6.942  -9.614  1.00  0.00     0.049 A 
ATOM     59  C   UNL     1      -3.652  -7.580  -4.065  1.00  0.00     0.074 A 
ATOM     60  C   UNL     1      -3.464  -8.093 -10.372  1.00  0.00     0.029 A 
ATOM     61  N   UNL     1      -3.594  -7.339  -8.284  1.00  0.00    -0.354 N 
ATOM     62  N   UNL     1      -3.605  -7.596  -5.375  1.00  0.00    -0.248 NA
ATOM     63  C   UNL     1      -3.583  -8.910  -3.443  1.00  0.00     0.031 C 
ATOM     64  C   UNL     1      -3.436  -9.190  -9.504  1.00  0.00     0.029 A 
ATOM     65  C   UNL     1      -3.491  -8.720  -8.202  1.00  0.00     0.049 A 
ATOM     66  H   UNL     1      -3.659  -6.731  -7.513  1.00  0.00     0.167 HD
ATOM     67  C   UNL     1      -3.498  -8.934  -5.734  1.00  0.00     0.074 A 
ATOM     68  C   UNL     1      -3.456  -9.696  -4.504  1.00  0.00     0.031 C 
ATOM     69  C   UNL     1      -3.451  -9.477  -6.975  1.00  0.00     0.037 A 
BRANCH  56  70
ATOM     70  C   UNL     1      -3.781  -5.329 -11.551  1.00  0.00     0.058 A 
ATOM     71  C   UNL     1      -2.728  -4.703 -12.236  1.00  0.00     0.135 A 
ATOM     72  C   UNL     1      -4.914  -5.710 -12.287  1.00  0.00     0.135 A 
ATOM     73  F   UNL     1      -1.636  -4.295 -11.572  1.00  0.00    -0.206 F 
ATOM     74  C   UNL     1      -2.810  -4.436 -13.598  1.00  0.00     0.059 A 
ATOM     75  C   UNL     1      -5.004  -5.479 -13.655  1.00  0.00     0.059 A 
ATOM     76  F   UNL     1      -5.951  -6.304 -11.675  1.00  0.00    -0.206 F 
ATOM     77  C   UNL     1      -3.953  -4.826 -14.297  1.00  0.00     0.060 A 
BRANCH  77  78
ATOM     78  S   UNL     1      -4.048  -4.465 -16.062  1.00  0.00     0.124 S 
ATOM     79  O   UNL     1      -4.274  -3.023 -16.052  1.00  0.00    -0.237 OA
ATOM     80  O   UNL     1      -2.738  -4.897 -16.540  1.00  0.00    -0.237 OA
ATOM     81  O   UNL     1      -5.175  -5.274 -16.515  1.00  0.00    -0.744 OA
ENDBRANCH  77  78
ENDBRANCH  56  70
BRANCH  57  82
ATOM     82  C   UNL     1      -3.782  -6.591  -1.661  1.00  0.00     0.058 A 
ATOM     83  C   UNL     1      -2.637  -7.041  -0.984  1.00  0.00     0.135 A 
ATOM     84  C   UNL     1      -4.933  -6.349  -0.893  1.00  0.00     0.135 A 
ATOM     85  F   UNL     1      -1.514  -7.307  -1.668  1.00  0.00    -0.206 F 
ATOM     86  C   UNL     1      -2.637  -7.262   0.392  1.00  0.00     0.059 A 
ATOM     87  C   UNL     1      -4.948  -6.532   0.488  1.00  0.00     0.059 A 
ATOM     88  F   UNL     1      -6.058  -5.918  -1.485  1.00  0.00    -0.206 F 
ATOM     89  C   UNL     1      -3.799  -7.002   1.121  1.00  0.00     0.060 A 
BRANCH  89  90
ATOM     90  S   UNL     1      -3.780  -7.256   2.910  1.00  0.00     0.124 S 
ATOM     91  O   UNL     1      -3.821  -8.711   3.002  1.00  0.00    -0.237 OA
ATOM     92  O   UNL     1      -2.521  -6.630   3.300  1.00  0.00    -0.237 OA
ATOM     93  O   UNL     1      -4.982  -6.562   3.362  1.00  0.00    -0.744 OA
ENDBRANCH  89  90
ENDBRANCH  57  82
BRANCH  69  94
ATOM     94  C   UNL     1      -3.329 -10.973  -7.073  1.00  0.00     0.058 A 
ATOM     95  C   UNL     1      -4.403 -11.823  -6.766  1.00  0.00     0.135 A 
ATOM     96  C   UNL     1      -2.139 -11.560  -7.531  1.00  0.00     0.135 A 
ATOM     97  F   UNL     1      -5.561 -11.315  -6.316  1.00  0.00    -0.206 F 
ATOM     98  C   UNL     1      -4.295 -13.205  -6.891  1.00  0.00     0.059 A 
ATOM     99  C   UNL     1      -2.017 -12.936  -7.690  1.00  0.00     0.059 A 
ATOM    100  F   UNL     1      -1.084 -10.792  -7.846  1.00  0.00    -0.206 F 
ATOM    101  C   UNL     1      -3.098 -13.752  -7.357  1.00  0.00     0.060 A 
BRANCH 101 102
ATOM    102  S   UNL     1      -2.982 -15.543  -7.553  1.00  0.00     0.124 S 
ATOM    103  O   UNL     1      -2.879 -15.986  -6.167  1.00  0.00    -0.237 OA
ATOM    104  O   UNL     1      -4.233 -15.866  -8.231  1.00  0.00    -0.237 OA
ATOM    105  O   UNL     1      -1.777 -15.720  -8.359  1.00  0.00    -0.744 OA
ENDBRANCH 101 102
ENDBRANCH  69  94
ENDBRANCH  43  44
ENDBRANCH  36  38
ENDBRANCH  35  36
ENDBRANCH  34  35
ENDBRANCH  33  34
ENDBRANCH  32  33
ENDBRANCH  31  32
ENDBRANCH   1  31
TORSDOF 24
