REMARK SMILES Cc1ccc(C2=NN(C(=O)CCC(=O)OCCOCCOCCOC(=O)c3ccc(-c4c5nc(c(-c6c(F)cc(S(=O)(=O)[O-])cc6F)c6ccc([nH]6)c(-c6c(F)cc(S(=O)(=O)[O-])cc6F)c6nc(c(-c7c(F)cc(S(=O)(=O)[O-])cc7F)c7ccc4[nH]7)C=C6)C=C5)cc3)[C@H](C[C@@H]3C=c4cccc(C)c4=NC3=O)C2)cc1
REMARK SMILES IDX 19 1 18 2 17 3 16 4 15 5 13 6 14 7 12 8 11 9 9 10 10 11 8 12
REMARK SMILES IDX 6 13 7 14 107 15 93 16 5 17 1 18 2 19 3 20 109 21 4 22
REMARK SMILES IDX 108 23 94 24 95 25 96 26 105 27 97 28 104 29 106 30 98 31
REMARK SMILES IDX 103 32 99 33 101 34 100 35 102 36 20 37 21 38 22 39 23 40
REMARK SMILES IDX 24 41 25 42 26 43 27 44 28 45 92 46 29 47 91 48 30 49 31 50
REMARK SMILES IDX 32 51 85 52 33 53 90 54 84 55 86 56 34 57 89 58 83 59 82 60
REMARK SMILES IDX 35 62 69 63 48 64 68 65 49 66 52 67 67 68 87 69 50 70 51 71
REMARK SMILES IDX 66 73 88 74 53 75 36 76 37 77 46 78 38 79 39 80 45 81 47 82
REMARK SMILES IDX 40 83 41 84 42 85 43 86 44 87 70 88 71 89 80 90 72 91 73 92
REMARK SMILES IDX 79 93 81 94 74 95 75 96 76 97 77 98 78 99 54 100 55 101
REMARK SMILES IDX 64 102 56 103 57 104 63 105 65 106 58 107 59 108 60 109
REMARK SMILES IDX 61 110 62 111
REMARK H PARENT 86 61 52 72
REMARK Flexibility Score: inf
ROOT
ATOM      1  C   UNL     1      -6.638   1.518  -3.982  1.00  0.00     0.188 C 
ENDROOT
BRANCH   1   2
ATOM      2  O   UNL     1      -5.758   2.535  -3.390  1.00  0.00    -0.376 OA
BRANCH   2   3
ATOM      3  C   UNL     1      -4.585   2.338  -2.559  1.00  0.00     0.202 C 
BRANCH   3   4
ATOM      4  C   UNL     1      -4.269   2.970  -0.969  1.00  0.00     0.261 C 
BRANCH   4   5
ATOM      5  O   UNL     1      -4.656   2.387   0.486  1.00  0.00    -0.463 OA
BRANCH   5   6
ATOM      6  C   UNL     1      -5.868   1.787   0.519  1.00  0.00     0.306 C 
ATOM      7  O   UNL     1      -6.286   1.835  -0.636  1.00  0.00    -0.252 OA
BRANCH   6   8
ATOM      8  C   UNL     1      -6.859   0.860   1.931  1.00  0.00     0.132 C 
BRANCH   8   9
ATOM      9  C   UNL     1      -6.426  -0.405   2.627  1.00  0.00     0.114 C 
BRANCH   9  10
ATOM     10  C   UNL     1      -5.176  -1.136   2.196  1.00  0.00     0.243 C 
ATOM     11  O   UNL     1      -4.764  -1.915   3.075  1.00  0.00    -0.273 OA
BRANCH  10  12
ATOM     12  N   UNL     1      -4.468  -0.971   0.985  1.00  0.00    -0.230 N 
ATOM     13  C   UNL     1      -2.493  -0.508   0.279  1.00  0.00     0.070 C 
ATOM     14  N   UNL     1      -3.154  -0.869   1.314  1.00  0.00    -0.174 NA
ATOM     15  C   UNL     1      -3.135  -0.478  -1.065  1.00  0.00     0.086 C 
ATOM     16  C   UNL     1      -4.571  -0.473  -0.615  1.00  0.00     0.118 C 
BRANCH  13  17
ATOM     17  C   UNL     1      -1.092  -0.270   0.361  1.00  0.00    -0.002 A 
ATOM     18  C   UNL     1       3.065   0.053  -0.095  1.00  0.00     0.044 C 
ATOM     19  C   UNL     1       1.584  -0.031   0.063  1.00  0.00    -0.051 A 
ATOM     20  C   UNL     1       1.007  -1.309   0.122  1.00  0.00     0.004 A 
ATOM     21  C   UNL     1       0.799   1.131   0.177  1.00  0.00     0.004 A 
ATOM     22  C   UNL     1      -0.346  -1.433   0.294  1.00  0.00     0.010 A 
ATOM     23  C   UNL     1      -0.570   1.017   0.333  1.00  0.00     0.010 A 
ENDBRANCH  13  17
BRANCH  16  24
ATOM     24  C   UNL     1      -5.909  -0.519  -1.845  1.00  0.00     0.045 C 
BRANCH  24  25
ATOM     25  C   UNL     1      -7.785  -0.992  -1.787  1.00  0.00     0.106 C 
ATOM     26  C   UNL     1      -8.602  -1.716   0.123  1.00  0.00    -0.003 C 
ATOM     27  C   UNL     1      -8.537  -2.271  -3.198  1.00  0.00     0.253 C 
ATOM     28  C   UNL     1      -9.216  -3.035   0.292  1.00  0.00    -0.003 A 
ATOM     29  N   UNL     1      -9.365  -3.695  -2.564  1.00  0.00    -0.212 NA
ATOM     30  O   UNL     1      -8.438  -2.159  -4.411  1.00  0.00    -0.272 OA
ATOM     31  C   UNL     1      -8.982  -3.710   1.561  1.00  0.00     0.010 A 
ATOM     32  C   UNL     1      -9.570  -4.036  -1.177  1.00  0.00     0.077 A 
ATOM     33  C   UNL     1      -9.096  -5.033   1.668  1.00  0.00     0.001 A 
ATOM     34  C   UNL     1      -9.823  -5.463  -0.688  1.00  0.00    -0.025 A 
ATOM     35  C   UNL     1      -9.572  -5.853   0.583  1.00  0.00     0.005 A 
ATOM     36  C   UNL     1     -10.142  -6.477  -1.726  1.00  0.00     0.047 C 
ENDBRANCH  24  25
ENDBRANCH  16  24
ENDBRANCH  10  12
ENDBRANCH   9  10
ENDBRANCH   8   9
ENDBRANCH   6   8
ENDBRANCH   5   6
ENDBRANCH   4   5
ENDBRANCH   3   4
ENDBRANCH   2   3
ENDBRANCH   1   2
BRANCH   1  37
ATOM     37  C   UNL     1      -6.327   0.197  -4.845  1.00  0.00     0.188 C 
BRANCH  37  38
ATOM     38  O   UNL     1      -6.154  -1.107  -4.259  1.00  0.00    -0.376 OA
BRANCH  38  39
ATOM     39  C   UNL     1      -4.899  -1.761  -4.121  1.00  0.00     0.202 C 
BRANCH  39  40
ATOM     40  C   UNL     1      -5.162  -3.233  -4.250  1.00  0.00     0.261 C 
BRANCH  40  41
ATOM     41  O   UNL     1      -6.047  -3.872  -3.193  1.00  0.00    -0.460 OA
BRANCH  41  42
ATOM     42  C   UNL     1      -6.979  -4.017  -2.209  1.00  0.00     0.338 C 
ATOM     43  O   UNL     1      -7.151  -5.179  -1.836  1.00  0.00    -0.246 OA
BRANCH  42  44
ATOM     44  C   UNL     1      -7.777  -2.789  -1.358  1.00  0.00     0.060 A 
ATOM     45  C   UNL     1      -9.490  -1.719  -1.530  1.00  0.00     0.016 A 
ATOM     46  C   UNL     1      -6.638  -2.119  -0.419  1.00  0.00     0.016 A 
ATOM     47  C   UNL     1      -9.636  -0.018  -0.866  1.00  0.00     0.010 A 
ATOM     48  C   UNL     1      -7.033  -0.406   0.038  1.00  0.00     0.010 A 
ATOM     49  C   UNL     1      -8.360   0.794  -0.143  1.00  0.00    -0.014 A 
BRANCH  49  50
ATOM     50  C   UNL     1      -8.100   2.597   0.471  1.00  0.00     0.031 A 
ATOM     51  C   UNL     1      -7.043   3.279   1.939  1.00  0.00     0.074 A 
ATOM     52  C   UNL     1      -7.955   3.540  -0.567  1.00  0.00     0.049 A 
ATOM     53  N   UNL     1      -6.877   4.477   2.485  1.00  0.00    -0.248 NA
ATOM     54  C   UNL     1      -5.933   2.520   2.962  1.00  0.00     0.031 C 
ATOM     55  C   UNL     1      -6.923   4.635  -0.645  1.00  0.00     0.029 A 
ATOM     56  N   UNL     1      -8.414   3.601  -1.903  1.00  0.00    -0.354 N 
ATOM     57  C   UNL     1      -5.758   4.361   3.481  1.00  0.00     0.074 A 
ATOM     58  C   UNL     1      -5.907   3.135   4.124  1.00  0.00     0.031 C 
ATOM     59  C   UNL     1      -7.048   5.377  -1.768  1.00  0.00     0.029 A 
ATOM     60  C   UNL     1      -8.306   4.968  -2.326  1.00  0.00     0.049 A 
ATOM     61  H   UNL     1      -8.745   2.847  -2.442  1.00  0.00     0.167 HD
ATOM     62  C   UNL     1      -4.479   4.924   3.373  1.00  0.00     0.037 A 
ATOM     63  C   UNL     1      -9.412   5.777  -2.302  1.00  0.00     0.037 A 
ATOM     64  C   UNL     1      -4.563   5.896   2.322  1.00  0.00     0.049 A 
ATOM     65  C   UNL     1      -9.316   6.776  -1.139  1.00  0.00     0.074 A 
ATOM     66  C   UNL     1      -4.019   6.233   1.108  1.00  0.00     0.029 A 
ATOM     67  N   UNL     1      -5.691   6.647   2.438  1.00  0.00    -0.354 N 
ATOM     68  N   UNL     1      -8.557   6.579  -0.085  1.00  0.00    -0.248 NA
ATOM     69  C   UNL     1      -9.839   8.141  -1.160  1.00  0.00     0.031 C 
ATOM     70  C   UNL     1      -4.979   7.129   0.475  1.00  0.00     0.029 A 
ATOM     71  C   UNL     1      -6.057   7.328   1.336  1.00  0.00     0.049 A 
ATOM     72  H   UNL     1      -6.208   6.689   3.274  1.00  0.00     0.167 HD
ATOM     73  C   UNL     1      -8.340   7.750   0.579  1.00  0.00     0.074 A 
ATOM     74  C   UNL     1      -9.200   8.692  -0.110  1.00  0.00     0.031 C 
ATOM     75  C   UNL     1      -7.345   8.005   1.486  1.00  0.00     0.037 A 
BRANCH  62  76
ATOM     76  C   UNL     1      -3.156   4.634   4.217  1.00  0.00     0.058 A 
ATOM     77  C   UNL     1      -2.194   5.667   4.326  1.00  0.00     0.135 A 
ATOM     78  C   UNL     1      -2.756   3.460   4.936  1.00  0.00     0.135 A 
ATOM     79  F   UNL     1      -2.352   6.810   3.644  1.00  0.00    -0.206 F 
ATOM     80  C   UNL     1      -1.031   5.599   5.126  1.00  0.00     0.059 A 
ATOM     81  C   UNL     1      -1.609   3.380   5.778  1.00  0.00     0.059 A 
ATOM     82  F   UNL     1      -3.414   2.298   4.820  1.00  0.00    -0.206 F 
ATOM     83  C   UNL     1      -0.758   4.468   5.883  1.00  0.00     0.060 A 
BRANCH  83  84
ATOM     84  S   UNL     1       0.696   4.468   6.974  1.00  0.00     0.124 S 
ATOM     85  O   UNL     1       1.792   4.666   6.031  1.00  0.00    -0.237 OA
ATOM     86  O   UNL     1       0.417   5.593   7.860  1.00  0.00    -0.237 OA
ATOM     87  O   UNL     1       0.658   3.154   7.611  1.00  0.00    -0.744 OA
ENDBRANCH  83  84
ENDBRANCH  62  76
BRANCH  63  88
ATOM     88  C   UNL     1     -10.551   4.988  -2.882  1.00  0.00     0.058 A 
ATOM     89  C   UNL     1     -10.402   4.674  -4.262  1.00  0.00     0.135 A 
ATOM     90  C   UNL     1     -11.168   4.016  -2.075  1.00  0.00     0.135 A 
ATOM     91  F   UNL     1      -9.819   5.557  -5.091  1.00  0.00    -0.206 F 
ATOM     92  C   UNL     1     -10.622   3.388  -4.753  1.00  0.00     0.059 A 
ATOM     93  C   UNL     1     -11.401   2.721  -2.559  1.00  0.00     0.059 A 
ATOM     94  F   UNL     1     -11.290   4.228  -0.755  1.00  0.00    -0.206 F 
ATOM     95  C   UNL     1     -11.083   2.406  -3.882  1.00  0.00     0.060 A 
BRANCH  95  96
ATOM     96  S   UNL     1     -11.107   0.703  -4.491  1.00  0.00     0.124 S 
ATOM     97  O   UNL     1     -12.280   0.718  -5.356  1.00  0.00    -0.237 OA
ATOM     98  O   UNL     1      -9.814   0.616  -5.161  1.00  0.00    -0.237 OA
ATOM     99  O   UNL     1     -11.246  -0.090  -3.278  1.00  0.00    -0.744 OA
ENDBRANCH  95  96
ENDBRANCH  63  88
BRANCH  75 100
ATOM    100  C   UNL     1      -7.670   8.754   2.816  1.00  0.00     0.058 A 
ATOM    101  C   UNL     1      -8.902   9.379   3.055  1.00  0.00     0.135 A 
ATOM    102  C   UNL     1      -6.794   8.792   3.954  1.00  0.00     0.135 A 
ATOM    103  F   UNL     1      -9.935   9.276   2.212  1.00  0.00    -0.206 F 
ATOM    104  C   UNL     1      -9.159  10.128   4.200  1.00  0.00     0.059 A 
ATOM    105  C   UNL     1      -7.081   9.430   5.151  1.00  0.00     0.059 A 
ATOM    106  F   UNL     1      -5.602   8.185   4.009  1.00  0.00    -0.206 F 
ATOM    107  C   UNL     1      -8.234  10.166   5.232  1.00  0.00     0.060 A 
BRANCH 107 108
ATOM    108  S   UNL     1      -8.545  11.204   6.654  1.00  0.00     0.124 S 
ATOM    109  O   UNL     1      -8.362  12.532   6.076  1.00  0.00    -0.237 OA
ATOM    110  O   UNL     1      -9.915  10.843   7.000  1.00  0.00    -0.237 OA
ATOM    111  O   UNL     1      -7.527  10.790   7.613  1.00  0.00    -0.744 OA
ENDBRANCH 107 108
ENDBRANCH  75 100
ENDBRANCH  49  50
ENDBRANCH  42  44
ENDBRANCH  41  42
ENDBRANCH  40  41
ENDBRANCH  39  40
ENDBRANCH  38  39
ENDBRANCH  37  38
ENDBRANCH   1  37
TORSDOF 26
