REMARK SMILES Cc1cc(N2CCOC[C@H]2C(=O)OCCOCCOCCOC(=O)c2ccc(-c3c4nc(c(-c5c(F)cc(S(=O)(=O)[O-])cc5F)c5ccc([nH]5)c(-c5c(F)cc(S(=O)(=O)[O-])cc5F)c5nc(c(-c6c(F)cc(S(=O)(=O)[O-])cc6F)c6ccc3[nH]6)C=C5)C=C4)cc2)ncc1[N+](=O)[O-]
REMARK SMILES IDX 18 1 17 2 16 3 15 4 14 5 13 6 11 7 12 8 10 9 5 10 6 11 7 12
REMARK SMILES IDX 9 13 8 14 4 15 1 16 2 17 3 18 93 19 92 20 91 21 94 22 95 23
REMARK SMILES IDX 96 24 19 25 20 26 21 27 22 28 23 29 24 30 25 31 26 32 90 33
REMARK SMILES IDX 27 34 89 35 28 36 29 37 30 38 83 39 31 40 88 41 82 42 84 43
REMARK SMILES IDX 32 44 87 45 81 46 80 47 33 49 67 50 46 51 66 52 47 53 50 54
REMARK SMILES IDX 65 55 85 56 48 57 49 58 64 60 86 61 51 62 34 63 35 64 44 65
REMARK SMILES IDX 36 66 37 67 43 68 45 69 38 70 39 71 40 72 41 73 42 74 68 75
REMARK SMILES IDX 69 76 78 77 70 78 71 79 77 80 79 81 72 82 73 83 74 84 75 85
REMARK SMILES IDX 76 86 52 87 53 88 62 89 54 90 55 91 61 92 63 93 56 94 57 95
REMARK SMILES IDX 58 96 59 97 60 98
REMARK H PARENT 84 48 50 59
REMARK Flexibility Score: inf
ROOT
ATOM      1  C   UNL     1      -0.359   3.926  -2.027  1.00  0.00     0.188 C 
ENDROOT
BRANCH   1   2
ATOM      2  C   UNL     1      -1.218   4.820  -1.113  1.00  0.00     0.188 C 
BRANCH   2   3
ATOM      3  O   UNL     1      -1.088   6.231  -1.254  1.00  0.00    -0.376 OA
BRANCH   3   4
ATOM      4  C   UNL     1       0.225   6.768  -1.357  1.00  0.00     0.202 C 
BRANCH   4   5
ATOM      5  C   UNL     1       1.057   6.662  -0.083  1.00  0.00     0.261 C 
BRANCH   5   6
ATOM      6  O   UNL     1       1.518   5.313   0.116  1.00  0.00    -0.462 OA
BRANCH   6   7
ATOM      7  C   UNL     1       1.297   4.754   1.335  1.00  0.00     0.331 C 
ATOM      8  O   UNL     1       0.718   5.324   2.256  1.00  0.00    -0.250 OA
BRANCH   7   9
ATOM      9  C   UNL     1       1.889   3.348   1.491  1.00  0.00     0.220 C 
ATOM     10  N   UNL     1       2.028   2.569   0.225  1.00  0.00    -0.339 N 
ATOM     11  C   UNL     1       3.208   2.895  -0.600  1.00  0.00     0.147 C 
ATOM     12  C   UNL     1       4.476   3.025   0.249  1.00  0.00     0.181 C 
ATOM     13  C   UNL     1       3.246   3.506   2.203  1.00  0.00     0.197 C 
ATOM     14  O   UNL     1       4.288   3.962   1.321  1.00  0.00    -0.377 OA
BRANCH  10  15
ATOM     15  C   UNL     1       1.707   1.214   0.288  1.00  0.00     0.130 A 
ATOM     16  C   UNL     1      -1.449  -0.904   0.146  1.00  0.00     0.052 C 
ATOM     17  C   UNL     1       0.003  -0.539   0.238  1.00  0.00     0.032 A 
ATOM     18  C   UNL     1       0.364   0.821   0.336  1.00  0.00     0.057 A 
ATOM     19  C   UNL     1       1.043  -1.466   0.184  1.00  0.00     0.290 A 
ATOM     20  C   UNL     1       2.352  -1.014   0.170  1.00  0.00     0.199 A 
ATOM     21  N   UNL     1       2.695   0.299   0.205  1.00  0.00    -0.232 NA
BRANCH  19  22
ATOM     22  N   UNL     1       0.829  -2.898   0.131  1.00  0.00     0.064 N 
ATOM     23  O   UNL     1       1.501  -3.537  -0.691  1.00  0.00    -0.258 OA
ATOM     24  O   UNL     1       0.026  -3.388   0.934  1.00  0.00    -0.258 OA
ENDBRANCH  19  22
ENDBRANCH  10  15
ENDBRANCH   7   9
ENDBRANCH   6   7
ENDBRANCH   5   6
ENDBRANCH   4   5
ENDBRANCH   3   4
ENDBRANCH   2   3
ENDBRANCH   1   2
BRANCH   1  25
ATOM     25  O   UNL     1      -0.093   4.396  -3.345  1.00  0.00    -0.376 OA
BRANCH  25  26
ATOM     26  C   UNL     1      -1.219   4.789  -4.124  1.00  0.00     0.202 C 
BRANCH  26  27
ATOM     27  C   UNL     1      -2.167   3.638  -4.434  1.00  0.00     0.261 C 
BRANCH  27  28
ATOM     28  O   UNL     1      -2.958   3.342  -3.270  1.00  0.00    -0.460 OA
BRANCH  28  29
ATOM     29  C   UNL     1      -3.532   2.126  -3.292  1.00  0.00     0.338 C 
ATOM     30  O   UNL     1      -3.484   1.312  -4.212  1.00  0.00    -0.246 OA
BRANCH  29  31
ATOM     31  C   UNL     1      -4.239   1.857  -2.030  1.00  0.00     0.060 A 
ATOM     32  C   UNL     1      -3.550   1.850  -0.815  1.00  0.00     0.016 A 
ATOM     33  C   UNL     1      -5.553   1.396  -2.091  1.00  0.00     0.016 A 
ATOM     34  C   UNL     1      -4.125   1.241   0.304  1.00  0.00     0.010 A 
ATOM     35  C   UNL     1      -6.144   0.840  -0.955  1.00  0.00     0.010 A 
ATOM     36  C   UNL     1      -5.403   0.669   0.229  1.00  0.00    -0.014 A 
BRANCH  36  37
ATOM     37  C   UNL     1      -5.892  -0.283   1.272  1.00  0.00     0.031 A 
ATOM     38  C   UNL     1      -6.234  -1.700   0.860  1.00  0.00     0.074 A 
ATOM     39  C   UNL     1      -5.988   0.049   2.574  1.00  0.00     0.049 A 
ATOM     40  N   UNL     1      -6.939  -2.603   1.490  1.00  0.00    -0.248 NA
ATOM     41  C   UNL     1      -5.722  -2.150  -0.447  1.00  0.00     0.031 C 
ATOM     42  C   UNL     1      -5.590   1.325   3.164  1.00  0.00     0.029 A 
ATOM     43  N   UNL     1      -6.450  -0.681   3.644  1.00  0.00    -0.354 N 
ATOM     44  C   UNL     1      -7.043  -3.682   0.617  1.00  0.00     0.074 A 
ATOM     45  C   UNL     1      -6.296  -3.338  -0.573  1.00  0.00     0.031 C 
ATOM     46  C   UNL     1      -5.790   1.277   4.492  1.00  0.00     0.029 A 
ATOM     47  C   UNL     1      -6.427   0.008   4.834  1.00  0.00     0.049 A 
ATOM     48  H   UNL     1      -6.768  -1.609   3.566  1.00  0.00     0.167 HD
ATOM     49  C   UNL     1      -7.715  -4.845   0.788  1.00  0.00     0.037 A 
ATOM     50  C   UNL     1      -6.915  -0.318   6.048  1.00  0.00     0.037 A 
ATOM     51  C   UNL     1      -8.363  -5.228   2.015  1.00  0.00     0.049 A 
ATOM     52  C   UNL     1      -7.659  -1.617   6.223  1.00  0.00     0.074 A 
ATOM     53  C   UNL     1      -9.083  -6.379   2.289  1.00  0.00     0.029 A 
ATOM     54  N   UNL     1      -8.329  -4.490   3.187  1.00  0.00    -0.354 N 
ATOM     55  N   UNL     1      -7.889  -2.562   5.344  1.00  0.00    -0.248 NA
ATOM     56  C   UNL     1      -8.239  -1.876   7.549  1.00  0.00     0.031 C 
ATOM     57  C   UNL     1      -9.500  -6.328   3.624  1.00  0.00     0.029 A 
ATOM     58  C   UNL     1      -9.009  -5.162   4.188  1.00  0.00     0.049 A 
ATOM     59  H   UNL     1      -7.887  -3.617   3.292  1.00  0.00     0.167 HD
ATOM     60  C   UNL     1      -8.631  -3.530   6.013  1.00  0.00     0.074 A 
ATOM     61  C   UNL     1      -8.793  -3.067   7.375  1.00  0.00     0.031 C 
ATOM     62  C   UNL     1      -9.144  -4.694   5.542  1.00  0.00     0.037 A 
BRANCH  49  63
ATOM     63  C   UNL     1      -7.840  -5.770  -0.390  1.00  0.00     0.058 A 
ATOM     64  C   UNL     1      -6.790  -6.592  -0.821  1.00  0.00     0.135 A 
ATOM     65  C   UNL     1      -9.072  -5.875  -1.058  1.00  0.00     0.135 A 
ATOM     66  F   UNL     1      -5.586  -6.513  -0.232  1.00  0.00    -0.206 F 
ATOM     67  C   UNL     1      -6.954  -7.484  -1.878  1.00  0.00     0.059 A 
ATOM     68  C   UNL     1      -9.265  -6.775  -2.102  1.00  0.00     0.059 A 
ATOM     69  F   UNL     1     -10.109  -5.106  -0.689  1.00  0.00    -0.206 F 
ATOM     70  C   UNL     1      -8.197  -7.571  -2.510  1.00  0.00     0.060 A 
BRANCH  70  71
ATOM     71  S   UNL     1      -8.412  -8.757  -3.854  1.00  0.00     0.124 S 
ATOM     72  O   UNL     1      -7.722  -8.083  -4.950  1.00  0.00    -0.237 OA
ATOM     73  O   UNL     1      -7.755  -9.950  -3.329  1.00  0.00    -0.237 OA
ATOM     74  O   UNL     1      -9.862  -8.855  -3.991  1.00  0.00    -0.744 OA
ENDBRANCH  70  71
ENDBRANCH  49  63
BRANCH  50  75
ATOM     75  C   UNL     1      -6.786   0.631   7.187  1.00  0.00     0.058 A 
ATOM     76  C   UNL     1      -5.985   0.326   8.297  1.00  0.00     0.135 A 
ATOM     77  C   UNL     1      -7.478   1.853   7.197  1.00  0.00     0.135 A 
ATOM     78  F   UNL     1      -5.318  -0.838   8.343  1.00  0.00    -0.206 F 
ATOM     79  C   UNL     1      -5.884   1.190   9.384  1.00  0.00     0.059 A 
ATOM     80  C   UNL     1      -7.369   2.747   8.256  1.00  0.00     0.059 A 
ATOM     81  F   UNL     1      -8.253   2.196   6.157  1.00  0.00    -0.206 F 
ATOM     82  C   UNL     1      -6.580   2.400   9.353  1.00  0.00     0.060 A 
BRANCH  82  83
ATOM     83  S   UNL     1      -6.414   3.545  10.739  1.00  0.00     0.124 S 
ATOM     84  O   UNL     1      -7.357   2.982  11.697  1.00  0.00    -0.237 OA
ATOM     85  O   UNL     1      -5.001   3.418  11.082  1.00  0.00    -0.237 OA
ATOM     86  O   UNL     1      -6.794   4.828  10.153  1.00  0.00    -0.744 OA
ENDBRANCH  82  83
ENDBRANCH  50  75
BRANCH  62  87
ATOM     87  C   UNL     1      -9.885  -5.564   6.516  1.00  0.00     0.058 A 
ATOM     88  C   UNL     1     -11.185  -5.251   6.941  1.00  0.00     0.135 A 
ATOM     89  C   UNL     1      -9.294  -6.737   7.011  1.00  0.00     0.135 A 
ATOM     90  F   UNL     1     -11.791  -4.138   6.498  1.00  0.00    -0.206 F 
ATOM     91  C   UNL     1     -11.863  -6.055   7.851  1.00  0.00     0.059 A 
ATOM     92  C   UNL     1      -9.962  -7.567   7.905  1.00  0.00     0.059 A 
ATOM     93  F   UNL     1      -8.057  -7.086   6.624  1.00  0.00    -0.206 F 
ATOM     94  C   UNL     1     -11.240  -7.208   8.333  1.00  0.00     0.060 A 
BRANCH  94  95
ATOM     95  S   UNL     1     -12.126  -8.248   9.514  1.00  0.00     0.124 S 
ATOM     96  O   UNL     1     -11.951  -7.498  10.753  1.00  0.00    -0.237 OA
ATOM     97  O   UNL     1     -13.480  -8.264   8.969  1.00  0.00    -0.237 OA
ATOM     98  O   UNL     1     -11.415  -9.521   9.443  1.00  0.00    -0.744 OA
ENDBRANCH  94  95
ENDBRANCH  62  87
ENDBRANCH  36  37
ENDBRANCH  29  31
ENDBRANCH  28  29
ENDBRANCH  27  28
ENDBRANCH  26  27
ENDBRANCH  25  26
ENDBRANCH   1  25
TORSDOF 22
