REMARK SMILES Cc1ccccc1/[NH+]=C1\S[C@@H](CC(=O)Nc2ccc(C(=O)OCCOCCOCCOC(=O)c3ccc(-c4c5nc(c(-c6c(F)cc(S(=O)(=O)[O-])cc6F)c6ccc([nH]6)c(-c6c(F)cc(S(=O)(=O)[O-])cc6F)c6nc(c(-c7c(F)cc(S(=O)(=O)[O-])cc7F)c7ccc4[nH]7)C=C6)C=C5)cc3)cc2)C(=O)N1C
REMARK SMILES IDX 26 1 25 2 24 3 23 4 22 5 20 6 21 7 19 8 16 9 17 10 101 11
REMARK SMILES IDX 18 12 100 13 15 14 13 15 14 16 12 18 11 19 8 20 9 21 10 23
REMARK SMILES IDX 104 24 102 25 105 26 103 27 7 28 1 29 2 30 3 31 4 32 6 33
REMARK SMILES IDX 5 34 27 35 28 36 29 37 30 38 31 39 32 40 33 41 34 42 35 43
REMARK SMILES IDX 99 44 36 45 98 46 37 47 38 48 39 49 92 50 40 51 97 52 91 53
REMARK SMILES IDX 93 54 41 55 96 56 90 57 89 58 42 60 76 61 55 62 75 63 56 64
REMARK SMILES IDX 59 65 74 66 94 67 57 68 58 69 73 71 95 72 60 73 43 74 44 75
REMARK SMILES IDX 53 76 45 77 46 78 52 79 54 80 47 81 48 82 49 83 50 84 51 85
REMARK SMILES IDX 77 86 78 87 87 88 79 89 80 90 86 91 88 92 81 93 82 94 83 95
REMARK SMILES IDX 84 96 85 97 61 98 62 99 71 100 63 101 64 102 70 103 72 104
REMARK SMILES IDX 65 105 66 106 67 107 68 108 69 109
REMARK H PARENT 15 17 8 22 93 59 59 70
REMARK Flexibility Score: inf
ROOT
ATOM      1  C   UNL     1       3.652   9.437  -4.377  1.00  0.00     0.188 C 
ENDROOT
BRANCH   1   2
ATOM      2  O   UNL     1       2.961   8.172  -4.302  1.00  0.00    -0.376 OA
BRANCH   2   3
ATOM      3  C   UNL     1       1.661   7.949  -3.762  1.00  0.00     0.202 C 
BRANCH   3   4
ATOM      4  C   UNL     1       1.304   6.807  -2.537  1.00  0.00     0.261 C 
BRANCH   4   5
ATOM      5  O   UNL     1       2.425   6.013  -1.622  1.00  0.00    -0.460 OA
BRANCH   5   6
ATOM      6  C   UNL     1       3.018   4.822  -1.238  1.00  0.00     0.338 C 
ATOM      7  O   UNL     1       2.503   3.713  -1.296  1.00  0.00    -0.246 OA
BRANCH   6   8
ATOM      8  C   UNL     1       4.447   4.841  -0.681  1.00  0.00     0.060 A 
ATOM      9  C   UNL     1       6.736   4.151   0.806  1.00  0.00     0.041 A 
ATOM     10  C   UNL     1       5.801   5.040   1.331  1.00  0.00     0.027 A 
ATOM     11  C   UNL     1       6.691   3.828  -0.545  1.00  0.00     0.027 A 
ATOM     12  C   UNL     1       4.652   5.365   0.594  1.00  0.00     0.018 A 
ATOM     13  C   UNL     1       5.528   4.137  -1.279  1.00  0.00     0.018 A 
BRANCH   9  14
ATOM     14  N   UNL     1       7.472   3.376   1.724  1.00  0.00    -0.326 N 
ATOM     15  C   UNL     1       7.065   2.117   2.132  1.00  0.00     0.226 C 
ATOM     16  O   UNL     1       7.468   1.661   3.205  1.00  0.00    -0.275 OA
ATOM     17  H   UNL     1       8.309   3.744   2.090  1.00  0.00     0.169 HD
BRANCH  15  18
ATOM     18  C   UNL     1       6.121   1.306   1.263  1.00  0.00     0.128 C 
BRANCH  18  19
ATOM     19  C   UNL     1       4.662   1.304   1.692  1.00  0.00     0.183 C 
ATOM     20  N   UNL     1       0.997   1.504   0.904  1.00  0.00    -0.234 N 
ATOM     21  C   UNL     1       2.263   1.705   0.935  1.00  0.00     0.319 C 
ATOM     22  H   UNL     1       0.488   2.225   1.341  1.00  0.00     0.313 HD
ATOM     23  S   UNL     1       3.607   0.836   0.287  1.00  0.00    -0.022 SA
ATOM     24  N   UNL     1       2.749   2.751   1.680  1.00  0.00    -0.193 N 
ATOM     25  C   UNL     1       4.005   2.568   2.226  1.00  0.00     0.324 C 
ATOM     26  C   UNL     1       1.915   3.891   2.005  1.00  0.00     0.301 C 
ATOM     27  O   UNL     1       4.457   3.231   3.156  1.00  0.00    -0.245 OA
BRANCH  20  28
ATOM     28  C   UNL     1       0.171   0.496   0.391  1.00  0.00     0.128 A 
ATOM     29  C   UNL     1       1.733  -1.571   0.310  1.00  0.00     0.049 C 
ATOM     30  C   UNL     1       0.407  -0.883   0.217  1.00  0.00    -0.004 A 
ATOM     31  C   UNL     1      -0.675  -1.737  -0.100  1.00  0.00     0.008 A 
ATOM     32  C   UNL     1      -1.976  -1.264  -0.215  1.00  0.00     0.001 A 
ATOM     33  C   UNL     1      -1.159   0.945   0.238  1.00  0.00     0.052 A 
ATOM     34  C   UNL     1      -2.220   0.087  -0.051  1.00  0.00     0.004 A 
ENDBRANCH  20  28
ENDBRANCH  18  19
ENDBRANCH  15  18
ENDBRANCH   9  14
ENDBRANCH   6   8
ENDBRANCH   5   6
ENDBRANCH   4   5
ENDBRANCH   3   4
ENDBRANCH   2   3
ENDBRANCH   1   2
BRANCH   1  35
ATOM     35  C   UNL     1       3.322  10.604  -3.444  1.00  0.00     0.188 C 
BRANCH  35  36
ATOM     36  O   UNL     1       2.779  10.131  -2.225  1.00  0.00    -0.376 OA
BRANCH  36  37
ATOM     37  C   UNL     1       2.536  11.116  -1.237  1.00  0.00     0.202 C 
BRANCH  37  38
ATOM     38  C   UNL     1       3.806  11.628  -0.526  1.00  0.00     0.261 C 
BRANCH  38  39
ATOM     39  O   UNL     1       4.445  10.601   0.273  1.00  0.00    -0.460 OA
BRANCH  39  40
ATOM     40  C   UNL     1       5.727  10.188  -0.091  1.00  0.00     0.338 C 
ATOM     41  O   UNL     1       6.708  10.715   0.322  1.00  0.00    -0.246 OA
BRANCH  40  42
ATOM     42  C   UNL     1       5.649   8.899  -0.888  1.00  0.00     0.060 A 
ATOM     43  C   UNL     1       6.573   8.330  -1.776  1.00  0.00     0.016 A 
ATOM     44  C   UNL     1       4.455   8.283  -0.869  1.00  0.00     0.016 A 
ATOM     45  C   UNL     1       6.216   7.241  -2.716  1.00  0.00     0.010 A 
ATOM     46  C   UNL     1       4.149   7.492  -1.975  1.00  0.00     0.010 A 
ATOM     47  C   UNL     1       4.912   6.768  -2.897  1.00  0.00    -0.014 A 
BRANCH  47  48
ATOM     48  C   UNL     1       4.307   5.828  -4.101  1.00  0.00     0.031 A 
ATOM     49  C   UNL     1       3.352   4.491  -4.212  1.00  0.00     0.074 A 
ATOM     50  C   UNL     1       4.704   6.155  -5.354  1.00  0.00     0.049 A 
ATOM     51  N   UNL     1       3.678   3.390  -4.885  1.00  0.00    -0.248 NA
ATOM     52  C   UNL     1       1.957   4.303  -3.762  1.00  0.00     0.031 C 
ATOM     53  C   UNL     1       4.229   5.602  -6.625  1.00  0.00     0.029 A 
ATOM     54  N   UNL     1       5.750   6.997  -5.723  1.00  0.00    -0.354 N 
ATOM     55  C   UNL     1       2.571   2.510  -4.915  1.00  0.00     0.074 A 
ATOM     56  C   UNL     1       1.574   3.083  -4.107  1.00  0.00     0.031 C 
ATOM     57  C   UNL     1       5.138   5.869  -7.572  1.00  0.00     0.029 A 
ATOM     58  C   UNL     1       6.257   6.538  -6.940  1.00  0.00     0.049 A 
ATOM     59  H   UNL     1       6.074   7.776  -5.215  1.00  0.00     0.167 HD
ATOM     60  C   UNL     1       2.349   1.416  -5.697  1.00  0.00     0.037 A 
ATOM     61  C   UNL     1       7.574   6.226  -7.073  1.00  0.00     0.037 A 
ATOM     62  C   UNL     1       3.224   1.427  -6.824  1.00  0.00     0.049 A 
ATOM     63  C   UNL     1       7.809   4.784  -7.448  1.00  0.00     0.074 A 
ATOM     64  C   UNL     1       3.067   1.942  -8.097  1.00  0.00     0.029 A 
ATOM     65  N   UNL     1       4.569   1.219  -6.620  1.00  0.00    -0.354 N 
ATOM     66  N   UNL     1       6.878   3.869  -7.480  1.00  0.00    -0.248 NA
ATOM     67  C   UNL     1       9.119   4.246  -7.803  1.00  0.00     0.031 C 
ATOM     68  C   UNL     1       4.360   2.151  -8.628  1.00  0.00     0.029 A 
ATOM     69  C   UNL     1       5.278   1.672  -7.709  1.00  0.00     0.049 A 
ATOM     70  H   UNL     1       4.964   0.809  -5.817  1.00  0.00     0.167 HD
ATOM     71  C   UNL     1       7.439   2.648  -7.761  1.00  0.00     0.074 A 
ATOM     72  C   UNL     1       8.836   2.946  -8.000  1.00  0.00     0.031 C 
ATOM     73  C   UNL     1       6.712   1.493  -7.750  1.00  0.00     0.037 A 
BRANCH  60  74
ATOM     74  C   UNL     1       1.082   0.576  -5.535  1.00  0.00     0.058 A 
ATOM     75  C   UNL     1       0.155   0.346  -6.567  1.00  0.00     0.135 A 
ATOM     76  C   UNL     1       0.717   0.044  -4.272  1.00  0.00     0.135 A 
ATOM     77  F   UNL     1       0.396   0.772  -7.815  1.00  0.00    -0.206 F 
ATOM     78  C   UNL     1      -1.087  -0.274  -6.344  1.00  0.00     0.059 A 
ATOM     79  C   UNL     1      -0.531  -0.550  -4.019  1.00  0.00     0.059 A 
ATOM     80  F   UNL     1       1.556   0.162  -3.231  1.00  0.00    -0.206 F 
ATOM     81  C   UNL     1      -1.440  -0.690  -5.061  1.00  0.00     0.060 A 
BRANCH  81  82
ATOM     82  S   UNL     1      -3.125  -1.296  -4.763  1.00  0.00     0.124 S 
ATOM     83  O   UNL     1      -3.940  -0.346  -5.517  1.00  0.00    -0.237 OA
ATOM     84  O   UNL     1      -3.070  -2.648  -5.308  1.00  0.00    -0.237 OA
ATOM     85  O   UNL     1      -3.282  -1.213  -3.314  1.00  0.00    -0.744 OA
ENDBRANCH  81  82
ENDBRANCH  60  74
BRANCH  61  86
ATOM     86  C   UNL     1       8.473   7.133  -6.300  1.00  0.00     0.058 A 
ATOM     87  C   UNL     1       8.458   8.499  -6.659  1.00  0.00     0.135 A 
ATOM     88  C   UNL     1       9.006   6.812  -5.045  1.00  0.00     0.135 A 
ATOM     89  F   UNL     1       7.963   8.873  -7.850  1.00  0.00    -0.206 F 
ATOM     90  C   UNL     1       8.811   9.506  -5.768  1.00  0.00     0.059 A 
ATOM     91  C   UNL     1       9.387   7.812  -4.135  1.00  0.00     0.059 A 
ATOM     92  F   UNL     1       9.017   5.539  -4.622  1.00  0.00    -0.206 F 
ATOM     93  C   UNL     1       9.224   9.155  -4.488  1.00  0.00     0.060 A 
BRANCH  93  94
ATOM     94  S   UNL     1       9.354  10.489  -3.268  1.00  0.00     0.124 S 
ATOM     95  O   UNL     1      10.339  11.371  -3.883  1.00  0.00    -0.237 OA
ATOM     96  O   UNL     1       7.980  10.991  -3.249  1.00  0.00    -0.237 OA
ATOM     97  O   UNL     1       9.792   9.795  -2.063  1.00  0.00    -0.744 OA
ENDBRANCH  93  94
ENDBRANCH  61  86
BRANCH  73  98
ATOM     98  C   UNL     1       7.228   0.072  -7.830  1.00  0.00     0.058 A 
ATOM     99  C   UNL     1       8.495  -0.333  -7.389  1.00  0.00     0.135 A 
ATOM    100  C   UNL     1       6.356  -0.980  -8.225  1.00  0.00     0.135 A 
ATOM    101  F   UNL     1       9.372   0.546  -6.885  1.00  0.00    -0.206 F 
ATOM    102  C   UNL     1       8.898  -1.671  -7.403  1.00  0.00     0.059 A 
ATOM    103  C   UNL     1       6.714  -2.322  -8.183  1.00  0.00     0.059 A 
ATOM    104  F   UNL     1       5.109  -0.740  -8.657  1.00  0.00    -0.206 F 
ATOM    105  C   UNL     1       8.001  -2.658  -7.801  1.00  0.00     0.060 A 
BRANCH 105 106
ATOM    106  S   UNL     1       8.485  -4.392  -7.794  1.00  0.00     0.124 S 
ATOM    107  O   UNL     1       8.830  -4.601  -9.197  1.00  0.00    -0.237 OA
ATOM    108  O   UNL     1       9.606  -4.418  -6.860  1.00  0.00    -0.237 OA
ATOM    109  O   UNL     1       7.276  -5.066  -7.331  1.00  0.00    -0.744 OA
ENDBRANCH 105 106
ENDBRANCH  73  98
ENDBRANCH  47  48
ENDBRANCH  40  42
ENDBRANCH  39  40
ENDBRANCH  38  39
ENDBRANCH  37  38
ENDBRANCH  36  37
ENDBRANCH  35  36
ENDBRANCH   1  35
TORSDOF 24
