REMARK SMILES CO[C@@H]1C[NH2+][C@@H](O[C@@H]2C[C@@H](C(=O)OCCOCCOCCOC(=O)c3ccc(-c4c5nc(c(-c6c(F)cc(S(=O)(=O)[O-])cc6F)c6ccc([nH]6)c(-c6c(F)cc(S(=O)(=O)[O-])cc6F)c6nc(c(-c7c(F)cc(S(=O)(=O)[O-])cc7F)c7ccc4[nH]7)C=C6)C=C5)cc3)N(C(=O)OC(C)(C)C)C2)c2cc(Cl)ccc21
REMARK SMILES IDX 17 1 16 2 15 3 14 4 13 5 11 6 12 7 10 8 8 9 9 10 99 11 91 12
REMARK SMILES IDX 7 13 6 14 3 15 4 16 106 17 5 18 100 19 105 20 101 23 104 24
REMARK SMILES IDX 102 25 103 26 2 27 1 28 92 29 93 30 94 31 95 32 96 33 97 34
REMARK SMILES IDX 98 35 18 36 19 37 20 38 21 39 22 40 23 41 24 42 25 43 26 44
REMARK SMILES IDX 90 45 27 46 89 47 28 48 29 49 30 50 83 51 31 52 88 53 82 54
REMARK SMILES IDX 84 55 32 56 87 57 81 58 80 59 33 61 67 62 46 63 66 64 47 65
REMARK SMILES IDX 50 66 65 67 85 68 48 69 49 70 64 72 86 73 51 74 34 75 35 76
REMARK SMILES IDX 44 77 36 78 37 79 43 80 45 81 38 82 39 83 40 84 41 85 42 86
REMARK SMILES IDX 68 87 69 88 78 89 70 90 71 91 77 92 79 93 72 94 73 95 74 96
REMARK SMILES IDX 75 97 76 98 52 99 53 100 62 101 54 102 55 103 61 104 63 105
REMARK SMILES IDX 56 106 57 107 58 108 59 109 60 110
REMARK H PARENT 5 21 5 22 84 60 50 71
REMARK Flexibility Score: inf
ROOT
ATOM      1  C   UNL     1       5.482   2.564   1.780  1.00  0.00     0.188 C 
ENDROOT
BRANCH   1   2
ATOM      2  O   UNL     1       5.887   3.933   1.829  1.00  0.00    -0.376 OA
BRANCH   2   3
ATOM      3  C   UNL     1       5.135   4.769   0.946  1.00  0.00     0.202 C 
BRANCH   3   4
ATOM      4  C   UNL     1       4.073   5.543   1.734  1.00  0.00     0.261 C 
BRANCH   4   5
ATOM      5  O   UNL     1       3.286   4.713   2.612  1.00  0.00    -0.462 OA
BRANCH   5   6
ATOM      6  C   UNL     1       2.449   3.871   1.964  1.00  0.00     0.329 C 
ATOM      7  O   UNL     1       2.354   3.834   0.740  1.00  0.00    -0.250 OA
BRANCH   6   8
ATOM      8  C   UNL     1       1.644   2.960   2.900  1.00  0.00     0.201 C 
ATOM      9  C   UNL     1       0.521   2.333   4.895  1.00  0.00     0.147 C 
ATOM     10  C   UNL     1       1.386   3.457   4.316  1.00  0.00     0.071 C 
ATOM     11  C   UNL     1       1.145   1.069   4.287  1.00  0.00     0.156 C 
ATOM     12  N   UNL     1       1.821   1.523   3.073  1.00  0.00    -0.292 N 
BRANCH   9  13
ATOM     13  O   UNL     1      -0.893   2.502   4.822  1.00  0.00    -0.320 OA
BRANCH  13  14
ATOM     14  C   UNL     1      -1.746   2.651   3.686  1.00  0.00     0.354 C 
ATOM     15  C   UNL     1      -1.077   2.016   0.860  1.00  0.00     0.203 C 
ATOM     16  C   UNL     1      -1.514   0.953   1.903  1.00  0.00     0.300 C 
ATOM     17  C   UNL     1      -1.199   3.462   1.327  1.00  0.00    -0.002 A 
ATOM     18  N   UNL     1      -2.182   1.397   3.118  1.00  0.00    -0.315 N 
ATOM     19  C   UNL     1      -1.466   3.756   2.686  1.00  0.00     0.046 A 
ATOM     20  C   UNL     1      -0.751   4.494   0.479  1.00  0.00     0.009 A 
ATOM     21  H   UNL     1      -2.046   0.675   3.826  1.00  0.00     0.349 HD
ATOM     22  H   UNL     1      -3.152   1.554   2.844  1.00  0.00     0.349 HD
ATOM     23  C   UNL     1      -1.354   5.084   3.139  1.00  0.00     0.033 A 
ATOM     24  C   UNL     1      -0.564   5.790   0.966  1.00  0.00     0.021 A 
ATOM     25  C   UNL     1      -0.877   6.081   2.290  1.00  0.00     0.041 A 
ATOM     26  Cl  UNL     1      -0.576   7.657   2.914  1.00  0.00    -0.084 Cl
BRANCH  15  27
ATOM     27  O   UNL     1      -1.732   1.822  -0.395  1.00  0.00    -0.371 OA
ATOM     28  C   UNL     1      -1.060   0.836  -1.179  1.00  0.00     0.196 C 
ENDBRANCH  15  27
ENDBRANCH  13  14
ENDBRANCH   9  13
BRANCH  12  29
ATOM     29  C   UNL     1       2.163   0.627   2.099  1.00  0.00     0.411 C 
ATOM     30  O   UNL     1       2.148  -0.585   2.284  1.00  0.00    -0.224 OA
BRANCH  29  31
ATOM     31  O   UNL     1       2.507   1.242   0.944  1.00  0.00    -0.444 OA
BRANCH  31  32
ATOM     32  C   UNL     1       2.918   0.503  -0.233  1.00  0.00     0.106 C 
ATOM     33  C   UNL     1       4.366   0.058  -0.061  1.00  0.00     0.056 C 
ATOM     34  C   UNL     1       1.930  -0.631  -0.514  1.00  0.00     0.056 C 
ATOM     35  C   UNL     1       2.937   1.482  -1.415  1.00  0.00     0.056 C 
ENDBRANCH  31  32
ENDBRANCH  29  31
ENDBRANCH  12  29
ENDBRANCH   6   8
ENDBRANCH   5   6
ENDBRANCH   4   5
ENDBRANCH   3   4
ENDBRANCH   2   3
ENDBRANCH   1   2
BRANCH   1  36
ATOM     36  C   UNL     1       5.068   2.001   3.149  1.00  0.00     0.188 C 
BRANCH  36  37
ATOM     37  O   UNL     1       5.985   2.046   4.232  1.00  0.00    -0.376 OA
BRANCH  37  38
ATOM     38  C   UNL     1       7.352   2.072   3.888  1.00  0.00     0.202 C 
BRANCH  38  39
ATOM     39  C   UNL     1       7.958   0.779   3.316  1.00  0.00     0.261 C 
BRANCH  39  40
ATOM     40  O   UNL     1       7.107  -0.077   2.526  1.00  0.00    -0.460 OA
BRANCH  40  41
ATOM     41  C   UNL     1       6.539  -1.144   3.162  1.00  0.00     0.338 C 
ATOM     42  O   UNL     1       6.526  -1.341   4.364  1.00  0.00    -0.246 OA
BRANCH  41  43
ATOM     43  C   UNL     1       5.869  -2.020   2.151  1.00  0.00     0.060 A 
ATOM     44  C   UNL     1       6.509  -2.378   0.956  1.00  0.00     0.016 A 
ATOM     45  C   UNL     1       4.546  -2.426   2.345  1.00  0.00     0.016 A 
ATOM     46  C   UNL     1       5.808  -3.056  -0.070  1.00  0.00     0.010 A 
ATOM     47  C   UNL     1       3.840  -3.074   1.304  1.00  0.00     0.010 A 
ATOM     48  C   UNL     1       4.440  -3.362   0.056  1.00  0.00    -0.014 A 
BRANCH  48  49
ATOM     49  C   UNL     1       3.721  -4.208  -0.964  1.00  0.00     0.031 A 
ATOM     50  C   UNL     1       2.975  -3.740  -2.211  1.00  0.00     0.074 A 
ATOM     51  C   UNL     1       3.758  -5.531  -0.732  1.00  0.00     0.049 A 
ATOM     52  N   UNL     1       2.068  -4.370  -2.933  1.00  0.00    -0.248 NA
ATOM     53  C   UNL     1       3.252  -2.395  -2.712  1.00  0.00     0.031 C 
ATOM     54  C   UNL     1       4.489  -6.159   0.367  1.00  0.00     0.029 A 
ATOM     55  N   UNL     1       3.199  -6.573  -1.418  1.00  0.00    -0.354 N 
ATOM     56  C   UNL     1       1.575  -3.450  -3.870  1.00  0.00     0.074 A 
ATOM     57  C   UNL     1       2.292  -2.220  -3.618  1.00  0.00     0.031 C 
ATOM     58  C   UNL     1       4.361  -7.486   0.264  1.00  0.00     0.029 A 
ATOM     59  C   UNL     1       3.504  -7.793  -0.878  1.00  0.00     0.049 A 
ATOM     60  H   UNL     1       2.635  -6.458  -2.217  1.00  0.00     0.167 HD
ATOM     61  C   UNL     1       0.652  -3.623  -4.862  1.00  0.00     0.037 A 
ATOM     62  C   UNL     1       3.146  -9.032  -1.254  1.00  0.00     0.037 A 
ATOM     63  C   UNL     1       0.196  -4.929  -5.308  1.00  0.00     0.049 A 
ATOM     64  C   UNL     1       2.300  -9.232  -2.470  1.00  0.00     0.074 A 
ATOM     65  C   UNL     1      -0.599  -5.237  -6.405  1.00  0.00     0.029 A 
ATOM     66  N   UNL     1       0.575  -6.143  -4.754  1.00  0.00    -0.354 N 
ATOM     67  N   UNL     1       1.731  -8.335  -3.237  1.00  0.00    -0.248 NA
ATOM     68  C   UNL     1       2.072 -10.620  -2.886  1.00  0.00     0.031 C 
ATOM     69  C   UNL     1      -0.690  -6.628  -6.519  1.00  0.00     0.029 A 
ATOM     70  C   UNL     1       0.074  -7.192  -5.513  1.00  0.00     0.049 A 
ATOM     71  H   UNL     1       1.121  -6.246  -3.941  1.00  0.00     0.167 HD
ATOM     72  C   UNL     1       1.094  -9.051  -4.243  1.00  0.00     0.074 A 
ATOM     73  C   UNL     1       1.369 -10.452  -3.997  1.00  0.00     0.031 C 
ATOM     74  C   UNL     1       0.346  -8.587  -5.274  1.00  0.00     0.037 A 
BRANCH  61  75
ATOM     75  C   UNL     1       0.095  -2.426  -5.631  1.00  0.00     0.058 A 
ATOM     76  C   UNL     1       0.879  -1.622  -6.473  1.00  0.00     0.135 A 
ATOM     77  C   UNL     1      -1.299  -2.181  -5.651  1.00  0.00     0.135 A 
ATOM     78  F   UNL     1       2.206  -1.808  -6.543  1.00  0.00    -0.206 F 
ATOM     79  C   UNL     1       0.324  -0.609  -7.260  1.00  0.00     0.059 A 
ATOM     80  C   UNL     1      -1.881  -1.206  -6.467  1.00  0.00     0.059 A 
ATOM     81  F   UNL     1      -2.126  -2.929  -4.903  1.00  0.00    -0.206 F 
ATOM     82  C   UNL     1      -1.057  -0.411  -7.257  1.00  0.00     0.060 A 
BRANCH  82  83
ATOM     83  S   UNL     1      -1.750   0.882  -8.316  1.00  0.00     0.124 S 
ATOM     84  O   UNL     1      -1.311   2.090  -7.624  1.00  0.00    -0.237 OA
ATOM     85  O   UNL     1      -1.102   0.618  -9.597  1.00  0.00    -0.237 OA
ATOM     86  O   UNL     1      -3.186   0.625  -8.279  1.00  0.00    -0.744 OA
ENDBRANCH  82  83
ENDBRANCH  61  75
BRANCH  62  87
ATOM     87  C   UNL     1       3.698 -10.168  -0.483  1.00  0.00     0.058 A 
ATOM     88  C   UNL     1       4.763 -10.916  -0.999  1.00  0.00     0.135 A 
ATOM     89  C   UNL     1       3.277 -10.421   0.831  1.00  0.00     0.135 A 
ATOM     90  F   UNL     1       5.201 -10.691  -2.248  1.00  0.00    -0.206 F 
ATOM     91  C   UNL     1       5.402 -11.879  -0.234  1.00  0.00     0.059 A 
ATOM     92  C   UNL     1       3.923 -11.357   1.627  1.00  0.00     0.059 A 
ATOM     93  F   UNL     1       2.289  -9.693   1.374  1.00  0.00    -0.206 F 
ATOM     94  C   UNL     1       4.984 -12.081   1.083  1.00  0.00     0.060 A 
BRANCH  94  95
ATOM     95  S   UNL     1       5.893 -13.262   2.097  1.00  0.00     0.124 S 
ATOM     96  O   UNL     1       5.497 -14.529   1.493  1.00  0.00    -0.237 OA
ATOM     97  O   UNL     1       7.276 -12.852   1.874  1.00  0.00    -0.237 OA
ATOM     98  O   UNL     1       5.382 -13.015   3.442  1.00  0.00    -0.744 OA
ENDBRANCH  94  95
ENDBRANCH  62  87
BRANCH  74  99
ATOM     99  C   UNL     1      -0.197  -9.607  -6.239  1.00  0.00     0.058 A 
ATOM    100  C   UNL     1      -1.217 -10.499  -5.871  1.00  0.00     0.135 A 
ATOM    101  C   UNL     1       0.316  -9.704  -7.543  1.00  0.00     0.135 A 
ATOM    102  F   UNL     1      -1.741 -10.453  -4.636  1.00  0.00    -0.206 F 
ATOM    103  C   UNL     1      -1.671 -11.485  -6.741  1.00  0.00     0.059 A 
ATOM    104  C   UNL     1      -0.144 -10.664  -8.441  1.00  0.00     0.059 A 
ATOM    105  F   UNL     1       1.284  -8.869  -7.954  1.00  0.00    -0.206 F 
ATOM    106  C   UNL     1      -1.123 -11.564  -8.023  1.00  0.00     0.060 A 
BRANCH 106 107
ATOM    107  S   UNL     1      -1.705 -12.867  -9.128  1.00  0.00     0.124 S 
ATOM    108  O   UNL     1      -1.140 -14.058  -8.502  1.00  0.00    -0.237 OA
ATOM    109  O   UNL     1      -3.155 -12.730  -9.034  1.00  0.00    -0.237 OA
ATOM    110  O   UNL     1      -1.128 -12.504 -10.419  1.00  0.00    -0.744 OA
ENDBRANCH 106 107
ENDBRANCH  74  99
ENDBRANCH  48  49
ENDBRANCH  41  43
ENDBRANCH  40  41
ENDBRANCH  39  40
ENDBRANCH  38  39
ENDBRANCH  37  38
ENDBRANCH  36  37
ENDBRANCH   1  36
TORSDOF 26
