REMARK SMILES C[C@@H]1[NH2+]CC[C@@H]1C(=O)N1[C@@H](C(=O)OCCOCCOCCOC(=O)c2ccc(-c3c4nc(c(-c5c(F)cc(S(=O)(=O)[O-])cc5F)c5ccc([nH]5)c(-c5c(F)cc(S(=O)(=O)[O-])cc5F)c5nc(c(-c6c(F)cc(S(=O)(=O)[O-])cc6F)c6ccc3[nH]6)C=C5)C=C4)cc2)CC[C@H]2CCCC[C@H]21
REMARK SMILES IDX 18 1 17 2 16 3 15 4 14 5 13 6 11 7 12 8 10 9 9 10 98 11
REMARK SMILES IDX 91 12 93 13 97 14 92 15 94 16 96 17 95 18 7 19 8 20 6 21
REMARK SMILES IDX 1 22 2 23 3 24 4 25 5 28 19 29 20 30 21 31 22 32 23 33 24 34
REMARK SMILES IDX 25 35 26 36 90 37 27 38 89 39 28 40 29 41 30 42 83 43 31 44
REMARK SMILES IDX 88 45 82 46 84 47 32 48 87 49 81 50 80 51 33 53 67 54 46 55
REMARK SMILES IDX 66 56 47 57 50 58 65 59 85 60 48 61 49 62 64 64 86 65 51 66
REMARK SMILES IDX 34 67 35 68 44 69 36 70 37 71 43 72 45 73 38 74 39 75 40 76
REMARK SMILES IDX 41 77 42 78 68 79 69 80 78 81 70 82 71 83 77 84 79 85 72 86
REMARK SMILES IDX 73 87 74 88 75 89 76 90 52 91 53 92 62 93 54 94 55 95 61 96
REMARK SMILES IDX 63 97 56 98 57 99 58 100 59 101 60 102
REMARK H PARENT 3 26 3 27 84 52 50 63
REMARK Flexibility Score: inf
ROOT
ATOM      1  C   UNL     1       2.882  -2.638  -3.226  1.00  0.00     0.188 C 
ENDROOT
BRANCH   1   2
ATOM      2  C   UNL     1       2.273  -3.530  -2.142  1.00  0.00     0.188 C 
BRANCH   2   3
ATOM      3  O   UNL     1       1.109  -4.192  -2.587  1.00  0.00    -0.376 OA
BRANCH   3   4
ATOM      4  C   UNL     1      -0.125  -3.663  -2.142  1.00  0.00     0.202 C 
BRANCH   4   5
ATOM      5  C   UNL     1      -0.567  -2.217  -2.474  1.00  0.00     0.261 C 
BRANCH   5   6
ATOM      6  O   UNL     1       0.389  -1.229  -2.896  1.00  0.00    -0.462 OA
BRANCH   6   7
ATOM      7  C   UNL     1       1.065  -0.626  -1.892  1.00  0.00     0.328 C 
ATOM      8  O   UNL     1       1.010  -1.034  -0.735  1.00  0.00    -0.250 OA
BRANCH   7   9
ATOM      9  C   UNL     1       1.912   0.617  -2.284  1.00  0.00     0.195 C 
ATOM     10  N   UNL     1       1.463   1.866  -1.635  1.00  0.00    -0.325 N 
ATOM     11  C   UNL     1       2.312   3.068  -1.801  1.00  0.00     0.089 C 
ATOM     12  C   UNL     1       2.321   0.826  -3.738  1.00  0.00     0.037 C 
ATOM     13  C   UNL     1       2.939   3.204  -3.225  1.00  0.00     0.012 C 
ATOM     14  C   UNL     1       1.679   4.419  -1.451  1.00  0.00     0.025 C 
ATOM     15  C   UNL     1       3.443   1.867  -3.770  1.00  0.00     0.008 C 
ATOM     16  C   UNL     1       2.054   3.907  -4.277  1.00  0.00     0.006 C 
ATOM     17  C   UNL     1       0.590   4.885  -2.417  1.00  0.00     0.002 C 
ATOM     18  C   UNL     1       0.658   4.282  -3.813  1.00  0.00     0.000 C 
BRANCH  10  19
ATOM     19  C   UNL     1       0.156   1.868  -1.196  1.00  0.00     0.232 C 
ATOM     20  O   UNL     1      -0.745   1.635  -2.008  1.00  0.00    -0.274 OA
BRANCH  19  21
ATOM     21  C   UNL     1      -0.123   2.055   0.316  1.00  0.00     0.142 C 
ATOM     22  C   UNL     1       1.980   0.780   1.359  1.00  0.00     0.076 C 
ATOM     23  C   UNL     1       0.485   1.089   1.354  1.00  0.00     0.192 C 
ATOM     24  N   UNL     1      -0.367  -0.122   1.360  1.00  0.00    -0.343 N 
ATOM     25  C   UNL     1      -1.623   0.232   0.693  1.00  0.00     0.261 C 
ATOM     26  H   UNL     1      -0.550  -0.417   2.319  1.00  0.00     0.346 HD
ATOM     27  H   UNL     1       0.095  -0.894   0.878  1.00  0.00     0.346 HD
ATOM     28  C   UNL     1      -1.609   1.748   0.568  1.00  0.00     0.081 C 
ENDBRANCH  19  21
ENDBRANCH  10  19
ENDBRANCH   7   9
ENDBRANCH   6   7
ENDBRANCH   5   6
ENDBRANCH   4   5
ENDBRANCH   3   4
ENDBRANCH   2   3
ENDBRANCH   1   2
BRANCH   1  29
ATOM     29  O   UNL     1       2.270  -2.499  -4.497  1.00  0.00    -0.376 OA
BRANCH  29  30
ATOM     30  C   UNL     1       1.770  -3.654  -5.157  1.00  0.00     0.202 C 
BRANCH  30  31
ATOM     31  C   UNL     1       2.610  -4.949  -5.243  1.00  0.00     0.261 C 
BRANCH  31  32
ATOM     32  O   UNL     1       3.642  -5.133  -4.260  1.00  0.00    -0.460 OA
BRANCH  32  33
ATOM     33  C   UNL     1       4.869  -4.660  -4.598  1.00  0.00     0.338 C 
ATOM     34  O   UNL     1       5.193  -4.176  -5.672  1.00  0.00    -0.246 OA
BRANCH  33  35
ATOM     35  C   UNL     1       5.702  -4.564  -3.370  1.00  0.00     0.060 A 
ATOM     36  C   UNL     1       6.227  -3.304  -3.021  1.00  0.00     0.016 A 
ATOM     37  C   UNL     1       5.929  -5.666  -2.547  1.00  0.00     0.016 A 
ATOM     38  C   UNL     1       6.990  -3.146  -1.867  1.00  0.00     0.010 A 
ATOM     39  C   UNL     1       6.750  -5.521  -1.423  1.00  0.00     0.010 A 
ATOM     40  C   UNL     1       7.313  -4.269  -1.102  1.00  0.00    -0.014 A 
BRANCH  40  41
ATOM     41  C   UNL     1       8.471  -4.196  -0.178  1.00  0.00     0.031 A 
ATOM     42  C   UNL     1       9.812  -4.603  -0.729  1.00  0.00     0.074 A 
ATOM     43  C   UNL     1       8.359  -3.760   1.089  1.00  0.00     0.049 A 
ATOM     44  N   UNL     1      10.960  -4.730  -0.119  1.00  0.00    -0.248 NA
ATOM     45  C   UNL     1       9.858  -4.915  -2.169  1.00  0.00     0.031 C 
ATOM     46  C   UNL     1       7.135  -3.268   1.715  1.00  0.00     0.029 A 
ATOM     47  N   UNL     1       9.303  -3.678   2.083  1.00  0.00    -0.354 N 
ATOM     48  C   UNL     1      11.857  -5.155  -1.094  1.00  0.00     0.074 A 
ATOM     49  C   UNL     1      11.118  -5.285  -2.329  1.00  0.00     0.031 C 
ATOM     50  C   UNL     1       7.396  -2.961   2.999  1.00  0.00     0.029 A 
ATOM     51  C   UNL     1       8.796  -3.270   3.293  1.00  0.00     0.049 A 
ATOM     52  H   UNL     1      10.254  -3.892   1.942  1.00  0.00     0.167 HD
ATOM     53  C   UNL     1      13.179  -5.412  -0.971  1.00  0.00     0.037 A 
ATOM     54  C   UNL     1       9.389  -3.191   4.503  1.00  0.00     0.037 A 
ATOM     55  C   UNL     1      13.907  -5.284   0.262  1.00  0.00     0.049 A 
ATOM     56  C   UNL     1      10.847  -3.562   4.636  1.00  0.00     0.074 A 
ATOM     57  C   UNL     1      15.250  -5.518   0.495  1.00  0.00     0.029 A 
ATOM     58  N   UNL     1      13.352  -4.893   1.472  1.00  0.00    -0.354 N 
ATOM     59  N   UNL     1      11.687  -3.965   3.711  1.00  0.00    -0.248 NA
ATOM     60  C   UNL     1      11.439  -3.467   5.979  1.00  0.00     0.031 C 
ATOM     61  C   UNL     1      15.496  -5.323   1.857  1.00  0.00     0.029 A 
ATOM     62  C   UNL     1      14.321  -4.901   2.460  1.00  0.00     0.049 A 
ATOM     63  H   UNL     1      12.409  -4.646   1.607  1.00  0.00     0.167 HD
ATOM     64  C   UNL     1      12.912  -4.133   4.352  1.00  0.00     0.074 A 
ATOM     65  C   UNL     1      12.704  -3.784   5.742  1.00  0.00     0.031 C 
ATOM     66  C   UNL     1      14.102  -4.533   3.837  1.00  0.00     0.037 A 
BRANCH  53  67
ATOM     67  C   UNL     1      13.908  -5.899  -2.192  1.00  0.00     0.058 A 
ATOM     68  C   UNL     1      14.164  -5.061  -3.289  1.00  0.00     0.135 A 
ATOM     69  C   UNL     1      14.375  -7.222  -2.256  1.00  0.00     0.135 A 
ATOM     70  F   UNL     1      13.718  -3.795  -3.293  1.00  0.00    -0.206 F 
ATOM     71  C   UNL     1      14.836  -5.524  -4.416  1.00  0.00     0.059 A 
ATOM     72  C   UNL     1      15.076  -7.697  -3.360  1.00  0.00     0.059 A 
ATOM     73  F   UNL     1      14.149  -8.069  -1.240  1.00  0.00    -0.206 F 
ATOM     74  C   UNL     1      15.290  -6.844  -4.441  1.00  0.00     0.060 A 
BRANCH  74  75
ATOM     75  S   UNL     1      16.171  -7.425  -5.905  1.00  0.00     0.124 S 
ATOM     76  O   UNL     1      15.091  -7.499  -6.884  1.00  0.00    -0.237 OA
ATOM     77  O   UNL     1      17.149  -6.365  -6.120  1.00  0.00    -0.237 OA
ATOM     78  O   UNL     1      16.723  -8.709  -5.483  1.00  0.00    -0.744 OA
ENDBRANCH  74  75
ENDBRANCH  53  67
BRANCH  54  79
ATOM     79  C   UNL     1       8.604  -2.763   5.694  1.00  0.00     0.058 A 
ATOM     80  C   UNL     1       8.873  -1.548   6.342  1.00  0.00     0.135 A 
ATOM     81  C   UNL     1       7.579  -3.567   6.218  1.00  0.00     0.135 A 
ATOM     82  F   UNL     1       9.853  -0.750   5.892  1.00  0.00    -0.206 F 
ATOM     83  C   UNL     1       8.166  -1.151   7.473  1.00  0.00     0.059 A 
ATOM     84  C   UNL     1       6.838  -3.179   7.330  1.00  0.00     0.059 A 
ATOM     85  F   UNL     1       7.278  -4.737   5.635  1.00  0.00    -0.206 F 
ATOM     86  C   UNL     1       7.146  -1.972   7.957  1.00  0.00     0.060 A 
BRANCH  86  87
ATOM     87  S   UNL     1       6.203  -1.423   9.396  1.00  0.00     0.124 S 
ATOM     88  O   UNL     1       7.184  -1.571  10.466  1.00  0.00    -0.237 OA
ATOM     89  O   UNL     1       5.861  -0.052   9.030  1.00  0.00    -0.237 OA
ATOM     90  O   UNL     1       5.079  -2.353   9.437  1.00  0.00    -0.744 OA
ENDBRANCH  86  87
ENDBRANCH  54  79
BRANCH  66  91
ATOM     91  C   UNL     1      15.293  -4.561   4.759  1.00  0.00     0.058 A 
ATOM     92  C   UNL     1      15.432  -5.524   5.770  1.00  0.00     0.135 A 
ATOM     93  C   UNL     1      16.342  -3.643   4.581  1.00  0.00     0.135 A 
ATOM     94  F   UNL     1      14.460  -6.424   5.985  1.00  0.00    -0.206 F 
ATOM     95  C   UNL     1      16.557  -5.560   6.589  1.00  0.00     0.059 A 
ATOM     96  C   UNL     1      17.490  -3.681   5.367  1.00  0.00     0.059 A 
ATOM     97  F   UNL     1      16.268  -2.708   3.620  1.00  0.00    -0.206 F 
ATOM     98  C   UNL     1      17.582  -4.636   6.377  1.00  0.00     0.060 A 
BRANCH  98  99
ATOM     99  S   UNL     1      19.050  -4.714   7.426  1.00  0.00     0.124 S 
ATOM    100  O   UNL     1      18.534  -4.208   8.693  1.00  0.00    -0.237 OA
ATOM    101  O   UNL     1      19.378  -6.136   7.397  1.00  0.00    -0.237 OA
ATOM    102  O   UNL     1      20.003  -3.843   6.744  1.00  0.00    -0.744 OA
ENDBRANCH  98  99
ENDBRANCH  66  91
ENDBRANCH  40  41
ENDBRANCH  33  35
ENDBRANCH  32  33
ENDBRANCH  31  32
ENDBRANCH  30  31
ENDBRANCH  29  30
ENDBRANCH   1  29
TORSDOF 22
