REMARK SMILES O=C(OCCOCCOCCOC(=O)[C@@H]1CC2(CC[NH2+]CC2)C[N@H+]1Cc1cccc2nonc12)c1ccc(-c2c3nc(c(-c4c(F)cc(S(=O)(=O)[O-])cc4F)c4ccc([nH]4)c(-c4c(F)cc(S(=O)(=O)[O-])cc4F)c4nc(c(-c5c(F)cc(S(=O)(=O)[O-])cc5F)c5ccc2[nH]5)C=C4)C=C3)cc1
REMARK SMILES IDX 7 1 6 2 5 3 4 4 3 5 2 6 1 7 35 8 36 9 100 10 37 11 99 12
REMARK SMILES IDX 38 13 39 14 40 15 93 16 41 17 98 18 92 19 94 20 42 21 97 22
REMARK SMILES IDX 91 23 90 24 43 26 77 27 56 28 76 29 57 30 60 31 75 32 95 33
REMARK SMILES IDX 58 34 59 35 74 37 96 38 61 39 44 40 45 41 54 42 46 43 47 44
REMARK SMILES IDX 53 45 55 46 48 47 49 48 50 49 51 50 52 51 78 52 79 53 88 54
REMARK SMILES IDX 80 55 81 56 87 57 89 58 82 59 83 60 84 61 85 62 86 63 62 64
REMARK SMILES IDX 63 65 72 66 64 67 65 68 71 69 73 70 66 71 67 72 68 73 69 74
REMARK SMILES IDX 70 75 8 76 9 77 10 78 11 79 12 80 13 81 14 82 15 83 16 84
REMARK SMILES IDX 24 85 17 86 23 87 18 89 22 90 19 91 21 92 20 93 25 96 26 97
REMARK SMILES IDX 27 98 34 99 28 100 30 101 33 102 29 103 31 104 32 105
REMARK H PARENT 94 25 60 36 24 88 20 94 20 95
REMARK Flexibility Score: inf
ROOT
ATOM      1  C   UNL     1       2.308   1.524  -0.282  1.00  0.00     0.188 C 
ENDROOT
BRANCH   1   2
ATOM      2  O   UNL     1       3.040   0.292  -0.269  1.00  0.00    -0.376 OA
BRANCH   2   3
ATOM      3  C   UNL     1       3.985   0.135  -1.321  1.00  0.00     0.202 C 
BRANCH   3   4
ATOM      4  C   UNL     1       3.435  -0.888  -2.307  1.00  0.00     0.261 C 
BRANCH   4   5
ATOM      5  O   UNL     1       3.367  -2.157  -1.620  1.00  0.00    -0.460 OA
BRANCH   5   6
ATOM      6  C   UNL     1       2.175  -2.457  -1.036  1.00  0.00     0.338 C 
ATOM      7  O   UNL     1       1.083  -2.049  -1.388  1.00  0.00    -0.246 OA
BRANCH   6   8
ATOM      8  C   UNL     1       2.400  -3.317   0.168  1.00  0.00     0.060 A 
ATOM      9  C   UNL     1       1.313  -3.893   0.828  1.00  0.00     0.016 A 
ATOM     10  C   UNL     1       3.668  -3.494   0.715  1.00  0.00     0.016 A 
ATOM     11  C   UNL     1       1.498  -4.603   2.037  1.00  0.00     0.010 A 
ATOM     12  C   UNL     1       3.836  -4.175   1.934  1.00  0.00     0.010 A 
ATOM     13  C   UNL     1       2.756  -4.708   2.663  1.00  0.00    -0.014 A 
BRANCH  13  14
ATOM     14  C   UNL     1       2.960  -5.374   4.009  1.00  0.00     0.031 A 
ATOM     15  C   UNL     1       4.345  -5.429   4.651  1.00  0.00     0.074 A 
ATOM     16  C   UNL     1       2.016  -5.583   4.961  1.00  0.00     0.049 A 
ATOM     17  N   UNL     1       4.690  -4.808   5.757  1.00  0.00    -0.248 NA
ATOM     18  C   UNL     1       5.470  -6.081   3.980  1.00  0.00     0.031 C 
ATOM     19  C   UNL     1       0.775  -4.821   5.161  1.00  0.00     0.029 A 
ATOM     20  N   UNL     1       2.092  -6.377   6.089  1.00  0.00    -0.354 N 
ATOM     21  C   UNL     1       6.069  -4.875   5.866  1.00  0.00     0.074 A 
ATOM     22  C   UNL     1       6.500  -5.696   4.744  1.00  0.00     0.031 C 
ATOM     23  C   UNL     1       0.311  -5.059   6.409  1.00  0.00     0.029 A 
ATOM     24  C   UNL     1       1.128  -6.088   7.030  1.00  0.00     0.049 A 
ATOM     25  H   UNL     1       2.770  -7.082   6.209  1.00  0.00     0.167 HD
ATOM     26  C   UNL     1       6.842  -4.241   6.797  1.00  0.00     0.037 A 
ATOM     27  C   UNL     1       0.908  -6.642   8.247  1.00  0.00     0.037 A 
ATOM     28  C   UNL     1       6.289  -3.457   7.898  1.00  0.00     0.049 A 
ATOM     29  C   UNL     1       1.946  -6.044   9.153  1.00  0.00     0.074 A 
ATOM     30  C   UNL     1       6.713  -2.351   8.617  1.00  0.00     0.029 A 
ATOM     31  N   UNL     1       5.118  -3.838   8.505  1.00  0.00    -0.354 N 
ATOM     32  N   UNL     1       1.794  -5.015   9.946  1.00  0.00    -0.248 NA
ATOM     33  C   UNL     1       3.318  -6.580   9.113  1.00  0.00     0.031 C 
ATOM     34  C   UNL     1       5.782  -2.110   9.684  1.00  0.00     0.029 A 
ATOM     35  C   UNL     1       4.798  -3.086   9.646  1.00  0.00     0.049 A 
ATOM     36  H   UNL     1       4.555  -4.573   8.171  1.00  0.00     0.167 HD
ATOM     37  C   UNL     1       3.083  -4.655  10.303  1.00  0.00     0.074 A 
ATOM     38  C   UNL     1       3.928  -5.786   9.983  1.00  0.00     0.031 C 
ATOM     39  C   UNL     1       3.529  -3.369  10.369  1.00  0.00     0.037 A 
BRANCH  26  40
ATOM     40  C   UNL     1       8.325  -4.405   6.750  1.00  0.00     0.058 A 
ATOM     41  C   UNL     1       8.954  -5.123   7.778  1.00  0.00     0.135 A 
ATOM     42  C   UNL     1       9.138  -3.792   5.785  1.00  0.00     0.135 A 
ATOM     43  F   UNL     1       8.216  -5.749   8.709  1.00  0.00    -0.206 F 
ATOM     44  C   UNL     1      10.337  -5.201   7.874  1.00  0.00     0.059 A 
ATOM     45  C   UNL     1      10.530  -3.867   5.853  1.00  0.00     0.059 A 
ATOM     46  F   UNL     1       8.586  -3.104   4.772  1.00  0.00    -0.206 F 
ATOM     47  C   UNL     1      11.118  -4.556   6.915  1.00  0.00     0.060 A 
BRANCH  47  48
ATOM     48  S   UNL     1      12.914  -4.628   7.098  1.00  0.00     0.124 S 
ATOM     49  O   UNL     1      13.119  -3.853   8.317  1.00  0.00    -0.237 OA
ATOM     50  O   UNL     1      13.152  -6.063   7.205  1.00  0.00    -0.237 OA
ATOM     51  O   UNL     1      13.402  -4.006   5.870  1.00  0.00    -0.744 OA
ENDBRANCH  47  48
ENDBRANCH  26  40
BRANCH  27  52
ATOM     52  C   UNL     1       0.678  -8.124   8.225  1.00  0.00     0.058 A 
ATOM     53  C   UNL     1      -0.364  -8.618   7.414  1.00  0.00     0.135 A 
ATOM     54  C   UNL     1       1.426  -9.088   8.922  1.00  0.00     0.135 A 
ATOM     55  F   UNL     1      -1.221  -7.770   6.822  1.00  0.00    -0.206 F 
ATOM     56  C   UNL     1      -0.543  -9.976   7.181  1.00  0.00     0.059 A 
ATOM     57  C   UNL     1       1.295 -10.450   8.674  1.00  0.00     0.059 A 
ATOM     58  F   UNL     1       2.321  -8.749   9.858  1.00  0.00    -0.206 F 
ATOM     59  C   UNL     1       0.328 -10.882   7.778  1.00  0.00     0.060 A 
BRANCH  59  60
ATOM     60  S   UNL     1       0.220 -12.620   7.321  1.00  0.00     0.124 S 
ATOM     61  O   UNL     1      -1.065 -13.001   7.897  1.00  0.00    -0.237 OA
ATOM     62  O   UNL     1       0.271 -12.548   5.863  1.00  0.00    -0.237 OA
ATOM     63  O   UNL     1       1.396 -13.208   7.954  1.00  0.00    -0.744 OA
ENDBRANCH  59  60
ENDBRANCH  27  52
BRANCH  39  64
ATOM     64  C   UNL     1       2.651  -2.285  10.993  1.00  0.00     0.058 A 
ATOM     65  C   UNL     1       3.198  -1.458  11.991  1.00  0.00     0.135 A 
ATOM     66  C   UNL     1       1.324  -1.964  10.622  1.00  0.00     0.135 A 
ATOM     67  F   UNL     1       4.389  -1.762  12.534  1.00  0.00    -0.206 F 
ATOM     68  C   UNL     1       2.546  -0.313  12.474  1.00  0.00     0.059 A 
ATOM     69  C   UNL     1       0.691  -0.781  11.022  1.00  0.00     0.059 A 
ATOM     70  F   UNL     1       0.604  -2.745   9.802  1.00  0.00    -0.206 F 
ATOM     71  C   UNL     1       1.321   0.058  11.928  1.00  0.00     0.060 A 
BRANCH  71  72
ATOM     72  S   UNL     1       0.515   1.611  12.380  1.00  0.00     0.124 S 
ATOM     73  O   UNL     1      -0.792   1.163  12.853  1.00  0.00    -0.237 OA
ATOM     74  O   UNL     1       1.388   2.162  13.414  1.00  0.00    -0.237 OA
ATOM     75  O   UNL     1       0.509   2.348  11.120  1.00  0.00    -0.744 OA
ENDBRANCH  71  72
ENDBRANCH  39  64
ENDBRANCH  13  14
ENDBRANCH   6   8
ENDBRANCH   5   6
ENDBRANCH   4   5
ENDBRANCH   3   4
ENDBRANCH   2   3
ENDBRANCH   1   2
BRANCH   1  76
ATOM     76  C   UNL     1       2.386   2.033   1.144  1.00  0.00     0.188 C 
BRANCH  76  77
ATOM     77  O   UNL     1       2.312   3.438   1.343  1.00  0.00    -0.376 OA
BRANCH  77  78
ATOM     78  C   UNL     1       3.304   3.938   2.267  1.00  0.00     0.202 C 
BRANCH  78  79
ATOM     79  C   UNL     1       3.333   3.384   3.707  1.00  0.00     0.261 C 
BRANCH  79  80
ATOM     80  O   UNL     1       3.675   1.992   3.722  1.00  0.00    -0.459 OA
BRANCH  80  81
ATOM     81  C   UNL     1       2.607   1.163   3.843  1.00  0.00     0.365 C 
ATOM     82  O   UNL     1       1.468   1.555   4.094  1.00  0.00    -0.245 OA
BRANCH  81  83
ATOM     83  C   UNL     1       2.907  -0.299   3.497  1.00  0.00     0.296 C 
ATOM     84  C   UNL     1       2.264  -1.041   4.650  1.00  0.00     0.091 C 
ATOM     85  N   UNL     1       4.318  -0.719   3.587  1.00  0.00    -0.319 N 
ATOM     86  C   UNL     1       3.461  -1.337   5.548  1.00  0.00     0.036 C 
ATOM     87  C   UNL     1       4.436  -1.831   4.514  1.00  0.00     0.270 C 
ATOM     88  H   UNL     1       4.766   0.122   3.952  1.00  0.00     0.349 HD
ATOM     89  C   UNL     1       3.030  -2.349   6.552  1.00  0.00     0.074 C 
ATOM     90  C   UNL     1       4.120  -0.154   6.315  1.00  0.00     0.074 C 
ATOM     91  C   UNL     1       2.126  -1.723   7.581  1.00  0.00     0.261 C 
ATOM     92  C   UNL     1       3.189   0.446   7.346  1.00  0.00     0.261 C 
ATOM     93  N   UNL     1       2.748  -0.588   8.265  1.00  0.00    -0.346 N 
ATOM     94  H   UNL     1       3.556  -0.926   8.788  1.00  0.00     0.346 HD
ATOM     95  H   UNL     1       2.046  -0.176   8.879  1.00  0.00     0.346 HD
BRANCH  85  96
ATOM     96  C   UNL     1       5.206  -0.723   2.457  1.00  0.00     0.302 C 
BRANCH  96  97
ATOM     97  C   UNL     1       6.345   0.213   2.748  1.00  0.00     0.038 A 
ATOM     98  C   UNL     1       7.213   0.022   3.859  1.00  0.00     0.012 A 
ATOM     99  C   UNL     1       6.587   1.420   2.063  1.00  0.00     0.144 A 
ATOM    100  C   UNL     1       8.158   0.976   4.311  1.00  0.00     0.003 A 
ATOM    101  C   UNL     1       7.559   2.403   2.528  1.00  0.00     0.135 A 
ATOM    102  N   UNL     1       6.024   1.895   0.943  1.00  0.00    -0.049 NA
ATOM    103  C   UNL     1       8.348   2.210   3.675  1.00  0.00     0.034 A 
ATOM    104  N   UNL     1       7.527   3.451   1.694  1.00  0.00    -0.050 NA
ATOM    105  O   UNL     1       6.598   3.131   0.722  1.00  0.00    -0.243 OA
ENDBRANCH  96  97
ENDBRANCH  85  96
ENDBRANCH  81  83
ENDBRANCH  80  81
ENDBRANCH  79  80
ENDBRANCH  78  79
ENDBRANCH  77  78
ENDBRANCH  76  77
ENDBRANCH   1  76
TORSDOF 22
