REMARK SMILES C[C@H]([C@@H]1CCCO1)n1c(SCC(=O)OCCOCCOCCOC(=O)c2ccc(-c3c4nc(c(-c5c(F)cc(S(=O)(=O)[O-])cc5F)c5ccc([nH]5)c(-c5c(F)cc(S(=O)(=O)[O-])cc5F)c5nc(c(-c6c(F)cc(S(=O)(=O)[O-])cc6F)c6ccc3[nH]6)C=C5)C=C4)cc2)nc2cnccc21
REMARK SMILES IDX 18 1 17 2 16 3 15 4 14 5 12 6 13 7 11 8 10 9 9 10 8 11 98 12
REMARK SMILES IDX 92 13 93 14 97 15 94 16 96 17 95 18 2 19 1 20 3 21 4 22 7 23
REMARK SMILES IDX 5 24 6 25 19 26 20 27 21 28 22 29 23 30 24 31 25 32 26 33
REMARK SMILES IDX 27 34 91 35 28 36 90 37 29 38 30 39 31 40 84 41 32 42 89 43
REMARK SMILES IDX 83 44 85 45 33 46 88 47 82 48 81 49 34 51 68 52 47 53 67 54
REMARK SMILES IDX 48 55 51 56 66 57 86 58 49 59 50 60 65 62 87 63 52 64 35 65
REMARK SMILES IDX 36 66 45 67 37 68 38 69 44 70 46 71 39 72 40 73 41 74 42 75
REMARK SMILES IDX 43 76 69 77 70 78 79 79 71 80 72 81 78 82 80 83 73 84 74 85
REMARK SMILES IDX 75 86 76 87 77 88 53 89 54 90 63 91 55 92 56 93 62 94 64 95
REMARK SMILES IDX 57 96 58 97 59 98 60 99 61 100
REMARK H PARENT 85 50 51 61
REMARK Flexibility Score: inf
ROOT
ATOM      1  C   UNL     1      -0.504   0.147   4.589  1.00  0.00     0.188 C 
ENDROOT
BRANCH   1   2
ATOM      2  O   UNL     1       0.850  -0.247   4.777  1.00  0.00    -0.376 OA
BRANCH   2   3
ATOM      3  C   UNL     1       1.547   0.648   5.652  1.00  0.00     0.202 C 
BRANCH   3   4
ATOM      4  C   UNL     1       1.774   2.101   5.171  1.00  0.00     0.261 C 
BRANCH   4   5
ATOM      5  O   UNL     1       0.622   2.698   4.529  1.00  0.00    -0.463 OA
BRANCH   5   6
ATOM      6  C   UNL     1       0.748   2.984   3.197  1.00  0.00     0.316 C 
ATOM      7  O   UNL     1       1.794   2.882   2.566  1.00  0.00    -0.251 OA
BRANCH   6   8
ATOM      8  C   UNL     1      -0.536   3.492   2.563  1.00  0.00     0.200 C 
BRANCH   8   9
ATOM      9  S   UNL     1      -2.019   2.500   2.767  1.00  0.00    -0.076 SA
BRANCH   9  10
ATOM     10  C   UNL     1      -2.473   1.312   1.555  1.00  0.00     0.170 A 
ATOM     11  N   UNL     1      -1.789   0.226   1.027  1.00  0.00    -0.313 N 
ATOM     12  C   UNL     1      -2.726  -0.796   0.820  1.00  0.00     0.072 A 
ATOM     13  N   UNL     1      -3.776   1.114   1.414  1.00  0.00    -0.221 NA
ATOM     14  C   UNL     1      -3.952  -0.184   1.002  1.00  0.00     0.108 A 
ATOM     15  C   UNL     1      -2.634  -2.151   0.472  1.00  0.00     0.049 A 
ATOM     16  C   UNL     1      -5.115  -0.940   0.805  1.00  0.00     0.141 A 
ATOM     17  C   UNL     1      -3.834  -2.825   0.316  1.00  0.00     0.113 A 
ATOM     18  N   UNL     1      -5.048  -2.259   0.466  1.00  0.00    -0.262 NA
BRANCH  11  19
ATOM     19  C   UNL     1      -0.445   0.075   0.500  1.00  0.00     0.116 C 
ATOM     20  C   UNL     1       0.661  -0.033   1.529  1.00  0.00     0.034 C 
BRANCH  19  21
ATOM     21  C   UNL     1      -0.097   0.954  -0.696  1.00  0.00     0.141 C 
ATOM     22  C   UNL     1      -0.204   2.440  -0.551  1.00  0.00     0.036 C 
ATOM     23  O   UNL     1      -0.859   0.650  -1.873  1.00  0.00    -0.376 OA
ATOM     24  C   UNL     1      -0.195   2.928  -1.973  1.00  0.00     0.031 C 
ATOM     25  C   UNL     1      -0.571   1.715  -2.798  1.00  0.00     0.160 C 
ENDBRANCH  19  21
ENDBRANCH  11  19
ENDBRANCH   9  10
ENDBRANCH   8   9
ENDBRANCH   6   8
ENDBRANCH   5   6
ENDBRANCH   4   5
ENDBRANCH   3   4
ENDBRANCH   2   3
ENDBRANCH   1   2
BRANCH   1  26
ATOM     26  C   UNL     1      -1.486  -0.937   4.156  1.00  0.00     0.188 C 
BRANCH  26  27
ATOM     27  O   UNL     1      -1.655  -1.974   5.104  1.00  0.00    -0.376 OA
BRANCH  27  28
ATOM     28  C   UNL     1      -0.630  -2.973   5.048  1.00  0.00     0.202 C 
BRANCH  28  29
ATOM     29  C   UNL     1      -0.614  -3.802   3.745  1.00  0.00     0.261 C 
BRANCH  29  30
ATOM     30  O   UNL     1       0.443  -3.386   2.839  1.00  0.00    -0.460 OA
BRANCH  30  31
ATOM     31  C   UNL     1       0.480  -4.056   1.649  1.00  0.00     0.338 C 
ATOM     32  O   UNL     1      -0.277  -4.964   1.325  1.00  0.00    -0.246 OA
BRANCH  31  33
ATOM     33  C   UNL     1       1.373  -3.351   0.681  1.00  0.00     0.060 A 
ATOM     34  C   UNL     1       2.646  -2.867   1.004  1.00  0.00     0.016 A 
ATOM     35  C   UNL     1       0.838  -3.030  -0.565  1.00  0.00     0.016 A 
ATOM     36  C   UNL     1       3.271  -1.889   0.189  1.00  0.00     0.010 A 
ATOM     37  C   UNL     1       1.423  -2.010  -1.324  1.00  0.00     0.010 A 
ATOM     38  C   UNL     1       2.593  -1.335  -0.905  1.00  0.00    -0.014 A 
BRANCH  38  39
ATOM     39  C   UNL     1       3.129  -0.255  -1.801  1.00  0.00     0.031 A 
ATOM     40  C   UNL     1       3.559  -0.906  -3.037  1.00  0.00     0.074 A 
ATOM     41  C   UNL     1       3.328   1.100  -1.743  1.00  0.00     0.049 A 
ATOM     42  N   UNL     1       4.626  -1.630  -3.040  1.00  0.00    -0.248 NA
ATOM     43  C   UNL     1       2.721  -1.044  -4.229  1.00  0.00     0.031 C 
ATOM     44  C   UNL     1       3.050   2.034  -0.649  1.00  0.00     0.029 A 
ATOM     45  N   UNL     1       3.792   1.973  -2.727  1.00  0.00    -0.354 N 
ATOM     46  C   UNL     1       4.805  -1.931  -4.357  1.00  0.00     0.074 A 
ATOM     47  C   UNL     1       3.484  -1.888  -4.940  1.00  0.00     0.031 C 
ATOM     48  C   UNL     1       3.150   3.324  -1.076  1.00  0.00     0.029 A 
ATOM     49  C   UNL     1       3.631   3.347  -2.454  1.00  0.00     0.049 A 
ATOM     50  H   UNL     1       4.207   1.650  -3.559  1.00  0.00     0.167 HD
ATOM     51  C   UNL     1       6.035  -1.742  -4.901  1.00  0.00     0.037 A 
ATOM     52  C   UNL     1       4.189   4.437  -3.073  1.00  0.00     0.037 A 
ATOM     53  C   UNL     1       7.033  -1.396  -3.893  1.00  0.00     0.049 A 
ATOM     54  C   UNL     1       5.540   4.008  -3.481  1.00  0.00     0.074 A 
ATOM     55  C   UNL     1       7.370  -1.891  -2.642  1.00  0.00     0.029 A 
ATOM     56  N   UNL     1       7.587  -0.136  -3.949  1.00  0.00    -0.354 N 
ATOM     57  N   UNL     1       6.522   3.815  -2.649  1.00  0.00    -0.248 NA
ATOM     58  C   UNL     1       5.730   3.474  -4.818  1.00  0.00     0.031 C 
ATOM     59  C   UNL     1       7.745  -0.762  -1.857  1.00  0.00     0.029 A 
ATOM     60  C   UNL     1       7.723   0.364  -2.675  1.00  0.00     0.049 A 
ATOM     61  H   UNL     1       7.846   0.334  -4.774  1.00  0.00     0.167 HD
ATOM     62  C   UNL     1       7.172   2.718  -3.172  1.00  0.00     0.074 A 
ATOM     63  C   UNL     1       6.760   2.664  -4.570  1.00  0.00     0.031 C 
ATOM     64  C   UNL     1       7.706   1.778  -2.343  1.00  0.00     0.037 A 
BRANCH  51  65
ATOM     65  C   UNL     1       6.238  -1.495  -6.360  1.00  0.00     0.058 A 
ATOM     66  C   UNL     1       7.498  -1.763  -6.914  1.00  0.00     0.135 A 
ATOM     67  C   UNL     1       5.305  -0.851  -7.202  1.00  0.00     0.135 A 
ATOM     68  F   UNL     1       8.465  -2.319  -6.168  1.00  0.00    -0.206 F 
ATOM     69  C   UNL     1       7.812  -1.415  -8.222  1.00  0.00     0.059 A 
ATOM     70  C   UNL     1       5.570  -0.566  -8.530  1.00  0.00     0.059 A 
ATOM     71  F   UNL     1       4.133  -0.384  -6.753  1.00  0.00    -0.206 F 
ATOM     72  C   UNL     1       6.837  -0.827  -9.023  1.00  0.00     0.060 A 
BRANCH  72  73
ATOM     73  S   UNL     1       7.252  -0.355 -10.705  1.00  0.00     0.124 S 
ATOM     74  O   UNL     1       8.125   0.788 -10.470  1.00  0.00    -0.237 OA
ATOM     75  O   UNL     1       7.896  -1.565 -11.205  1.00  0.00    -0.237 OA
ATOM     76  O   UNL     1       5.952  -0.053 -11.296  1.00  0.00    -0.744 OA
ENDBRANCH  72  73
ENDBRANCH  51  65
BRANCH  52  77
ATOM     77  C   UNL     1       3.660   5.773  -3.534  1.00  0.00     0.058 A 
ATOM     78  C   UNL     1       4.512   6.716  -4.165  1.00  0.00     0.135 A 
ATOM     79  C   UNL     1       2.290   6.061  -3.635  1.00  0.00     0.135 A 
ATOM     80  F   UNL     1       5.845   6.565  -4.121  1.00  0.00    -0.206 F 
ATOM     81  C   UNL     1       4.039   7.799  -4.923  1.00  0.00     0.059 A 
ATOM     82  C   UNL     1       1.789   7.143  -4.383  1.00  0.00     0.059 A 
ATOM     83  F   UNL     1       1.386   5.257  -3.064  1.00  0.00    -0.206 F 
ATOM     84  C   UNL     1       2.669   7.988  -5.054  1.00  0.00     0.060 A 
BRANCH  84  85
ATOM     85  S   UNL     1       2.059   9.267  -6.188  1.00  0.00     0.124 S 
ATOM     86  O   UNL     1       2.480  10.495  -5.523  1.00  0.00    -0.237 OA
ATOM     87  O   UNL     1       2.761   8.943  -7.426  1.00  0.00    -0.237 OA
ATOM     88  O   UNL     1       0.617   9.035  -6.215  1.00  0.00    -0.744 OA
ENDBRANCH  84  85
ENDBRANCH  52  77
BRANCH  64  89
ATOM     89  C   UNL     1       8.089   2.179  -0.932  1.00  0.00     0.058 A 
ATOM     90  C   UNL     1       7.233   2.726   0.043  1.00  0.00     0.135 A 
ATOM     91  C   UNL     1       9.400   1.887  -0.516  1.00  0.00     0.135 A 
ATOM     92  F   UNL     1       5.946   2.981  -0.221  1.00  0.00    -0.206 F 
ATOM     93  C   UNL     1       7.659   2.975   1.352  1.00  0.00     0.059 A 
ATOM     94  C   UNL     1       9.837   2.093   0.791  1.00  0.00     0.059 A 
ATOM     95  F   UNL     1      10.274   1.349  -1.384  1.00  0.00    -0.206 F 
ATOM     96  C   UNL     1       8.959   2.640   1.722  1.00  0.00     0.060 A 
BRANCH  96  97
ATOM     97  S   UNL     1       9.463   2.846   3.445  1.00  0.00     0.124 S 
ATOM     98  O   UNL     1       9.464   4.297   3.597  1.00  0.00    -0.237 OA
ATOM     99  O   UNL     1       8.410   2.135   4.166  1.00  0.00    -0.237 OA
ATOM    100  O   UNL     1      10.778   2.212   3.495  1.00  0.00    -0.744 OA
ENDBRANCH  96  97
ENDBRANCH  64  89
ENDBRANCH  38  39
ENDBRANCH  31  33
ENDBRANCH  30  31
ENDBRANCH  29  30
ENDBRANCH  28  29
ENDBRANCH  27  28
ENDBRANCH  26  27
ENDBRANCH   1  26
TORSDOF 24
