REMARK SMILES O=C1C[C@H](C(=O)OCCOCCOCCOC(=O)c2ccc(-c3c4nc(c(-c5c(F)cc(S(=O)(=O)[O-])cc5F)c5ccc([nH]5)c(-c5c(F)cc(S(=O)(=O)[O-])cc5F)c5nc(c(-c6c(F)cc(S(=O)(=O)[O-])cc6F)c6ccc3[nH]6)C=C5)C=C4)cc2)c2c(nc(Nc3ccc(Oc4ccccc4)cc3)[nH]c2=O)N1
REMARK SMILES IDX 11 1 10 2 9 3 8 4 7 5 5 6 6 7 4 8 1 9 2 10 3 11 106 12 86 13
REMARK SMILES IDX 85 15 87 16 104 17 88 18 103 19 105 20 89 22 90 24 91 25
REMARK SMILES IDX 102 26 92 27 101 28 93 29 94 30 95 31 96 32 100 33 97 34
REMARK SMILES IDX 99 35 98 36 12 37 13 38 14 39 15 40 16 41 17 42 18 43 19 44
REMARK SMILES IDX 20 45 84 46 21 47 83 48 22 49 23 50 24 51 77 52 25 53 82 54
REMARK SMILES IDX 76 55 78 56 26 57 81 58 75 59 74 60 27 62 61 63 40 64 60 65
REMARK SMILES IDX 41 66 44 67 59 68 79 69 42 70 43 71 58 73 80 74 45 75 28 76
REMARK SMILES IDX 29 77 38 78 30 79 31 80 37 81 39 82 32 83 33 84 34 85 35 86
REMARK SMILES IDX 36 87 62 88 63 89 72 90 64 91 65 92 71 93 73 94 66 95 67 96
REMARK SMILES IDX 68 97 69 98 70 99 46 100 47 101 56 102 48 103 49 104 55 105
REMARK SMILES IDX 57 106 50 107 51 108 52 109 53 110 54 111
REMARK H PARENT 106 14 103 21 89 23 78 61 44 72
REMARK Flexibility Score: inf
ROOT
ATOM      1  C   UNL     1       4.485  -5.062  -0.041  1.00  0.00     0.188 C 
ENDROOT
BRANCH   1   2
ATOM      2  O   UNL     1       5.846  -5.428  -0.218  1.00  0.00    -0.376 OA
BRANCH   2   3
ATOM      3  C   UNL     1       6.894  -4.587   0.227  1.00  0.00     0.202 C 
BRANCH   3   4
ATOM      4  C   UNL     1       7.068  -3.186  -0.385  1.00  0.00     0.261 C 
BRANCH   4   5
ATOM      5  O   UNL     1       5.931  -2.300  -0.405  1.00  0.00    -0.463 OA
BRANCH   5   6
ATOM      6  C   UNL     1       5.187  -2.344  -1.546  1.00  0.00     0.314 C 
ATOM      7  O   UNL     1       5.403  -3.139  -2.452  1.00  0.00    -0.252 OA
BRANCH   6   8
ATOM      8  C   UNL     1       4.078  -1.282  -1.621  1.00  0.00     0.148 C 
ATOM      9  O   UNL     1       1.904   0.635   0.674  1.00  0.00    -0.275 OA
ATOM     10  C   UNL     1       2.820   0.382  -0.104  1.00  0.00     0.226 C 
ATOM     11  C   UNL     1       3.363  -1.010  -0.286  1.00  0.00     0.121 C 
ATOM     12  N   UNL     1       3.498   1.365  -0.751  1.00  0.00    -0.310 N 
ATOM     13  C   UNL     1       4.417   1.175  -1.732  1.00  0.00     0.146 A 
ATOM     14  H   UNL     1       3.308   2.294  -0.487  1.00  0.00     0.171 HD
ATOM     15  C   UNL     1       4.666  -0.044  -2.213  1.00  0.00     0.075 A 
ATOM     16  N   UNL     1       4.976   2.318  -2.182  1.00  0.00    -0.196 NA
ATOM     17  C   UNL     1       5.498  -0.083  -3.428  1.00  0.00     0.258 A 
ATOM     18  C   UNL     1       5.844   2.253  -3.143  1.00  0.00     0.209 A 
ATOM     19  N   UNL     1       6.153   1.067  -3.733  1.00  0.00    -0.292 N 
ATOM     20  O   UNL     1       5.564  -1.052  -4.170  1.00  0.00    -0.269 OA
ATOM     21  H   UNL     1       6.875   1.041  -4.402  1.00  0.00     0.173 HD
BRANCH  18  22
ATOM     22  N   UNL     1       6.459   3.365  -3.654  1.00  0.00    -0.326 N 
ATOM     23  H   UNL     1       7.101   3.273  -4.394  1.00  0.00     0.170 HD
BRANCH  22  24
ATOM     24  C   UNL     1       6.179   4.636  -3.126  1.00  0.00     0.041 A 
ATOM     25  C   UNL     1       5.509   5.581  -3.908  1.00  0.00     0.030 A 
ATOM     26  C   UNL     1       6.350   4.880  -1.758  1.00  0.00     0.030 A 
ATOM     27  C   UNL     1       5.017   6.753  -3.327  1.00  0.00     0.049 A 
ATOM     28  C   UNL     1       5.854   6.039  -1.177  1.00  0.00     0.049 A 
ATOM     29  C   UNL     1       5.199   6.991  -1.964  1.00  0.00     0.127 A 
BRANCH  29  30
ATOM     30  O   UNL     1       4.663   8.167  -1.474  1.00  0.00    -0.457 OA
BRANCH  30  31
ATOM     31  C   UNL     1       5.078   8.551  -0.221  1.00  0.00     0.127 A 
ATOM     32  C   UNL     1       4.156   8.510   0.823  1.00  0.00     0.047 A 
ATOM     33  C   UNL     1       6.405   8.925   0.006  1.00  0.00     0.047 A 
ATOM     34  C   UNL     1       4.586   8.777   2.122  1.00  0.00     0.004 A 
ATOM     35  C   UNL     1       6.832   9.177   1.307  1.00  0.00     0.004 A 
ATOM     36  C   UNL     1       5.925   9.095   2.364  1.00  0.00     0.000 A 
ENDBRANCH  30  31
ENDBRANCH  29  30
ENDBRANCH  22  24
ENDBRANCH  18  22
ENDBRANCH   6   8
ENDBRANCH   5   6
ENDBRANCH   4   5
ENDBRANCH   3   4
ENDBRANCH   2   3
ENDBRANCH   1   2
BRANCH   1  37
ATOM     37  C   UNL     1       4.082  -4.093   1.080  1.00  0.00     0.188 C 
BRANCH  37  38
ATOM     38  O   UNL     1       5.013  -3.931   2.114  1.00  0.00    -0.376 OA
BRANCH  38  39
ATOM     39  C   UNL     1       4.852  -4.651   3.316  1.00  0.00     0.202 C 
BRANCH  39  40
ATOM     40  C   UNL     1       4.138  -6.013   3.415  1.00  0.00     0.261 C 
BRANCH  40  41
ATOM     41  O   UNL     1       3.271  -6.416   2.347  1.00  0.00    -0.460 OA
BRANCH  41  42
ATOM     42  C   UNL     1       1.964  -6.051   2.432  1.00  0.00     0.338 C 
ATOM     43  O   UNL     1       1.449  -5.398   3.311  1.00  0.00    -0.246 OA
BRANCH  42  44
ATOM     44  C   UNL     1       1.313  -6.411   1.147  1.00  0.00     0.060 A 
ATOM     45  C   UNL     1       0.898  -5.393   0.273  1.00  0.00     0.016 A 
ATOM     46  C   UNL     1       1.106  -7.749   0.814  1.00  0.00     0.016 A 
ATOM     47  C   UNL     1       0.263  -5.713  -0.930  1.00  0.00     0.010 A 
ATOM     48  C   UNL     1       0.430  -8.066  -0.370  1.00  0.00     0.010 A 
ATOM     49  C   UNL     1      -0.021  -7.050  -1.232  1.00  0.00    -0.014 A 
BRANCH  49  50
ATOM     50  C   UNL     1      -1.002  -7.382  -2.296  1.00  0.00     0.031 A 
ATOM     51  C   UNL     1      -2.452  -7.480  -1.903  1.00  0.00     0.074 A 
ATOM     52  C   UNL     1      -0.632  -7.606  -3.570  1.00  0.00     0.049 A 
ATOM     53  N   UNL     1      -3.482  -7.864  -2.609  1.00  0.00    -0.248 NA
ATOM     54  C   UNL     1      -2.781  -7.092  -0.520  1.00  0.00     0.031 C 
ATOM     55  C   UNL     1       0.725  -7.477  -4.095  1.00  0.00     0.029 A 
ATOM     56  N   UNL     1      -1.377  -8.005  -4.654  1.00  0.00    -0.354 N 
ATOM     57  C   UNL     1      -4.578  -7.764  -1.760  1.00  0.00     0.074 A 
ATOM     58  C   UNL     1      -4.086  -7.310  -0.479  1.00  0.00     0.031 C 
ATOM     59  C   UNL     1       0.720  -7.813  -5.399  1.00  0.00     0.029 A 
ATOM     60  C   UNL     1      -0.631  -8.215  -5.790  1.00  0.00     0.049 A 
ATOM     61  H   UNL     1      -2.353  -8.129  -4.620  1.00  0.00     0.167 HD
ATOM     62  C   UNL     1      -5.880  -8.023  -2.025  1.00  0.00     0.037 A 
ATOM     63  C   UNL     1      -0.996  -8.703  -6.995  1.00  0.00     0.037 A 
ATOM     64  C   UNL     1      -6.366  -8.496  -3.293  1.00  0.00     0.049 A 
ATOM     65  C   UNL     1      -2.435  -9.093  -7.233  1.00  0.00     0.074 A 
ATOM     66  C   UNL     1      -7.666  -8.798  -3.656  1.00  0.00     0.029 A 
ATOM     67  N   UNL     1      -5.572  -8.746  -4.403  1.00  0.00    -0.354 N 
ATOM     68  N   UNL     1      -3.464  -8.997  -6.424  1.00  0.00    -0.248 NA
ATOM     69  C   UNL     1      -2.763  -9.662  -8.549  1.00  0.00     0.031 C 
ATOM     70  C   UNL     1      -7.652  -9.282  -4.967  1.00  0.00     0.029 A 
ATOM     71  C   UNL     1      -6.351  -9.225  -5.443  1.00  0.00     0.049 A 
ATOM     72  H   UNL     1      -4.599  -8.604  -4.445  1.00  0.00     0.167 HD
ATOM     73  C   UNL     1      -4.562  -9.469  -7.141  1.00  0.00     0.074 A 
ATOM     74  C   UNL     1      -4.074  -9.836  -8.454  1.00  0.00     0.031 C 
ATOM     75  C   UNL     1      -5.855  -9.586  -6.748  1.00  0.00     0.037 A 
BRANCH  62  76
ATOM     76  C   UNL     1      -6.870  -7.821  -0.912  1.00  0.00     0.058 A 
ATOM     77  C   UNL     1      -7.224  -6.537  -0.467  1.00  0.00     0.135 A 
ATOM     78  C   UNL     1      -7.506  -8.921  -0.314  1.00  0.00     0.135 A 
ATOM     79  F   UNL     1      -6.628  -5.452  -0.986  1.00  0.00    -0.206 F 
ATOM     80  C   UNL     1      -8.165  -6.352   0.540  1.00  0.00     0.059 A 
ATOM     81  C   UNL     1      -8.471  -8.758   0.675  1.00  0.00     0.059 A 
ATOM     82  F   UNL     1      -7.196 -10.170  -0.696  1.00  0.00    -0.206 F 
ATOM     83  C   UNL     1      -8.788  -7.469   1.100  1.00  0.00     0.060 A 
BRANCH  83  84
ATOM     84  S   UNL     1     -10.027  -7.206   2.386  1.00  0.00     0.124 S 
ATOM     85  O   UNL     1      -9.206  -6.707   3.486  1.00  0.00    -0.237 OA
ATOM     86  O   UNL     1     -10.915  -6.229   1.764  1.00  0.00    -0.237 OA
ATOM     87  O   UNL     1     -10.600  -8.533   2.586  1.00  0.00    -0.744 OA
ENDBRANCH  83  84
ENDBRANCH  62  76
BRANCH  63  88
ATOM     88  C   UNL     1       0.018  -8.863  -8.074  1.00  0.00     0.058 A 
ATOM     89  C   UNL     1      -0.026  -8.068  -9.229  1.00  0.00     0.135 A 
ATOM     90  C   UNL     1       1.046  -9.815  -7.980  1.00  0.00     0.135 A 
ATOM     91  F   UNL     1      -1.002  -7.159  -9.380  1.00  0.00    -0.206 F 
ATOM     92  C   UNL     1       0.905  -8.212 -10.253  1.00  0.00     0.059 A 
ATOM     93  C   UNL     1       2.006  -9.960  -8.978  1.00  0.00     0.059 A 
ATOM     94  F   UNL     1       1.135 -10.604  -6.898  1.00  0.00    -0.206 F 
ATOM     95  C   UNL     1       1.924  -9.156 -10.114  1.00  0.00     0.060 A 
BRANCH  95  96
ATOM     96  S   UNL     1       3.158  -9.293 -11.427  1.00  0.00     0.124 S 
ATOM     97  O   UNL     1       2.367  -9.844 -12.521  1.00  0.00    -0.237 OA
ATOM     98  O   UNL     1       3.587  -7.907 -11.585  1.00  0.00    -0.237 OA
ATOM     99  O   UNL     1       4.158 -10.192 -10.858  1.00  0.00    -0.744 OA
ENDBRANCH  95  96
ENDBRANCH  63  88
BRANCH  75 100
ATOM    100  C   UNL     1      -6.851 -10.113  -7.748  1.00  0.00     0.058 A 
ATOM    101  C   UNL     1      -6.864 -11.461  -8.139  1.00  0.00     0.135 A 
ATOM    102  C   UNL     1      -7.851  -9.273  -8.269  1.00  0.00     0.135 A 
ATOM    103  F   UNL     1      -5.932 -12.308  -7.674  1.00  0.00    -0.206 F 
ATOM    104  C   UNL     1      -7.817 -11.953  -9.026  1.00  0.00     0.059 A 
ATOM    105  C   UNL     1      -8.833  -9.750  -9.133  1.00  0.00     0.059 A 
ATOM    106  F   UNL     1      -7.897  -7.978  -7.918  1.00  0.00    -0.206 F 
ATOM    107  C   UNL     1      -8.800 -11.090  -9.515  1.00  0.00     0.060 A 
BRANCH 107 108
ATOM    108  S   UNL     1     -10.046 -11.752 -10.642  1.00  0.00     0.124 S 
ATOM    109  O   UNL     1      -9.254 -12.004 -11.842  1.00  0.00    -0.237 OA
ATOM    110  O   UNL     1     -10.510 -12.938  -9.929  1.00  0.00    -0.237 OA
ATOM    111  O   UNL     1     -11.020 -10.670 -10.749  1.00  0.00    -0.744 OA
ENDBRANCH 107 108
ENDBRANCH  75 100
ENDBRANCH  49  50
ENDBRANCH  42  44
ENDBRANCH  41  42
ENDBRANCH  40  41
ENDBRANCH  39  40
ENDBRANCH  38  39
ENDBRANCH  37  38
ENDBRANCH   1  37
TORSDOF 24
