REMARK SMILES C[C@H](NC(=O)N(C)C)c1ccc(/C=C/C(=O)OCCOCCOCCOC(=O)c2ccc(-c3c4nc(c(-c5c(F)cc(S(=O)(=O)[O-])cc5F)c5ccc([nH]5)c(-c5c(F)cc(S(=O)(=O)[O-])cc5F)c5nc(c(-c6c(F)cc(S(=O)(=O)[O-])cc6F)c6ccc3[nH]6)C=C5)C=C4)cc2)cc1
REMARK SMILES IDX 21 1 20 2 19 3 18 4 17 5 15 6 16 7 14 8 13 9 12 10 9 11
REMARK SMILES IDX 10 12 96 13 11 14 95 15 2 16 1 17 3 18 4 19 5 21 6 22 7 23
REMARK SMILES IDX 8 24 22 25 23 26 24 27 25 28 26 29 27 30 28 31 29 32 30 33
REMARK SMILES IDX 94 34 31 35 93 36 32 37 33 38 34 39 87 40 35 41 92 42 86 43
REMARK SMILES IDX 88 44 36 45 91 46 85 47 84 48 37 50 71 51 50 52 70 53 51 54
REMARK SMILES IDX 54 55 69 56 89 57 52 58 53 59 68 61 90 62 55 63 38 64 39 65
REMARK SMILES IDX 48 66 40 67 41 68 47 69 49 70 42 71 43 72 44 73 45 74 46 75
REMARK SMILES IDX 72 76 73 77 82 78 74 79 75 80 81 81 83 82 76 83 77 84 78 85
REMARK SMILES IDX 79 86 80 87 56 88 57 89 66 90 58 91 59 92 65 93 67 94 60 95
REMARK SMILES IDX 61 96 62 97 63 98 64 99
REMARK H PARENT 3 20 88 49 54 60
REMARK Flexibility Score: inf
ROOT
ATOM      1  C   UNL     1      -8.530   0.513   1.547  1.00  0.00     0.188 C 
ENDROOT
BRANCH   1   2
ATOM      2  O   UNL     1      -9.911   0.389   1.259  1.00  0.00    -0.376 OA
BRANCH   2   3
ATOM      3  C   UNL     1     -10.390  -0.703   0.492  1.00  0.00     0.202 C 
BRANCH   3   4
ATOM      4  C   UNL     1      -9.614  -1.306  -0.692  1.00  0.00     0.261 C 
BRANCH   4   5
ATOM      5  O   UNL     1      -8.192  -1.395  -0.539  1.00  0.00    -0.460 OA
BRANCH   5   6
ATOM      6  C   UNL     1      -7.466  -0.653  -1.412  1.00  0.00     0.330 C 
ATOM      7  O   UNL     1      -7.909   0.031  -2.321  1.00  0.00    -0.247 OA
BRANCH   6   8
ATOM      8  C   UNL     1      -6.022  -0.657  -1.089  1.00  0.00     0.094 C 
ATOM      9  C   UNL     1      -5.396  -1.594  -0.360  1.00  0.00     0.015 C 
BRANCH   9  10
ATOM     10  C   UNL     1      -3.950  -1.584  -0.080  1.00  0.00    -0.025 A 
ATOM     11  C   UNL     1      -1.141  -1.679   0.331  1.00  0.00    -0.026 A 
ATOM     12  C   UNL     1      -1.817  -0.453   0.260  1.00  0.00     0.006 A 
ATOM     13  C   UNL     1      -1.905  -2.854   0.275  1.00  0.00     0.006 A 
ATOM     14  C   UNL     1      -3.204  -0.407   0.059  1.00  0.00     0.008 A 
ATOM     15  C   UNL     1      -3.289  -2.807   0.076  1.00  0.00     0.008 A 
BRANCH  11  16
ATOM     16  C   UNL     1       0.370  -1.784   0.447  1.00  0.00     0.111 C 
ATOM     17  C   UNL     1       0.828  -1.870   1.903  1.00  0.00     0.036 C 
BRANCH  16  18
ATOM     18  N   UNL     1       1.064  -0.695  -0.229  1.00  0.00    -0.331 N 
ATOM     19  C   UNL     1       2.096  -0.793  -1.103  1.00  0.00     0.317 C 
ATOM     20  H   UNL     1       0.749   0.215  -0.027  1.00  0.00     0.165 HD
ATOM     21  O   UNL     1       2.961   0.082  -1.083  1.00  0.00    -0.249 OA
ATOM     22  N   UNL     1       2.155  -1.870  -1.954  1.00  0.00    -0.331 N 
ATOM     23  C   UNL     1       0.981  -2.497  -2.542  1.00  0.00     0.148 C 
ATOM     24  C   UNL     1       3.426  -2.158  -2.588  1.00  0.00     0.148 C 
ENDBRANCH  16  18
ENDBRANCH  11  16
ENDBRANCH   9  10
ENDBRANCH   6   8
ENDBRANCH   5   6
ENDBRANCH   4   5
ENDBRANCH   3   4
ENDBRANCH   2   3
ENDBRANCH   1   2
BRANCH   1  25
ATOM     25  C   UNL     1      -7.800  -0.620   2.293  1.00  0.00     0.188 C 
BRANCH  25  26
ATOM     26  O   UNL     1      -8.489  -1.839   2.438  1.00  0.00    -0.376 OA
BRANCH  26  27
ATOM     27  C   UNL     1      -9.405  -2.024   3.505  1.00  0.00     0.202 C 
BRANCH  27  28
ATOM     28  C   UNL     1      -9.803  -0.983   4.572  1.00  0.00     0.261 C 
BRANCH  28  29
ATOM     29  O   UNL     1      -9.332   0.358   4.437  1.00  0.00    -0.460 OA
BRANCH  29  30
ATOM     30  C   UNL     1      -8.305   0.705   5.246  1.00  0.00     0.338 C 
ATOM     31  O   UNL     1      -7.705  -0.020   6.032  1.00  0.00    -0.246 OA
BRANCH  30  32
ATOM     32  C   UNL     1      -7.884   2.075   4.914  1.00  0.00     0.060 A 
ATOM     33  C   UNL     1      -6.637   2.270   4.306  1.00  0.00     0.016 A 
ATOM     34  C   UNL     1      -8.703   3.162   5.227  1.00  0.00     0.016 A 
ATOM     35  C   UNL     1      -6.197   3.562   4.023  1.00  0.00     0.010 A 
ATOM     36  C   UNL     1      -8.249   4.457   4.960  1.00  0.00     0.010 A 
ATOM     37  C   UNL     1      -6.985   4.664   4.380  1.00  0.00    -0.014 A 
BRANCH  37  38
ATOM     38  C   UNL     1      -6.423   6.034   4.295  1.00  0.00     0.031 A 
ATOM     39  C   UNL     1      -5.872   6.666   5.544  1.00  0.00     0.074 A 
ATOM     40  C   UNL     1      -6.395   6.702   3.128  1.00  0.00     0.049 A 
ATOM     41  N   UNL     1      -5.390   7.868   5.723  1.00  0.00    -0.248 NA
ATOM     42  C   UNL     1      -5.870   5.829   6.755  1.00  0.00     0.031 C 
ATOM     43  C   UNL     1      -6.863   6.182   1.844  1.00  0.00     0.029 A 
ATOM     44  N   UNL     1      -5.962   7.973   2.839  1.00  0.00    -0.354 N 
ATOM     45  C   UNL     1      -5.034   7.936   7.065  1.00  0.00     0.074 A 
ATOM     46  C   UNL     1      -5.383   6.664   7.660  1.00  0.00     0.031 C 
ATOM     47  C   UNL     1      -6.706   7.133   0.906  1.00  0.00     0.029 A 
ATOM     48  C   UNL     1      -6.161   8.338   1.529  1.00  0.00     0.049 A 
ATOM     49  H   UNL     1      -5.549   8.566   3.507  1.00  0.00     0.167 HD
ATOM     50  C   UNL     1      -4.462   8.962   7.737  1.00  0.00     0.037 A 
ATOM     51  C   UNL     1      -5.951   9.519   0.912  1.00  0.00     0.037 A 
ATOM     52  C   UNL     1      -4.123  10.228   7.140  1.00  0.00     0.049 A 
ATOM     53  C   UNL     1      -5.382  10.673   1.698  1.00  0.00     0.074 A 
ATOM     54  C   UNL     1      -3.523  11.325   7.732  1.00  0.00     0.029 A 
ATOM     55  N   UNL     1      -4.364  10.570   5.817  1.00  0.00    -0.354 N 
ATOM     56  N   UNL     1      -5.025  10.718   2.960  1.00  0.00    -0.248 NA
ATOM     57  C   UNL     1      -5.186  11.939   0.976  1.00  0.00     0.031 C 
ATOM     58  C   UNL     1      -3.453  12.350   6.783  1.00  0.00     0.029 A 
ATOM     59  C   UNL     1      -3.952  11.872   5.582  1.00  0.00     0.049 A 
ATOM     60  H   UNL     1      -4.768   9.976   5.144  1.00  0.00     0.167 HD
ATOM     61  C   UNL     1      -4.537  12.004   3.175  1.00  0.00     0.074 A 
ATOM     62  C   UNL     1      -4.635  12.702   1.910  1.00  0.00     0.031 C 
ATOM     63  C   UNL     1      -4.050  12.555   4.315  1.00  0.00     0.037 A 
BRANCH  50  64
ATOM     64  C   UNL     1      -4.197   8.769   9.205  1.00  0.00     0.058 A 
ATOM     65  C   UNL     1      -3.197   7.900   9.670  1.00  0.00     0.135 A 
ATOM     66  C   UNL     1      -4.937   9.485  10.161  1.00  0.00     0.135 A 
ATOM     67  F   UNL     1      -2.472   7.177   8.802  1.00  0.00    -0.206 F 
ATOM     68  C   UNL     1      -2.960   7.724  11.030  1.00  0.00     0.059 A 
ATOM     69  C   UNL     1      -4.697   9.347  11.525  1.00  0.00     0.059 A 
ATOM     70  F   UNL     1      -5.907  10.327   9.773  1.00  0.00    -0.206 F 
ATOM     71  C   UNL     1      -3.716   8.453  11.950  1.00  0.00     0.060 A 
BRANCH  71  72
ATOM     72  S   UNL     1      -3.397   8.213  13.710  1.00  0.00     0.124 S 
ATOM     73  O   UNL     1      -3.946   6.878  13.927  1.00  0.00    -0.237 OA
ATOM     74  O   UNL     1      -1.943   8.318  13.780  1.00  0.00    -0.237 OA
ATOM     75  O   UNL     1      -4.133   9.304  14.342  1.00  0.00    -0.744 OA
ENDBRANCH  71  72
ENDBRANCH  50  64
BRANCH  51  76
ATOM     76  C   UNL     1      -6.293   9.677  -0.528  1.00  0.00     0.058 A 
ATOM     77  C   UNL     1      -5.294   9.849  -1.497  1.00  0.00     0.135 A 
ATOM     78  C   UNL     1      -7.628   9.663  -0.963  1.00  0.00     0.135 A 
ATOM     79  F   UNL     1      -4.004   9.885  -1.131  1.00  0.00    -0.206 F 
ATOM     80  C   UNL     1      -5.604  10.013  -2.844  1.00  0.00     0.059 A 
ATOM     81  C   UNL     1      -7.963   9.797  -2.307  1.00  0.00     0.059 A 
ATOM     82  F   UNL     1      -8.623   9.495  -0.078  1.00  0.00    -0.206 F 
ATOM     83  C   UNL     1      -6.943   9.981  -3.240  1.00  0.00     0.060 A 
BRANCH  83  84
ATOM     84  S   UNL     1      -7.330  10.145  -4.996  1.00  0.00     0.124 S 
ATOM     85  O   UNL     1      -7.038  11.554  -5.232  1.00  0.00    -0.237 OA
ATOM     86  O   UNL     1      -6.406   9.192  -5.603  1.00  0.00    -0.237 OA
ATOM     87  O   UNL     1      -8.740   9.772  -5.066  1.00  0.00    -0.744 OA
ENDBRANCH  83  84
ENDBRANCH  51  76
BRANCH  63  88
ATOM     88  C   UNL     1      -3.549  13.974   4.246  1.00  0.00     0.058 A 
ATOM     89  C   UNL     1      -4.423  15.064   4.117  1.00  0.00     0.135 A 
ATOM     90  C   UNL     1      -2.176  14.249   4.372  1.00  0.00     0.135 A 
ATOM     91  F   UNL     1      -5.744  14.860   3.988  1.00  0.00    -0.206 F 
ATOM     92  C   UNL     1      -3.954  16.374   4.090  1.00  0.00     0.059 A 
ATOM     93  C   UNL     1      -1.688  15.552   4.378  1.00  0.00     0.059 A 
ATOM     94  F   UNL     1      -1.295  13.245   4.511  1.00  0.00    -0.206 F 
ATOM     95  C   UNL     1      -2.584  16.608   4.224  1.00  0.00     0.060 A 
BRANCH  95  96
ATOM     96  S   UNL     1      -1.993  18.314   4.223  1.00  0.00     0.124 S 
ATOM     97  O   UNL     1      -2.150  18.680   2.819  1.00  0.00    -0.237 OA
ATOM     98  O   UNL     1      -2.911  18.964   5.154  1.00  0.00    -0.237 OA
ATOM     99  O   UNL     1      -0.615  18.198   4.691  1.00  0.00    -0.744 OA
ENDBRANCH  95  96
ENDBRANCH  63  88
ENDBRANCH  37  38
ENDBRANCH  30  32
ENDBRANCH  29  30
ENDBRANCH  28  29
ENDBRANCH  27  28
ENDBRANCH  26  27
ENDBRANCH  25  26
ENDBRANCH   1  25
TORSDOF 23
