REMARK SMILES CC(C)(C)c1ccc(N2C(=O)/C(=C\c3ccc(OCC(=O)OCCOCCOCCOC(=O)c4ccc(-c5c6nc(c(-c7c(F)cc(S(=O)(=O)[O-])cc7F)c7ccc([nH]7)c(-c7c(F)cc(S(=O)(=O)[O-])cc7F)c7nc(c(-c8c(F)cc(S(=O)(=O)[O-])cc8F)c8ccc5[nH]8)C=C7)C=C6)cc4)c(Br)c3)C(=O)[NH+]=C2O)cc1
REMARK SMILES IDX 26 1 25 2 24 3 23 4 22 5 20 6 21 7 19 8 18 9 17 10 14 11
REMARK SMILES IDX 15 12 102 13 16 14 100 15 101 16 13 17 9 18 10 19 106 20
REMARK SMILES IDX 11 21 12 22 105 23 103 24 104 26 8 27 5 28 6 29 109 30 7 31
REMARK SMILES IDX 108 32 2 33 1 34 3 35 4 36 107 37 27 39 28 40 29 41 30 42
REMARK SMILES IDX 31 43 32 44 33 45 34 46 35 47 99 48 36 49 98 50 37 51 38 52
REMARK SMILES IDX 39 53 92 54 40 55 97 56 91 57 93 58 41 59 96 60 90 61 89 62
REMARK SMILES IDX 42 64 76 65 55 66 75 67 56 68 59 69 74 70 94 71 57 72 58 73
REMARK SMILES IDX 73 75 95 76 60 77 43 78 44 79 53 80 45 81 46 82 52 83 54 84
REMARK SMILES IDX 47 85 48 86 49 87 50 88 51 89 77 90 78 91 87 92 79 93 80 94
REMARK SMILES IDX 86 95 88 96 81 97 82 98 83 99 84 100 85 101 61 102 62 103
REMARK SMILES IDX 71 104 63 105 64 106 70 107 72 108 65 109 66 110 67 111
REMARK SMILES IDX 68 112 69 113
REMARK H PARENT 105 25 107 38 93 63 59 74
REMARK Flexibility Score: inf
ROOT
ATOM      1  C   UNL     1      -3.988   3.951   3.010  1.00  0.00     0.188 C 
ENDROOT
BRANCH   1   2
ATOM      2  O   UNL     1      -3.805   3.498   1.682  1.00  0.00    -0.376 OA
BRANCH   2   3
ATOM      3  C   UNL     1      -4.046   4.424   0.627  1.00  0.00     0.202 C 
BRANCH   3   4
ATOM      4  C   UNL     1      -5.297   5.339   0.712  1.00  0.00     0.261 C 
BRANCH   4   5
ATOM      5  O   UNL     1      -5.262   6.401   1.723  1.00  0.00    -0.461 OA
BRANCH   5   6
ATOM      6  C   UNL     1      -6.197   6.379   2.716  1.00  0.00     0.344 C 
ATOM      7  O   UNL     1      -7.154   5.606   2.712  1.00  0.00    -0.248 OA
BRANCH   6   8
ATOM      8  C   UNL     1      -5.954   7.373   3.934  1.00  0.00     0.352 C 
BRANCH   8   9
ATOM      9  O   UNL     1      -4.804   8.170   4.240  1.00  0.00    -0.481 OA
BRANCH   9  10
ATOM     10  C   UNL     1      -3.792   7.906   5.141  1.00  0.00     0.134 A 
ATOM     11  C   UNL     1      -1.219   7.328   6.412  1.00  0.00    -0.023 A 
ATOM     12  C   UNL     1      -1.333   8.282   5.413  1.00  0.00     0.012 A 
ATOM     13  C   UNL     1      -2.450   6.821   6.899  1.00  0.00     0.027 A 
ATOM     14  C   UNL     1      -2.590   8.562   4.803  1.00  0.00     0.048 A 
ATOM     15  C   UNL     1      -3.719   7.103   6.284  1.00  0.00     0.060 A 
ATOM     16  Br  UNL     1      -5.232   6.355   7.161  1.00  0.00    -0.047 Br
BRANCH  11  17
ATOM     17  C   UNL     1       0.091   6.869   7.012  1.00  0.00     0.032 C 
ATOM     18  N   UNL     1       2.339   4.646   5.037  1.00  0.00    -0.124 N 
ATOM     19  C   UNL     1       1.725   5.919   5.135  1.00  0.00     0.357 C 
ATOM     20  C   UNL     1       2.957   4.183   6.170  1.00  0.00     0.462 C 
ATOM     21  O   UNL     1       1.580   6.712   4.204  1.00  0.00    -0.240 OA
ATOM     22  C   UNL     1       1.249   6.281   6.549  1.00  0.00     0.155 C 
ATOM     23  N   UNL     1       2.916   4.677   7.343  1.00  0.00    -0.172 N 
ATOM     24  C   UNL     1       2.119   5.749   7.648  1.00  0.00     0.349 C 
ATOM     25  H   UNL     1       3.473   4.277   8.050  1.00  0.00     0.319 HD
ATOM     26  O   UNL     1       2.089   6.216   8.773  1.00  0.00    -0.240 OA
BRANCH  18  27
ATOM     27  C   UNL     1       2.328   3.826   3.815  1.00  0.00     0.140 A 
ATOM     28  C   UNL     1       1.573   2.252   1.467  1.00  0.00    -0.042 A 
ATOM     29  C   UNL     1       1.590   1.701   2.754  1.00  0.00     0.008 A 
ATOM     30  C   UNL     1       2.092   3.560   1.371  1.00  0.00     0.008 A 
ATOM     31  C   UNL     1       1.994   2.455   3.885  1.00  0.00     0.053 A 
ATOM     32  C   UNL     1       2.457   4.334   2.520  1.00  0.00     0.053 A 
BRANCH  28  33
ATOM     33  C   UNL     1       0.936   1.483   0.274  1.00  0.00    -0.013 C 
ATOM     34  C   UNL     1       1.359  -0.006   0.238  1.00  0.00     0.016 C 
ATOM     35  C   UNL     1       1.303   2.083  -1.103  1.00  0.00     0.016 C 
ATOM     36  C   UNL     1      -0.612   1.502   0.371  1.00  0.00     0.016 C 
ENDBRANCH  28  33
ENDBRANCH  18  27
BRANCH  20  37
ATOM     37  O   UNL     1       3.767   3.116   6.019  1.00  0.00    -0.446 OA
ATOM     38  H   UNL     1       3.846   2.702   5.182  1.00  0.00     0.301 HD
ENDBRANCH  20  37
ENDBRANCH  11  17
ENDBRANCH   9  10
ENDBRANCH   8   9
ENDBRANCH   6   8
ENDBRANCH   5   6
ENDBRANCH   4   5
ENDBRANCH   3   4
ENDBRANCH   2   3
ENDBRANCH   1   2
BRANCH   1  39
ATOM     39  C   UNL     1      -3.375   5.300   3.392  1.00  0.00     0.188 C 
BRANCH  39  40
ATOM     40  O   UNL     1      -2.784   6.047   2.355  1.00  0.00    -0.376 OA
BRANCH  40  41
ATOM     41  C   UNL     1      -1.378   6.035   2.404  1.00  0.00     0.202 C 
BRANCH  41  42
ATOM     42  C   UNL     1      -0.740   4.645   2.462  1.00  0.00     0.261 C 
BRANCH  42  43
ATOM     43  O   UNL     1      -1.179   3.636   3.419  1.00  0.00    -0.460 OA
BRANCH  43  44
ATOM     44  C   UNL     1      -0.969   3.970   4.702  1.00  0.00     0.338 C 
ATOM     45  O   UNL     1      -0.524   5.048   5.035  1.00  0.00    -0.246 OA
BRANCH  44  46
ATOM     46  C   UNL     1      -1.473   3.145   5.800  1.00  0.00     0.060 A 
ATOM     47  C   UNL     1      -2.709   3.499   6.346  1.00  0.00     0.016 A 
ATOM     48  C   UNL     1      -0.586   2.391   6.566  1.00  0.00     0.016 A 
ATOM     49  C   UNL     1      -3.070   3.088   7.620  1.00  0.00     0.010 A 
ATOM     50  C   UNL     1      -0.981   1.899   7.813  1.00  0.00     0.010 A 
ATOM     51  C   UNL     1      -2.237   2.231   8.339  1.00  0.00    -0.014 A 
BRANCH  51  52
ATOM     52  C   UNL     1      -2.736   1.599   9.578  1.00  0.00     0.031 A 
ATOM     53  C   UNL     1      -2.059   1.828  10.894  1.00  0.00     0.074 A 
ATOM     54  C   UNL     1      -3.795   0.770   9.475  1.00  0.00     0.049 A 
ATOM     55  N   UNL     1      -2.202   1.166  12.011  1.00  0.00    -0.248 NA
ATOM     56  C   UNL     1      -1.103   2.943  10.971  1.00  0.00     0.031 C 
ATOM     57  C   UNL     1      -4.573   0.538   8.252  1.00  0.00     0.029 A 
ATOM     58  N   UNL     1      -4.390  -0.048  10.400  1.00  0.00    -0.354 N 
ATOM     59  C   UNL     1      -1.328   1.754  12.917  1.00  0.00     0.074 A 
ATOM     60  C   UNL     1      -0.667   2.838  12.222  1.00  0.00     0.031 C 
ATOM     61  C   UNL     1      -5.532  -0.362   8.500  1.00  0.00     0.029 A 
ATOM     62  C   UNL     1      -5.365  -0.853   9.859  1.00  0.00     0.049 A 
ATOM     63  H   UNL     1      -4.144  -0.058  11.354  1.00  0.00     0.167 HD
ATOM     64  C   UNL     1      -1.097   1.394  14.202  1.00  0.00     0.037 A 
ATOM     65  C   UNL     1      -5.996  -1.928  10.365  1.00  0.00     0.037 A 
ATOM     66  C   UNL     1      -1.786   0.311  14.862  1.00  0.00     0.049 A 
ATOM     67  C   UNL     1      -5.653  -2.365  11.758  1.00  0.00     0.074 A 
ATOM     68  C   UNL     1      -1.632  -0.141  16.161  1.00  0.00     0.029 A 
ATOM     69  N   UNL     1      -2.756  -0.491  14.274  1.00  0.00    -0.354 N 
ATOM     70  N   UNL     1      -4.794  -1.833  12.595  1.00  0.00    -0.248 NA
ATOM     71  C   UNL     1      -6.348  -3.549  12.274  1.00  0.00     0.031 C 
ATOM     72  C   UNL     1      -2.458  -1.254  16.337  1.00  0.00     0.029 A 
ATOM     73  C   UNL     1      -3.185  -1.452  15.174  1.00  0.00     0.049 A 
ATOM     74  H   UNL     1      -3.088  -0.391  13.353  1.00  0.00     0.167 HD
ATOM     75  C   UNL     1      -4.873  -2.596  13.752  1.00  0.00     0.074 A 
ATOM     76  C   UNL     1      -5.861  -3.626  13.506  1.00  0.00     0.031 C 
ATOM     77  C   UNL     1      -4.192  -2.452  14.915  1.00  0.00     0.037 A 
BRANCH  64  78
ATOM     78  C   UNL     1      -0.023   2.118  14.969  1.00  0.00     0.058 A 
ATOM     79  C   UNL     1      -0.183   3.432  15.431  1.00  0.00     0.135 A 
ATOM     80  C   UNL     1       1.161   1.444  15.318  1.00  0.00     0.135 A 
ATOM     81  F   UNL     1      -1.287   4.129  15.118  1.00  0.00    -0.206 F 
ATOM     82  C   UNL     1       0.794   4.056  16.205  1.00  0.00     0.059 A 
ATOM     83  C   UNL     1       2.138   2.037  16.112  1.00  0.00     0.059 A 
ATOM     84  F   UNL     1       1.369   0.185  14.902  1.00  0.00    -0.206 F 
ATOM     85  C   UNL     1       1.948   3.347  16.545  1.00  0.00     0.060 A 
BRANCH  85  86
ATOM     86  S   UNL     1       3.191   4.157  17.576  1.00  0.00     0.124 S 
ATOM     87  O   UNL     1       3.729   5.155  16.658  1.00  0.00    -0.237 OA
ATOM     88  O   UNL     1       2.389   4.677  18.679  1.00  0.00    -0.237 OA
ATOM     89  O   UNL     1       4.104   3.073  17.926  1.00  0.00    -0.744 OA
ENDBRANCH  85  86
ENDBRANCH  64  78
BRANCH  65  90
ATOM     90  C   UNL     1      -6.945  -2.697   9.516  1.00  0.00     0.058 A 
ATOM     91  C   UNL     1      -8.313  -2.744   9.815  1.00  0.00     0.135 A 
ATOM     92  C   UNL     1      -6.501  -3.388   8.375  1.00  0.00     0.135 A 
ATOM     93  F   UNL     1      -8.787  -2.103  10.894  1.00  0.00    -0.206 F 
ATOM     94  C   UNL     1      -9.204  -3.468   9.029  1.00  0.00     0.059 A 
ATOM     95  C   UNL     1      -7.378  -4.087   7.553  1.00  0.00     0.059 A 
ATOM     96  F   UNL     1      -5.204  -3.358   8.030  1.00  0.00    -0.206 F 
ATOM     97  C   UNL     1      -8.726  -4.135   7.899  1.00  0.00     0.060 A 
BRANCH  97  98
ATOM     98  S   UNL     1      -9.894  -5.055   6.876  1.00  0.00     0.124 S 
ATOM     99  O   UNL     1     -10.199  -6.194   7.735  1.00  0.00    -0.237 OA
ATOM    100  O   UNL     1     -10.970  -4.086   6.693  1.00  0.00    -0.237 OA
ATOM    101  O   UNL     1      -9.122  -5.359   5.675  1.00  0.00    -0.744 OA
ENDBRANCH  97  98
ENDBRANCH  65  90
BRANCH  77 102
ATOM    102  C   UNL     1      -4.541  -3.382  16.041  1.00  0.00     0.058 A 
ATOM    103  C   UNL     1      -4.142  -4.726  16.047  1.00  0.00     0.135 A 
ATOM    104  C   UNL     1      -5.210  -2.887  17.173  1.00  0.00     0.135 A 
ATOM    105  F   UNL     1      -3.514  -5.250  14.983  1.00  0.00    -0.206 F 
ATOM    106  C   UNL     1      -4.393  -5.550  17.139  1.00  0.00     0.059 A 
ATOM    107  C   UNL     1      -5.445  -3.684  18.287  1.00  0.00     0.059 A 
ATOM    108  F   UNL     1      -5.612  -1.606  17.215  1.00  0.00    -0.206 F 
ATOM    109  C   UNL     1      -5.034  -5.015  18.260  1.00  0.00     0.060 A 
BRANCH 109 110
ATOM    110  S   UNL     1      -5.277  -6.072  19.702  1.00  0.00     0.124 S 
ATOM    111  O   UNL     1      -6.317  -6.981  19.230  1.00  0.00    -0.237 OA
ATOM    112  O   UNL     1      -3.953  -6.662  19.880  1.00  0.00    -0.237 OA
ATOM    113  O   UNL     1      -5.687  -5.138  20.745  1.00  0.00    -0.744 OA
ENDBRANCH 109 110
ENDBRANCH  77 102
ENDBRANCH  51  52
ENDBRANCH  44  46
ENDBRANCH  43  44
ENDBRANCH  42  43
ENDBRANCH  41  42
ENDBRANCH  40  41
ENDBRANCH  39  40
ENDBRANCH   1  39
TORSDOF 26
