REMARK SMILES CC(C)N1C(=O)C[C@@H]([N@@H+]2CC[C@H](C(=O)OCCOCCOCCOC(=O)c3ccc(-c4c5nc(c(-c6c(F)cc(S(=O)(=O)[O-])cc6F)c6ccc([nH]6)c(-c6c(F)cc(S(=O)(=O)[O-])cc6F)c6nc(c(-c7c(F)cc(S(=O)(=O)[O-])cc7F)c7ccc4[nH]7)C=C6)C=C5)cc3)[C@@H]2C)C1=O
REMARK SMILES IDX 20 1 19 2 18 3 17 4 16 5 15 6 13 7 14 8 12 9 9 10 10 11
REMARK SMILES IDX 93 12 11 14 94 15 8 16 4 17 5 18 95 19 6 20 7 21 96 22 2 23
REMARK SMILES IDX 1 24 3 25 21 26 22 27 23 28 24 29 25 30 26 31 27 32 28 33
REMARK SMILES IDX 92 34 29 35 91 36 30 37 31 38 32 39 85 40 33 41 90 42 84 43
REMARK SMILES IDX 86 44 34 45 89 46 83 47 82 48 35 50 69 51 48 52 68 53 49 54
REMARK SMILES IDX 52 55 67 56 87 57 50 58 51 59 66 61 88 62 53 63 36 64 37 65
REMARK SMILES IDX 46 66 38 67 39 68 45 69 47 70 40 71 41 72 42 73 43 74 44 75
REMARK SMILES IDX 70 76 71 77 80 78 72 79 73 80 79 81 81 82 74 83 75 84 76 85
REMARK SMILES IDX 77 86 78 87 54 88 55 89 64 90 56 91 57 92 63 93 65 94 58 95
REMARK SMILES IDX 59 96 60 97 61 98 62 99
REMARK H PARENT 9 13 86 49 52 60
REMARK Flexibility Score: inf
ROOT
ATOM      1  C   UNL     1      -7.218   0.924   0.081  1.00  0.00     0.188 C 
ENDROOT
BRANCH   1   2
ATOM      2  C   UNL     1      -5.826   1.561  -0.008  1.00  0.00     0.188 C 
BRANCH   2   3
ATOM      3  O   UNL     1      -5.661   2.759  -0.751  1.00  0.00    -0.376 OA
BRANCH   3   4
ATOM      4  C   UNL     1      -6.475   2.953  -1.892  1.00  0.00     0.202 C 
BRANCH   4   5
ATOM      5  C   UNL     1      -6.283   1.995  -3.074  1.00  0.00     0.261 C 
BRANCH   5   6
ATOM      6  O   UNL     1      -6.359   0.582  -2.775  1.00  0.00    -0.463 OA
BRANCH   6   7
ATOM      7  C   UNL     1      -5.163  -0.075  -2.741  1.00  0.00     0.315 C 
ATOM      8  O   UNL     1      -4.083   0.493  -2.835  1.00  0.00    -0.252 OA
BRANCH   7   9
ATOM      9  C   UNL     1      -5.338  -1.595  -2.705  1.00  0.00     0.162 C 
ATOM     10  N   UNL     1      -3.749  -2.617  -1.213  1.00  0.00    -0.321 N 
ATOM     11  C   UNL     1      -3.057  -2.317  -2.472  1.00  0.00     0.264 C 
ATOM     12  C   UNL     1      -5.182  -2.399  -1.403  1.00  0.00     0.196 C 
ATOM     13  H   UNL     1      -3.660  -3.608  -0.988  1.00  0.00     0.349 HD
ATOM     14  C   UNL     1      -4.173  -2.197  -3.507  1.00  0.00     0.083 C 
ATOM     15  C   UNL     1      -6.004  -2.091  -0.167  1.00  0.00     0.076 C 
BRANCH  10  16
ATOM     16  C   UNL     1      -3.089  -2.152   0.017  1.00  0.00     0.284 C 
ATOM     17  N   UNL     1      -0.793  -1.665   0.027  1.00  0.00    -0.275 N 
ATOM     18  C   UNL     1      -1.407  -0.456   0.169  1.00  0.00     0.236 C 
ATOM     19  C   UNL     1      -1.681  -2.707   0.073  1.00  0.00     0.288 C 
ATOM     20  O   UNL     1      -0.907   0.654   0.270  1.00  0.00    -0.274 OA
ATOM     21  C   UNL     1      -2.885  -0.655   0.173  1.00  0.00     0.176 C 
ATOM     22  O   UNL     1      -1.413  -3.901   0.115  1.00  0.00    -0.267 OA
BRANCH  17  23
ATOM     23  C   UNL     1       0.641  -1.919  -0.065  1.00  0.00     0.087 C 
ATOM     24  C   UNL     1       1.472  -0.715  -0.506  1.00  0.00     0.031 C 
ATOM     25  C   UNL     1       1.143  -2.563   1.222  1.00  0.00     0.031 C 
ENDBRANCH  17  23
ENDBRANCH  10  16
ENDBRANCH   7   9
ENDBRANCH   6   7
ENDBRANCH   5   6
ENDBRANCH   4   5
ENDBRANCH   3   4
ENDBRANCH   2   3
ENDBRANCH   1   2
BRANCH   1  26
ATOM     26  O   UNL     1      -8.246   1.887   0.228  1.00  0.00    -0.376 OA
BRANCH  26  27
ATOM     27  C   UNL     1      -8.965   1.756   1.442  1.00  0.00     0.202 C 
BRANCH  27  28
ATOM     28  C   UNL     1      -8.220   2.360   2.638  1.00  0.00     0.261 C 
BRANCH  28  29
ATOM     29  O   UNL     1      -6.890   1.869   2.923  1.00  0.00    -0.460 OA
BRANCH  29  30
ATOM     30  C   UNL     1      -6.729   0.607   3.380  1.00  0.00     0.338 C 
ATOM     31  O   UNL     1      -7.612  -0.238   3.459  1.00  0.00    -0.246 OA
BRANCH  30  32
ATOM     32  C   UNL     1      -5.286   0.349   3.681  1.00  0.00     0.060 A 
ATOM     33  C   UNL     1      -4.759  -0.933   3.484  1.00  0.00     0.016 A 
ATOM     34  C   UNL     1      -4.452   1.346   4.206  1.00  0.00     0.016 A 
ATOM     35  C   UNL     1      -3.420  -1.213   3.819  1.00  0.00     0.010 A 
ATOM     36  C   UNL     1      -3.120   1.057   4.567  1.00  0.00     0.010 A 
ATOM     37  C   UNL     1      -2.590  -0.230   4.392  1.00  0.00    -0.014 A 
BRANCH  37  38
ATOM     38  C   UNL     1      -1.272  -0.637   4.983  1.00  0.00     0.031 A 
ATOM     39  C   UNL     1      -1.292  -1.429   6.267  1.00  0.00     0.074 A 
ATOM     40  C   UNL     1      -0.076  -0.330   4.434  1.00  0.00     0.049 A 
ATOM     41  N   UNL     1      -0.317  -2.043   6.883  1.00  0.00    -0.248 NA
ATOM     42  C   UNL     1      -2.587  -1.504   6.965  1.00  0.00     0.031 C 
ATOM     43  C   UNL     1       0.117   0.531   3.276  1.00  0.00     0.029 A 
ATOM     44  N   UNL     1       1.208  -0.744   4.749  1.00  0.00    -0.354 N 
ATOM     45  C   UNL     1      -0.861  -2.519   8.070  1.00  0.00     0.074 A 
ATOM     46  C   UNL     1      -2.267  -2.179   8.059  1.00  0.00     0.031 C 
ATOM     47  C   UNL     1       1.413   0.497   2.913  1.00  0.00     0.029 A 
ATOM     48  C   UNL     1       2.151  -0.407   3.790  1.00  0.00     0.049 A 
ATOM     49  H   UNL     1       1.430  -1.231   5.575  1.00  0.00     0.167 HD
ATOM     50  C   UNL     1      -0.234  -3.126   9.104  1.00  0.00     0.037 A 
ATOM     51  C   UNL     1       3.420  -0.850   3.602  1.00  0.00     0.037 A 
ATOM     52  C   UNL     1       1.170  -3.440   9.133  1.00  0.00     0.049 A 
ATOM     53  C   UNL     1       4.038  -1.734   4.669  1.00  0.00     0.074 A 
ATOM     54  C   UNL     1       1.901  -4.017  10.158  1.00  0.00     0.029 A 
ATOM     55  N   UNL     1       2.058  -3.196   8.098  1.00  0.00    -0.354 N 
ATOM     56  N   UNL     1       3.488  -2.246   5.744  1.00  0.00    -0.248 NA
ATOM     57  C   UNL     1       5.464  -2.074   4.513  1.00  0.00     0.031 C 
ATOM     58  C   UNL     1       3.241  -4.072   9.764  1.00  0.00     0.029 A 
ATOM     59  C   UNL     1       3.331  -3.598   8.467  1.00  0.00     0.049 A 
ATOM     60  H   UNL     1       1.819  -2.798   7.231  1.00  0.00     0.167 HD
ATOM     61  C   UNL     1       4.504  -2.941   6.396  1.00  0.00     0.074 A 
ATOM     62  C   UNL     1       5.673  -2.872   5.549  1.00  0.00     0.031 C 
ATOM     63  C   UNL     1       4.488  -3.535   7.614  1.00  0.00     0.037 A 
BRANCH  50  64
ATOM     64  C   UNL     1      -1.037  -3.398  10.344  1.00  0.00     0.058 A 
ATOM     65  C   UNL     1      -1.979  -4.434  10.417  1.00  0.00     0.135 A 
ATOM     66  C   UNL     1      -0.809  -2.631  11.499  1.00  0.00     0.135 A 
ATOM     67  F   UNL     1      -2.259  -5.173   9.332  1.00  0.00    -0.206 F 
ATOM     68  C   UNL     1      -2.668  -4.701  11.597  1.00  0.00     0.059 A 
ATOM     69  C   UNL     1      -1.465  -2.898  12.694  1.00  0.00     0.059 A 
ATOM     70  F   UNL     1       0.071  -1.618  11.474  1.00  0.00    -0.206 F 
ATOM     71  C   UNL     1      -2.395  -3.934  12.732  1.00  0.00     0.060 A 
BRANCH  71  72
ATOM     72  S   UNL     1      -3.258  -4.327  14.268  1.00  0.00     0.124 S 
ATOM     73  O   UNL     1      -4.614  -3.882  13.962  1.00  0.00    -0.237 OA
ATOM     74  O   UNL     1      -3.072  -5.770  14.367  1.00  0.00    -0.237 OA
ATOM     75  O   UNL     1      -2.550  -3.535  15.269  1.00  0.00    -0.744 OA
ENDBRANCH  71  72
ENDBRANCH  50  64
BRANCH  51  76
ATOM     76  C   UNL     1       4.202  -0.587   2.340  1.00  0.00     0.058 A 
ATOM     77  C   UNL     1       4.693  -1.667   1.571  1.00  0.00     0.135 A 
ATOM     78  C   UNL     1       4.535   0.697   1.889  1.00  0.00     0.135 A 
ATOM     79  F   UNL     1       4.427  -2.930   1.942  1.00  0.00    -0.206 F 
ATOM     80  C   UNL     1       5.489  -1.491   0.442  1.00  0.00     0.059 A 
ATOM     81  C   UNL     1       5.302   0.902   0.737  1.00  0.00     0.059 A 
ATOM     82  F   UNL     1       4.127   1.778   2.570  1.00  0.00    -0.206 F 
ATOM     83  C   UNL     1       5.793  -0.198   0.034  1.00  0.00     0.060 A 
BRANCH  83  84
ATOM     84  S   UNL     1       6.827   0.029  -1.431  1.00  0.00     0.124 S 
ATOM     85  O   UNL     1       8.156  -0.248  -0.897  1.00  0.00    -0.237 OA
ATOM     86  O   UNL     1       6.289  -0.969  -2.350  1.00  0.00    -0.237 OA
ATOM     87  O   UNL     1       6.572   1.416  -1.806  1.00  0.00    -0.744 OA
ENDBRANCH  83  84
ENDBRANCH  51  76
BRANCH  63  88
ATOM     88  C   UNL     1       5.773  -4.137   8.122  1.00  0.00     0.058 A 
ATOM     89  C   UNL     1       6.879  -3.336   8.454  1.00  0.00     0.135 A 
ATOM     90  C   UNL     1       5.882  -5.519   8.342  1.00  0.00     0.135 A 
ATOM     91  F   UNL     1       6.830  -2.006   8.274  1.00  0.00    -0.206 F 
ATOM     92  C   UNL     1       8.058  -3.886   8.944  1.00  0.00     0.059 A 
ATOM     93  C   UNL     1       7.040  -6.088   8.864  1.00  0.00     0.059 A 
ATOM     94  F   UNL     1       4.851  -6.332   8.062  1.00  0.00    -0.206 F 
ATOM     95  C   UNL     1       8.129  -5.265   9.147  1.00  0.00     0.060 A 
BRANCH  95  96
ATOM     96  S   UNL     1       9.659  -5.962   9.805  1.00  0.00     0.124 S 
ATOM     97  O   UNL     1      10.553  -5.847   8.658  1.00  0.00    -0.237 OA
ATOM     98  O   UNL     1       9.950  -5.074  10.927  1.00  0.00    -0.237 OA
ATOM     99  O   UNL     1       9.282  -7.324  10.173  1.00  0.00    -0.744 OA
ENDBRANCH  95  96
ENDBRANCH  63  88
ENDBRANCH  37  38
ENDBRANCH  30  32
ENDBRANCH  29  30
ENDBRANCH  28  29
ENDBRANCH  27  28
ENDBRANCH  26  27
ENDBRANCH   1  26
TORSDOF 22
