REMARK SMILES C=C1C(=O)O[C@H]2[C@@H]1[C@@H](OC(=O)[C@]1(C)O[C@@H]1C)[C@@H](OC(C)=O)/C(C(=O)OCCOCCOCCOC(=O)c1ccc(-c3c4nc(c(-c5c(F)cc(S(=O)(=O)[O-])cc5F)c5ccc([nH]5)c(-c5c(F)cc(S(=O)(=O)[O-])cc5F)c5nc(c(-c6c(F)cc(S(=O)(=O)[O-])cc6F)c6ccc3[nH]6)C=C5)C=C4)cc1)=C/[C@@H]1O[C@@H]1[C@]1(C)O[C@H]21
REMARK SMILES IDX 29 1 28 2 27 3 26 4 25 5 23 6 24 7 22 8 103 9 17 10 8 11
REMARK SMILES IDX 7 12 1 13 2 14 3 15 5 16 4 17 6 18 110 19 107 20 109 21
REMARK SMILES IDX 108 22 9 24 10 25 11 26 12 27 14 28 15 29 13 30 16 31 18 32
REMARK SMILES IDX 19 33 20 34 21 35 104 36 105 37 106 38 30 40 31 41 32 42
REMARK SMILES IDX 33 43 34 44 35 45 36 46 37 47 38 48 102 49 39 50 101 51
REMARK SMILES IDX 40 52 41 53 42 54 95 55 43 56 100 57 94 58 96 59 44 60 99 61
REMARK SMILES IDX 93 62 92 63 45 65 79 66 58 67 78 68 59 69 62 70 77 71 97 72
REMARK SMILES IDX 60 73 61 74 76 76 98 77 63 78 46 79 47 80 56 81 48 82 49 83
REMARK SMILES IDX 55 84 57 85 50 86 51 87 52 88 53 89 54 90 80 91 81 92 90 93
REMARK SMILES IDX 82 94 83 95 89 96 91 97 84 98 85 99 86 100 87 101 88 102
REMARK SMILES IDX 64 103 65 104 74 105 66 106 67 107 73 108 75 109 68 110
REMARK SMILES IDX 69 111 70 112 71 113 72 114
REMARK H PARENT 96 64 62 75
REMARK Flexibility Score: 90.00
ROOT
ATOM      1  C   UNL     1      -1.292  -1.806  -0.217  1.00  0.00     0.188 C 
ENDROOT
BRANCH   1   2
ATOM      2  O   UNL     1      -1.413  -0.447   0.230  1.00  0.00    -0.376 OA
BRANCH   2   3
ATOM      3  C   UNL     1      -2.350  -0.277   1.290  1.00  0.00     0.202 C 
BRANCH   3   4
ATOM      4  C   UNL     1      -3.829  -0.284   0.871  1.00  0.00     0.261 C 
BRANCH   4   5
ATOM      5  O   UNL     1      -4.048  -0.890  -0.412  1.00  0.00    -0.460 OA
BRANCH   5   6
ATOM      6  C   UNL     1      -3.985  -0.002  -1.434  1.00  0.00     0.337 C 
ATOM      7  O   UNL     1      -4.031   1.209  -1.306  1.00  0.00    -0.246 OA
BRANCH   6   8
ATOM      8  C   UNL     1      -3.868  -0.677  -2.740  1.00  0.00     0.080 C 
ATOM      9  C   UNL     1      -4.839  -1.485  -3.206  1.00  0.00     0.022 C 
BRANCH   8  10
ATOM     10  C   UNL     1      -2.800  -0.235  -3.713  1.00  0.00     0.255 C 
BRANCH  10  11
ATOM     11  C   UNL     1      -2.520   1.291  -3.880  1.00  0.00     0.234 C 
BRANCH  11  12
ATOM     12  C   UNL     1      -3.650   1.983  -4.696  1.00  0.00     0.115 C 
ATOM     13  C   UNL     1      -3.199   4.497  -4.137  1.00  0.00     0.021 C 
ATOM     14  C   UNL     1      -3.787   3.469  -4.758  1.00  0.00     0.041 C 
ATOM     15  C   UNL     1      -4.961   3.689  -5.641  1.00  0.00     0.334 C 
ATOM     16  O   UNL     1      -5.697   2.537  -5.611  1.00  0.00    -0.455 OA
ATOM     17  O   UNL     1      -5.178   4.675  -6.312  1.00  0.00    -0.247 OA
ATOM     18  C   UNL     1      -5.154   1.626  -4.613  1.00  0.00     0.220 C 
BRANCH  18  19
ATOM     19  C   UNL     1      -5.890   1.892  -3.321  1.00  0.00     0.195 C 
ATOM     20  C   UNL     1      -6.734   0.925  -2.424  1.00  0.00     0.125 CG0
ATOM     21  O   UNL     1      -7.313   1.732  -3.453  1.00  0.00    -0.359 OA
ATOM     22  C   UNL     1      -7.010   1.498  -1.042  1.00  0.00     0.048 C 
ATOM     23  G   UNL     1      -7.178  -0.548  -2.459  1.00  0.00     0.000 G0
ENDBRANCH  18  19
ENDBRANCH  11  12
BRANCH  11  24
ATOM     24  O   UNL     1      -2.193   2.073  -2.717  1.00  0.00    -0.455 OA
BRANCH  24  25
ATOM     25  C   UNL     1      -0.927   1.992  -2.229  1.00  0.00     0.341 C 
ATOM     26  O   UNL     1      -0.174   1.050  -2.409  1.00  0.00    -0.249 OA
BRANCH  25  27
ATOM     27  C   UNL     1      -0.448   3.303  -1.699  1.00  0.00     0.188 C 
ATOM     28  O   UNL     1      -0.011   3.277  -0.320  1.00  0.00    -0.354 OA
ATOM     29  C   UNL     1      -1.178   4.051  -0.596  1.00  0.00     0.160 C 
ATOM     30  C   UNL     1       0.474   4.114  -2.567  1.00  0.00     0.058 C 
ATOM     31  C   UNL     1      -2.396   3.560   0.090  1.00  0.00     0.042 C 
ENDBRANCH  25  27
ENDBRANCH  24  25
ENDBRANCH  11  24
ENDBRANCH  10  11
BRANCH  10  32
ATOM     32  O   UNL     1      -1.619  -1.035  -3.523  1.00  0.00    -0.453 OA
BRANCH  32  33
ATOM     33  C   UNL     1      -1.387  -2.096  -4.342  1.00  0.00     0.303 C 
ATOM     34  C   UNL     1      -1.406  -1.845  -5.828  1.00  0.00     0.139 C 
ATOM     35  O   UNL     1      -1.065  -3.187  -3.882  1.00  0.00    -0.253 OA
ENDBRANCH  32  33
ENDBRANCH  10  32
ENDBRANCH   8  10
BRANCH   9  36
ATOM     36  C   UNL     1      -6.210  -1.676  -2.754  1.00  0.00     0.174 C 
ATOM     37  O   UNL     1      -7.224  -1.251  -3.695  1.00  0.00    -0.362 OA
ATOM     38  C   UNL     1      -7.178  -0.548  -2.459  1.00  0.00     0.186 CG0
ATOM     39  G   UNL     1      -6.734   0.925  -2.424  1.00  0.00     0.000 G0
ENDBRANCH   9  36
ENDBRANCH   6   8
ENDBRANCH   5   6
ENDBRANCH   4   5
ENDBRANCH   3   4
ENDBRANCH   2   3
ENDBRANCH   1   2
BRANCH   1  40
ATOM     40  C   UNL     1       0.087  -2.068  -0.819  1.00  0.00     0.188 C 
BRANCH  40  41
ATOM     41  O   UNL     1       1.035  -2.432   0.189  1.00  0.00    -0.376 OA
BRANCH  41  42
ATOM     42  C   UNL     1       1.636  -1.324   0.855  1.00  0.00     0.202 C 
BRANCH  42  43
ATOM     43  C   UNL     1       2.926  -0.846   0.180  1.00  0.00     0.261 C 
BRANCH  43  44
ATOM     44  O   UNL     1       2.690  -0.020  -0.977  1.00  0.00    -0.460 OA
BRANCH  44  45
ATOM     45  C   UNL     1       2.874  -0.620  -2.179  1.00  0.00     0.338 C 
ATOM     46  O   UNL     1       3.185  -1.783  -2.379  1.00  0.00    -0.246 OA
BRANCH  45  47
ATOM     47  C   UNL     1       2.604   0.328  -3.284  1.00  0.00     0.060 A 
ATOM     48  C   UNL     1       1.809  -0.109  -4.351  1.00  0.00     0.016 A 
ATOM     49  C   UNL     1       3.185   1.598  -3.323  1.00  0.00     0.016 A 
ATOM     50  C   UNL     1       1.590   0.720  -5.456  1.00  0.00     0.010 A 
ATOM     51  C   UNL     1       2.988   2.416  -4.444  1.00  0.00     0.010 A 
ATOM     52  C   UNL     1       2.202   1.977  -5.525  1.00  0.00    -0.014 A 
BRANCH  52  53
ATOM     53  C   UNL     1       2.214   2.720  -6.813  1.00  0.00     0.031 A 
ATOM     54  C   UNL     1       3.381   2.503  -7.738  1.00  0.00     0.074 A 
ATOM     55  C   UNL     1       1.218   3.546  -7.187  1.00  0.00     0.049 A 
ATOM     56  N   UNL     1       3.638   3.057  -8.894  1.00  0.00    -0.248 NA
ATOM     57  C   UNL     1       4.376   1.507  -7.308  1.00  0.00     0.031 C 
ATOM     58  C   UNL     1      -0.022   3.773  -6.452  1.00  0.00     0.029 A 
ATOM     59  N   UNL     1       1.106   4.364  -8.286  1.00  0.00    -0.354 N 
ATOM     60  C   UNL     1       4.810   2.462  -9.341  1.00  0.00     0.074 A 
ATOM     61  C   UNL     1       5.238   1.539  -8.312  1.00  0.00     0.031 C 
ATOM     62  C   UNL     1      -0.742   4.718  -7.084  1.00  0.00     0.029 A 
ATOM     63  C   UNL     1      -0.015   5.161  -8.271  1.00  0.00     0.049 A 
ATOM     64  H   UNL     1       1.766   4.377  -9.016  1.00  0.00     0.167 HD
ATOM     65  C   UNL     1       5.466   2.649 -10.511  1.00  0.00     0.037 A 
ATOM     66  C   UNL     1      -0.404   6.145  -9.107  1.00  0.00     0.037 A 
ATOM     67  C   UNL     1       5.070   3.589 -11.523  1.00  0.00     0.049 A 
ATOM     68  C   UNL     1       0.429   6.459 -10.325  1.00  0.00     0.074 A 
ATOM     69  C   UNL     1       5.681   3.858 -12.734  1.00  0.00     0.029 A 
ATOM     70  N   UNL     1       3.972   4.431 -11.433  1.00  0.00    -0.354 N 
ATOM     71  N   UNL     1       1.527   5.876 -10.745  1.00  0.00    -0.248 NA
ATOM     72  C   UNL     1      -0.038   7.552 -11.191  1.00  0.00     0.031 C 
ATOM     73  C   UNL     1       4.978   4.897 -13.357  1.00  0.00     0.029 A 
ATOM     74  C   UNL     1       3.903   5.242 -12.553  1.00  0.00     0.049 A 
ATOM     75  H   UNL     1       3.335   4.450 -10.682  1.00  0.00     0.167 HD
ATOM     76  C   UNL     1       1.856   6.501 -11.945  1.00  0.00     0.074 A 
ATOM     77  C   UNL     1       0.847   7.513 -12.179  1.00  0.00     0.031 C 
ATOM     78  C   UNL     1       2.891   6.244 -12.784  1.00  0.00     0.037 A 
BRANCH  65  79
ATOM     79  C   UNL     1       6.703   1.827 -10.726  1.00  0.00     0.058 A 
ATOM     80  C   UNL     1       6.630   0.450 -10.992  1.00  0.00     0.135 A 
ATOM     81  C   UNL     1       7.974   2.413 -10.630  1.00  0.00     0.135 A 
ATOM     82  F   UNL     1       5.438  -0.162 -11.071  1.00  0.00    -0.206 F 
ATOM     83  C   UNL     1       7.777  -0.327 -11.113  1.00  0.00     0.059 A 
ATOM     84  C   UNL     1       9.135   1.660 -10.772  1.00  0.00     0.059 A 
ATOM     85  F   UNL     1       8.096   3.725 -10.372  1.00  0.00    -0.206 F 
ATOM     86  C   UNL     1       9.025   0.287 -10.990  1.00  0.00     0.060 A 
BRANCH  86  87
ATOM     87  S   UNL     1      10.507  -0.737 -11.103  1.00  0.00     0.124 S 
ATOM     88  O   UNL     1      10.503  -1.396  -9.801  1.00  0.00    -0.237 OA
ATOM     89  O   UNL     1      10.211  -1.593 -12.247  1.00  0.00    -0.237 OA
ATOM     90  O   UNL     1      11.575   0.235 -11.311  1.00  0.00    -0.744 OA
ENDBRANCH  86  87
ENDBRANCH  65  79
BRANCH  66  91
ATOM     91  C   UNL     1      -1.645   6.917  -8.823  1.00  0.00     0.058 A 
ATOM     92  C   UNL     1      -2.797   6.756  -9.606  1.00  0.00     0.135 A 
ATOM     93  C   UNL     1      -1.694   7.846  -7.771  1.00  0.00     0.135 A 
ATOM     94  F   UNL     1      -2.791   5.891 -10.632  1.00  0.00    -0.206 F 
ATOM     95  C   UNL     1      -3.950   7.500  -9.370  1.00  0.00     0.059 A 
ATOM     96  C   UNL     1      -2.840   8.590  -7.505  1.00  0.00     0.059 A 
ATOM     97  F   UNL     1      -0.621   8.032  -6.987  1.00  0.00    -0.206 F 
ATOM     98  C   UNL     1      -3.960   8.420  -8.319  1.00  0.00     0.060 A 
BRANCH  98  99
ATOM     99  S   UNL     1      -5.454   9.393  -8.018  1.00  0.00     0.124 S 
ATOM    100  O   UNL     1      -5.385  10.373  -9.096  1.00  0.00    -0.237 OA
ATOM    101  O   UNL     1      -6.514   8.398  -8.133  1.00  0.00    -0.237 OA
ATOM    102  O   UNL     1      -5.242   9.923  -6.674  1.00  0.00    -0.744 OA
ENDBRANCH  98  99
ENDBRANCH  66  91
BRANCH  78 103
ATOM    103  C   UNL     1       2.973   7.036 -14.061  1.00  0.00     0.058 A 
ATOM    104  C   UNL     1       3.380   8.379 -14.075  1.00  0.00     0.135 A 
ATOM    105  C   UNL     1       2.707   6.420 -15.296  1.00  0.00     0.135 A 
ATOM    106  F   UNL     1       3.642   9.017 -12.924  1.00  0.00    -0.206 F 
ATOM    107  C   UNL     1       3.507   9.088 -15.267  1.00  0.00     0.059 A 
ATOM    108  C   UNL     1       2.850   7.102 -16.500  1.00  0.00     0.059 A 
ATOM    109  F   UNL     1       2.325   5.134 -15.341  1.00  0.00    -0.206 F 
ATOM    110  C   UNL     1       3.243   8.440 -16.476  1.00  0.00     0.060 A 
BRANCH 110 111
ATOM    111  S   UNL     1       3.457   9.354 -18.018  1.00  0.00     0.124 S 
ATOM    112  O   UNL     1       2.271  10.203 -18.025  1.00  0.00    -0.237 OA
ATOM    113  O   UNL     1       4.727  10.041 -17.802  1.00  0.00    -0.237 OA
ATOM    114  O   UNL     1       3.485   8.305 -19.034  1.00  0.00    -0.744 OA
ENDBRANCH 110 111
ENDBRANCH  78 103
ENDBRANCH  52  53
ENDBRANCH  45  47
ENDBRANCH  44  45
ENDBRANCH  43  44
ENDBRANCH  42  43
ENDBRANCH  41  42
ENDBRANCH  40  41
ENDBRANCH   1  40
TORSDOF 25
