REMARK SMILES CC(C)[C@H](CNC(=O)[C@H]1CSc2ccccc21)C(=O)OCCOCCOCCOC(=O)c1ccc(-c2c3nc(c(-c4c(F)cc(S(=O)(=O)[O-])cc4F)c4ccc([nH]4)c(-c4c(F)cc(S(=O)(=O)[O-])cc4F)c4nc(c(-c5c(F)cc(S(=O)(=O)[O-])cc5F)c5ccc2[nH]5)C=C4)C=C3)cc1
REMARK SMILES IDX 24 1 23 2 22 3 21 4 20 5 18 6 19 7 4 8 2 9 1 10 3 11 5 12
REMARK SMILES IDX 6 13 7 14 8 16 9 17 10 18 17 19 11 20 12 21 16 22 13 23
REMARK SMILES IDX 15 24 14 25 25 26 26 27 27 28 28 29 29 30 30 31 31 32 32 33
REMARK SMILES IDX 33 34 97 35 34 36 96 37 35 38 36 39 37 40 90 41 38 42 95 43
REMARK SMILES IDX 89 44 91 45 39 46 94 47 88 48 87 49 40 51 74 52 53 53 73 54
REMARK SMILES IDX 54 55 57 56 72 57 92 58 55 59 56 60 71 62 93 63 58 64 41 65
REMARK SMILES IDX 42 66 51 67 43 68 44 69 50 70 52 71 45 72 46 73 47 74 48 75
REMARK SMILES IDX 49 76 75 77 76 78 85 79 77 80 78 81 84 82 86 83 79 84 80 85
REMARK SMILES IDX 81 86 82 87 83 88 59 89 60 90 69 91 61 92 62 93 68 94 70 95
REMARK SMILES IDX 63 96 64 97 65 98 66 99 67 100
REMARK H PARENT 6 15 91 50 57 61
REMARK Flexibility Score: inf
ROOT
ATOM      1  C   UNL     1      -1.983   3.239   4.095  1.00  0.00     0.188 C 
ENDROOT
BRANCH   1   2
ATOM      2  O   UNL     1      -2.787   2.825   5.193  1.00  0.00    -0.376 OA
BRANCH   2   3
ATOM      3  C   UNL     1      -2.630   1.499   5.689  1.00  0.00     0.202 C 
BRANCH   3   4
ATOM      4  C   UNL     1      -2.869   0.367   4.686  1.00  0.00     0.261 C 
BRANCH   4   5
ATOM      5  O   UNL     1      -1.819   0.203   3.691  1.00  0.00    -0.463 OA
BRANCH   5   6
ATOM      6  C   UNL     1      -2.230   0.096   2.407  1.00  0.00     0.311 C 
ATOM      7  O   UNL     1      -3.415   0.186   2.093  1.00  0.00    -0.252 OA
BRANCH   6   8
ATOM      8  C   UNL     1      -1.154  -0.118   1.313  1.00  0.00     0.121 C 
BRANCH   8   9
ATOM      9  C   UNL     1      -1.722  -1.268   0.396  1.00  0.00    -0.001 C 
ATOM     10  C   UNL     1      -1.147  -1.224  -1.020  1.00  0.00     0.008 C 
ATOM     11  C   UNL     1      -1.544  -2.669   1.005  1.00  0.00     0.008 C 
ENDBRANCH   8   9
BRANCH   8  12
ATOM     12  C   UNL     1       0.373  -0.350   1.504  1.00  0.00     0.131 C 
BRANCH  12  13
ATOM     13  N   UNL     1       1.155   0.438   2.425  1.00  0.00    -0.355 N 
ATOM     14  C   UNL     1       2.240   0.031   3.158  1.00  0.00     0.228 C 
ATOM     15  H   UNL     1       0.877   1.376   2.541  1.00  0.00     0.163 HD
ATOM     16  O   UNL     1       3.078   0.904   3.408  1.00  0.00    -0.274 OA
BRANCH  14  17
ATOM     17  C   UNL     1       2.487  -1.429   3.553  1.00  0.00     0.120 C 
ATOM     18  C   UNL     1       3.829  -1.496   4.331  1.00  0.00     0.093 C 
ATOM     19  C   UNL     1       1.474  -2.104   4.461  1.00  0.00    -0.021 A 
ATOM     20  S   UNL     1       3.782  -2.943   5.427  1.00  0.00    -0.125 SA
ATOM     21  C   UNL     1       2.018  -2.924   5.452  1.00  0.00     0.011 A 
ATOM     22  C   UNL     1       0.096  -2.106   4.311  1.00  0.00     0.006 A 
ATOM     23  C   UNL     1       1.214  -3.674   6.307  1.00  0.00     0.015 A 
ATOM     24  C   UNL     1      -0.729  -2.856   5.148  1.00  0.00     0.000 A 
ATOM     25  C   UNL     1      -0.171  -3.632   6.156  1.00  0.00     0.001 A 
ENDBRANCH  14  17
ENDBRANCH  12  13
ENDBRANCH   8  12
ENDBRANCH   6   8
ENDBRANCH   5   6
ENDBRANCH   4   5
ENDBRANCH   3   4
ENDBRANCH   2   3
ENDBRANCH   1   2
BRANCH   1  26
ATOM     26  C   UNL     1      -0.531   2.771   4.079  1.00  0.00     0.188 C 
BRANCH  26  27
ATOM     27  O   UNL     1      -0.030   2.546   5.385  1.00  0.00    -0.376 OA
BRANCH  27  28
ATOM     28  C   UNL     1       1.362   2.748   5.557  1.00  0.00     0.202 C 
BRANCH  28  29
ATOM     29  C   UNL     1       1.655   4.207   5.899  1.00  0.00     0.261 C 
BRANCH  29  30
ATOM     30  O   UNL     1       1.154   5.144   4.929  1.00  0.00    -0.460 OA
BRANCH  30  31
ATOM     31  C   UNL     1       1.722   5.154   3.699  1.00  0.00     0.338 C 
ATOM     32  O   UNL     1       2.699   4.524   3.336  1.00  0.00    -0.246 OA
BRANCH  31  33
ATOM     33  C   UNL     1       0.765   5.844   2.795  1.00  0.00     0.060 A 
ATOM     34  C   UNL     1       0.072   6.974   3.234  1.00  0.00     0.016 A 
ATOM     35  C   UNL     1       0.468   5.275   1.546  1.00  0.00     0.016 A 
ATOM     36  C   UNL     1      -0.917   7.535   2.428  1.00  0.00     0.010 A 
ATOM     37  C   UNL     1      -0.530   5.835   0.742  1.00  0.00     0.010 A 
ATOM     38  C   UNL     1      -1.218   6.978   1.174  1.00  0.00    -0.014 A 
BRANCH  38  39
ATOM     39  C   UNL     1      -2.102   7.728   0.252  1.00  0.00     0.031 A 
ATOM     40  C   UNL     1      -3.555   7.404   0.085  1.00  0.00     0.074 A 
ATOM     41  C   UNL     1      -1.551   8.761  -0.413  1.00  0.00     0.049 A 
ATOM     42  N   UNL     1      -4.461   8.053  -0.601  1.00  0.00    -0.248 NA
ATOM     43  C   UNL     1      -4.059   6.204   0.766  1.00  0.00     0.031 C 
ATOM     44  C   UNL     1      -0.141   9.152  -0.324  1.00  0.00     0.029 A 
ATOM     45  N   UNL     1      -2.100   9.676  -1.270  1.00  0.00    -0.354 N 
ATOM     46  C   UNL     1      -5.652   7.362  -0.415  1.00  0.00     0.074 A 
ATOM     47  C   UNL     1      -5.340   6.213   0.412  1.00  0.00     0.031 C 
ATOM     48  C   UNL     1       0.057  10.247  -1.071  1.00  0.00     0.029 A 
ATOM     49  C   UNL     1      -1.202  10.619  -1.708  1.00  0.00     0.049 A 
ATOM     50  H   UNL     1      -3.045   9.661  -1.545  1.00  0.00     0.167 HD
ATOM     51  C   UNL     1      -6.887   7.674  -0.881  1.00  0.00     0.037 A 
ATOM     52  C   UNL     1      -1.373  11.676  -2.524  1.00  0.00     0.037 A 
ATOM     53  C   UNL     1      -7.175   8.812  -1.723  1.00  0.00     0.049 A 
ATOM     54  C   UNL     1      -2.743  11.972  -3.058  1.00  0.00     0.074 A 
ATOM     55  C   UNL     1      -8.397   9.218  -2.234  1.00  0.00     0.029 A 
ATOM     56  N   UNL     1      -6.234   9.723  -2.185  1.00  0.00    -0.354 N 
ATOM     57  N   UNL     1      -3.867  11.334  -2.837  1.00  0.00    -0.248 NA
ATOM     58  C   UNL     1      -2.872  13.137  -3.941  1.00  0.00     0.031 C 
ATOM     59  C   UNL     1      -8.188  10.342  -3.041  1.00  0.00     0.029 A 
ATOM     60  C   UNL     1      -6.844  10.674  -2.990  1.00  0.00     0.049 A 
ATOM     61  H   UNL     1      -5.273   9.697  -1.973  1.00  0.00     0.167 HD
ATOM     62  C   UNL     1      -4.844  12.037  -3.532  1.00  0.00     0.074 A 
ATOM     63  C   UNL     1      -4.178  13.154  -4.172  1.00  0.00     0.031 C 
ATOM     64  C   UNL     1      -6.172  11.781  -3.627  1.00  0.00     0.037 A 
BRANCH  51  65
ATOM     65  C   UNL     1      -8.037   6.785  -0.488  1.00  0.00     0.058 A 
ATOM     66  C   UNL     1      -8.552   6.790   0.818  1.00  0.00     0.135 A 
ATOM     67  C   UNL     1      -8.692   5.989  -1.443  1.00  0.00     0.135 A 
ATOM     68  F   UNL     1      -7.962   7.526   1.774  1.00  0.00    -0.206 F 
ATOM     69  C   UNL     1      -9.666   6.032   1.167  1.00  0.00     0.059 A 
ATOM     70  C   UNL     1      -9.823   5.241  -1.123  1.00  0.00     0.059 A 
ATOM     71  F   UNL     1      -8.247   5.949  -2.709  1.00  0.00    -0.206 F 
ATOM     72  C   UNL     1     -10.298   5.264   0.188  1.00  0.00     0.060 A 
BRANCH  72  73
ATOM     73  S   UNL     1     -11.760   4.309   0.653  1.00  0.00     0.124 S 
ATOM     74  O   UNL     1     -11.178   3.281   1.509  1.00  0.00    -0.237 OA
ATOM     75  O   UNL     1     -12.580   5.308   1.330  1.00  0.00    -0.237 OA
ATOM     76  O   UNL     1     -12.281   3.837  -0.626  1.00  0.00    -0.744 OA
ENDBRANCH  72  73
ENDBRANCH  51  65
BRANCH  52  77
ATOM     77  C   UNL     1      -0.214  12.548  -2.837  1.00  0.00     0.058 A 
ATOM     78  C   UNL     1      -0.121  13.841  -2.303  1.00  0.00     0.135 A 
ATOM     79  C   UNL     1       0.846  12.088  -3.634  1.00  0.00     0.135 A 
ATOM     80  F   UNL     1      -1.110  14.322  -1.535  1.00  0.00    -0.206 F 
ATOM     81  C   UNL     1       0.978  14.653  -2.556  1.00  0.00     0.059 A 
ATOM     82  C   UNL     1       1.968  12.872  -3.879  1.00  0.00     0.059 A 
ATOM     83  F   UNL     1       0.812  10.848  -4.148  1.00  0.00    -0.206 F 
ATOM     84  C   UNL     1       2.020  14.157  -3.341  1.00  0.00     0.060 A 
BRANCH  84  85
ATOM     85  S   UNL     1       3.467  15.201  -3.615  1.00  0.00     0.124 S 
ATOM     86  O   UNL     1       2.927  16.222  -4.506  1.00  0.00    -0.237 OA
ATOM     87  O   UNL     1       3.787  15.639  -2.260  1.00  0.00    -0.237 OA
ATOM     88  O   UNL     1       4.433  14.286  -4.215  1.00  0.00    -0.744 OA
ENDBRANCH  84  85
ENDBRANCH  52  77
BRANCH  64  89
ATOM     89  C   UNL     1      -7.003  12.742  -4.433  1.00  0.00     0.058 A 
ATOM     90  C   UNL     1      -6.924  12.793  -5.833  1.00  0.00     0.135 A 
ATOM     91  C   UNL     1      -7.914  13.602  -3.797  1.00  0.00     0.135 A 
ATOM     92  F   UNL     1      -6.064  11.999  -6.491  1.00  0.00    -0.206 F 
ATOM     93  C   UNL     1      -7.699  13.680  -6.574  1.00  0.00     0.059 A 
ATOM     94  C   UNL     1      -8.720  14.477  -4.519  1.00  0.00     0.059 A 
ATOM     95  F   UNL     1      -8.035  13.590  -2.460  1.00  0.00    -0.206 F 
ATOM     96  C   UNL     1      -8.595  14.518  -5.907  1.00  0.00     0.060 A 
BRANCH  96  97
ATOM     97  S   UNL     1      -9.610  15.648  -6.884  1.00  0.00     0.124 S 
ATOM     98  O   UNL     1      -8.623  16.633  -7.314  1.00  0.00    -0.237 OA
ATOM     99  O   UNL     1     -10.130  14.774  -7.930  1.00  0.00    -0.237 OA
ATOM    100  O   UNL     1     -10.601  16.130  -5.927  1.00  0.00    -0.744 OA
ENDBRANCH  96  97
ENDBRANCH  64  89
ENDBRANCH  38  39
ENDBRANCH  31  33
ENDBRANCH  30  31
ENDBRANCH  29  30
ENDBRANCH  28  29
ENDBRANCH  27  28
ENDBRANCH  26  27
ENDBRANCH   1  26
TORSDOF 24
