REMARK SMILES O=C(OCCOCCOCCOC(=O)c1ccc(-n2cc(CSc3nc4ccccc4c(=O)n3-c3ccc(Cl)cc3)nn2)cc1)c1ccc(-c2c3nc(c(-c4c(F)cc(S(=O)(=O)[O-])cc4F)c4ccc([nH]4)c(-c4c(F)cc(S(=O)(=O)[O-])cc4F)c4nc(c(-c5c(F)cc(S(=O)(=O)[O-])cc5F)c5ccc2[nH]5)C=C4)C=C3)cc1
REMARK SMILES IDX 8 1 7 2 6 3 5 4 4 5 3 6 2 7 1 8 46 9 47 10 111 11 48 12
REMARK SMILES IDX 110 13 49 14 50 15 51 16 104 17 52 18 109 19 103 20 105 21
REMARK SMILES IDX 53 22 108 23 102 24 101 25 54 27 88 28 67 29 87 30 68 31
REMARK SMILES IDX 71 32 86 33 106 34 69 35 70 36 85 38 107 39 72 40 55 41
REMARK SMILES IDX 56 42 65 43 57 44 58 45 64 46 66 47 59 48 60 49 61 50 62 51
REMARK SMILES IDX 63 52 89 53 90 54 99 55 91 56 92 57 98 58 100 59 93 60 94 61
REMARK SMILES IDX 95 62 96 63 97 64 73 65 74 66 83 67 75 68 76 69 82 70 84 71
REMARK SMILES IDX 77 72 78 73 79 74 80 75 81 76 9 77 10 78 11 79 12 80 13 81
REMARK SMILES IDX 14 82 15 83 16 84 45 85 17 86 44 87 18 88 19 89 20 90 43 91
REMARK SMILES IDX 21 92 42 93 22 94 23 95 24 96 25 97 34 98 26 99 32 100
REMARK SMILES IDX 27 101 31 102 33 103 28 104 30 105 29 106 35 107 36 108
REMARK SMILES IDX 41 109 37 110 40 111 38 112 39 113
REMARK H PARENT 105 26 71 37
REMARK Flexibility Score: inf
ROOT
ATOM      1  C   UNL     1       2.433  -2.275   0.331  1.00  0.00     0.188 C 
ENDROOT
BRANCH   1   2
ATOM      2  C   UNL     1       3.411  -1.534  -0.611  1.00  0.00     0.188 C 
BRANCH   2   3
ATOM      3  O   UNL     1       4.704  -1.395  -0.054  1.00  0.00    -0.376 OA
BRANCH   3   4
ATOM      4  C   UNL     1       5.206  -0.099   0.198  1.00  0.00     0.202 C 
BRANCH   4   5
ATOM      5  C   UNL     1       4.445   0.803   1.176  1.00  0.00     0.261 C 
BRANCH   5   6
ATOM      6  O   UNL     1       3.033   0.567   1.281  1.00  0.00    -0.460 OA
BRANCH   6   7
ATOM      7  C   UNL     1       1.954   1.141   0.719  1.00  0.00     0.338 C 
ATOM      8  O   UNL     1       0.854   0.920   1.227  1.00  0.00    -0.246 OA
BRANCH   7   9
ATOM      9  C   UNL     1       1.975   1.909  -0.558  1.00  0.00     0.060 A 
ATOM     10  C   UNL     1       3.086   2.525  -1.129  1.00  0.00     0.016 A 
ATOM     11  C   UNL     1       0.724   2.049  -1.199  1.00  0.00     0.016 A 
ATOM     12  C   UNL     1       2.924   3.368  -2.226  1.00  0.00     0.010 A 
ATOM     13  C   UNL     1       0.562   2.876  -2.305  1.00  0.00     0.010 A 
ATOM     14  C   UNL     1       1.656   3.587  -2.775  1.00  0.00    -0.014 A 
BRANCH  14  15
ATOM     15  C   UNL     1       1.543   4.594  -3.824  1.00  0.00     0.031 A 
ATOM     16  C   UNL     1       2.295   4.330  -5.077  1.00  0.00     0.074 A 
ATOM     17  C   UNL     1       0.808   5.718  -3.703  1.00  0.00     0.049 A 
ATOM     18  N   UNL     1       3.351   4.938  -5.509  1.00  0.00    -0.248 NA
ATOM     19  C   UNL     1       1.871   3.195  -5.906  1.00  0.00     0.031 C 
ATOM     20  C   UNL     1      -0.199   6.041  -2.690  1.00  0.00     0.029 A 
ATOM     21  N   UNL     1       0.768   6.797  -4.537  1.00  0.00    -0.354 N 
ATOM     22  C   UNL     1       3.613   4.405  -6.769  1.00  0.00     0.074 A 
ATOM     23  C   UNL     1       2.760   3.250  -6.901  1.00  0.00     0.031 C 
ATOM     24  C   UNL     1      -0.890   7.134  -3.084  1.00  0.00     0.029 A 
ATOM     25  C   UNL     1      -0.286   7.666  -4.295  1.00  0.00     0.049 A 
ATOM     26  H   UNL     1       1.430   6.946  -5.250  1.00  0.00     0.167 HD
ATOM     27  C   UNL     1       4.373   5.065  -7.688  1.00  0.00     0.037 A 
ATOM     28  C   UNL     1      -0.667   8.713  -5.067  1.00  0.00     0.037 A 
ATOM     29  C   UNL     1       5.152   6.115  -7.084  1.00  0.00     0.049 A 
ATOM     30  C   UNL     1       0.501   9.121  -5.888  1.00  0.00     0.074 A 
ATOM     31  C   UNL     1       6.103   6.168  -6.082  1.00  0.00     0.029 A 
ATOM     32  N   UNL     1       4.765   7.416  -7.292  1.00  0.00    -0.354 N 
ATOM     33  N   UNL     1       1.573   9.690  -5.410  1.00  0.00    -0.248 NA
ATOM     34  C   UNL     1       0.649   8.533  -7.211  1.00  0.00     0.031 C 
ATOM     35  C   UNL     1       5.870   7.405  -5.413  1.00  0.00     0.029 A 
ATOM     36  C   UNL     1       4.822   8.047  -6.075  1.00  0.00     0.049 A 
ATOM     37  H   UNL     1       4.497   7.819  -8.149  1.00  0.00     0.167 HD
ATOM     38  C   UNL     1       2.617   9.169  -6.159  1.00  0.00     0.074 A 
ATOM     39  C   UNL     1       1.980   8.551  -7.317  1.00  0.00     0.031 C 
ATOM     40  C   UNL     1       3.874   9.048  -5.639  1.00  0.00     0.037 A 
BRANCH  27  41
ATOM     41  C   UNL     1       4.171   4.975  -9.181  1.00  0.00     0.058 A 
ATOM     42  C   UNL     1       5.141   5.514 -10.052  1.00  0.00     0.135 A 
ATOM     43  C   UNL     1       2.937   4.637  -9.778  1.00  0.00     0.135 A 
ATOM     44  F   UNL     1       6.347   5.883  -9.589  1.00  0.00    -0.206 F 
ATOM     45  C   UNL     1       4.877   5.769 -11.399  1.00  0.00     0.059 A 
ATOM     46  C   UNL     1       2.672   4.830 -11.129  1.00  0.00     0.059 A 
ATOM     47  F   UNL     1       1.895   4.204  -9.056  1.00  0.00    -0.206 F 
ATOM     48  C   UNL     1       3.630   5.440 -11.922  1.00  0.00     0.060 A 
BRANCH  48  49
ATOM     49  S   UNL     1       3.238   5.885 -13.623  1.00  0.00     0.124 S 
ATOM     50  O   UNL     1       3.100   7.333 -13.517  1.00  0.00    -0.237 OA
ATOM     51  O   UNL     1       4.414   5.407 -14.344  1.00  0.00    -0.237 OA
ATOM     52  O   UNL     1       2.006   5.149 -13.887  1.00  0.00    -0.744 OA
ENDBRANCH  48  49
ENDBRANCH  27  41
BRANCH  28  53
ATOM     53  C   UNL     1      -2.048   9.181  -5.351  1.00  0.00     0.058 A 
ATOM     54  C   UNL     1      -2.283  10.415  -5.983  1.00  0.00     0.135 A 
ATOM     55  C   UNL     1      -3.148   8.304  -5.272  1.00  0.00     0.135 A 
ATOM     56  F   UNL     1      -1.287  11.303  -6.122  1.00  0.00    -0.206 F 
ATOM     57  C   UNL     1      -3.519  10.737  -6.552  1.00  0.00     0.059 A 
ATOM     58  C   UNL     1      -4.393   8.608  -5.818  1.00  0.00     0.059 A 
ATOM     59  F   UNL     1      -3.022   7.077  -4.744  1.00  0.00    -0.206 F 
ATOM     60  C   UNL     1      -4.563   9.815  -6.484  1.00  0.00     0.060 A 
BRANCH  60  61
ATOM     61  S   UNL     1      -6.097  10.140  -7.383  1.00  0.00     0.124 S 
ATOM     62  O   UNL     1      -6.684  11.220  -6.597  1.00  0.00    -0.237 OA
ATOM     63  O   UNL     1      -5.607  10.506  -8.707  1.00  0.00    -0.237 OA
ATOM     64  O   UNL     1      -6.805   8.864  -7.316  1.00  0.00    -0.744 OA
ENDBRANCH  60  61
ENDBRANCH  28  53
BRANCH  40  65
ATOM     65  C   UNL     1       4.214   9.814  -4.388  1.00  0.00     0.058 A 
ATOM     66  C   UNL     1       3.566   9.653  -3.151  1.00  0.00     0.135 A 
ATOM     67  C   UNL     1       5.334  10.661  -4.418  1.00  0.00     0.135 A 
ATOM     68  F   UNL     1       2.562   8.775  -3.005  1.00  0.00    -0.206 F 
ATOM     69  C   UNL     1       3.978  10.347  -2.011  1.00  0.00     0.059 A 
ATOM     70  C   UNL     1       5.784  11.335  -3.286  1.00  0.00     0.059 A 
ATOM     71  F   UNL     1       6.038  10.808  -5.553  1.00  0.00    -0.206 F 
ATOM     72  C   UNL     1       5.088  11.188  -2.089  1.00  0.00     0.060 A 
BRANCH  72  73
ATOM     73  S   UNL     1       5.660  12.031  -0.598  1.00  0.00     0.124 S 
ATOM     74  O   UNL     1       4.641  13.059  -0.416  1.00  0.00    -0.237 OA
ATOM     75  O   UNL     1       5.664  10.959   0.393  1.00  0.00    -0.237 OA
ATOM     76  O   UNL     1       6.984  12.524  -0.971  1.00  0.00    -0.744 OA
ENDBRANCH  72  73
ENDBRANCH  40  65
ENDBRANCH  14  15
ENDBRANCH   7   9
ENDBRANCH   6   7
ENDBRANCH   5   6
ENDBRANCH   4   5
ENDBRANCH   3   4
ENDBRANCH   2   3
ENDBRANCH   1   2
BRANCH   1  77
ATOM     77  O   UNL     1       2.920  -3.066   1.414  1.00  0.00    -0.376 OA
BRANCH  77  78
ATOM     78  C   UNL     1       4.155  -3.752   1.295  1.00  0.00     0.202 C 
BRANCH  78  79
ATOM     79  C   UNL     1       4.253  -4.859   0.241  1.00  0.00     0.261 C 
BRANCH  79  80
ATOM     80  O   UNL     1       3.896  -4.452  -1.091  1.00  0.00    -0.460 OA
BRANCH  80  81
ATOM     81  C   UNL     1       2.797  -5.023  -1.617  1.00  0.00     0.338 C 
ATOM     82  O   UNL     1       2.084  -5.896  -1.103  1.00  0.00    -0.246 OA
BRANCH  81  83
ATOM     83  C   UNL     1       2.452  -4.377  -2.891  1.00  0.00     0.060 A 
ATOM     84  C   UNL     1       1.272  -3.621  -2.959  1.00  0.00     0.018 A 
ATOM     85  C   UNL     1       3.246  -4.559  -4.030  1.00  0.00     0.018 A 
ATOM     86  C   UNL     1       0.877  -3.048  -4.164  1.00  0.00     0.029 A 
ATOM     87  C   UNL     1       2.857  -3.978  -5.243  1.00  0.00     0.029 A 
ATOM     88  C   UNL     1       1.669  -3.232  -5.299  1.00  0.00     0.066 A 
BRANCH  88  89
ATOM     89  N   UNL     1       1.142  -2.848  -6.545  1.00  0.00    -0.220 N 
ATOM     90  C   UNL     1       0.086  -3.489  -7.157  1.00  0.00     0.141 A 
ATOM     91  N   UNL     1       1.798  -2.095  -7.440  1.00  0.00    -0.062 NA
ATOM     92  C   UNL     1       0.142  -3.121  -8.479  1.00  0.00     0.093 A 
ATOM     93  N   UNL     1       1.148  -2.180  -8.594  1.00  0.00    -0.134 NA
BRANCH  92  94
ATOM     94  C   UNL     1      -0.368  -3.726  -9.738  1.00  0.00     0.138 C 
BRANCH  94  95
ATOM     95  S   UNL     1      -2.004  -4.336 -10.094  1.00  0.00    -0.081 SA
BRANCH  95  96
ATOM     96  C   UNL     1      -2.976  -4.692  -8.702  1.00  0.00     0.176 A 
ATOM     97  N   UNL     1      -4.207  -4.308  -8.876  1.00  0.00    -0.223 NA
ATOM     98  N   UNL     1      -2.565  -5.327  -7.538  1.00  0.00    -0.255 N 
ATOM     99  C   UNL     1      -5.108  -4.424  -7.817  1.00  0.00     0.079 A 
ATOM    100  C   UNL     1      -3.209  -4.851  -6.384  1.00  0.00     0.266 A 
ATOM    101  C   UNL     1      -6.482  -4.312  -8.025  1.00  0.00     0.029 A 
ATOM    102  C   UNL     1      -4.637  -4.544  -6.521  1.00  0.00     0.066 A 
ATOM    103  O   UNL     1      -2.679  -4.637  -5.295  1.00  0.00    -0.268 OA
ATOM    104  C   UNL     1      -7.357  -4.261  -6.933  1.00  0.00     0.002 A 
ATOM    105  C   UNL     1      -5.488  -4.440  -5.417  1.00  0.00     0.016 A 
ATOM    106  C   UNL     1      -6.857  -4.291  -5.630  1.00  0.00     0.001 A 
BRANCH  98 107
ATOM    107  C   UNL     1      -1.508  -6.318  -7.384  1.00  0.00     0.051 A 
ATOM    108  C   UNL     1      -1.257  -6.894  -6.119  1.00  0.00     0.028 A 
ATOM    109  C   UNL     1      -0.675  -6.757  -8.420  1.00  0.00     0.028 A 
ATOM    110  C   UNL     1      -0.118  -7.663  -5.855  1.00  0.00     0.022 A 
ATOM    111  C   UNL     1       0.493  -7.494  -8.162  1.00  0.00     0.022 A 
ATOM    112  C   UNL     1       0.787  -7.911  -6.871  1.00  0.00     0.041 A 
ATOM    113  Cl  UNL     1       2.253  -8.739  -6.539  1.00  0.00    -0.084 Cl
ENDBRANCH  98 107
ENDBRANCH  95  96
ENDBRANCH  94  95
ENDBRANCH  92  94
ENDBRANCH  88  89
ENDBRANCH  81  83
ENDBRANCH  80  81
ENDBRANCH  79  80
ENDBRANCH  78  79
ENDBRANCH  77  78
ENDBRANCH   1  77
TORSDOF 25
