REMARK SMILES O=C(OCCOCCOCCOC(=O)c1cc(F)c(F)cc1NS(=O)(=O)c1ccc2c(c1)CCC2)c1ccc(-c2c3nc(c(-c4c(F)cc(S(=O)(=O)[O-])cc4F)c4ccc([nH]4)c(-c4c(F)cc(S(=O)(=O)[O-])cc4F)c4nc(c(-c5c(F)cc(S(=O)(=O)[O-])cc5F)c5ccc2[nH]5)C=C4)C=C3)cc1
REMARK SMILES IDX 7 1 6 2 5 3 4 4 3 5 2 6 1 7 36 8 37 9 101 10 38 11 100 12
REMARK SMILES IDX 39 13 40 14 41 15 94 16 42 17 99 18 93 19 95 20 43 21 98 22
REMARK SMILES IDX 92 23 91 24 44 26 78 27 57 28 77 29 58 30 61 31 76 32 96 33
REMARK SMILES IDX 59 34 60 35 75 37 97 38 62 39 45 40 46 41 55 42 47 43 48 44
REMARK SMILES IDX 54 45 56 46 49 47 50 48 51 49 52 50 53 51 79 52 80 53 89 54
REMARK SMILES IDX 81 55 82 56 88 57 90 58 83 59 84 60 85 61 86 62 87 63 63 64
REMARK SMILES IDX 64 65 73 66 65 67 66 68 72 69 74 70 67 71 68 72 69 73 70 74
REMARK SMILES IDX 71 75 8 76 9 77 10 78 11 79 12 80 13 81 14 82 15 83 16 84
REMARK SMILES IDX 22 85 17 86 21 87 18 88 19 89 20 90 23 91 24 93 25 94 26 95
REMARK SMILES IDX 27 96 28 97 32 98 29 99 31 100 30 101 33 102 35 103 34 104
REMARK H PARENT 95 25 61 36 23 92
REMARK Flexibility Score: inf
ROOT
ATOM      1  C   UNL     1       2.697  -1.797   1.302  1.00  0.00     0.188 C 
ENDROOT
BRANCH   1   2
ATOM      2  O   UNL     1       3.970  -1.575   0.685  1.00  0.00    -0.376 OA
BRANCH   2   3
ATOM      3  C   UNL     1       4.878  -0.826   1.495  1.00  0.00     0.202 C 
BRANCH   3   4
ATOM      4  C   UNL     1       4.731   0.696   1.369  1.00  0.00     0.261 C 
BRANCH   4   5
ATOM      5  O   UNL     1       3.363   1.093   1.201  1.00  0.00    -0.460 OA
BRANCH   5   6
ATOM      6  C   UNL     1       2.735   1.458   0.052  1.00  0.00     0.338 C 
ATOM      7  O   UNL     1       1.617   1.963   0.148  1.00  0.00    -0.246 OA
BRANCH   6   8
ATOM      8  C   UNL     1       3.351   1.324  -1.312  1.00  0.00     0.060 A 
ATOM      9  C   UNL     1       4.409   0.475  -1.645  1.00  0.00     0.016 A 
ATOM     10  C   UNL     1       2.790   2.092  -2.346  1.00  0.00     0.016 A 
ATOM     11  C   UNL     1       4.993   0.499  -2.909  1.00  0.00     0.010 A 
ATOM     12  C   UNL     1       3.312   2.053  -3.645  1.00  0.00     0.010 A 
ATOM     13  C   UNL     1       4.460   1.299  -3.917  1.00  0.00    -0.014 A 
BRANCH  13  14
ATOM     14  C   UNL     1       5.198   1.448  -5.192  1.00  0.00     0.031 A 
ATOM     15  C   UNL     1       5.860   2.762  -5.484  1.00  0.00     0.074 A 
ATOM     16  C   UNL     1       5.368   0.406  -6.025  1.00  0.00     0.049 A 
ATOM     17  N   UNL     1       6.519   3.135  -6.548  1.00  0.00    -0.248 NA
ATOM     18  C   UNL     1       5.798   3.781  -4.423  1.00  0.00     0.031 C 
ATOM     19  C   UNL     1       4.900  -0.955  -5.771  1.00  0.00     0.029 A 
ATOM     20  N   UNL     1       5.983   0.320  -7.248  1.00  0.00    -0.354 N 
ATOM     21  C   UNL     1       6.947   4.429  -6.285  1.00  0.00     0.074 A 
ATOM     22  C   UNL     1       6.442   4.793  -4.981  1.00  0.00     0.031 C 
ATOM     23  C   UNL     1       5.215  -1.729  -6.821  1.00  0.00     0.029 A 
ATOM     24  C   UNL     1       5.846  -0.912  -7.842  1.00  0.00     0.049 A 
ATOM     25  H   UNL     1       6.475   1.067  -7.660  1.00  0.00     0.167 HD
ATOM     26  C   UNL     1       7.712   5.232  -7.059  1.00  0.00     0.037 A 
ATOM     27  C   UNL     1       6.152  -1.334  -9.083  1.00  0.00     0.037 A 
ATOM     28  C   UNL     1       8.205   4.854  -8.354  1.00  0.00     0.049 A 
ATOM     29  C   UNL     1       6.873  -0.385  -9.989  1.00  0.00     0.074 A 
ATOM     30  C   UNL     1       8.963   5.595  -9.241  1.00  0.00     0.029 A 
ATOM     31  N   UNL     1       7.977   3.620  -8.951  1.00  0.00    -0.354 N 
ATOM     32  N   UNL     1       7.250   0.847  -9.741  1.00  0.00    -0.248 NA
ATOM     33  C   UNL     1       7.236  -0.876 -11.322  1.00  0.00     0.031 C 
ATOM     34  C   UNL     1       9.160   4.823 -10.392  1.00  0.00     0.029 A 
ATOM     35  C   UNL     1       8.558   3.587 -10.206  1.00  0.00     0.049 A 
ATOM     36  H   UNL     1       7.476   2.879  -8.541  1.00  0.00     0.167 HD
ATOM     37  C   UNL     1       7.923   1.272 -10.876  1.00  0.00     0.074 A 
ATOM     38  C   UNL     1       7.898   0.164 -11.813  1.00  0.00     0.031 C 
ATOM     39  C   UNL     1       8.516   2.467 -11.115  1.00  0.00     0.037 A 
BRANCH  26  40
ATOM     40  C   UNL     1       7.999   6.604  -6.522  1.00  0.00     0.058 A 
ATOM     41  C   UNL     1       8.887   6.811  -5.453  1.00  0.00     0.135 A 
ATOM     42  C   UNL     1       7.318   7.719  -7.035  1.00  0.00     0.135 A 
ATOM     43  F   UNL     1       9.539   5.772  -4.906  1.00  0.00    -0.206 F 
ATOM     44  C   UNL     1       9.055   8.068  -4.882  1.00  0.00     0.059 A 
ATOM     45  C   UNL     1       7.488   8.989  -6.493  1.00  0.00     0.059 A 
ATOM     46  F   UNL     1       6.450   7.573  -8.048  1.00  0.00    -0.206 F 
ATOM     47  C   UNL     1       8.339   9.148  -5.401  1.00  0.00     0.060 A 
BRANCH  47  48
ATOM     48  S   UNL     1       8.516  10.763  -4.613  1.00  0.00     0.124 S 
ATOM     49  O   UNL     1       7.715  10.586  -3.406  1.00  0.00    -0.237 OA
ATOM     50  O   UNL     1       9.958  10.857  -4.408  1.00  0.00    -0.237 OA
ATOM     51  O   UNL     1       7.966  11.684  -5.603  1.00  0.00    -0.744 OA
ENDBRANCH  47  48
ENDBRANCH  26  40
BRANCH  27  52
ATOM     52  C   UNL     1       5.736  -2.691  -9.532  1.00  0.00     0.058 A 
ATOM     53  C   UNL     1       6.656  -3.736  -9.684  1.00  0.00     0.135 A 
ATOM     54  C   UNL     1       4.381  -2.976  -9.777  1.00  0.00     0.135 A 
ATOM     55  F   UNL     1       7.961  -3.515  -9.469  1.00  0.00    -0.206 F 
ATOM     56  C   UNL     1       6.252  -5.014 -10.064  1.00  0.00     0.059 A 
ATOM     57  C   UNL     1       3.950  -4.250 -10.137  1.00  0.00     0.059 A 
ATOM     58  F   UNL     1       3.458  -2.010  -9.646  1.00  0.00    -0.206 F 
ATOM     59  C   UNL     1       4.894  -5.263 -10.282  1.00  0.00     0.060 A 
BRANCH  59  60
ATOM     60  S   UNL     1       4.375  -6.940 -10.713  1.00  0.00     0.124 S 
ATOM     61  O   UNL     1       4.828  -7.042 -12.096  1.00  0.00    -0.237 OA
ATOM     62  O   UNL     1       5.107  -7.749  -9.743  1.00  0.00    -0.237 OA
ATOM     63  O   UNL     1       2.928  -6.907 -10.525  1.00  0.00    -0.744 OA
ENDBRANCH  59  60
ENDBRANCH  27  52
BRANCH  39  64
ATOM     64  C   UNL     1       9.209   2.626 -12.433  1.00  0.00     0.058 A 
ATOM     65  C   UNL     1       8.488   2.846 -13.615  1.00  0.00     0.135 A 
ATOM     66  C   UNL     1      10.611   2.621 -12.499  1.00  0.00     0.135 A 
ATOM     67  F   UNL     1       7.146   2.845 -13.599  1.00  0.00    -0.206 F 
ATOM     68  C   UNL     1       9.136   3.052 -14.826  1.00  0.00     0.059 A 
ATOM     69  C   UNL     1      11.280   2.847 -13.695  1.00  0.00     0.059 A 
ATOM     70  F   UNL     1      11.340   2.417 -11.390  1.00  0.00    -0.206 F 
ATOM     71  C   UNL     1      10.533   3.055 -14.855  1.00  0.00     0.060 A 
BRANCH  71  72
ATOM     72  S   UNL     1      11.366   3.384 -16.421  1.00  0.00     0.124 S 
ATOM     73  O   UNL     1      11.223   2.102 -17.103  1.00  0.00    -0.237 OA
ATOM     74  O   UNL     1      10.581   4.486 -16.969  1.00  0.00    -0.237 OA
ATOM     75  O   UNL     1      12.724   3.733 -16.014  1.00  0.00    -0.744 OA
ENDBRANCH  71  72
ENDBRANCH  39  64
ENDBRANCH  13  14
ENDBRANCH   6   8
ENDBRANCH   5   6
ENDBRANCH   4   5
ENDBRANCH   3   4
ENDBRANCH   2   3
ENDBRANCH   1   2
BRANCH   1  76
ATOM     76  C   UNL     1       2.104  -3.139   0.869  1.00  0.00     0.188 C 
BRANCH  76  77
ATOM     77  O   UNL     1       2.806  -4.291   1.340  1.00  0.00    -0.376 OA
BRANCH  77  78
ATOM     78  C   UNL     1       4.100  -4.525   0.789  1.00  0.00     0.202 C 
BRANCH  78  79
ATOM     79  C   UNL     1       4.143  -5.104  -0.630  1.00  0.00     0.261 C 
BRANCH  79  80
ATOM     80  O   UNL     1       3.663  -4.244  -1.677  1.00  0.00    -0.460 OA
BRANCH  80  81
ATOM     81  C   UNL     1       2.457  -4.574  -2.204  1.00  0.00     0.340 C 
ATOM     82  O   UNL     1       1.617  -5.332  -1.753  1.00  0.00    -0.246 OA
BRANCH  81  83
ATOM     83  C   UNL     1       2.315  -3.915  -3.506  1.00  0.00     0.087 A 
ATOM     84  C   UNL     1       2.990  -4.520  -4.574  1.00  0.00     0.060 A 
ATOM     85  C   UNL     1       1.481  -2.796  -3.700  1.00  0.00     0.066 A 
ATOM     86  C   UNL     1       2.830  -4.003  -5.847  1.00  0.00     0.159 A 
ATOM     87  C   UNL     1       1.504  -2.192  -4.959  1.00  0.00     0.070 A 
ATOM     88  F   UNL     1       3.411  -4.617  -6.883  1.00  0.00    -0.204 F 
ATOM     89  C   UNL     1       2.114  -2.832  -6.035  1.00  0.00     0.160 A 
ATOM     90  F   UNL     1       1.992  -2.301  -7.258  1.00  0.00    -0.204 F 
BRANCH  85  91
ATOM     91  N   UNL     1       0.485  -2.472  -2.720  1.00  0.00    -0.279 N 
ATOM     92  H   UNL     1       0.292  -3.169  -2.052  1.00  0.00     0.180 HD
BRANCH  91  93
ATOM     93  S   UNL     1      -0.388  -1.049  -2.577  1.00  0.00     0.261 S 
ATOM     94  O   UNL     1      -1.423  -1.312  -1.598  1.00  0.00    -0.201 OA
ATOM     95  O   UNL     1       0.571   0.013  -2.392  1.00  0.00    -0.201 OA
BRANCH  93  96
ATOM     96  C   UNL     1      -1.208  -0.772  -4.136  1.00  0.00     0.088 A 
ATOM     97  C   UNL     1      -1.176   0.535  -4.671  1.00  0.00     0.022 A 
ATOM     98  C   UNL     1      -1.626  -1.862  -4.909  1.00  0.00     0.026 A 
ATOM     99  C   UNL     1      -1.489   0.757  -6.013  1.00  0.00     0.005 A 
ATOM    100  C   UNL     1      -1.866  -1.631  -6.255  1.00  0.00    -0.043 A 
ATOM    101  C   UNL     1      -1.787  -0.342  -6.800  1.00  0.00    -0.045 A 
ATOM    102  C   UNL     1      -2.142  -2.640  -7.329  1.00  0.00     0.036 C 
ATOM    103  C   UNL     1      -2.018  -0.374  -8.281  1.00  0.00     0.036 C 
ATOM    104  C   UNL     1      -1.737  -1.852  -8.584  1.00  0.00     0.010 C 
ENDBRANCH  93  96
ENDBRANCH  91  93
ENDBRANCH  85  91
ENDBRANCH  81  83
ENDBRANCH  80  81
ENDBRANCH  79  80
ENDBRANCH  78  79
ENDBRANCH  77  78
ENDBRANCH  76  77
ENDBRANCH   1  76
TORSDOF 23
