REMARK SMILES O=C(OCCOCCOCCOC(=O)c1sccc1NS(=O)(=O)N1CCCC1)c1ccc(-c2c3nc(c(-c4c(F)cc(S(=O)(=O)[O-])cc4F)c4ccc([nH]4)c(-c4c(F)cc(S(=O)(=O)[O-])cc4F)c4nc(c(-c5c(F)cc(S(=O)(=O)[O-])cc5F)c5ccc2[nH]5)C=C4)C=C3)cc1
REMARK SMILES IDX 7 1 6 2 5 3 4 4 3 5 2 6 1 7 29 8 30 9 94 10 31 11 93 12
REMARK SMILES IDX 32 13 33 14 34 15 87 16 35 17 92 18 86 19 88 20 36 21 91 22
REMARK SMILES IDX 85 23 84 24 37 26 71 27 50 28 70 29 51 30 54 31 69 32 89 33
REMARK SMILES IDX 52 34 53 35 68 37 90 38 55 39 38 40 39 41 48 42 40 43 41 44
REMARK SMILES IDX 47 45 49 46 42 47 43 48 44 49 45 50 46 51 72 52 73 53 82 54
REMARK SMILES IDX 74 55 75 56 81 57 83 58 76 59 77 60 78 61 79 62 80 63 56 64
REMARK SMILES IDX 57 65 66 66 58 67 59 68 65 69 67 70 60 71 61 72 62 73 63 74
REMARK SMILES IDX 64 75 8 76 9 77 10 78 11 79 12 80 13 81 14 82 15 83 16 84
REMARK SMILES IDX 19 85 17 86 18 87 20 88 21 90 22 91 23 92 24 93 25 94 28 95
REMARK SMILES IDX 26 96 27 97
REMARK H PARENT 88 25 54 36 20 89
REMARK Flexibility Score: inf
ROOT
ATOM      1  C   UNL     1       2.670  -1.787   1.274  1.00  0.00     0.188 C 
ENDROOT
BRANCH   1   2
ATOM      2  O   UNL     1       3.894  -1.603   0.553  1.00  0.00    -0.376 OA
BRANCH   2   3
ATOM      3  C   UNL     1       4.846  -0.790   1.248  1.00  0.00     0.202 C 
BRANCH   3   4
ATOM      4  C   UNL     1       4.524   0.714   1.304  1.00  0.00     0.261 C 
BRANCH   4   5
ATOM      5  O   UNL     1       3.129   1.009   1.121  1.00  0.00    -0.460 OA
BRANCH   5   6
ATOM      6  C   UNL     1       2.479   1.341  -0.024  1.00  0.00     0.338 C 
ATOM      7  O   UNL     1       1.292   1.654   0.046  1.00  0.00    -0.246 OA
BRANCH   6   8
ATOM      8  C   UNL     1       3.142   1.384  -1.364  1.00  0.00     0.060 A 
ATOM      9  C   UNL     1       4.257   0.631  -1.727  1.00  0.00     0.016 A 
ATOM     10  C   UNL     1       2.569   2.211  -2.343  1.00  0.00     0.016 A 
ATOM     11  C   UNL     1       4.887   0.803  -2.958  1.00  0.00     0.010 A 
ATOM     12  C   UNL     1       3.146   2.323  -3.616  1.00  0.00     0.010 A 
ATOM     13  C   UNL     1       4.345   1.655  -3.915  1.00  0.00    -0.014 A 
BRANCH  13  14
ATOM     14  C   UNL     1       5.109   1.974  -5.146  1.00  0.00     0.031 A 
ATOM     15  C   UNL     1       5.668   3.363  -5.293  1.00  0.00     0.074 A 
ATOM     16  C   UNL     1       5.449   1.040  -6.058  1.00  0.00     0.049 A 
ATOM     17  N   UNL     1       6.290   3.899  -6.308  1.00  0.00    -0.248 NA
ATOM     18  C   UNL     1       5.571   4.241  -4.113  1.00  0.00     0.031 C 
ATOM     19  C   UNL     1       5.277  -0.406  -5.908  1.00  0.00     0.029 A 
ATOM     20  N   UNL     1       6.051   1.169  -7.291  1.00  0.00    -0.354 N 
ATOM     21  C   UNL     1       6.692   5.156  -5.879  1.00  0.00     0.074 A 
ATOM     22  C   UNL     1       6.185   5.335  -4.537  1.00  0.00     0.031 C 
ATOM     23  C   UNL     1       5.752  -1.005  -7.011  1.00  0.00     0.029 A 
ATOM     24  C   UNL     1       6.074  -0.009  -8.005  1.00  0.00     0.049 A 
ATOM     25  H   UNL     1       6.425   2.015  -7.627  1.00  0.00     0.167 HD
ATOM     26  C   UNL     1       7.451   6.061  -6.537  1.00  0.00     0.037 A 
ATOM     27  C   UNL     1       6.239  -0.234  -9.325  1.00  0.00     0.037 A 
ATOM     28  C   UNL     1       7.940   5.868  -7.875  1.00  0.00     0.049 A 
ATOM     29  C   UNL     1       6.717   0.903 -10.159  1.00  0.00     0.074 A 
ATOM     30  C   UNL     1       8.715   6.714  -8.646  1.00  0.00     0.029 A 
ATOM     31  N   UNL     1       7.676   4.748  -8.651  1.00  0.00    -0.354 N 
ATOM     32  N   UNL     1       6.999   2.123  -9.781  1.00  0.00    -0.248 NA
ATOM     33  C   UNL     1       6.980   0.614 -11.573  1.00  0.00     0.031 C 
ATOM     34  C   UNL     1       8.861   6.136  -9.912  1.00  0.00     0.029 A 
ATOM     35  C   UNL     1       8.223   4.907  -9.911  1.00  0.00     0.049 A 
ATOM     36  H   UNL     1       7.173   3.957  -8.349  1.00  0.00     0.167 HD
ATOM     37  C   UNL     1       7.551   2.729 -10.893  1.00  0.00     0.074 A 
ATOM     38  C   UNL     1       7.498   1.764 -11.975  1.00  0.00     0.031 C 
ATOM     39  C   UNL     1       8.119   3.953 -10.983  1.00  0.00     0.037 A 
BRANCH  26  40
ATOM     40  C   UNL     1       7.737   7.351  -5.829  1.00  0.00     0.058 A 
ATOM     41  C   UNL     1       8.616   7.424  -4.735  1.00  0.00     0.135 A 
ATOM     42  C   UNL     1       7.082   8.527  -6.225  1.00  0.00     0.135 A 
ATOM     43  F   UNL     1       9.248   6.322  -4.299  1.00  0.00    -0.206 F 
ATOM     44  C   UNL     1       8.802   8.611  -4.033  1.00  0.00     0.059 A 
ATOM     45  C   UNL     1       7.271   9.728  -5.553  1.00  0.00     0.059 A 
ATOM     46  F   UNL     1       6.226   8.507  -7.259  1.00  0.00    -0.206 F 
ATOM     47  C   UNL     1       8.115   9.755  -4.443  1.00  0.00     0.060 A 
BRANCH  47  48
ATOM     48  S   UNL     1       8.318  11.274  -3.492  1.00  0.00     0.124 S 
ATOM     49  O   UNL     1       7.548  10.969  -2.291  1.00  0.00    -0.237 OA
ATOM     50  O   UNL     1       9.765  11.342  -3.316  1.00  0.00    -0.237 OA
ATOM     51  O   UNL     1       7.747  12.298  -4.361  1.00  0.00    -0.744 OA
ENDBRANCH  47  48
ENDBRANCH  26  40
BRANCH  27  52
ATOM     52  C   UNL     1       5.816  -1.498  -9.991  1.00  0.00     0.058 A 
ATOM     53  C   UNL     1       6.542  -2.692  -9.941  1.00  0.00     0.135 A 
ATOM     54  C   UNL     1       4.623  -1.497 -10.739  1.00  0.00     0.135 A 
ATOM     55  F   UNL     1       7.706  -2.738  -9.278  1.00  0.00    -0.206 F 
ATOM     56  C   UNL     1       6.065  -3.861 -10.542  1.00  0.00     0.059 A 
ATOM     57  C   UNL     1       4.123  -2.646 -11.342  1.00  0.00     0.059 A 
ATOM     58  F   UNL     1       3.892  -0.374 -10.829  1.00  0.00    -0.206 F 
ATOM     59  C   UNL     1       4.839  -3.835 -11.214  1.00  0.00     0.060 A 
BRANCH  59  60
ATOM     60  S   UNL     1       4.025  -5.376 -11.709  1.00  0.00     0.124 S 
ATOM     61  O   UNL     1       4.267  -5.393 -13.146  1.00  0.00    -0.237 OA
ATOM     62  O   UNL     1       4.732  -6.386 -10.931  1.00  0.00    -0.237 OA
ATOM     63  O   UNL     1       2.644  -5.134 -11.295  1.00  0.00    -0.744 OA
ENDBRANCH  59  60
ENDBRANCH  27  52
BRANCH  39  64
ATOM     64  C   UNL     1       8.773   4.273 -12.285  1.00  0.00     0.058 A 
ATOM     65  C   UNL     1       8.025   4.593 -13.425  1.00  0.00     0.135 A 
ATOM     66  C   UNL     1      10.172   4.243 -12.384  1.00  0.00     0.135 A 
ATOM     67  F   UNL     1       6.684   4.589 -13.380  1.00  0.00    -0.206 F 
ATOM     68  C   UNL     1       8.649   4.869 -14.633  1.00  0.00     0.059 A 
ATOM     69  C   UNL     1      10.816   4.544 -13.574  1.00  0.00     0.059 A 
ATOM     70  F   UNL     1      10.921   3.920 -11.317  1.00  0.00    -0.206 F 
ATOM     71  C   UNL     1      10.045   4.850 -14.694  1.00  0.00     0.060 A 
BRANCH  71  72
ATOM     72  S   UNL     1      10.845   5.272 -16.252  1.00  0.00     0.124 S 
ATOM     73  O   UNL     1      10.628   4.058 -17.031  1.00  0.00    -0.237 OA
ATOM     74  O   UNL     1      10.089   6.446 -16.680  1.00  0.00    -0.237 OA
ATOM     75  O   UNL     1      12.227   5.532 -15.862  1.00  0.00    -0.744 OA
ENDBRANCH  71  72
ENDBRANCH  39  64
ENDBRANCH  13  14
ENDBRANCH   6   8
ENDBRANCH   5   6
ENDBRANCH   4   5
ENDBRANCH   3   4
ENDBRANCH   2   3
ENDBRANCH   1   2
BRANCH   1  76
ATOM     76  C   UNL     1       2.149  -3.224   1.216  1.00  0.00     0.188 C 
BRANCH  76  77
ATOM     77  O   UNL     1       2.934  -4.224   1.861  1.00  0.00    -0.376 OA
BRANCH  77  78
ATOM     78  C   UNL     1       4.274  -4.391   1.408  1.00  0.00     0.202 C 
BRANCH  78  79
ATOM     79  C   UNL     1       4.500  -4.968   0.001  1.00  0.00     0.261 C 
BRANCH  79  80
ATOM     80  O   UNL     1       3.874  -4.224  -1.055  1.00  0.00    -0.459 OA
BRANCH  80  81
ATOM     81  C   UNL     1       2.854  -4.861  -1.708  1.00  0.00     0.350 C 
ATOM     82  O   UNL     1       2.475  -6.001  -1.477  1.00  0.00    -0.245 OA
BRANCH  81  83
ATOM     83  C   UNL     1       2.287  -3.974  -2.687  1.00  0.00     0.136 A 
ATOM     84  S   UNL     1       0.906  -3.051  -2.252  1.00  0.00    -0.135 S 
ATOM     85  C   UNL     1       2.648  -3.793  -4.005  1.00  0.00     0.075 A 
ATOM     86  C   UNL     1       0.867  -2.275  -3.759  1.00  0.00     0.068 A 
ATOM     87  C   UNL     1       1.848  -2.763  -4.585  1.00  0.00     0.039 A 
BRANCH  85  88
ATOM     88  N   UNL     1       3.704  -4.446  -4.683  1.00  0.00    -0.269 N 
ATOM     89  H   UNL     1       4.622  -4.362  -4.338  1.00  0.00     0.181 HD
BRANCH  88  90
ATOM     90  S   UNL     1       3.422  -5.376  -6.086  1.00  0.00     0.301 S 
ATOM     91  O   UNL     1       4.735  -5.715  -6.558  1.00  0.00    -0.189 OA
ATOM     92  O   UNL     1       2.452  -6.388  -5.711  1.00  0.00    -0.189 OA
BRANCH  90  93
ATOM     93  N   UNL     1       2.724  -4.254  -7.057  1.00  0.00    -0.185 NA
ATOM     94  C   UNL     1       3.523  -3.353  -7.855  1.00  0.00     0.104 C 
ATOM     95  C   UNL     1       1.422  -4.376  -7.694  1.00  0.00     0.104 C 
ATOM     96  C   UNL     1       2.537  -2.241  -8.148  1.00  0.00     0.018 C 
ATOM     97  C   UNL     1       1.209  -2.978  -8.306  1.00  0.00     0.018 C 
ENDBRANCH  90  93
ENDBRANCH  88  90
ENDBRANCH  85  88
ENDBRANCH  81  83
ENDBRANCH  80  81
ENDBRANCH  79  80
ENDBRANCH  78  79
ENDBRANCH  77  78
ENDBRANCH  76  77
ENDBRANCH   1  76
TORSDOF 23
