REMARK SMILES COc1cc(NC(=O)/C=C/c2cccc([N+](=O)[O-])c2)c(C(=O)OCCOCCOCCOC(=O)c2ccc(-c3c4nc(c(-c5c(F)cc(S(=O)(=O)[O-])cc5F)c5ccc([nH]5)c(-c5c(F)cc(S(=O)(=O)[O-])cc5F)c5nc(c(-c6c(F)cc(S(=O)(=O)[O-])cc6F)c6ccc3[nH]6)C=C5)C=C4)cc2)cc1OC
REMARK SMILES IDX 27 1 26 2 25 3 24 4 23 5 21 6 22 7 20 8 3 9 4 10 102 11 5 12
REMARK SMILES IDX 101 13 2 14 1 15 103 16 104 17 6 18 7 19 8 21 9 22 10 23
REMARK SMILES IDX 11 24 12 25 19 26 13 27 15 28 14 29 16 30 17 31 18 32 28 33
REMARK SMILES IDX 29 34 30 35 31 36 32 37 33 38 34 39 35 40 36 41 100 42 37 43
REMARK SMILES IDX 99 44 38 45 39 46 40 47 93 48 41 49 98 50 92 51 94 52 42 53
REMARK SMILES IDX 97 54 91 55 90 56 43 58 77 59 56 60 76 61 57 62 60 63 75 64
REMARK SMILES IDX 95 65 58 66 59 67 74 69 96 70 61 71 44 72 45 73 54 74 46 75
REMARK SMILES IDX 47 76 53 77 55 78 48 79 49 80 50 81 51 82 52 83 78 84 79 85
REMARK SMILES IDX 88 86 80 87 81 88 87 89 89 90 82 91 83 92 84 93 85 94 86 95
REMARK SMILES IDX 62 96 63 97 72 98 64 99 65 100 71 101 73 102 66 103 67 104
REMARK SMILES IDX 68 105 69 106 70 107
REMARK H PARENT 6 20 94 57 60 68
REMARK Flexibility Score: inf
ROOT
ATOM      1  C   UNL     1       2.114   6.567  -4.840  1.00  0.00     0.188 C 
ENDROOT
BRANCH   1   2
ATOM      2  O   UNL     1       2.995   7.678  -4.851  1.00  0.00    -0.376 OA
BRANCH   2   3
ATOM      3  C   UNL     1       3.062   8.427  -3.651  1.00  0.00     0.202 C 
BRANCH   3   4
ATOM      4  C   UNL     1       3.641   7.732  -2.406  1.00  0.00     0.261 C 
BRANCH   4   5
ATOM      5  O   UNL     1       3.267   6.362  -2.184  1.00  0.00    -0.460 OA
BRANCH   5   6
ATOM      6  C   UNL     1       2.054   6.115  -1.641  1.00  0.00     0.340 C 
ATOM      7  O   UNL     1       1.207   6.953  -1.385  1.00  0.00    -0.246 OA
BRANCH   6   8
ATOM      8  C   UNL     1       1.837   4.644  -1.501  1.00  0.00     0.087 A 
ATOM      9  C   UNL     1       1.501   1.897  -1.069  1.00  0.00     0.162 A 
ATOM     10  C   UNL     1       0.408   2.742  -1.294  1.00  0.00     0.077 A 
ATOM     11  C   UNL     1       2.790   2.417  -1.112  1.00  0.00     0.161 A 
ATOM     12  C   UNL     1       0.553   4.081  -1.643  1.00  0.00     0.060 A 
ATOM     13  C   UNL     1       2.944   3.800  -1.272  1.00  0.00     0.068 A 
BRANCH   9  14
ATOM     14  O   UNL     1       1.264   0.549  -1.043  1.00  0.00    -0.493 OA
ATOM     15  C   UNL     1       0.614   0.097   0.142  1.00  0.00     0.278 C 
ENDBRANCH   9  14
BRANCH  11  16
ATOM     16  O   UNL     1       3.973   1.734  -1.039  1.00  0.00    -0.493 OA
ATOM     17  C   UNL     1       3.938   0.406  -0.538  1.00  0.00     0.278 C 
ENDBRANCH  11  16
BRANCH  12  18
ATOM     18  N   UNL     1      -0.472   4.818  -2.292  1.00  0.00    -0.322 N 
ATOM     19  C   UNL     1      -1.682   4.504  -2.856  1.00  0.00     0.248 C 
ATOM     20  H   UNL     1      -0.266   5.779  -2.353  1.00  0.00     0.170 HD
ATOM     21  O   UNL     1      -2.205   5.322  -3.610  1.00  0.00    -0.270 OA
BRANCH  19  22
ATOM     22  C   UNL     1      -2.436   3.284  -2.494  1.00  0.00     0.072 C 
ATOM     23  C   UNL     1      -2.159   2.052  -2.951  1.00  0.00     0.014 C 
BRANCH  23  24
ATOM     24  C   UNL     1      -2.749   0.843  -2.343  1.00  0.00    -0.019 A 
ATOM     25  C   UNL     1      -2.740   0.678  -0.943  1.00  0.00     0.008 A 
ATOM     26  C   UNL     1      -3.180  -0.221  -3.140  1.00  0.00     0.093 A 
ATOM     27  C   UNL     1      -3.096  -0.532  -0.346  1.00  0.00     0.008 A 
ATOM     28  C   UNL     1      -3.571  -1.427  -2.533  1.00  0.00     0.270 A 
ATOM     29  C   UNL     1      -3.506  -1.595  -1.142  1.00  0.00     0.085 A 
BRANCH  28  30
ATOM     30  N   UNL     1      -4.034  -2.547  -3.361  1.00  0.00     0.062 N 
ATOM     31  O   UNL     1      -4.192  -3.644  -2.804  1.00  0.00    -0.258 OA
ATOM     32  O   UNL     1      -4.225  -2.335  -4.564  1.00  0.00    -0.258 OA
ENDBRANCH  28  30
ENDBRANCH  23  24
ENDBRANCH  19  22
ENDBRANCH  12  18
ENDBRANCH   6   8
ENDBRANCH   5   6
ENDBRANCH   4   5
ENDBRANCH   3   4
ENDBRANCH   2   3
ENDBRANCH   1   2
BRANCH   1  33
ATOM     33  C   UNL     1       2.852   5.216  -4.921  1.00  0.00     0.188 C 
BRANCH  33  34
ATOM     34  O   UNL     1       4.268   5.180  -5.018  1.00  0.00    -0.376 OA
BRANCH  34  35
ATOM     35  C   UNL     1       4.923   6.071  -5.909  1.00  0.00     0.202 C 
BRANCH  35  36
ATOM     36  C   UNL     1       4.429   6.276  -7.358  1.00  0.00     0.261 C 
BRANCH  36  37
ATOM     37  O   UNL     1       3.010   6.255  -7.586  1.00  0.00    -0.460 OA
BRANCH  37  38
ATOM     38  C   UNL     1       2.510   5.114  -8.118  1.00  0.00     0.338 C 
ATOM     39  O   UNL     1       3.139   4.109  -8.424  1.00  0.00    -0.246 OA
BRANCH  38  40
ATOM     40  C   UNL     1       1.032   5.173  -8.120  1.00  0.00     0.060 A 
ATOM     41  C   UNL     1       0.313   4.274  -7.317  1.00  0.00     0.016 A 
ATOM     42  C   UNL     1       0.353   6.077  -8.939  1.00  0.00     0.016 A 
ATOM     43  C   UNL     1      -1.082   4.270  -7.338  1.00  0.00     0.010 A 
ATOM     44  C   UNL     1      -1.047   6.046  -8.985  1.00  0.00     0.010 A 
ATOM     45  C   UNL     1      -1.771   5.126  -8.205  1.00  0.00    -0.014 A 
BRANCH  45  46
ATOM     46  C   UNL     1      -3.230   4.938  -8.421  1.00  0.00     0.031 A 
ATOM     47  C   UNL     1      -3.684   4.159  -9.626  1.00  0.00     0.074 A 
ATOM     48  C   UNL     1      -4.136   5.417  -7.549  1.00  0.00     0.049 A 
ATOM     49  N   UNL     1      -4.897   3.927 -10.055  1.00  0.00    -0.248 NA
ATOM     50  C   UNL     1      -2.627   3.566 -10.463  1.00  0.00     0.031 C 
ATOM     51  C   UNL     1      -3.821   6.145  -6.323  1.00  0.00     0.029 A 
ATOM     52  N   UNL     1      -5.510   5.364  -7.562  1.00  0.00    -0.354 N 
ATOM     53  C   UNL     1      -4.752   3.169 -11.211  1.00  0.00     0.074 A 
ATOM     54  C   UNL     1      -3.332   3.003 -11.434  1.00  0.00     0.031 C 
ATOM     55  C   UNL     1      -4.967   6.473  -5.700  1.00  0.00     0.029 A 
ATOM     56  C   UNL     1      -6.099   6.018  -6.504  1.00  0.00     0.049 A 
ATOM     57  H   UNL     1      -6.024   4.901  -8.263  1.00  0.00     0.167 HD
ATOM     58  C   UNL     1      -5.716   2.654 -12.010  1.00  0.00     0.037 A 
ATOM     59  C   UNL     1      -7.401   6.245  -6.231  1.00  0.00     0.037 A 
ATOM     60  C   UNL     1      -7.128   2.824 -11.786  1.00  0.00     0.049 A 
ATOM     61  C   UNL     1      -8.453   5.719  -7.180  1.00  0.00     0.074 A 
ATOM     62  C   UNL     1      -8.182   2.356 -12.552  1.00  0.00     0.029 A 
ATOM     63  N   UNL     1      -7.686   3.512 -10.718  1.00  0.00    -0.354 N 
ATOM     64  N   UNL     1      -8.301   5.008  -8.273  1.00  0.00    -0.248 NA
ATOM     65  C   UNL     1      -9.855   6.032  -6.863  1.00  0.00     0.031 C 
ATOM     66  C   UNL     1      -9.374   2.800 -11.975  1.00  0.00     0.029 A 
ATOM     67  C   UNL     1      -9.068   3.493 -10.815  1.00  0.00     0.049 A 
ATOM     68  H   UNL     1      -7.175   3.948  -9.999  1.00  0.00     0.167 HD
ATOM     69  C   UNL     1      -9.586   4.765  -8.752  1.00  0.00     0.074 A 
ATOM     70  C   UNL     1     -10.503   5.386  -7.822  1.00  0.00     0.031 C 
ATOM     71  C   UNL     1      -9.972   4.093  -9.866  1.00  0.00     0.037 A 
BRANCH  58  72
ATOM     72  C   UNL     1      -5.282   1.865 -13.214  1.00  0.00     0.058 A 
ATOM     73  C   UNL     1      -4.731   0.580 -13.093  1.00  0.00     0.135 A 
ATOM     74  C   UNL     1      -5.487   2.370 -14.509  1.00  0.00     0.135 A 
ATOM     75  F   UNL     1      -4.492   0.058 -11.879  1.00  0.00    -0.206 F 
ATOM     76  C   UNL     1      -4.395  -0.175 -14.211  1.00  0.00     0.059 A 
ATOM     77  C   UNL     1      -5.183   1.622 -15.642  1.00  0.00     0.059 A 
ATOM     78  F   UNL     1      -6.003   3.597 -14.682  1.00  0.00    -0.206 F 
ATOM     79  C   UNL     1      -4.633   0.351 -15.483  1.00  0.00     0.060 A 
BRANCH  79  80
ATOM     80  S   UNL     1      -4.234  -0.663 -16.922  1.00  0.00     0.124 S 
ATOM     81  O   UNL     1      -2.775  -0.674 -16.877  1.00  0.00    -0.237 OA
ATOM     82  O   UNL     1      -4.888  -1.928 -16.601  1.00  0.00    -0.237 OA
ATOM     83  O   UNL     1      -4.819   0.078 -18.035  1.00  0.00    -0.744 OA
ENDBRANCH  79  80
ENDBRANCH  58  72
BRANCH  59  84
ATOM     84  C   UNL     1      -7.802   7.040  -5.034  1.00  0.00     0.058 A 
ATOM     85  C   UNL     1      -8.564   6.471  -4.001  1.00  0.00     0.135 A 
ATOM     86  C   UNL     1      -7.489   8.405  -4.930  1.00  0.00     0.135 A 
ATOM     87  F   UNL     1      -8.904   5.174  -4.053  1.00  0.00    -0.206 F 
ATOM     88  C   UNL     1      -9.037   7.233  -2.935  1.00  0.00     0.059 A 
ATOM     89  C   UNL     1      -7.917   9.178  -3.855  1.00  0.00     0.059 A 
ATOM     90  F   UNL     1      -6.759   9.003  -5.885  1.00  0.00    -0.206 F 
ATOM     91  C   UNL     1      -8.711   8.588  -2.874  1.00  0.00     0.060 A 
BRANCH  91  92
ATOM     92  S   UNL     1      -9.333   9.570  -1.492  1.00  0.00     0.124 S 
ATOM     93  O   UNL     1     -10.747   9.690  -1.830  1.00  0.00    -0.237 OA
ATOM     94  O   UNL     1      -9.021   8.722  -0.346  1.00  0.00    -0.237 OA
ATOM     95  O   UNL     1      -8.557  10.804  -1.579  1.00  0.00    -0.744 OA
ENDBRANCH  91  92
ENDBRANCH  59  84
BRANCH  71  96
ATOM     96  C   UNL     1     -11.449   3.943 -10.118  1.00  0.00     0.058 A 
ATOM     97  C   UNL     1     -12.252   5.027 -10.506  1.00  0.00     0.135 A 
ATOM     98  C   UNL     1     -12.059   2.680 -10.024  1.00  0.00     0.135 A 
ATOM     99  F   UNL     1     -11.723   6.258 -10.608  1.00  0.00    -0.206 F 
ATOM    100  C   UNL     1     -13.610   4.871 -10.766  1.00  0.00     0.059 A 
ATOM    101  C   UNL     1     -13.408   2.495 -10.312  1.00  0.00     0.059 A 
ATOM    102  F   UNL     1     -11.337   1.606  -9.669  1.00  0.00    -0.206 F 
ATOM    103  C   UNL     1     -14.178   3.599 -10.670  1.00  0.00     0.060 A 
BRANCH 103 104
ATOM    104  S   UNL     1     -15.934   3.406 -11.045  1.00  0.00     0.124 S 
ATOM    105  O   UNL     1     -16.555   4.042  -9.888  1.00  0.00    -0.237 OA
ATOM    106  O   UNL     1     -16.064   4.124 -12.309  1.00  0.00    -0.237 OA
ATOM    107  O   UNL     1     -16.107   1.959 -11.132  1.00  0.00    -0.744 OA
ENDBRANCH 103 104
ENDBRANCH  71  96
ENDBRANCH  45  46
ENDBRANCH  38  40
ENDBRANCH  37  38
ENDBRANCH  36  37
ENDBRANCH  35  36
ENDBRANCH  34  35
ENDBRANCH  33  34
ENDBRANCH   1  33
TORSDOF 26
