REMARK SMILES Nn1c(S[C@@H](C(=O)OCCOCCOCCOC(=O)c2ccc(-c3c4nc(c(-c5c(F)cc(S(=O)(=O)[O-])cc5F)c5ccc([nH]5)c(-c5c(F)cc(S(=O)(=O)[O-])cc5F)c5nc(c(-c6c(F)cc(S(=O)(=O)[O-])cc6F)c6ccc3[nH]6)C=C5)C=C4)cc2)c2ccccc2)nc2ccc(Br)cc2c1=O
REMARK SMILES IDX 12 1 11 2 10 3 9 4 8 5 6 6 7 7 5 8 4 9 3 10 2 11 100 12
REMARK SMILES IDX 92 13 99 14 101 15 93 16 98 17 94 18 96 19 95 20 97 21 1 22
REMARK SMILES IDX 86 25 87 26 91 27 88 28 90 29 89 30 13 31 14 32 15 33 16 34
REMARK SMILES IDX 17 35 18 36 19 37 20 38 21 39 85 40 22 41 84 42 23 43 24 44
REMARK SMILES IDX 25 45 78 46 26 47 83 48 77 49 79 50 27 51 82 52 76 53 75 54
REMARK SMILES IDX 28 56 62 57 41 58 61 59 42 60 45 61 60 62 80 63 43 64 44 65
REMARK SMILES IDX 59 67 81 68 46 69 29 70 30 71 39 72 31 73 32 74 38 75 40 76
REMARK SMILES IDX 33 77 34 78 35 79 36 80 37 81 63 82 64 83 73 84 65 85 66 86
REMARK SMILES IDX 72 87 74 88 67 89 68 90 69 91 70 92 71 93 47 94 48 95 57 96
REMARK SMILES IDX 49 97 50 98 56 99 58 100 51 101 52 102 53 103 54 104 55 105
REMARK H PARENT 1 23 1 24 79 55 45 66
REMARK Flexibility Score: inf
ROOT
ATOM      1  C   UNL     1       2.725  -0.382  -2.137  1.00  0.00     0.188 C 
ENDROOT
BRANCH   1   2
ATOM      2  O   UNL     1       3.968   0.135  -2.604  1.00  0.00    -0.376 OA
BRANCH   2   3
ATOM      3  C   UNL     1       5.116  -0.460  -2.011  1.00  0.00     0.202 C 
BRANCH   3   4
ATOM      4  C   UNL     1       5.320  -0.141  -0.521  1.00  0.00     0.261 C 
BRANCH   4   5
ATOM      5  O   UNL     1       4.224  -0.507   0.369  1.00  0.00    -0.462 OA
BRANCH   5   6
ATOM      6  C   UNL     1       4.118   0.302   1.470  1.00  0.00     0.324 C 
ATOM      7  O   UNL     1       4.893   1.245   1.653  1.00  0.00    -0.251 OA
BRANCH   6   8
ATOM      8  C   UNL     1       3.018  -0.027   2.513  1.00  0.00     0.194 C 
BRANCH   8   9
ATOM      9  S   UNL     1       2.647  -1.796   2.699  1.00  0.00    -0.066 SA
BRANCH   9  10
ATOM     10  C   UNL     1       1.106  -2.308   2.035  1.00  0.00     0.191 A 
ATOM     11  N   UNL     1       0.472  -1.623   1.015  1.00  0.00    -0.202 N 
ATOM     12  C   UNL     1      -0.361  -2.359   0.208  1.00  0.00     0.280 A 
ATOM     13  N   UNL     1       0.649  -3.457   2.474  1.00  0.00    -0.222 NA
ATOM     14  C   UNL     1      -1.147  -3.386   0.823  1.00  0.00     0.069 A 
ATOM     15  O   UNL     1      -0.375  -2.320  -1.015  1.00  0.00    -0.267 OA
ATOM     16  C   UNL     1      -0.540  -3.990   1.909  1.00  0.00     0.079 A 
ATOM     17  C   UNL     1      -2.322  -3.825   0.200  1.00  0.00     0.031 A 
ATOM     18  C   UNL     1      -1.117  -5.188   2.326  1.00  0.00     0.030 A 
ATOM     19  C   UNL     1      -2.887  -4.998   0.648  1.00  0.00     0.018 A 
ATOM     20  C   UNL     1      -2.275  -5.697   1.691  1.00  0.00     0.018 A 
ATOM     21  Br  UNL     1      -4.426  -5.673  -0.211  1.00  0.00    -0.051 Br
BRANCH  11  22
ATOM     22  N   UNL     1       0.860  -0.363   0.523  1.00  0.00    -0.334 N 
ATOM     23  H   UNL     1       1.457   0.211   1.055  1.00  0.00     0.178 HD
ATOM     24  H   UNL     1       0.535  -0.056  -0.354  1.00  0.00     0.178 HD
ENDBRANCH  11  22
ENDBRANCH   9  10
ENDBRANCH   8   9
BRANCH   8  25
ATOM     25  C   UNL     1       1.946   1.054   2.747  1.00  0.00    -0.023 A 
ATOM     26  C   UNL     1       0.784   0.803   3.501  1.00  0.00     0.005 A 
ATOM     27  C   UNL     1       2.109   2.367   2.252  1.00  0.00     0.005 A 
ATOM     28  C   UNL     1      -0.217   1.774   3.639  1.00  0.00     0.000 A 
ATOM     29  C   UNL     1       1.123   3.346   2.416  1.00  0.00     0.000 A 
ATOM     30  C   UNL     1      -0.054   3.040   3.085  1.00  0.00     0.000 A 
ENDBRANCH   8  25
ENDBRANCH   6   8
ENDBRANCH   5   6
ENDBRANCH   4   5
ENDBRANCH   3   4
ENDBRANCH   2   3
ENDBRANCH   1   2
BRANCH   1  31
ATOM     31  C   UNL     1       2.667  -1.903  -2.010  1.00  0.00     0.188 C 
BRANCH  31  32
ATOM     32  O   UNL     1       2.894  -2.501  -3.288  1.00  0.00    -0.376 OA
BRANCH  32  33
ATOM     33  C   UNL     1       1.990  -3.571  -3.533  1.00  0.00     0.202 C 
BRANCH  33  34
ATOM     34  C   UNL     1       0.659  -3.123  -4.158  1.00  0.00     0.261 C 
BRANCH  34  35
ATOM     35  O   UNL     1       0.109  -1.901  -3.620  1.00  0.00    -0.460 OA
BRANCH  35  36
ATOM     36  C   UNL     1      -1.244  -1.806  -3.753  1.00  0.00     0.338 C 
ATOM     37  O   UNL     1      -1.983  -2.657  -4.214  1.00  0.00    -0.246 OA
BRANCH  36  38
ATOM     38  C   UNL     1      -1.760  -0.472  -3.353  1.00  0.00     0.060 A 
ATOM     39  C   UNL     1      -2.367   0.333  -4.316  1.00  0.00     0.016 A 
ATOM     40  C   UNL     1      -1.853  -0.095  -2.014  1.00  0.00     0.016 A 
ATOM     41  C   UNL     1      -3.046   1.496  -3.924  1.00  0.00     0.010 A 
ATOM     42  C   UNL     1      -2.512   1.051  -1.612  1.00  0.00     0.010 A 
ATOM     43  C   UNL     1      -3.124   1.847  -2.568  1.00  0.00    -0.014 A 
BRANCH  43  44
ATOM     44  C   UNL     1      -3.946   2.960  -2.075  1.00  0.00     0.031 A 
ATOM     45  C   UNL     1      -3.306   4.247  -1.669  1.00  0.00     0.074 A 
ATOM     46  C   UNL     1      -5.245   2.726  -1.816  1.00  0.00     0.049 A 
ATOM     47  N   UNL     1      -3.873   5.392  -1.412  1.00  0.00    -0.248 NA
ATOM     48  C   UNL     1      -1.844   4.239  -1.487  1.00  0.00     0.031 C 
ATOM     49  C   UNL     1      -5.909   1.424  -1.935  1.00  0.00     0.029 A 
ATOM     50  N   UNL     1      -6.231   3.566  -1.378  1.00  0.00    -0.354 N 
ATOM     51  C   UNL     1      -2.836   6.263  -1.115  1.00  0.00     0.074 A 
ATOM     52  C   UNL     1      -1.616   5.487  -1.101  1.00  0.00     0.031 C 
ATOM     53  C   UNL     1      -7.203   1.560  -1.604  1.00  0.00     0.029 A 
ATOM     54  C   UNL     1      -7.464   2.964  -1.307  1.00  0.00     0.049 A 
ATOM     55  H   UNL     1      -6.074   4.507  -1.137  1.00  0.00     0.167 HD
ATOM     56  C   UNL     1      -2.910   7.601  -0.937  1.00  0.00     0.037 A 
ATOM     57  C   UNL     1      -8.676   3.512  -1.107  1.00  0.00     0.037 A 
ATOM     58  C   UNL     1      -4.162   8.313  -0.928  1.00  0.00     0.049 A 
ATOM     59  C   UNL     1      -8.761   5.010  -1.014  1.00  0.00     0.074 A 
ATOM     60  C   UNL     1      -4.389   9.675  -0.875  1.00  0.00     0.029 A 
ATOM     61  N   UNL     1      -5.408   7.698  -0.955  1.00  0.00    -0.354 N 
ATOM     62  N   UNL     1      -7.783   5.887  -0.984  1.00  0.00    -0.248 NA
ATOM     63  C   UNL     1     -10.104   5.599  -0.985  1.00  0.00     0.031 C 
ATOM     64  C   UNL     1      -5.774   9.880  -0.836  1.00  0.00     0.029 A 
ATOM     65  C   UNL     1      -6.409   8.648  -0.902  1.00  0.00     0.049 A 
ATOM     66  H   UNL     1      -5.555   6.726  -1.006  1.00  0.00     0.167 HD
ATOM     67  C   UNL     1      -8.392   7.135  -0.961  1.00  0.00     0.074 A 
ATOM     68  C   UNL     1      -9.823   6.896  -0.993  1.00  0.00     0.031 C 
ATOM     69  C   UNL     1      -7.824   8.367  -0.923  1.00  0.00     0.037 A 
BRANCH  56  70
ATOM     70  C   UNL     1      -1.623   8.369  -0.828  1.00  0.00     0.058 A 
ATOM     71  C   UNL     1      -0.750   8.465  -1.926  1.00  0.00     0.135 A 
ATOM     72  C   UNL     1      -1.278   9.067   0.339  1.00  0.00     0.135 A 
ATOM     73  F   UNL     1      -1.022   7.810  -3.066  1.00  0.00    -0.206 F 
ATOM     74  C   UNL     1       0.423   9.209  -1.866  1.00  0.00     0.059 A 
ATOM     75  C   UNL     1      -0.120   9.840   0.413  1.00  0.00     0.059 A 
ATOM     76  F   UNL     1      -2.069   9.007   1.422  1.00  0.00    -0.206 F 
ATOM     77  C   UNL     1       0.727   9.899  -0.694  1.00  0.00     0.060 A 
BRANCH  77  78
ATOM     78  S   UNL     1       2.235  10.890  -0.653  1.00  0.00     0.124 S 
ATOM     79  O   UNL     1       3.264   9.855  -0.643  1.00  0.00    -0.237 OA
ATOM     80  O   UNL     1       2.129  11.666  -1.884  1.00  0.00    -0.237 OA
ATOM     81  O   UNL     1       2.105  11.657   0.582  1.00  0.00    -0.744 OA
ENDBRANCH  77  78
ENDBRANCH  56  70
BRANCH  57  82
ATOM     82  C   UNL     1      -9.884   2.653  -1.180  1.00  0.00     0.058 A 
ATOM     83  C   UNL     1     -10.667   2.630  -2.344  1.00  0.00     0.135 A 
ATOM     84  C   UNL     1     -10.230   1.778  -0.140  1.00  0.00     0.135 A 
ATOM     85  F   UNL     1     -10.364   3.439  -3.370  1.00  0.00    -0.206 F 
ATOM     86  C   UNL     1     -11.758   1.779  -2.472  1.00  0.00     0.059 A 
ATOM     87  C   UNL     1     -11.310   0.905  -0.250  1.00  0.00     0.059 A 
ATOM     88  F   UNL     1      -9.492   1.740   0.980  1.00  0.00    -0.206 F 
ATOM     89  C   UNL     1     -12.069   0.915  -1.421  1.00  0.00     0.060 A 
BRANCH  89  90
ATOM     90  S   UNL     1     -13.452  -0.229  -1.631  1.00  0.00     0.124 S 
ATOM     91  O   UNL     1     -14.593   0.678  -1.596  1.00  0.00    -0.237 OA
ATOM     92  O   UNL     1     -13.154  -0.831  -2.926  1.00  0.00    -0.237 OA
ATOM     93  O   UNL     1     -13.323  -1.125  -0.485  1.00  0.00    -0.744 OA
ENDBRANCH  89  90
ENDBRANCH  57  82
BRANCH  69  94
ATOM     94  C   UNL     1      -8.754   9.544  -0.899  1.00  0.00     0.058 A 
ATOM     95  C   UNL     1      -9.465   9.881   0.262  1.00  0.00     0.135 A 
ATOM     96  C   UNL     1      -8.876  10.381  -2.019  1.00  0.00     0.135 A 
ATOM     97  F   UNL     1      -9.382   9.106   1.355  1.00  0.00    -0.206 F 
ATOM     98  C   UNL     1     -10.280  11.004   0.308  1.00  0.00     0.059 A 
ATOM     99  C   UNL     1      -9.667  11.523  -1.987  1.00  0.00     0.059 A 
ATOM    100  F   UNL     1      -8.206  10.103  -3.148  1.00  0.00    -0.206 F 
ATOM    101  C   UNL     1     -10.371  11.822  -0.821  1.00  0.00     0.060 A 
BRANCH 101 102
ATOM    102  S   UNL     1     -11.396  13.303  -0.727  1.00  0.00     0.124 S 
ATOM    103  O   UNL     1     -12.739  12.732  -0.755  1.00  0.00    -0.237 OA
ATOM    104  O   UNL     1     -10.983  13.888   0.545  1.00  0.00    -0.237 OA
ATOM    105  O   UNL     1     -11.010  14.060  -1.913  1.00  0.00    -0.744 OA
ENDBRANCH 101 102
ENDBRANCH  69  94
ENDBRANCH  43  44
ENDBRANCH  36  38
ENDBRANCH  35  36
ENDBRANCH  34  35
ENDBRANCH  33  34
ENDBRANCH  32  33
ENDBRANCH  31  32
ENDBRANCH   1  31
TORSDOF 24
