REMARK SMILES O=Cc1c(OCc2ccc(C(=O)OCCOCCOCCOC(=O)c3ccc(-c4c5nc(c(-c6c(F)cc(S(=O)(=O)[O-])cc6F)c6ccc([nH]6)c(-c6c(F)cc(S(=O)(=O)[O-])cc6F)c6nc(c(-c7c(F)cc(S(=O)(=O)[O-])cc7F)c7ccc4[nH]7)C=C6)C=C5)cc3)cc2)ccc2ccccc12
REMARK SMILES IDX 17 1 16 2 15 3 14 4 13 5 11 6 12 7 10 8 7 9 8 10 92 11 9 12
REMARK SMILES IDX 91 13 6 14 5 15 4 16 3 17 100 18 93 19 95 20 99 21 94 22
REMARK SMILES IDX 96 23 98 24 97 25 2 26 1 27 18 28 19 29 20 30 21 31 22 32
REMARK SMILES IDX 23 33 24 34 25 35 26 36 90 37 27 38 89 39 28 40 29 41 30 42
REMARK SMILES IDX 83 43 31 44 88 45 82 46 84 47 32 48 87 49 81 50 80 51 33 53
REMARK SMILES IDX 67 54 46 55 66 56 47 57 50 58 65 59 85 60 48 61 49 62 64 64
REMARK SMILES IDX 86 65 51 66 34 67 35 68 44 69 36 70 37 71 43 72 45 73 38 74
REMARK SMILES IDX 39 75 40 76 41 77 42 78 68 79 69 80 78 81 70 82 71 83 77 84
REMARK SMILES IDX 79 85 72 86 73 87 74 88 75 89 76 90 52 91 53 92 62 93 54 94
REMARK SMILES IDX 55 95 61 96 63 97 56 98 57 99 58 100 59 101 60 102
REMARK H PARENT 84 52 50 63
REMARK Flexibility Score: inf
ROOT
ATOM      1  C   UNL     1       6.359  -8.660  -1.256  1.00  0.00     0.188 C 
ENDROOT
BRANCH   1   2
ATOM      2  O   UNL     1       7.554  -9.128  -1.833  1.00  0.00    -0.376 OA
BRANCH   2   3
ATOM      3  C   UNL     1       7.859  -8.828  -3.183  1.00  0.00     0.202 C 
BRANCH   3   4
ATOM      4  C   UNL     1       7.368  -7.583  -3.949  1.00  0.00     0.261 C 
BRANCH   4   5
ATOM      5  O   UNL     1       6.339  -6.784  -3.361  1.00  0.00    -0.460 OA
BRANCH   5   6
ATOM      6  C   UNL     1       5.080  -6.996  -3.808  1.00  0.00     0.338 C 
ATOM      7  O   UNL     1       4.731  -7.831  -4.636  1.00  0.00    -0.246 OA
BRANCH   6   8
ATOM      8  C   UNL     1       4.138  -6.173  -3.022  1.00  0.00     0.060 A 
ATOM      9  C   UNL     1       2.309  -4.671  -1.499  1.00  0.00    -0.011 A 
ATOM     10  C   UNL     1       2.094  -6.039  -1.732  1.00  0.00     0.008 A 
ATOM     11  C   UNL     1       3.455  -4.069  -2.044  1.00  0.00     0.008 A 
ATOM     12  C   UNL     1       2.995  -6.784  -2.497  1.00  0.00     0.016 A 
ATOM     13  C   UNL     1       4.378  -4.817  -2.784  1.00  0.00     0.016 A 
BRANCH   9  14
ATOM     14  C   UNL     1       1.264  -3.894  -0.714  1.00  0.00     0.265 C 
BRANCH  14  15
ATOM     15  O   UNL     1       1.640  -2.566  -0.343  1.00  0.00    -0.488 OA
BRANCH  15  16
ATOM     16  C   UNL     1       2.551  -2.365   0.659  1.00  0.00     0.130 A 
ATOM     17  C   UNL     1       3.027  -1.051   0.830  1.00  0.00     0.064 A 
ATOM     18  C   UNL     1       4.108  -0.753   1.707  1.00  0.00    -0.004 A 
ATOM     19  C   UNL     1       3.096  -3.384   1.438  1.00  0.00     0.048 A 
ATOM     20  C   UNL     1       4.676  -1.823   2.439  1.00  0.00    -0.017 A 
ATOM     21  C   UNL     1       4.659   0.539   1.903  1.00  0.00     0.009 A 
ATOM     22  C   UNL     1       4.149  -3.114   2.312  1.00  0.00     0.012 A 
ATOM     23  C   UNL     1       5.770  -1.594   3.288  1.00  0.00     0.009 A 
ATOM     24  C   UNL     1       5.749   0.751   2.750  1.00  0.00     0.001 A 
ATOM     25  C   UNL     1       6.309  -0.318   3.437  1.00  0.00     0.001 A 
BRANCH  17  26
ATOM     26  C   UNL     1       2.433   0.040   0.023  1.00  0.00     0.264 C 
ATOM     27  O   UNL     1       1.226   0.215  -0.094  1.00  0.00    -0.298 OA
ENDBRANCH  17  26
ENDBRANCH  15  16
ENDBRANCH  14  15
ENDBRANCH   9  14
ENDBRANCH   6   8
ENDBRANCH   5   6
ENDBRANCH   4   5
ENDBRANCH   3   4
ENDBRANCH   2   3
ENDBRANCH   1   2
BRANCH   1  28
ATOM     28  C   UNL     1       6.524  -7.355  -0.449  1.00  0.00     0.188 C 
BRANCH  28  29
ATOM     29  O   UNL     1       7.782  -6.696  -0.396  1.00  0.00    -0.376 OA
BRANCH  29  30
ATOM     30  C   UNL     1       8.960  -7.441  -0.119  1.00  0.00     0.202 C 
BRANCH  30  31
ATOM     31  C   UNL     1       9.032  -8.432   1.056  1.00  0.00     0.261 C 
BRANCH  31  32
ATOM     32  O   UNL     1       7.900  -9.293   1.235  1.00  0.00    -0.460 OA
BRANCH  32  33
ATOM     33  C   UNL     1       7.128  -9.018   2.312  1.00  0.00     0.338 C 
ATOM     34  O   UNL     1       7.289  -8.120   3.129  1.00  0.00    -0.246 OA
BRANCH  33  35
ATOM     35  C   UNL     1       5.923  -9.865   2.284  1.00  0.00     0.060 A 
ATOM     36  C   UNL     1       4.673  -9.242   2.172  1.00  0.00     0.016 A 
ATOM     37  C   UNL     1       6.016 -11.250   2.427  1.00  0.00     0.016 A 
ATOM     38  C   UNL     1       3.506 -10.001   2.228  1.00  0.00     0.010 A 
ATOM     39  C   UNL     1       4.844 -12.008   2.506  1.00  0.00     0.010 A 
ATOM     40  C   UNL     1       3.585 -11.383   2.438  1.00  0.00    -0.014 A 
BRANCH  40  41
ATOM     41  C   UNL     1       2.357 -12.143   2.772  1.00  0.00     0.031 A 
ATOM     42  C   UNL     1       2.056 -12.419   4.220  1.00  0.00     0.074 A 
ATOM     43  C   UNL     1       1.516 -12.565   1.811  1.00  0.00     0.049 A 
ATOM     44  N   UNL     1       1.076 -13.104   4.749  1.00  0.00    -0.248 NA
ATOM     45  C   UNL     1       2.991 -11.847   5.203  1.00  0.00     0.031 C 
ATOM     46  C   UNL     1       1.678 -12.324   0.379  1.00  0.00     0.029 A 
ATOM     47  N   UNL     1       0.359 -13.299   1.901  1.00  0.00    -0.354 N 
ATOM     48  C   UNL     1       1.279 -13.053   6.123  1.00  0.00     0.074 A 
ATOM     49  C   UNL     1       2.491 -12.295   6.345  1.00  0.00     0.031 C 
ATOM     50  C   UNL     1       0.665 -12.915  -0.279  1.00  0.00     0.029 A 
ATOM     51  C   UNL     1      -0.197 -13.602   0.682  1.00  0.00     0.049 A 
ATOM     52  H   UNL     1      -0.035 -13.580   2.758  1.00  0.00     0.167 HD
ATOM     53  C   UNL     1       0.521 -13.586   7.111  1.00  0.00     0.037 A 
ATOM     54  C   UNL     1      -1.264 -14.368   0.378  1.00  0.00     0.037 A 
ATOM     55  C   UNL     1      -0.680 -14.345   6.883  1.00  0.00     0.049 A 
ATOM     56  C   UNL     1      -2.056 -15.008   1.490  1.00  0.00     0.074 A 
ATOM     57  C   UNL     1      -1.526 -14.917   7.817  1.00  0.00     0.029 A 
ATOM     58  N   UNL     1      -1.200 -14.649   5.633  1.00  0.00    -0.354 N 
ATOM     59  N   UNL     1      -1.867 -14.936   2.787  1.00  0.00    -0.248 NA
ATOM     60  C   UNL     1      -3.209 -15.831   1.098  1.00  0.00     0.031 C 
ATOM     61  C   UNL     1      -2.530 -15.610   7.131  1.00  0.00     0.029 A 
ATOM     62  C   UNL     1      -2.343 -15.420   5.770  1.00  0.00     0.049 A 
ATOM     63  H   UNL     1      -0.814 -14.360   4.775  1.00  0.00     0.167 HD
ATOM     64  C   UNL     1      -2.895 -15.675   3.365  1.00  0.00     0.074 A 
ATOM     65  C   UNL     1      -3.706 -16.181   2.277  1.00  0.00     0.031 C 
ATOM     66  C   UNL     1      -3.148 -15.909   4.678  1.00  0.00     0.037 A 
BRANCH  53  67
ATOM     67  C   UNL     1       0.991 -13.391   8.526  1.00  0.00     0.058 A 
ATOM     68  C   UNL     1       0.944 -12.137   9.157  1.00  0.00     0.135 A 
ATOM     69  C   UNL     1       1.481 -14.479   9.267  1.00  0.00     0.135 A 
ATOM     70  F   UNL     1       0.503 -11.060   8.488  1.00  0.00    -0.206 F 
ATOM     71  C   UNL     1       1.395 -11.963  10.461  1.00  0.00     0.059 A 
ATOM     72  C   UNL     1       1.911 -14.332  10.582  1.00  0.00     0.059 A 
ATOM     73  F   UNL     1       1.552 -15.698   8.712  1.00  0.00    -0.206 F 
ATOM     74  C   UNL     1       1.879 -13.067  11.165  1.00  0.00     0.060 A 
BRANCH  74  75
ATOM     75  S   UNL     1       2.468 -12.822  12.854  1.00  0.00     0.124 S 
ATOM     76  O   UNL     1       3.724 -12.114  12.624  1.00  0.00    -0.237 OA
ATOM     77  O   UNL     1       1.395 -12.032  13.447  1.00  0.00    -0.237 OA
ATOM     78  O   UNL     1       2.601 -14.182  13.368  1.00  0.00    -0.744 OA
ENDBRANCH  74  75
ENDBRANCH  53  67
BRANCH  54  79
ATOM     79  C   UNL     1      -1.645 -14.580  -1.045  1.00  0.00     0.058 A 
ATOM     80  C   UNL     1      -2.821 -14.027  -1.572  1.00  0.00     0.135 A 
ATOM     81  C   UNL     1      -0.838 -15.341  -1.906  1.00  0.00     0.135 A 
ATOM     82  F   UNL     1      -3.632 -13.303  -0.786  1.00  0.00    -0.206 F 
ATOM     83  C   UNL     1      -3.191 -14.229  -2.898  1.00  0.00     0.059 A 
ATOM     84  C   UNL     1      -1.172 -15.534  -3.243  1.00  0.00     0.059 A 
ATOM     85  F   UNL     1       0.303 -15.885  -1.454  1.00  0.00    -0.206 F 
ATOM     86  C   UNL     1      -2.356 -14.981  -3.727  1.00  0.00     0.060 A 
BRANCH  86  87
ATOM     87  S   UNL     1      -2.820 -15.190  -5.460  1.00  0.00     0.124 S 
ATOM     88  O   UNL     1      -3.942 -16.115  -5.356  1.00  0.00    -0.237 OA
ATOM     89  O   UNL     1      -3.152 -13.824  -5.854  1.00  0.00    -0.237 OA
ATOM     90  O   UNL     1      -1.608 -15.732  -6.068  1.00  0.00    -0.744 OA
ENDBRANCH  86  87
ENDBRANCH  54  79
BRANCH  66  91
ATOM     91  C   UNL     1      -4.378 -16.707   5.022  1.00  0.00     0.058 A 
ATOM     92  C   UNL     1      -4.455 -18.089   4.794  1.00  0.00     0.135 A 
ATOM     93  C   UNL     1      -5.473 -16.085   5.646  1.00  0.00     0.135 A 
ATOM     94  F   UNL     1      -3.440 -18.733   4.197  1.00  0.00    -0.206 F 
ATOM     95  C   UNL     1      -5.583 -18.823   5.150  1.00  0.00     0.059 A 
ATOM     96  C   UNL     1      -6.598 -16.803   6.037  1.00  0.00     0.059 A 
ATOM     97  F   UNL     1      -5.447 -14.766   5.899  1.00  0.00    -0.206 F 
ATOM     98  C   UNL     1      -6.649 -18.171   5.774  1.00  0.00     0.060 A 
BRANCH  98  99
ATOM     99  S   UNL     1      -8.092 -19.140   6.262  1.00  0.00     0.124 S 
ATOM    100  O   UNL     1      -8.725 -19.395   4.972  1.00  0.00    -0.237 OA
ATOM    101  O   UNL     1      -7.486 -20.299   6.910  1.00  0.00    -0.237 OA
ATOM    102  O   UNL     1      -8.820 -18.241   7.152  1.00  0.00    -0.744 OA
ENDBRANCH  98  99
ENDBRANCH  66  91
ENDBRANCH  40  41
ENDBRANCH  33  35
ENDBRANCH  32  33
ENDBRANCH  31  32
ENDBRANCH  30  31
ENDBRANCH  29  30
ENDBRANCH  28  29
ENDBRANCH   1  28
TORSDOF 24
