REMARK SMILES Cc1ccc(Nc2c(C)cccc2Cl)c(CC(=O)OCCOCCOCCOC(=O)c2ccc(-c3c4nc(c(-c5c(F)cc(S(=O)(=O)[O-])cc5F)c5ccc([nH]5)c(-c5c(F)cc(S(=O)(=O)[O-])cc5F)c5nc(c(-c6c(F)cc(S(=O)(=O)[O-])cc6F)c6ccc3[nH]6)C=C5)C=C4)cc2)c1
REMARK SMILES IDX 23 1 22 2 21 3 20 4 19 5 17 6 18 7 16 8 15 9 1 10 2 11 3 12
REMARK SMILES IDX 97 13 4 14 5 15 6 16 7 18 8 19 13 20 9 21 10 22 12 23 14 24
REMARK SMILES IDX 11 25 24 26 25 27 26 28 27 29 28 30 29 31 30 32 31 33 32 34
REMARK SMILES IDX 96 35 33 36 95 37 34 38 35 39 36 40 89 41 37 42 94 43 88 44
REMARK SMILES IDX 90 45 38 46 93 47 87 48 86 49 39 51 73 52 52 53 72 54 53 55
REMARK SMILES IDX 56 56 71 57 91 58 54 59 55 60 70 62 92 63 57 64 40 65 41 66
REMARK SMILES IDX 50 67 42 68 43 69 49 70 51 71 44 72 45 73 46 74 47 75 48 76
REMARK SMILES IDX 74 77 75 78 84 79 76 80 77 81 83 82 85 83 78 84 79 85 80 86
REMARK SMILES IDX 81 87 82 88 58 89 59 90 68 91 60 92 61 93 67 94 69 95 62 96
REMARK SMILES IDX 63 97 64 98 65 99 66 100
REMARK H PARENT 6 17 90 50 56 61
REMARK Flexibility Score: inf
ROOT
ATOM      1  C   UNL     1      -4.727   0.876  -3.884  1.00  0.00     0.188 C 
ENDROOT
BRANCH   1   2
ATOM      2  O   UNL     1      -4.360   2.030  -4.585  1.00  0.00    -0.376 OA
BRANCH   2   3
ATOM      3  C   UNL     1      -3.010   2.285  -4.888  1.00  0.00     0.202 C 
BRANCH   3   4
ATOM      4  C   UNL     1      -1.684   2.653  -4.032  1.00  0.00     0.261 C 
BRANCH   4   5
ATOM      5  O   UNL     1      -1.017   2.583  -2.334  1.00  0.00    -0.463 OA
BRANCH   5   6
ATOM      6  C   UNL     1      -1.027   3.261  -0.831  1.00  0.00     0.310 C 
ATOM      7  O   UNL     1      -1.672   4.176  -0.295  1.00  0.00    -0.252 OA
BRANCH   6   8
ATOM      8  C   UNL     1      -0.357   2.459   0.134  1.00  0.00     0.160 C 
BRANCH   8   9
ATOM      9  C   UNL     1      -0.323   1.139  -0.565  1.00  0.00    -0.013 A 
ATOM     10  C   UNL     1       3.290  -0.015  -0.026  1.00  0.00     0.044 C 
ATOM     11  C   UNL     1       1.799   0.012   0.003  1.00  0.00    -0.051 A 
ATOM     12  C   UNL     1       1.045  -0.804   0.809  1.00  0.00     0.005 A 
ATOM     13  C   UNL     1       1.112   0.961  -0.718  1.00  0.00     0.009 A 
ATOM     14  C   UNL     1      -0.371  -0.671   0.835  1.00  0.00     0.026 A 
ATOM     15  C   UNL     1      -1.320   0.230  -0.097  1.00  0.00     0.042 A 
BRANCH  15  16
ATOM     16  N   UNL     1      -3.119  -0.388  -0.779  1.00  0.00    -0.354 N 
ATOM     17  H   UNL     1      -3.402   0.052  -1.613  1.00  0.00     0.167 HD
BRANCH  16  18
ATOM     18  C   UNL     1      -4.334  -1.623  -0.133  1.00  0.00     0.060 A 
ATOM     19  C   UNL     1      -4.098  -2.627   1.071  1.00  0.00    -0.026 A 
ATOM     20  C   UNL     1      -5.399  -2.022  -0.979  1.00  0.00     0.064 A 
ATOM     21  C   UNL     1      -3.124  -2.785   2.272  1.00  0.00     0.046 C 
ATOM     22  C   UNL     1      -4.904  -3.798   1.199  1.00  0.00     0.005 A 
ATOM     23  C   UNL     1      -6.075  -3.271  -0.791  1.00  0.00     0.023 A 
ATOM     24  Cl  UNL     1      -6.127  -1.100  -2.189  1.00  0.00    -0.082 Cl
ATOM     25  C   UNL     1      -5.832  -4.148   0.256  1.00  0.00     0.002 A 
ENDBRANCH  16  18
ENDBRANCH  15  16
ENDBRANCH   8   9
ENDBRANCH   6   8
ENDBRANCH   5   6
ENDBRANCH   4   5
ENDBRANCH   3   4
ENDBRANCH   2   3
ENDBRANCH   1   2
BRANCH   1  26
ATOM     26  C   UNL     1      -4.140  -0.455  -4.304  1.00  0.00     0.188 C 
BRANCH  26  27
ATOM     27  O   UNL     1      -2.802  -0.420  -4.738  1.00  0.00    -0.376 OA
BRANCH  27  28
ATOM     28  C   UNL     1      -2.243  -1.711  -4.954  1.00  0.00     0.202 C 
BRANCH  28  29
ATOM     29  C   UNL     1      -2.601  -2.916  -3.970  1.00  0.00     0.261 C 
BRANCH  29  30
ATOM     30  O   UNL     1      -1.873  -2.973  -2.671  1.00  0.00    -0.460 OA
BRANCH  30  31
ATOM     31  C   UNL     1      -2.429  -3.063  -1.357  1.00  0.00     0.338 C 
ATOM     32  O   UNL     1      -3.065  -4.069  -1.099  1.00  0.00    -0.246 OA
BRANCH  31  33
ATOM     33  C   UNL     1      -1.948  -1.748  -0.283  1.00  0.00     0.060 A 
ATOM     34  C   UNL     1      -2.771  -0.491   0.996  1.00  0.00     0.016 A 
ATOM     35  C   UNL     1      -1.499  -0.953  -1.844  1.00  0.00     0.016 A 
ATOM     36  C   UNL     1      -3.215   1.252   0.407  1.00  0.00     0.010 A 
ATOM     37  C   UNL     1      -2.087   0.627  -2.283  1.00  0.00     0.010 A 
ATOM     38  C   UNL     1      -2.924   1.853  -1.287  1.00  0.00    -0.014 A 
BRANCH  38  39
ATOM     39  C   UNL     1      -3.001   3.564  -2.106  1.00  0.00     0.031 A 
ATOM     40  C   UNL     1      -1.522   4.727  -2.526  1.00  0.00     0.074 A 
ATOM     41  C   UNL     1      -4.101   4.021  -2.741  1.00  0.00     0.049 A 
ATOM     42  N   UNL     1      -1.195   5.880  -1.956  1.00  0.00    -0.248 NA
ATOM     43  C   UNL     1      -0.031   4.303  -3.187  1.00  0.00     0.031 C 
ATOM     44  C   UNL     1      -4.170   5.107  -3.731  1.00  0.00     0.029 A 
ATOM     45  N   UNL     1      -5.399   3.534  -2.737  1.00  0.00    -0.354 N 
ATOM     46  C   UNL     1       0.157   6.195  -2.336  1.00  0.00     0.074 A 
ATOM     47  C   UNL     1       0.851   4.985  -2.490  1.00  0.00     0.031 C 
ATOM     48  C   UNL     1      -5.461   5.422  -3.956  1.00  0.00     0.029 A 
ATOM     49  C   UNL     1      -6.247   4.612  -3.042  1.00  0.00     0.049 A 
ATOM     50  H   UNL     1      -5.676   2.607  -2.555  1.00  0.00     0.167 HD
ATOM     51  C   UNL     1       0.477   7.223  -3.194  1.00  0.00     0.037 A 
ATOM     52  C   UNL     1      -7.014   5.049  -2.012  1.00  0.00     0.037 A 
ATOM     53  C   UNL     1      -0.780   7.835  -3.564  1.00  0.00     0.049 A 
ATOM     54  C   UNL     1      -6.387   6.348  -1.518  1.00  0.00     0.074 A 
ATOM     55  C   UNL     1      -1.605   7.760  -4.671  1.00  0.00     0.029 A 
ATOM     56  N   UNL     1      -1.584   8.220  -2.509  1.00  0.00    -0.354 N 
ATOM     57  N   UNL     1      -5.118   6.665  -1.673  1.00  0.00    -0.248 NA
ATOM     58  C   UNL     1      -7.184   7.496  -1.096  1.00  0.00     0.031 C 
ATOM     59  C   UNL     1      -2.933   8.084  -4.233  1.00  0.00     0.029 A 
ATOM     60  C   UNL     1      -2.911   8.294  -2.861  1.00  0.00     0.049 A 
ATOM     61  H   UNL     1      -1.245   8.418  -1.607  1.00  0.00     0.167 HD
ATOM     62  C   UNL     1      -4.952   8.015  -1.525  1.00  0.00     0.074 A 
ATOM     63  C   UNL     1      -6.269   8.482  -1.125  1.00  0.00     0.031 C 
ATOM     64  C   UNL     1      -3.829   8.740  -1.823  1.00  0.00     0.037 A 
BRANCH  51  65
ATOM     65  C   UNL     1       1.830   7.369  -3.951  1.00  0.00     0.058 A 
ATOM     66  C   UNL     1       1.910   8.153  -5.120  1.00  0.00     0.135 A 
ATOM     67  C   UNL     1       3.086   6.811  -3.564  1.00  0.00     0.135 A 
ATOM     68  F   UNL     1       0.828   8.771  -5.609  1.00  0.00    -0.206 F 
ATOM     69  C   UNL     1       3.102   8.367  -5.834  1.00  0.00     0.059 A 
ATOM     70  C   UNL     1       4.277   6.951  -4.303  1.00  0.00     0.059 A 
ATOM     71  F   UNL     1       3.241   6.146  -2.409  1.00  0.00    -0.206 F 
ATOM     72  C   UNL     1       4.284   7.767  -5.421  1.00  0.00     0.060 A 
BRANCH  72  73
ATOM     73  S   UNL     1       5.821   8.149  -6.297  1.00  0.00     0.124 S 
ATOM     74  O   UNL     1       5.481   7.827  -7.679  1.00  0.00    -0.237 OA
ATOM     75  O   UNL     1       5.991   9.567  -5.999  1.00  0.00    -0.237 OA
ATOM     76  O   UNL     1       6.801   7.259  -5.679  1.00  0.00    -0.744 OA
ENDBRANCH  72  73
ENDBRANCH  51  65
BRANCH  52  77
ATOM     77  C   UNL     1      -7.631   3.830  -1.357  1.00  0.00     0.058 A 
ATOM     78  C   UNL     1      -8.500   3.058  -2.186  1.00  0.00     0.135 A 
ATOM     79  C   UNL     1      -7.107   3.150  -0.244  1.00  0.00     0.135 A 
ATOM     80  F   UNL     1      -8.965   3.586  -3.333  1.00  0.00    -0.206 F 
ATOM     81  C   UNL     1      -8.828   1.721  -1.937  1.00  0.00     0.059 A 
ATOM     82  C   UNL     1      -7.443   1.805   0.038  1.00  0.00     0.059 A 
ATOM     83  F   UNL     1      -6.200   3.745   0.543  1.00  0.00    -0.206 F 
ATOM     84  C   UNL     1      -8.338   1.115  -0.789  1.00  0.00     0.060 A 
BRANCH  84  85
ATOM     85  S   UNL     1      -8.950  -0.544  -0.356  1.00  0.00     0.124 S 
ATOM     86  O   UNL     1     -10.228  -0.223   0.269  1.00  0.00    -0.237 OA
ATOM     87  O   UNL     1      -9.059  -1.226  -1.645  1.00  0.00    -0.237 OA
ATOM     88  O   UNL     1      -7.928  -1.056   0.549  1.00  0.00    -0.744 OA
ENDBRANCH  84  85
ENDBRANCH  52  77
BRANCH  64  89
ATOM     89  C   UNL     1      -3.451  10.003  -1.063  1.00  0.00     0.058 A 
ATOM     90  C   UNL     1      -4.013  10.341   0.176  1.00  0.00     0.135 A 
ATOM     91  C   UNL     1      -2.352  10.814  -1.467  1.00  0.00     0.135 A 
ATOM     92  F   UNL     1      -4.945   9.582   0.768  1.00  0.00    -0.206 F 
ATOM     93  C   UNL     1      -3.623  11.472   0.880  1.00  0.00     0.059 A 
ATOM     94  C   UNL     1      -1.853  11.856  -0.705  1.00  0.00     0.059 A 
ATOM     95  F   UNL     1      -1.702  10.632  -2.626  1.00  0.00    -0.206 F 
ATOM     96  C   UNL     1      -2.546  12.224   0.429  1.00  0.00     0.060 A 
BRANCH  96  97
ATOM     97  S   UNL     1      -2.096  13.720   1.302  1.00  0.00     0.124 S 
ATOM     98  O   UNL     1      -3.090  14.654   0.781  1.00  0.00    -0.237 OA
ATOM     99  O   UNL     1      -2.260  13.334   2.699  1.00  0.00    -0.237 OA
ATOM    100  O   UNL     1      -0.721  13.961   0.878  1.00  0.00    -0.744 OA
ENDBRANCH  96  97
ENDBRANCH  64  89
ENDBRANCH  38  39
ENDBRANCH  31  33
ENDBRANCH  30  31
ENDBRANCH  29  30
ENDBRANCH  28  29
ENDBRANCH  27  28
ENDBRANCH  26  27
ENDBRANCH   1  26
TORSDOF 23
