REMARK SMILES Cc1c(NC(=O)[C@@H]2CC=CC[C@@H]2C(=O)OCCOCCOCCOC(=O)c2ccc(-c3c4nc(c(-c5c(F)cc(S(=O)(=O)[O-])cc5F)c5ccc([nH]5)c(-c5c(F)cc(S(=O)(=O)[O-])cc5F)c5nc(c(-c6c(F)cc(S(=O)(=O)[O-])cc6F)c6ccc3[nH]6)C=C5)C=C4)cc2)cccc1C(=O)N1CCOCC1
REMARK SMILES IDX 19 1 18 2 17 3 16 4 15 5 13 6 14 7 12 8 7 9 8 10 9 11 11 12
REMARK SMILES IDX 10 13 5 14 4 15 6 17 3 18 1 19 2 20 96 21 93 22 95 23 94 24
REMARK SMILES IDX 97 25 98 26 99 27 100 28 104 29 101 30 103 31 102 32 20 33
REMARK SMILES IDX 21 34 22 35 23 36 24 37 25 38 26 39 27 40 28 41 92 42 29 43
REMARK SMILES IDX 91 44 30 45 31 46 32 47 85 48 33 49 90 50 84 51 86 52 34 53
REMARK SMILES IDX 89 54 83 55 82 56 35 58 69 59 48 60 68 61 49 62 52 63 67 64
REMARK SMILES IDX 87 65 50 66 51 67 66 69 88 70 53 71 36 72 37 73 46 74 38 75
REMARK SMILES IDX 39 76 45 77 47 78 40 79 41 80 42 81 43 82 44 83 70 84 71 85
REMARK SMILES IDX 80 86 72 87 73 88 79 89 81 90 74 91 75 92 76 93 77 94 78 95
REMARK SMILES IDX 54 96 55 97 64 98 56 99 57 100 63 101 65 102 58 103 59 104
REMARK SMILES IDX 60 105 61 106 62 107
REMARK H PARENT 4 16 86 57 52 68
REMARK Flexibility Score: inf
ROOT
ATOM      1  C   UNL     1      -7.200  -1.406   0.553  1.00  0.00     0.188 C 
ENDROOT
BRANCH   1   2
ATOM      2  O   UNL     1      -7.091  -2.846   0.477  1.00  0.00    -0.376 OA
BRANCH   2   3
ATOM      3  C   UNL     1      -6.444  -3.671   1.467  1.00  0.00     0.202 C 
BRANCH   3   4
ATOM      4  C   UNL     1      -5.065  -4.613   1.222  1.00  0.00     0.261 C 
BRANCH   4   5
ATOM      5  O   UNL     1      -3.337  -4.181   0.995  1.00  0.00    -0.463 OA
BRANCH   5   6
ATOM      6  C   UNL     1      -2.350  -3.864  -0.024  1.00  0.00     0.310 C 
ATOM      7  O   UNL     1      -2.478  -3.907  -1.254  1.00  0.00    -0.252 OA
BRANCH   6   8
ATOM      8  C   UNL     1      -0.934  -3.400   0.245  1.00  0.00     0.116 C 
ATOM      9  C   UNL     1      -0.275  -3.862   1.502  1.00  0.00     0.097 C 
ATOM     10  C   UNL     1      -0.694  -2.992   2.662  1.00  0.00     0.041 C 
ATOM     11  C   UNL     1      -0.446  -1.539   2.316  1.00  0.00    -0.030 C 
ATOM     12  C   UNL     1      -0.613  -1.953  -0.140  1.00  0.00     0.043 C 
ATOM     13  C   UNL     1      -0.389  -1.081   1.054  1.00  0.00    -0.030 C 
BRANCH   9  14
ATOM     14  C   UNL     1      -0.579  -5.334   1.519  1.00  0.00     0.228 C 
ATOM     15  N   UNL     1       0.142  -6.040   0.551  1.00  0.00    -0.326 N 
ATOM     16  H   UNL     1      -0.216  -6.240  -0.343  1.00  0.00     0.169 HD
ATOM     17  O   UNL     1      -1.490  -5.842   2.162  1.00  0.00    -0.274 OA
BRANCH  15  18
ATOM     18  C   UNL     1       1.429  -6.439   0.969  1.00  0.00     0.044 A 
ATOM     19  C   UNL     1       0.311  -8.566   1.676  1.00  0.00     0.047 C 
ATOM     20  C   UNL     1       1.519  -7.663   1.646  1.00  0.00    -0.015 A 
ATOM     21  C   UNL     1       2.712  -7.930   2.336  1.00  0.00     0.045 A 
ATOM     22  C   UNL     1       2.495  -5.534   0.927  1.00  0.00     0.026 A 
ATOM     23  C   UNL     1       3.732  -6.965   2.406  1.00  0.00     0.014 A 
ATOM     24  C   UNL     1       3.635  -5.778   1.683  1.00  0.00     0.003 A 
BRANCH  21  25
ATOM     25  C   UNL     1       2.857  -9.142   3.169  1.00  0.00     0.254 C 
ATOM     26  O   UNL     1       3.178  -8.988   4.346  1.00  0.00    -0.269 OA
ATOM     27  N   UNL     1       2.551 -10.376   2.614  1.00  0.00    -0.334 N 
ATOM     28  C   UNL     1       2.624 -10.739   1.186  1.00  0.00     0.148 C 
ATOM     29  C   UNL     1       2.215 -11.475   3.513  1.00  0.00     0.148 C 
ATOM     30  C   UNL     1       1.460 -11.649   0.751  1.00  0.00     0.181 C 
ATOM     31  C   UNL     1       0.995 -12.232   2.985  1.00  0.00     0.181 C 
ATOM     32  O   UNL     1       1.276 -12.735   1.671  1.00  0.00    -0.378 OA
ENDBRANCH  21  25
ENDBRANCH  15  18
ENDBRANCH   9  14
ENDBRANCH   6   8
ENDBRANCH   5   6
ENDBRANCH   4   5
ENDBRANCH   3   4
ENDBRANCH   2   3
ENDBRANCH   1   2
BRANCH   1  33
ATOM     33  C   UNL     1      -7.345  -0.652   1.881  1.00  0.00     0.188 C 
BRANCH  33  34
ATOM     34  O   UNL     1      -6.431  -1.159   2.832  1.00  0.00    -0.376 OA
BRANCH  34  35
ATOM     35  C   UNL     1      -6.362  -0.507   4.081  1.00  0.00     0.202 C 
BRANCH  35  36
ATOM     36  C   UNL     1      -5.597   0.829   4.050  1.00  0.00     0.261 C 
BRANCH  36  37
ATOM     37  O   UNL     1      -4.162   0.697   3.868  1.00  0.00    -0.460 OA
BRANCH  37  38
ATOM     38  C   UNL     1      -3.576   1.166   2.700  1.00  0.00     0.338 C 
ATOM     39  O   UNL     1      -2.862   2.150   2.694  1.00  0.00    -0.246 OA
BRANCH  38  40
ATOM     40  C   UNL     1      -3.652   0.153   1.598  1.00  0.00     0.060 A 
ATOM     41  C   UNL     1      -3.587   0.265   0.203  1.00  0.00     0.016 A 
ATOM     42  C   UNL     1      -3.794  -1.105   2.039  1.00  0.00     0.016 A 
ATOM     43  C   UNL     1      -3.890  -0.851  -0.720  1.00  0.00     0.010 A 
ATOM     44  C   UNL     1      -4.220  -2.072   1.143  1.00  0.00     0.010 A 
ATOM     45  C   UNL     1      -4.303  -2.116  -0.284  1.00  0.00    -0.014 A 
BRANCH  45  46
ATOM     46  C   UNL     1      -4.862  -3.424  -1.274  1.00  0.00     0.031 A 
ATOM     47  C   UNL     1      -4.361  -5.126  -1.490  1.00  0.00     0.074 A 
ATOM     48  C   UNL     1      -5.792  -3.083  -2.192  1.00  0.00     0.049 A 
ATOM     49  N   UNL     1      -4.319  -5.762  -2.648  1.00  0.00    -0.248 NA
ATOM     50  C   UNL     1      -3.789  -6.131  -0.479  1.00  0.00     0.031 C 
ATOM     51  C   UNL     1      -6.531  -3.967  -3.086  1.00  0.00     0.029 A 
ATOM     52  N   UNL     1      -6.157  -1.796  -2.602  1.00  0.00    -0.354 N 
ATOM     53  C   UNL     1      -3.890  -7.094  -2.451  1.00  0.00     0.074 A 
ATOM     54  C   UNL     1      -3.502  -7.245  -1.111  1.00  0.00     0.031 C 
ATOM     55  C   UNL     1      -7.010  -3.237  -4.106  1.00  0.00     0.029 A 
ATOM     56  C   UNL     1      -6.484  -1.891  -3.959  1.00  0.00     0.049 A 
ATOM     57  H   UNL     1      -6.180  -0.985  -2.046  1.00  0.00     0.167 HD
ATOM     58  C   UNL     1      -4.010  -8.116  -3.337  1.00  0.00     0.037 A 
ATOM     59  C   UNL     1      -5.814  -1.174  -4.903  1.00  0.00     0.037 A 
ATOM     60  C   UNL     1      -4.638  -7.630  -4.523  1.00  0.00     0.049 A 
ATOM     61  C   UNL     1      -5.234  -2.055  -5.982  1.00  0.00     0.074 A 
ATOM     62  C   UNL     1      -5.974  -7.472  -4.837  1.00  0.00     0.029 A 
ATOM     63  N   UNL     1      -3.915  -6.784  -5.341  1.00  0.00    -0.354 N 
ATOM     64  N   UNL     1      -5.020  -3.336  -5.840  1.00  0.00    -0.248 NA
ATOM     65  C   UNL     1      -4.888  -1.585  -7.319  1.00  0.00     0.031 C 
ATOM     66  C   UNL     1      -6.061  -6.455  -5.814  1.00  0.00     0.029 A 
ATOM     67  C   UNL     1      -4.776  -6.056  -6.133  1.00  0.00     0.049 A 
ATOM     68  H   UNL     1      -2.933  -6.712  -5.356  1.00  0.00     0.167 HD
ATOM     69  C   UNL     1      -4.534  -3.858  -7.011  1.00  0.00     0.074 A 
ATOM     70  C   UNL     1      -4.474  -2.722  -7.908  1.00  0.00     0.031 C 
ATOM     71  C   UNL     1      -4.238  -5.183  -7.153  1.00  0.00     0.037 A 
BRANCH  58  72
ATOM     72  C   UNL     1      -3.907  -9.560  -2.864  1.00  0.00     0.058 A 
ATOM     73  C   UNL     1      -5.006 -10.426  -3.006  1.00  0.00     0.135 A 
ATOM     74  C   UNL     1      -2.823 -10.082  -2.115  1.00  0.00     0.135 A 
ATOM     75  F   UNL     1      -6.089 -10.058  -3.704  1.00  0.00    -0.206 F 
ATOM     76  C   UNL     1      -5.072 -11.677  -2.386  1.00  0.00     0.059 A 
ATOM     77  C   UNL     1      -2.882 -11.320  -1.449  1.00  0.00     0.059 A 
ATOM     78  F   UNL     1      -1.705  -9.357  -1.934  1.00  0.00    -0.206 F 
ATOM     79  C   UNL     1      -4.021 -12.107  -1.585  1.00  0.00     0.060 A 
BRANCH  79  80
ATOM     80  S   UNL     1      -4.212 -13.658  -0.670  1.00  0.00     0.124 S 
ATOM     81  O   UNL     1      -5.569 -13.546  -0.141  1.00  0.00    -0.237 OA
ATOM     82  O   UNL     1      -4.022 -14.652  -1.720  1.00  0.00    -0.237 OA
ATOM     83  O   UNL     1      -3.155 -13.588   0.334  1.00  0.00    -0.744 OA
ENDBRANCH  79  80
ENDBRANCH  58  72
BRANCH  59  84
ATOM     84  C   UNL     1      -5.321   0.157  -4.429  1.00  0.00     0.058 A 
ATOM     85  C   UNL     1      -6.276   1.060  -3.907  1.00  0.00     0.135 A 
ATOM     86  C   UNL     1      -3.976   0.448  -4.165  1.00  0.00     0.135 A 
ATOM     87  F   UNL     1      -7.585   0.853  -4.128  1.00  0.00    -0.206 F 
ATOM     88  C   UNL     1      -5.933   2.112  -3.062  1.00  0.00     0.059 A 
ATOM     89  C   UNL     1      -3.603   1.518  -3.329  1.00  0.00     0.059 A 
ATOM     90  F   UNL     1      -3.010  -0.372  -4.605  1.00  0.00    -0.206 F 
ATOM     91  C   UNL     1      -4.594   2.314  -2.748  1.00  0.00     0.060 A 
BRANCH  91  92
ATOM     92  S   UNL     1      -4.224   3.526  -1.447  1.00  0.00     0.124 S 
ATOM     93  O   UNL     1      -4.651   4.777  -2.063  1.00  0.00    -0.237 OA
ATOM     94  O   UNL     1      -5.064   3.048  -0.349  1.00  0.00    -0.237 OA
ATOM     95  O   UNL     1      -2.787   3.374  -1.252  1.00  0.00    -0.744 OA
ENDBRANCH  91  92
ENDBRANCH  59  84
BRANCH  71  96
ATOM     96  C   UNL     1      -3.478  -5.843  -8.280  1.00  0.00     0.058 A 
ATOM     97  C   UNL     1      -2.507  -5.194  -9.053  1.00  0.00     0.135 A 
ATOM     98  C   UNL     1      -3.584  -7.247  -8.485  1.00  0.00     0.135 A 
ATOM     99  F   UNL     1      -2.239  -3.892  -8.887  1.00  0.00    -0.206 F 
ATOM    100  C   UNL     1      -1.734  -5.872  -9.998  1.00  0.00     0.059 A 
ATOM    101  C   UNL     1      -2.775  -7.951  -9.366  1.00  0.00     0.059 A 
ATOM    102  F   UNL     1      -4.473  -7.997  -7.815  1.00  0.00    -0.206 F 
ATOM    103  C   UNL     1      -1.872  -7.250 -10.143  1.00  0.00     0.060 A 
BRANCH 103 104
ATOM    104  S   UNL     1      -0.851  -8.147 -11.321  1.00  0.00     0.124 S 
ATOM    105  O   UNL     1      -1.730  -8.200 -12.482  1.00  0.00    -0.237 OA
ATOM    106  O   UNL     1       0.324  -7.294 -11.454  1.00  0.00    -0.237 OA
ATOM    107  O   UNL     1      -0.615  -9.423 -10.645  1.00  0.00    -0.744 OA
ENDBRANCH 103 104
ENDBRANCH  71  96
ENDBRANCH  45  46
ENDBRANCH  38  40
ENDBRANCH  37  38
ENDBRANCH  36  37
ENDBRANCH  35  36
ENDBRANCH  34  35
ENDBRANCH  33  34
ENDBRANCH   1  33
TORSDOF 23
