REMARK SMILES O=C(OCCOCCOCCOC(=O)[C@]1(CCc2cccnc2)CCC[NH2+]C1)c1ccc(-c2c3nc(c(-c4c(F)cc(S(=O)(=O)[O-])cc4F)c4ccc([nH]4)c(-c4c(F)cc(S(=O)(=O)[O-])cc4F)c4nc(c(-c5c(F)cc(S(=O)(=O)[O-])cc5F)c5ccc2[nH]5)C=C4)C=C3)cc1
REMARK SMILES IDX 7 1 6 2 5 3 4 4 3 5 2 6 1 7 29 8 30 9 94 10 31 11 93 12
REMARK SMILES IDX 32 13 33 14 34 15 87 16 35 17 92 18 86 19 88 20 36 21 91 22
REMARK SMILES IDX 85 23 84 24 37 26 71 27 50 28 70 29 51 30 54 31 69 32 89 33
REMARK SMILES IDX 52 34 53 35 68 37 90 38 55 39 38 40 39 41 48 42 40 43 41 44
REMARK SMILES IDX 47 45 49 46 42 47 43 48 44 49 45 50 46 51 72 52 73 53 82 54
REMARK SMILES IDX 74 55 75 56 81 57 83 58 76 59 77 60 78 61 79 62 80 63 56 64
REMARK SMILES IDX 57 65 66 66 58 67 59 68 65 69 67 70 60 71 61 72 62 73 63 74
REMARK SMILES IDX 64 75 8 76 9 77 10 78 11 79 12 80 13 81 14 82 15 83 24 84
REMARK SMILES IDX 28 85 25 86 27 87 26 88 16 91 17 92 18 93 19 94 23 95 20 96
REMARK SMILES IDX 22 97 21 98
REMARK H PARENT 88 25 54 36 27 89 27 90
REMARK Flexibility Score: inf
ROOT
ATOM      1  C   UNL     1       2.614   1.171   0.537  1.00  0.00     0.188 C 
ENDROOT
BRANCH   1   2
ATOM      2  O   UNL     1       4.027   1.173   0.370  1.00  0.00    -0.376 OA
BRANCH   2   3
ATOM      3  C   UNL     1       4.519   1.571  -0.904  1.00  0.00     0.202 C 
BRANCH   3   4
ATOM      4  C   UNL     1       4.445   0.543  -2.041  1.00  0.00     0.261 C 
BRANCH   4   5
ATOM      5  O   UNL     1       3.218  -0.195  -2.121  1.00  0.00    -0.460 OA
BRANCH   5   6
ATOM      6  C   UNL     1       2.865  -1.353  -1.511  1.00  0.00     0.338 C 
ATOM      7  O   UNL     1       1.804  -1.874  -1.855  1.00  0.00    -0.246 OA
BRANCH   6   8
ATOM      8  C   UNL     1       3.623  -1.997  -0.382  1.00  0.00     0.060 A 
ATOM      9  C   UNL     1       4.901  -1.647   0.059  1.00  0.00     0.016 A 
ATOM     10  C   UNL     1       2.973  -3.050   0.294  1.00  0.00     0.016 A 
ATOM     11  C   UNL     1       5.526  -2.320   1.104  1.00  0.00     0.010 A 
ATOM     12  C   UNL     1       3.590  -3.728   1.353  1.00  0.00     0.010 A 
ATOM     13  C   UNL     1       4.887  -3.374   1.744  1.00  0.00    -0.014 A 
BRANCH  13  14
ATOM     14  C   UNL     1       5.688  -4.206   2.663  1.00  0.00     0.031 A 
ATOM     15  C   UNL     1       6.245  -5.481   2.114  1.00  0.00     0.074 A 
ATOM     16  C   UNL     1       6.043  -3.763   3.884  1.00  0.00     0.049 A 
ATOM     17  N   UNL     1       7.070  -6.321   2.672  1.00  0.00    -0.248 NA
ATOM     18  C   UNL     1       5.882  -5.819   0.725  1.00  0.00     0.031 C 
ATOM     19  C   UNL     1       5.717  -2.449   4.427  1.00  0.00     0.029 A 
ATOM     20  N   UNL     1       6.756  -4.355   4.892  1.00  0.00    -0.354 N 
ATOM     21  C   UNL     1       7.386  -7.236   1.681  1.00  0.00     0.074 A 
ATOM     22  C   UNL     1       6.596  -6.913   0.517  1.00  0.00     0.031 C 
ATOM     23  C   UNL     1       6.108  -2.374   5.709  1.00  0.00     0.029 A 
ATOM     24  C   UNL     1       6.778  -3.618   6.056  1.00  0.00     0.049 A 
ATOM     25  H   UNL     1       7.209  -5.223   4.795  1.00  0.00     0.167 HD
ATOM     26  C   UNL     1       8.304  -8.225   1.727  1.00  0.00     0.037 A 
ATOM     27  C   UNL     1       7.296  -3.916   7.261  1.00  0.00     0.037 A 
ATOM     28  C   UNL     1       9.046  -8.553   2.911  1.00  0.00     0.049 A 
ATOM     29  C   UNL     1       8.138  -5.158   7.358  1.00  0.00     0.074 A 
ATOM     30  C   UNL     1       9.940  -9.587   3.109  1.00  0.00     0.029 A 
ATOM     31  N   UNL     1       8.965  -7.851   4.107  1.00  0.00    -0.354 N 
ATOM     32  N   UNL     1       8.430  -6.021   6.412  1.00  0.00    -0.248 NA
ATOM     33  C   UNL     1       8.768  -5.439   8.651  1.00  0.00     0.031 C 
ATOM     34  C   UNL     1      10.358  -9.543   4.444  1.00  0.00     0.029 A 
ATOM     35  C   UNL     1       9.769  -8.448   5.061  1.00  0.00     0.049 A 
ATOM     36  H   UNL     1       8.416  -7.048   4.254  1.00  0.00     0.167 HD
ATOM     37  C   UNL     1       9.323  -6.918   6.979  1.00  0.00     0.074 A 
ATOM     38  C   UNL     1       9.522  -6.488   8.351  1.00  0.00     0.031 C 
ATOM     39  C   UNL     1       9.936  -7.990   6.418  1.00  0.00     0.037 A 
BRANCH  26  40
ATOM     40  C   UNL     1       8.512  -9.010   0.468  1.00  0.00     0.058 A 
ATOM     41  C   UNL     1       9.174  -8.454  -0.640  1.00  0.00     0.135 A 
ATOM     42  C   UNL     1       8.014 -10.315   0.350  1.00  0.00     0.135 A 
ATOM     43  F   UNL     1       9.631  -7.192  -0.592  1.00  0.00    -0.206 F 
ATOM     44  C   UNL     1       9.321  -9.161  -1.827  1.00  0.00     0.059 A 
ATOM     45  C   UNL     1       8.169 -11.049  -0.821  1.00  0.00     0.059 A 
ATOM     46  F   UNL     1       7.350 -10.879   1.371  1.00  0.00    -0.206 F 
ATOM     47  C   UNL     1       8.816 -10.460  -1.907  1.00  0.00     0.060 A 
BRANCH  47  48
ATOM     48  S   UNL     1       9.023 -11.367  -3.454  1.00  0.00     0.124 S 
ATOM     49  O   UNL     1       8.102 -10.657  -4.335  1.00  0.00    -0.237 OA
ATOM     50  O   UNL     1      10.441 -11.182  -3.734  1.00  0.00    -0.237 OA
ATOM     51  O   UNL     1       8.627 -12.730  -3.102  1.00  0.00    -0.744 OA
ENDBRANCH  47  48
ENDBRANCH  26  40
BRANCH  27  52
ATOM     52  C   UNL     1       7.048  -3.043   8.442  1.00  0.00     0.058 A 
ATOM     53  C   UNL     1       8.076  -2.328   9.072  1.00  0.00     0.135 A 
ATOM     54  C   UNL     1       5.760  -2.950   8.999  1.00  0.00     0.135 A 
ATOM     55  F   UNL     1       9.323  -2.374   8.578  1.00  0.00    -0.206 F 
ATOM     56  C   UNL     1       7.853  -1.596  10.236  1.00  0.00     0.059 A 
ATOM     57  C   UNL     1       5.507  -2.208  10.149  1.00  0.00     0.059 A 
ATOM     58  F   UNL     1       4.730  -3.591   8.425  1.00  0.00    -0.206 F 
ATOM     59  C   UNL     1       6.565  -1.552  10.774  1.00  0.00     0.060 A 
BRANCH  59  60
ATOM     60  S   UNL     1       6.290  -0.625  12.301  1.00  0.00     0.124 S 
ATOM     61  O   UNL     1       6.980  -1.458  13.279  1.00  0.00    -0.237 OA
ATOM     62  O   UNL     1       6.916   0.657  11.996  1.00  0.00    -0.237 OA
ATOM     63  O   UNL     1       4.835  -0.593  12.415  1.00  0.00    -0.744 OA
ENDBRANCH  59  60
ENDBRANCH  27  52
BRANCH  39  64
ATOM     64  C   UNL     1      10.894  -8.748   7.288  1.00  0.00     0.058 A 
ATOM     65  C   UNL     1      10.446  -9.540   8.356  1.00  0.00     0.135 A 
ATOM     66  C   UNL     1      12.272  -8.708   7.025  1.00  0.00     0.135 A 
ATOM     67  F   UNL     1       9.137  -9.603   8.649  1.00  0.00    -0.206 F 
ATOM     68  C   UNL     1      11.337 -10.239   9.159  1.00  0.00     0.059 A 
ATOM     69  C   UNL     1      13.178  -9.429   7.793  1.00  0.00     0.059 A 
ATOM     70  F   UNL     1      12.748  -7.975   6.006  1.00  0.00    -0.206 F 
ATOM     71  C   UNL     1      12.701 -10.178   8.868  1.00  0.00     0.060 A 
BRANCH  71  72
ATOM     72  S   UNL     1      13.845 -11.110   9.904  1.00  0.00     0.124 S 
ATOM     73  O   UNL     1      13.870 -10.298  11.116  1.00  0.00    -0.237 OA
ATOM     74  O   UNL     1      13.177 -12.403  10.020  1.00  0.00    -0.237 OA
ATOM     75  O   UNL     1      15.080 -11.116   9.126  1.00  0.00    -0.744 OA
ENDBRANCH  71  72
ENDBRANCH  39  64
ENDBRANCH  13  14
ENDBRANCH   6   8
ENDBRANCH   5   6
ENDBRANCH   4   5
ENDBRANCH   3   4
ENDBRANCH   2   3
ENDBRANCH   1   2
BRANCH   1  76
ATOM     76  C   UNL     1       1.855   2.475   0.810  1.00  0.00     0.188 C 
BRANCH  76  77
ATOM     77  O   UNL     1       2.507   3.724   0.715  1.00  0.00    -0.376 OA
BRANCH  77  78
ATOM     78  C   UNL     1       3.749   3.886   1.374  1.00  0.00     0.202 C 
BRANCH  78  79
ATOM     79  C   UNL     1       3.946   3.458   2.828  1.00  0.00     0.261 C 
BRANCH  79  80
ATOM     80  O   UNL     1       3.463   2.171   3.253  1.00  0.00    -0.463 OA
BRANCH  80  81
ATOM     81  C   UNL     1       2.398   2.232   4.095  1.00  0.00     0.317 C 
ATOM     82  O   UNL     1       1.710   3.243   4.244  1.00  0.00    -0.251 OA
BRANCH  81  83
ATOM     83  C   UNL     1       2.140   0.961   4.918  1.00  0.00     0.117 C 
ATOM     84  C   UNL     1       3.051  -0.260   4.699  1.00  0.00     0.030 C 
ATOM     85  C   UNL     1       0.666   0.573   4.633  1.00  0.00     0.279 C 
ATOM     86  C   UNL     1       2.658  -1.225   3.584  1.00  0.00     0.063 C 
ATOM     87  N   UNL     1       0.494  -0.106   3.340  1.00  0.00    -0.345 N 
ATOM     88  C   UNL     1       1.168  -1.398   3.372  1.00  0.00     0.260 C 
ATOM     89  H   UNL     1      -0.500  -0.245   3.159  1.00  0.00     0.346 HD
ATOM     90  H   UNL     1       0.898   0.468   2.600  1.00  0.00     0.346 HD
BRANCH  83  91
ATOM     91  C   UNL     1       2.286   1.396   6.419  1.00  0.00     0.029 C 
BRANCH  91  92
ATOM     92  C   UNL     1       3.726   1.626   6.947  1.00  0.00     0.038 C 
BRANCH  92  93
ATOM     93  C   UNL     1       4.473   2.799   6.372  1.00  0.00    -0.030 A 
ATOM     94  C   UNL     1       3.976   4.101   6.471  1.00  0.00     0.007 A 
ATOM     95  C   UNL     1       5.705   2.639   5.740  1.00  0.00     0.114 A 
ATOM     96  C   UNL     1       4.686   5.163   5.916  1.00  0.00     0.020 A 
ATOM     97  N   UNL     1       6.415   3.652   5.186  1.00  0.00    -0.264 NA
ATOM     98  C   UNL     1       5.889   4.890   5.289  1.00  0.00     0.111 A 
ENDBRANCH  92  93
ENDBRANCH  91  92
ENDBRANCH  83  91
ENDBRANCH  81  83
ENDBRANCH  80  81
ENDBRANCH  79  80
ENDBRANCH  78  79
ENDBRANCH  77  78
ENDBRANCH  76  77
ENDBRANCH   1  76
TORSDOF 23
