REMARK SMILES C[C@@H](C(=O)OCCOCCOCCOC(=O)c1ccc(-c2c3nc(c(-c4c(F)cc(S(=O)(=O)[O-])cc4F)c4ccc([nH]4)c(-c4c(F)cc(S(=O)(=O)[O-])cc4F)c4nc(c(-c5c(F)cc(S(=O)(=O)[O-])cc5F)c5ccc2[nH]5)C=C4)C=C3)cc1)c1ccc(C[C@@H]2CCC[C@@H]2O)cc1Br
REMARK SMILES IDX 9 1 8 2 7 3 6 4 5 5 3 6 4 7 2 8 1 9 83 10 84 11 95 12 85 13
REMARK SMILES IDX 94 14 96 15 86 16 87 17 88 18 89 19 92 20 90 21 91 22 93 23
REMARK SMILES IDX 10 25 11 26 12 27 13 28 14 29 15 30 16 31 17 32 18 33 82 34
REMARK SMILES IDX 19 35 81 36 20 37 21 38 22 39 75 40 23 41 80 42 74 43 76 44
REMARK SMILES IDX 24 45 79 46 73 47 72 48 25 50 59 51 38 52 58 53 39 54 42 55
REMARK SMILES IDX 57 56 77 57 40 58 41 59 56 61 78 62 43 63 26 64 27 65 36 66
REMARK SMILES IDX 28 67 29 68 35 69 37 70 30 71 31 72 32 73 33 74 34 75 60 76
REMARK SMILES IDX 61 77 70 78 62 79 63 80 69 81 71 82 64 83 65 84 66 85 67 86
REMARK SMILES IDX 68 87 44 88 45 89 54 90 46 91 47 92 53 93 55 94 48 95 49 96
REMARK SMILES IDX 50 97 51 98 52 99
REMARK H PARENT 93 24 76 49 42 60
REMARK Flexibility Score: inf
ROOT
ATOM      1  C   UNL     1     -11.012   1.020   7.855  1.00  0.00     0.188 C 
ENDROOT
BRANCH   1   2
ATOM      2  O   UNL     1     -10.945   0.423   9.145  1.00  0.00    -0.376 OA
BRANCH   2   3
ATOM      3  C   UNL     1     -10.795   1.280  10.277  1.00  0.00     0.202 C 
BRANCH   3   4
ATOM      4  C   UNL     1      -9.783   2.444  10.220  1.00  0.00     0.261 C 
BRANCH   4   5
ATOM      5  O   UNL     1     -10.006   3.354   9.124  1.00  0.00    -0.463 OA
BRANCH   5   6
ATOM      6  C   UNL     1      -8.913   3.910   8.531  1.00  0.00     0.313 C 
ATOM      7  O   UNL     1      -7.769   3.764   8.950  1.00  0.00    -0.252 OA
BRANCH   6   8
ATOM      8  C   UNL     1      -9.243   4.673   7.226  1.00  0.00     0.127 C 
ATOM      9  C   UNL     1     -10.594   5.406   7.339  1.00  0.00     0.025 C 
BRANCH   8  10
ATOM     10  C   UNL     1      -8.978   3.881   5.924  1.00  0.00    -0.020 A 
ATOM     11  C   UNL     1      -8.325   2.628   5.990  1.00  0.00     0.006 A 
ATOM     12  C   UNL     1      -9.212   4.377   4.622  1.00  0.00     0.022 A 
ATOM     13  C   UNL     1      -7.911   1.925   4.851  1.00  0.00     0.004 A 
ATOM     14  C   UNL     1      -8.770   3.678   3.481  1.00  0.00     0.019 A 
ATOM     15  Br  UNL     1     -10.007   6.062   4.235  1.00  0.00    -0.050 Br
ATOM     16  C   UNL     1      -8.063   2.478   3.586  1.00  0.00    -0.047 A 
BRANCH  16  17
ATOM     17  C   UNL     1      -7.402   1.874   2.367  1.00  0.00     0.041 C 
BRANCH  17  18
ATOM     18  C   UNL     1      -5.868   2.031   2.221  1.00  0.00     0.022 C 
ATOM     19  C   UNL     1      -5.023   1.330   3.294  1.00  0.00     0.007 C 
ATOM     20  C   UNL     1      -5.314   3.458   2.246  1.00  0.00     0.117 C 
ATOM     21  C   UNL     1      -4.613   2.405   4.306  1.00  0.00     0.003 C 
ATOM     22  C   UNL     1      -5.040   3.745   3.716  1.00  0.00     0.032 C 
BRANCH  20  23
ATOM     23  O   UNL     1      -6.186   4.410   1.667  1.00  0.00    -0.393 OA
ATOM     24  H   UNL     1      -7.028   4.412   2.150  1.00  0.00     0.210 HD
ENDBRANCH  20  23
ENDBRANCH  17  18
ENDBRANCH  16  17
ENDBRANCH   8  10
ENDBRANCH   6   8
ENDBRANCH   5   6
ENDBRANCH   4   5
ENDBRANCH   3   4
ENDBRANCH   2   3
ENDBRANCH   1   2
BRANCH   1  25
ATOM     25  C   UNL     1     -12.024   2.151   7.625  1.00  0.00     0.188 C 
BRANCH  25  26
ATOM     26  O   UNL     1     -12.734   2.547   8.774  1.00  0.00    -0.376 OA
BRANCH  26  27
ATOM     27  C   UNL     1     -14.083   2.143   8.927  1.00  0.00     0.202 C 
BRANCH  27  28
ATOM     28  C   UNL     1     -14.629   0.792   8.422  1.00  0.00     0.261 C 
BRANCH  28  29
ATOM     29  O   UNL     1     -14.034   0.213   7.253  1.00  0.00    -0.460 OA
BRANCH  29  30
ATOM     30  C   UNL     1     -14.429   0.696   6.051  1.00  0.00     0.338 C 
ATOM     31  O   UNL     1     -15.244   1.583   5.852  1.00  0.00    -0.246 OA
BRANCH  30  32
ATOM     32  C   UNL     1     -13.523   0.126   5.026  1.00  0.00     0.060 A 
ATOM     33  C   UNL     1     -12.684   0.982   4.298  1.00  0.00     0.016 A 
ATOM     34  C   UNL     1     -13.482  -1.253   4.809  1.00  0.00     0.016 A 
ATOM     35  C   UNL     1     -11.815   0.463   3.336  1.00  0.00     0.010 A 
ATOM     36  C   UNL     1     -12.634  -1.768   3.824  1.00  0.00     0.010 A 
ATOM     37  C   UNL     1     -11.817  -0.911   3.063  1.00  0.00    -0.014 A 
BRANCH  37  38
ATOM     38  C   UNL     1     -11.117  -1.435   1.864  1.00  0.00     0.031 A 
ATOM     39  C   UNL     1     -11.921  -1.664   0.613  1.00  0.00     0.074 A 
ATOM     40  C   UNL     1      -9.802  -1.716   1.883  1.00  0.00     0.049 A 
ATOM     41  N   UNL     1     -11.552  -2.182  -0.529  1.00  0.00    -0.248 NA
ATOM     42  C   UNL     1     -13.339  -1.272   0.668  1.00  0.00     0.031 C 
ATOM     43  C   UNL     1      -8.916  -1.529   3.029  1.00  0.00     0.029 A 
ATOM     44  N   UNL     1      -8.983  -2.221   0.902  1.00  0.00    -0.354 N 
ATOM     45  C   UNL     1     -12.696  -2.209  -1.317  1.00  0.00     0.074 A 
ATOM     46  C   UNL     1     -13.774  -1.666  -0.520  1.00  0.00     0.031 C 
ATOM     47  C   UNL     1      -7.670  -1.900   2.680  1.00  0.00     0.029 A 
ATOM     48  C   UNL     1      -7.677  -2.385   1.301  1.00  0.00     0.049 A 
ATOM     49  H   UNL     1      -9.301  -2.446  -0.002  1.00  0.00     0.167 HD
ATOM     50  C   UNL     1     -12.836  -2.652  -2.589  1.00  0.00     0.037 A 
ATOM     51  C   UNL     1      -6.615  -2.881   0.632  1.00  0.00     0.037 A 
ATOM     52  C   UNL     1     -11.758  -3.187  -3.379  1.00  0.00     0.049 A 
ATOM     53  C   UNL     1      -6.803  -3.391  -0.778  1.00  0.00     0.074 A 
ATOM     54  C   UNL     1     -11.797  -3.644  -4.685  1.00  0.00     0.029 A 
ATOM     55  N   UNL     1     -10.453  -3.346  -2.939  1.00  0.00    -0.354 N 
ATOM     56  N   UNL     1      -7.885  -3.394  -1.520  1.00  0.00    -0.248 NA
ATOM     57  C   UNL     1      -5.628  -3.983  -1.434  1.00  0.00     0.031 C 
ATOM     58  C   UNL     1     -10.529  -4.134  -5.014  1.00  0.00     0.029 A 
ATOM     59  C   UNL     1      -9.683  -3.920  -3.938  1.00  0.00     0.049 A 
ATOM     60  H   UNL     1     -10.122  -3.088  -2.048  1.00  0.00     0.167 HD
ATOM     61  C   UNL     1      -7.516  -3.967  -2.734  1.00  0.00     0.074 A 
ATOM     62  C   UNL     1      -6.106  -4.280  -2.635  1.00  0.00     0.031 C 
ATOM     63  C   UNL     1      -8.276  -4.218  -3.830  1.00  0.00     0.037 A 
BRANCH  50  64
ATOM     64  C   UNL     1     -14.214  -2.619  -3.192  1.00  0.00     0.058 A 
ATOM     65  C   UNL     1     -14.847  -1.416  -3.541  1.00  0.00     0.135 A 
ATOM     66  C   UNL     1     -14.897  -3.818  -3.457  1.00  0.00     0.135 A 
ATOM     67  F   UNL     1     -14.250  -0.240  -3.290  1.00  0.00    -0.206 F 
ATOM     68  C   UNL     1     -16.117  -1.401  -4.109  1.00  0.00     0.059 A 
ATOM     69  C   UNL     1     -16.154  -3.828  -4.053  1.00  0.00     0.059 A 
ATOM     70  F   UNL     1     -14.341  -4.998  -3.139  1.00  0.00    -0.206 F 
ATOM     71  C   UNL     1     -16.761  -2.613  -4.364  1.00  0.00     0.060 A 
BRANCH  71  72
ATOM     72  S   UNL     1     -18.402  -2.576  -5.115  1.00  0.00     0.124 S 
ATOM     73  O   UNL     1     -19.214  -2.064  -4.016  1.00  0.00    -0.237 OA
ATOM     74  O   UNL     1     -18.209  -1.665  -6.239  1.00  0.00    -0.237 OA
ATOM     75  O   UNL     1     -18.643  -3.970  -5.476  1.00  0.00    -0.744 OA
ENDBRANCH  71  72
ENDBRANCH  50  64
BRANCH  51  76
ATOM     76  C   UNL     1      -5.275  -2.937   1.281  1.00  0.00     0.058 A 
ATOM     77  C   UNL     1      -4.206  -2.166   0.799  1.00  0.00     0.135 A 
ATOM     78  C   UNL     1      -5.029  -3.770   2.384  1.00  0.00     0.135 A 
ATOM     79  F   UNL     1      -4.382  -1.361  -0.260  1.00  0.00    -0.206 F 
ATOM     80  C   UNL     1      -2.939  -2.233   1.372  1.00  0.00     0.059 A 
ATOM     81  C   UNL     1      -3.781  -3.828   2.996  1.00  0.00     0.059 A 
ATOM     82  F   UNL     1      -6.017  -4.524   2.891  1.00  0.00    -0.206 F 
ATOM     83  C   UNL     1      -2.738  -3.064   2.474  1.00  0.00     0.060 A 
BRANCH  83  84
ATOM     84  S   UNL     1      -1.104  -3.106   3.241  1.00  0.00     0.124 S 
ATOM     85  O   UNL     1      -0.331  -3.841   2.248  1.00  0.00    -0.237 OA
ATOM     86  O   UNL     1      -0.794  -1.685   3.371  1.00  0.00    -0.237 OA
ATOM     87  O   UNL     1      -1.343  -3.805   4.500  1.00  0.00    -0.744 OA
ENDBRANCH  83  84
ENDBRANCH  51  76
BRANCH  63  88
ATOM     88  C   UNL     1      -7.598  -4.826  -5.032  1.00  0.00     0.058 A 
ATOM     89  C   UNL     1      -7.162  -6.160  -5.043  1.00  0.00     0.135 A 
ATOM     90  C   UNL     1      -7.441  -4.079  -6.211  1.00  0.00     0.135 A 
ATOM     91  F   UNL     1      -7.284  -6.921  -3.943  1.00  0.00    -0.206 F 
ATOM     92  C   UNL     1      -6.572  -6.724  -6.171  1.00  0.00     0.059 A 
ATOM     93  C   UNL     1      -6.884  -4.631  -7.361  1.00  0.00     0.059 A 
ATOM     94  F   UNL     1      -7.853  -2.802  -6.262  1.00  0.00    -0.206 F 
ATOM     95  C   UNL     1      -6.440  -5.952  -7.327  1.00  0.00     0.060 A 
BRANCH  95  96
ATOM     96  S   UNL     1      -5.703  -6.706  -8.793  1.00  0.00     0.124 S 
ATOM     97  O   UNL     1      -4.301  -6.804  -8.400  1.00  0.00    -0.237 OA
ATOM     98  O   UNL     1      -6.425  -7.971  -8.889  1.00  0.00    -0.237 OA
ATOM     99  O   UNL     1      -5.992  -5.744  -9.853  1.00  0.00    -0.744 OA
ENDBRANCH  95  96
ENDBRANCH  63  88
ENDBRANCH  37  38
ENDBRANCH  30  32
ENDBRANCH  29  30
ENDBRANCH  28  29
ENDBRANCH  27  28
ENDBRANCH  26  27
ENDBRANCH  25  26
ENDBRANCH   1  25
TORSDOF 24
