REMARK SMILES Cc1ccccc1Nc1nc2c(c(=O)[nH]c(=O)n2C)n1CC(=O)OCCOCCOCCOC(=O)c1ccc(-c2c3nc(c(-c4c(F)cc(S(=O)(=O)[O-])cc4F)c4ccc([nH]4)c(-c4c(F)cc(S(=O)(=O)[O-])cc4F)c4nc(c(-c5c(F)cc(S(=O)(=O)[O-])cc5F)c5ccc2[nH]5)C=C4)C=C3)cc1
REMARK SMILES IDX 28 1 27 2 26 3 25 4 24 5 22 6 23 7 21 8 20 9 9 10 10 11
REMARK SMILES IDX 11 12 12 13 18 14 13 15 16 16 19 17 14 18 15 19 17 20 8 22
REMARK SMILES IDX 7 24 1 25 2 26 3 27 4 28 6 29 5 30 29 31 30 32 31 33 32 34
REMARK SMILES IDX 33 35 34 36 35 37 36 38 37 39 101 40 38 41 100 42 39 43
REMARK SMILES IDX 40 44 41 45 94 46 42 47 99 48 93 49 95 50 43 51 98 52 92 53
REMARK SMILES IDX 91 54 44 56 78 57 57 58 77 59 58 60 61 61 76 62 96 63 59 64
REMARK SMILES IDX 60 65 75 67 97 68 62 69 45 70 46 71 55 72 47 73 48 74 54 75
REMARK SMILES IDX 56 76 49 77 50 78 51 79 52 80 53 81 79 82 80 83 89 84 81 85
REMARK SMILES IDX 82 86 88 87 90 88 83 89 84 90 85 91 86 92 87 93 63 94 64 95
REMARK SMILES IDX 73 96 65 97 66 98 72 99 74 100 67 101 68 102 69 103 70 104
REMARK SMILES IDX 71 105
REMARK H PARENT 15 21 8 23 95 55 61 66
REMARK Flexibility Score: inf
ROOT
ATOM      1  C   UNL     1      -3.232  -1.002  -0.942  1.00  0.00     0.188 C 
ENDROOT
BRANCH   1   2
ATOM      2  O   UNL     1      -4.015  -0.393   0.101  1.00  0.00    -0.376 OA
BRANCH   2   3
ATOM      3  C   UNL     1      -5.346  -0.063  -0.266  1.00  0.00     0.202 C 
BRANCH   3   4
ATOM      4  C   UNL     1      -5.671   1.444  -0.108  1.00  0.00     0.261 C 
BRANCH   4   5
ATOM      5  O   UNL     1      -4.710   2.416  -0.688  1.00  0.00    -0.462 OA
BRANCH   5   6
ATOM      6  C   UNL     1      -4.110   3.219   0.257  1.00  0.00     0.326 C 
ATOM      7  O   UNL     1      -4.357   3.011   1.432  1.00  0.00    -0.250 OA
BRANCH   6   8
ATOM      8  C   UNL     1      -3.146   4.354  -0.183  1.00  0.00     0.248 C 
BRANCH   8   9
ATOM      9  N   UNL     1      -1.618   4.455   0.148  1.00  0.00    -0.293 N 
ATOM     10  C   UNL     1      -0.415   3.630  -0.529  1.00  0.00     0.210 A 
ATOM     11  N   UNL     1      -0.043   4.667  -1.411  1.00  0.00    -0.194 NA
ATOM     12  C   UNL     1      -0.438   5.870  -0.926  1.00  0.00     0.170 A 
ATOM     13  C   UNL     1      -1.058   5.744   0.274  1.00  0.00     0.154 A 
ATOM     14  N   UNL     1      -0.369   7.098  -1.560  1.00  0.00    -0.279 N 
ATOM     15  C   UNL     1      -1.378   6.906   1.036  1.00  0.00     0.279 A 
ATOM     16  C   UNL     1      -1.020   8.188  -0.987  1.00  0.00     0.329 A 
ATOM     17  C   UNL     1       0.241   7.236  -2.859  1.00  0.00     0.157 C 
ATOM     18  O   UNL     1      -1.423   7.017   2.256  1.00  0.00    -0.267 OA
ATOM     19  N   UNL     1      -1.540   8.017   0.269  1.00  0.00    -0.272 N 
ATOM     20  O   UNL     1      -1.154   9.286  -1.528  1.00  0.00    -0.248 OA
ATOM     21  H   UNL     1      -2.072   8.755   0.644  1.00  0.00     0.175 HD
BRANCH  10  22
ATOM     22  N   UNL     1       0.118   1.800  -0.373  1.00  0.00    -0.325 N 
ATOM     23  H   UNL     1      -0.132   1.510   0.533  1.00  0.00     0.170 HD
BRANCH  22  24
ATOM     24  C   UNL     1       0.846   0.451  -1.138  1.00  0.00     0.044 A 
ATOM     25  C   UNL     1       3.104  -0.620  -1.105  1.00  0.00     0.046 C 
ATOM     26  C   UNL     1       1.709  -0.392  -0.394  1.00  0.00    -0.027 A 
ATOM     27  C   UNL     1       1.264  -1.705  -0.031  1.00  0.00     0.005 A 
ATOM     28  C   UNL     1       0.373  -2.376  -0.859  1.00  0.00     0.000 A 
ATOM     29  C   UNL     1       0.022  -0.299  -1.991  1.00  0.00     0.026 A 
ATOM     30  C   UNL     1      -0.150  -1.690  -1.930  1.00  0.00     0.002 A 
ENDBRANCH  22  24
ENDBRANCH  10  22
ENDBRANCH   8   9
ENDBRANCH   6   8
ENDBRANCH   5   6
ENDBRANCH   4   5
ENDBRANCH   3   4
ENDBRANCH   2   3
ENDBRANCH   1   2
BRANCH   1  31
ATOM     31  C   UNL     1      -3.187  -0.113  -2.200  1.00  0.00     0.188 C 
BRANCH  31  32
ATOM     32  O   UNL     1      -2.631  -0.545  -3.450  1.00  0.00    -0.376 OA
BRANCH  32  33
ATOM     33  C   UNL     1      -2.534   0.546  -4.430  1.00  0.00     0.202 C 
BRANCH  33  34
ATOM     34  C   UNL     1      -1.082   0.987  -4.913  1.00  0.00     0.261 C 
BRANCH  34  35
ATOM     35  O   UNL     1      -0.604   2.184  -4.205  1.00  0.00    -0.460 OA
BRANCH  35  36
ATOM     36  C   UNL     1       0.663   2.284  -3.654  1.00  0.00     0.338 C 
ATOM     37  O   UNL     1       1.694   1.946  -4.200  1.00  0.00    -0.246 OA
BRANCH  36  38
ATOM     38  C   UNL     1       0.441   2.635  -2.204  1.00  0.00     0.060 A 
ATOM     39  C   UNL     1       1.618   3.030  -0.827  1.00  0.00     0.016 A 
ATOM     40  C   UNL     1      -1.287   2.242  -1.749  1.00  0.00     0.016 A 
ATOM     41  C   UNL     1       1.021   3.058   0.935  1.00  0.00     0.010 A 
ATOM     42  C   UNL     1      -1.797   2.085  -0.004  1.00  0.00     0.010 A 
ATOM     43  C   UNL     1      -0.711   2.627   1.373  1.00  0.00    -0.014 A 
BRANCH  43  44
ATOM     44  C   UNL     1      -1.488   2.445   2.674  1.00  0.00     0.031 A 
ATOM     45  C   UNL     1      -2.656   3.314   3.317  1.00  0.00     0.074 A 
ATOM     46  C   UNL     1      -1.611   1.100   2.752  1.00  0.00     0.049 A 
ATOM     47  N   UNL     1      -3.549   2.893   4.183  1.00  0.00    -0.248 NA
ATOM     48  C   UNL     1      -2.982   4.723   3.044  1.00  0.00     0.031 C 
ATOM     49  C   UNL     1      -2.736   0.283   3.180  1.00  0.00     0.029 A 
ATOM     50  N   UNL     1      -0.604   0.149   2.466  1.00  0.00    -0.354 N 
ATOM     51  C   UNL     1      -4.642   3.792   4.186  1.00  0.00     0.074 A 
ATOM     52  C   UNL     1      -4.138   5.001   3.656  1.00  0.00     0.031 C 
ATOM     53  C   UNL     1      -2.273  -0.950   3.465  1.00  0.00     0.029 A 
ATOM     54  C   UNL     1      -0.815  -0.862   3.419  1.00  0.00     0.049 A 
ATOM     55  H   UNL     1       0.084   0.186   1.762  1.00  0.00     0.167 HD
ATOM     56  C   UNL     1      -5.930   3.389   4.435  1.00  0.00     0.037 A 
ATOM     57  C   UNL     1       0.005  -0.913   4.513  1.00  0.00     0.037 A 
ATOM     58  C   UNL     1      -5.876   2.110   5.099  1.00  0.00     0.049 A 
ATOM     59  C   UNL     1      -0.779  -0.669   5.793  1.00  0.00     0.074 A 
ATOM     60  C   UNL     1      -6.179   0.807   4.774  1.00  0.00     0.029 A 
ATOM     61  N   UNL     1      -5.088   2.067   6.233  1.00  0.00    -0.354 N 
ATOM     62  N   UNL     1      -1.935  -0.056   5.829  1.00  0.00    -0.248 NA
ATOM     63  C   UNL     1      -0.391  -1.169   7.108  1.00  0.00     0.031 C 
ATOM     64  C   UNL     1      -5.327  -0.016   5.586  1.00  0.00     0.029 A 
ATOM     65  C   UNL     1      -4.591   0.801   6.438  1.00  0.00     0.049 A 
ATOM     66  H   UNL     1      -4.906   2.839   6.816  1.00  0.00     0.167 HD
ATOM     67  C   UNL     1      -2.414  -0.026   7.100  1.00  0.00     0.074 A 
ATOM     68  C   UNL     1      -1.415  -0.740   7.870  1.00  0.00     0.031 C 
ATOM     69  C   UNL     1      -3.549   0.643   7.447  1.00  0.00     0.037 A 
BRANCH  56  70
ATOM     70  C   UNL     1      -7.242   4.079   4.017  1.00  0.00     0.058 A 
ATOM     71  C   UNL     1      -8.480   3.688   4.587  1.00  0.00     0.135 A 
ATOM     72  C   UNL     1      -7.376   5.028   2.972  1.00  0.00     0.135 A 
ATOM     73  F   UNL     1      -8.523   2.765   5.560  1.00  0.00    -0.206 F 
ATOM     74  C   UNL     1      -9.727   4.201   4.176  1.00  0.00     0.059 A 
ATOM     75  C   UNL     1      -8.609   5.585   2.572  1.00  0.00     0.059 A 
ATOM     76  F   UNL     1      -6.322   5.419   2.241  1.00  0.00    -0.206 F 
ATOM     77  C   UNL     1      -9.786   5.158   3.172  1.00  0.00     0.060 A 
BRANCH  77  78
ATOM     78  S   UNL     1     -11.397   5.815   2.658  1.00  0.00     0.124 S 
ATOM     79  O   UNL     1     -12.020   4.649   2.039  1.00  0.00    -0.237 OA
ATOM     80  O   UNL     1     -11.980   6.248   3.923  1.00  0.00    -0.237 OA
ATOM     81  O   UNL     1     -11.049   6.893   1.735  1.00  0.00    -0.744 OA
ENDBRANCH  77  78
ENDBRANCH  56  70
BRANCH  57  82
ATOM     82  C   UNL     1       1.422  -0.497   4.202  1.00  0.00     0.058 A 
ATOM     83  C   UNL     1       2.197  -1.321   3.357  1.00  0.00     0.135 A 
ATOM     84  C   UNL     1       1.886   0.818   4.366  1.00  0.00     0.135 A 
ATOM     85  F   UNL     1       1.817  -2.592   3.139  1.00  0.00    -0.206 F 
ATOM     86  C   UNL     1       3.307  -0.846   2.640  1.00  0.00     0.059 A 
ATOM     87  C   UNL     1       2.987   1.318   3.647  1.00  0.00     0.059 A 
ATOM     88  F   UNL     1       1.224   1.670   5.160  1.00  0.00    -0.206 F 
ATOM     89  C   UNL     1       3.658   0.497   2.741  1.00  0.00     0.060 A 
BRANCH  89  90
ATOM     90  S   UNL     1       5.003   1.165   1.712  1.00  0.00     0.124 S 
ATOM     91  O   UNL     1       5.941   0.047   1.653  1.00  0.00    -0.237 OA
ATOM     92  O   UNL     1       4.330   1.482   0.459  1.00  0.00    -0.237 OA
ATOM     93  O   UNL     1       5.462   2.325   2.468  1.00  0.00    -0.744 OA
ENDBRANCH  89  90
ENDBRANCH  57  82
BRANCH  69  94
ATOM     94  C   UNL     1      -3.666   1.347   8.781  1.00  0.00     0.058 A 
ATOM     95  C   UNL     1      -2.542   1.786   9.508  1.00  0.00     0.135 A 
ATOM     96  C   UNL     1      -4.917   1.801   9.260  1.00  0.00     0.135 A 
ATOM     97  F   UNL     1      -1.291   1.559   9.079  1.00  0.00    -0.206 F 
ATOM     98  C   UNL     1      -2.653   2.504  10.692  1.00  0.00     0.059 A 
ATOM     99  C   UNL     1      -5.044   2.596  10.394  1.00  0.00     0.059 A 
ATOM    100  F   UNL     1      -6.061   1.505   8.623  1.00  0.00    -0.206 F 
ATOM    101  C   UNL     1      -3.911   2.885  11.139  1.00  0.00     0.060 A 
BRANCH 101 102
ATOM    102  S   UNL     1      -4.075   3.705  12.729  1.00  0.00     0.124 S 
ATOM    103  O   UNL     1      -4.212   2.557  13.620  1.00  0.00    -0.237 OA
ATOM    104  O   UNL     1      -2.825   4.449  12.847  1.00  0.00    -0.237 OA
ATOM    105  O   UNL     1      -5.272   4.522  12.561  1.00  0.00    -0.744 OA
ENDBRANCH 101 102
ENDBRANCH  69  94
ENDBRANCH  43  44
ENDBRANCH  36  38
ENDBRANCH  35  36
ENDBRANCH  34  35
ENDBRANCH  33  34
ENDBRANCH  32  33
ENDBRANCH  31  32
ENDBRANCH   1  31
TORSDOF 23
