REMARK SMILES Cc1c(C(=O)OCCOCCOCCOC(=O)c2ccc(-c3c4nc(c(-c5c(F)cc(S(=O)(=O)[O-])cc5F)c5ccc([nH]5)c(-c5c(F)cc(S(=O)(=O)[O-])cc5F)c5nc(c(-c6c(F)cc(S(=O)(=O)[O-])cc6F)c6ccc3[nH]6)C=C5)C=C4)cc2)oc2c1/C(=N/NC(=O)C(c1ccccc1)c1ccccc1)CCC2
REMARK SMILES IDX 10 1 9 2 8 3 7 4 6 5 4 6 5 7 3 8 1 9 2 10 86 11 84 12 85 13
REMARK SMILES IDX 87 14 107 15 88 16 105 17 106 18 89 19 90 20 91 22 92 23
REMARK SMILES IDX 93 24 94 25 98 26 95 27 97 28 96 29 99 30 100 31 104 32
REMARK SMILES IDX 101 33 103 34 102 35 11 36 12 37 13 38 14 39 15 40 16 41
REMARK SMILES IDX 17 42 18 43 19 44 83 45 20 46 82 47 21 48 22 49 23 50 76 51
REMARK SMILES IDX 24 52 81 53 75 54 77 55 25 56 80 57 74 58 73 59 26 61 60 62
REMARK SMILES IDX 39 63 59 64 40 65 43 66 58 67 78 68 41 69 42 70 57 72 79 73
REMARK SMILES IDX 44 74 27 75 28 76 37 77 29 78 30 79 36 80 38 81 31 82 32 83
REMARK SMILES IDX 33 84 34 85 35 86 61 87 62 88 71 89 63 90 64 91 70 92 72 93
REMARK SMILES IDX 65 94 66 95 67 96 68 97 69 98 45 99 46 100 55 101 47 102
REMARK SMILES IDX 48 103 54 104 56 105 49 106 50 107 51 108 52 109 53 110
REMARK H PARENT 89 21 77 60 43 71
REMARK Flexibility Score: inf
ROOT
ATOM      1  C   UNL     1       1.122  -2.801  -2.977  1.00  0.00     0.188 C 
ENDROOT
BRANCH   1   2
ATOM      2  O   UNL     1       0.421  -4.040  -2.986  1.00  0.00    -0.376 OA
BRANCH   2   3
ATOM      3  C   UNL     1      -0.615  -4.287  -3.922  1.00  0.00     0.202 C 
BRANCH   3   4
ATOM      4  C   UNL     1      -1.889  -3.431  -3.867  1.00  0.00     0.261 C 
BRANCH   4   5
ATOM      5  O   UNL     1      -1.664  -2.031  -3.728  1.00  0.00    -0.457 OA
BRANCH   5   6
ATOM      6  C   UNL     1      -1.676  -1.534  -2.461  1.00  0.00     0.374 C 
ATOM      7  O   UNL     1      -2.020  -2.146  -1.457  1.00  0.00    -0.242 OA
BRANCH   6   8
ATOM      8  C   UNL     1      -1.080  -0.222  -2.489  1.00  0.00     0.215 A 
ATOM      9  C   UNL     1       0.263  -0.016  -0.276  1.00  0.00     0.049 C 
ATOM     10  C   UNL     1      -0.265   0.454  -1.583  1.00  0.00     0.012 A 
ATOM     11  C   UNL     1      -0.017   1.716  -2.185  1.00  0.00     0.043 A 
ATOM     12  O   UNL     1      -1.210   0.504  -3.646  1.00  0.00    -0.453 OA
ATOM     13  C   UNL     1      -0.530   1.645  -3.461  1.00  0.00     0.114 A 
ATOM     14  C   UNL     1       0.562   2.962  -1.694  1.00  0.00     0.072 C 
ATOM     15  C   UNL     1      -0.515   2.647  -4.547  1.00  0.00     0.076 C 
ATOM     16  N   UNL     1       1.253   2.810  -0.601  1.00  0.00    -0.177 NA
ATOM     17  C   UNL     1       0.059   4.110  -2.574  1.00  0.00     0.059 C 
ATOM     18  C   UNL     1       0.278   3.863  -4.073  1.00  0.00     0.014 C 
BRANCH  16  19
ATOM     19  N   UNL     1       1.895   3.577   0.333  1.00  0.00    -0.246 N 
ATOM     20  C   UNL     1       2.070   4.922   0.602  1.00  0.00     0.252 C 
ATOM     21  H   UNL     1       2.362   3.017   0.995  1.00  0.00     0.193 HD
ATOM     22  O   UNL     1       2.679   5.249   1.628  1.00  0.00    -0.272 OA
BRANCH  20  23
ATOM     23  C   UNL     1       1.514   5.980  -0.340  1.00  0.00     0.140 C 
BRANCH  23  24
ATOM     24  C   UNL     1       2.373   5.914  -1.672  1.00  0.00    -0.031 A 
ATOM     25  C   UNL     1       3.296   4.852  -1.915  1.00  0.00     0.005 A 
ATOM     26  C   UNL     1       2.292   6.872  -2.693  1.00  0.00     0.005 A 
ATOM     27  C   UNL     1       3.972   4.664  -3.122  1.00  0.00     0.000 A 
ATOM     28  C   UNL     1       3.012   6.710  -3.900  1.00  0.00     0.000 A 
ATOM     29  C   UNL     1       3.824   5.596  -4.126  1.00  0.00     0.000 A 
ENDBRANCH  23  24
BRANCH  23  30
ATOM     30  C   UNL     1      -0.067   5.919  -0.249  1.00  0.00    -0.031 A 
ATOM     31  C   UNL     1      -0.924   6.807  -0.913  1.00  0.00     0.005 A 
ATOM     32  C   UNL     1      -0.723   4.921   0.534  1.00  0.00     0.005 A 
ATOM     33  C   UNL     1      -2.326   6.609  -0.900  1.00  0.00     0.000 A 
ATOM     34  C   UNL     1      -2.099   4.684   0.498  1.00  0.00     0.000 A 
ATOM     35  C   UNL     1      -2.907   5.526  -0.236  1.00  0.00     0.000 A 
ENDBRANCH  23  30
ENDBRANCH  20  23
ENDBRANCH  16  19
ENDBRANCH   6   8
ENDBRANCH   5   6
ENDBRANCH   4   5
ENDBRANCH   3   4
ENDBRANCH   2   3
ENDBRANCH   1   2
BRANCH   1  36
ATOM     36  C   UNL     1       1.284  -1.916  -4.239  1.00  0.00     0.188 C 
BRANCH  36  37
ATOM     37  O   UNL     1       0.684  -2.428  -5.417  1.00  0.00    -0.376 OA
BRANCH  37  38
ATOM     38  C   UNL     1       1.548  -2.743  -6.502  1.00  0.00     0.202 C 
BRANCH  38  39
ATOM     39  C   UNL     1       2.477  -3.941  -6.308  1.00  0.00     0.261 C 
BRANCH  39  40
ATOM     40  O   UNL     1       3.047  -4.014  -5.014  1.00  0.00    -0.460 OA
BRANCH  40  41
ATOM     41  C   UNL     1       4.020  -3.121  -4.750  1.00  0.00     0.338 C 
ATOM     42  O   UNL     1       4.388  -2.203  -5.463  1.00  0.00    -0.246 OA
BRANCH  41  43
ATOM     43  C   UNL     1       4.606  -3.468  -3.450  1.00  0.00     0.060 A 
ATOM     44  C   UNL     1       5.588  -2.606  -2.959  1.00  0.00     0.016 A 
ATOM     45  C   UNL     1       4.461  -4.788  -3.001  1.00  0.00     0.016 A 
ATOM     46  C   UNL     1       6.651  -3.175  -2.305  1.00  0.00     0.010 A 
ATOM     47  C   UNL     1       5.540  -5.363  -2.396  1.00  0.00     0.010 A 
ATOM     48  C   UNL     1       6.660  -4.564  -2.183  1.00  0.00    -0.014 A 
BRANCH  48  49
ATOM     49  C   UNL     1       7.928  -5.214  -1.963  1.00  0.00     0.031 A 
ATOM     50  C   UNL     1       8.245  -5.405  -0.541  1.00  0.00     0.074 A 
ATOM     51  C   UNL     1       8.617  -5.707  -3.010  1.00  0.00     0.049 A 
ATOM     52  N   UNL     1       9.127  -4.780   0.164  1.00  0.00    -0.248 NA
ATOM     53  C   UNL     1       7.309  -6.222   0.248  1.00  0.00     0.031 C 
ATOM     54  C   UNL     1       8.182  -5.826  -4.408  1.00  0.00     0.029 A 
ATOM     55  N   UNL     1       9.814  -6.340  -3.010  1.00  0.00    -0.354 N 
ATOM     56  C   UNL     1       9.005  -5.316   1.440  1.00  0.00     0.074 A 
ATOM     57  C   UNL     1       7.716  -5.948   1.486  1.00  0.00     0.031 C 
ATOM     58  C   UNL     1       8.994  -6.697  -5.050  1.00  0.00     0.029 A 
ATOM     59  C   UNL     1      10.053  -7.105  -4.144  1.00  0.00     0.049 A 
ATOM     60  H   UNL     1      10.459  -6.266  -2.270  1.00  0.00     0.167 HD
ATOM     61  C   UNL     1      10.086  -5.473   2.251  1.00  0.00     0.037 A 
ATOM     62  C   UNL     1      10.974  -8.099  -4.223  1.00  0.00     0.037 A 
ATOM     63  C   UNL     1      11.206  -4.702   1.767  1.00  0.00     0.049 A 
ATOM     64  C   UNL     1      11.936  -7.879  -3.098  1.00  0.00     0.074 A 
ATOM     65  C   UNL     1      11.418  -3.359   1.521  1.00  0.00     0.029 A 
ATOM     66  N   UNL     1      12.198  -5.374   1.090  1.00  0.00    -0.354 N 
ATOM     67  N   UNL     1      12.735  -6.845  -3.016  1.00  0.00    -0.248 NA
ATOM     68  C   UNL     1      11.652  -8.537  -1.828  1.00  0.00     0.031 C 
ATOM     69  C   UNL     1      12.230  -3.318   0.352  1.00  0.00     0.029 A 
ATOM     70  C   UNL     1      12.518  -4.633  -0.020  1.00  0.00     0.049 A 
ATOM     71  H   UNL     1      12.605  -6.231   1.353  1.00  0.00     0.167 HD
ATOM     72  C   UNL     1      12.733  -6.486  -1.672  1.00  0.00     0.074 A 
ATOM     73  C   UNL     1      12.103  -7.607  -0.980  1.00  0.00     0.031 C 
ATOM     74  C   UNL     1      12.967  -5.199  -1.275  1.00  0.00     0.037 A 
BRANCH  61  75
ATOM     75  C   UNL     1      10.250  -6.609   3.235  1.00  0.00     0.058 A 
ATOM     76  C   UNL     1      11.366  -6.595   4.096  1.00  0.00     0.135 A 
ATOM     77  C   UNL     1       9.536  -7.829   3.191  1.00  0.00     0.135 A 
ATOM     78  F   UNL     1      12.109  -5.485   4.235  1.00  0.00    -0.206 F 
ATOM     79  C   UNL     1      11.804  -7.735   4.768  1.00  0.00     0.059 A 
ATOM     80  C   UNL     1       9.919  -8.958   3.901  1.00  0.00     0.059 A 
ATOM     81  F   UNL     1       8.490  -8.039   2.386  1.00  0.00    -0.206 F 
ATOM     82  C   UNL     1      11.086  -8.919   4.640  1.00  0.00     0.060 A 
BRANCH  82  83
ATOM     83  S   UNL     1      11.728 -10.432   5.367  1.00  0.00     0.124 S 
ATOM     84  O   UNL     1      12.890 -10.685   4.523  1.00  0.00    -0.237 OA
ATOM     85  O   UNL     1      12.007 -10.015   6.737  1.00  0.00    -0.237 OA
ATOM     86  O   UNL     1      10.621 -11.372   5.217  1.00  0.00    -0.744 OA
ENDBRANCH  82  83
ENDBRANCH  61  75
BRANCH  62  87
ATOM     87  C   UNL     1      10.814  -9.402  -4.928  1.00  0.00     0.058 A 
ATOM     88  C   UNL     1      11.908 -10.258  -5.147  1.00  0.00     0.135 A 
ATOM     89  C   UNL     1       9.541  -9.953  -5.195  1.00  0.00     0.135 A 
ATOM     90  F   UNL     1      13.155  -9.834  -4.891  1.00  0.00    -0.206 F 
ATOM     91  C   UNL     1      11.748 -11.582  -5.578  1.00  0.00     0.059 A 
ATOM     92  C   UNL     1       9.358 -11.260  -5.641  1.00  0.00     0.059 A 
ATOM     93  F   UNL     1       8.417  -9.265  -4.948  1.00  0.00    -0.206 F 
ATOM     94  C   UNL     1      10.465 -12.079  -5.809  1.00  0.00     0.060 A 
BRANCH  94  95
ATOM     95  S   UNL     1      10.235 -13.825  -6.220  1.00  0.00     0.124 S 
ATOM     96  O   UNL     1      10.805 -13.897  -7.561  1.00  0.00    -0.237 OA
ATOM     97  O   UNL     1      10.993 -14.491  -5.167  1.00  0.00    -0.237 OA
ATOM     98  O   UNL     1       8.787 -14.003  -6.149  1.00  0.00    -0.744 OA
ENDBRANCH  94  95
ENDBRANCH  62  87
BRANCH  74  99
ATOM     99  C   UNL     1      13.494  -4.213  -2.285  1.00  0.00     0.058 A 
ATOM    100  C   UNL     1      12.756  -3.759  -3.392  1.00  0.00     0.135 A 
ATOM    101  C   UNL     1      14.690  -3.540  -1.991  1.00  0.00     0.135 A 
ATOM    102  F   UNL     1      11.555  -4.281  -3.678  1.00  0.00    -0.206 F 
ATOM    103  C   UNL     1      13.195  -2.694  -4.181  1.00  0.00     0.059 A 
ATOM    104  C   UNL     1      15.131  -2.456  -2.746  1.00  0.00     0.059 A 
ATOM    105  F   UNL     1      15.406  -3.886  -0.909  1.00  0.00    -0.206 F 
ATOM    106  C   UNL     1      14.380  -2.040  -3.842  1.00  0.00     0.060 A 
BRANCH 106 107
ATOM    107  S   UNL     1      14.878  -0.580  -4.782  1.00  0.00     0.124 S 
ATOM    108  O   UNL     1      15.331  -1.165  -6.039  1.00  0.00    -0.237 OA
ATOM    109  O   UNL     1      13.640   0.191  -4.853  1.00  0.00    -0.237 OA
ATOM    110  O   UNL     1      15.925   0.016  -3.957  1.00  0.00    -0.744 OA
ENDBRANCH 106 107
ENDBRANCH  74  99
ENDBRANCH  48  49
ENDBRANCH  41  43
ENDBRANCH  40  41
ENDBRANCH  39  40
ENDBRANCH  38  39
ENDBRANCH  37  38
ENDBRANCH  36  37
ENDBRANCH   1  36
TORSDOF 24
