REMARK SMILES Cc1cc(C(=O)OCCOCCOCCOC(=O)c2ccc(-c3c4nc(c(-c5c(F)cc(S(=O)(=O)[O-])cc5F)c5ccc([nH]5)c(-c5c(F)cc(S(=O)(=O)[O-])cc5F)c5nc(c(-c6c(F)cc(S(=O)(=O)[O-])cc6F)c6ccc3[nH]6)C=C5)C=C4)cc2)ccc1NS(=O)(=O)c1ccc(C#N)cc1C
REMARK SMILES IDX 11 1 10 2 9 3 8 4 7 5 5 6 6 7 4 8 1 9 2 10 3 11 87 12 86 13
REMARK SMILES IDX 85 14 88 15 89 17 90 18 91 19 92 20 93 21 99 22 94 23 98 24
REMARK SMILES IDX 100 25 95 26 96 27 97 28 12 29 13 30 14 31 15 32 16 33 17 34
REMARK SMILES IDX 18 35 19 36 20 37 84 38 21 39 83 40 22 41 23 42 24 43 77 44
REMARK SMILES IDX 25 45 82 46 76 47 78 48 26 49 81 50 75 51 74 52 27 54 61 55
REMARK SMILES IDX 40 56 60 57 41 58 44 59 59 60 79 61 42 62 43 63 58 65 80 66
REMARK SMILES IDX 45 67 28 68 29 69 38 70 30 71 31 72 37 73 39 74 32 75 33 76
REMARK SMILES IDX 34 77 35 78 36 79 62 80 63 81 72 82 64 83 65 84 71 85 73 86
REMARK SMILES IDX 66 87 67 88 68 89 69 90 70 91 46 92 47 93 56 94 48 95 49 96
REMARK SMILES IDX 55 97 57 98 50 99 51 100 52 101 53 102 54 103
REMARK H PARENT 88 16 78 53 44 64
REMARK Flexibility Score: inf
ROOT
ATOM      1  C   UNL     1      -2.711  -5.720  -2.151  1.00  0.00     0.188 C 
ENDROOT
BRANCH   1   2
ATOM      2  O   UNL     1      -3.657  -5.494  -1.098  1.00  0.00    -0.376 OA
BRANCH   2   3
ATOM      3  C   UNL     1      -4.657  -4.460  -1.023  1.00  0.00     0.202 C 
BRANCH   3   4
ATOM      4  C   UNL     1      -4.778  -2.812  -0.512  1.00  0.00     0.261 C 
BRANCH   4   5
ATOM      5  O   UNL     1      -3.619  -1.383  -0.252  1.00  0.00    -0.460 OA
BRANCH   5   6
ATOM      6  C   UNL     1      -2.353  -0.936   0.443  1.00  0.00     0.338 C 
ATOM      7  O   UNL     1      -1.894  -1.268   1.537  1.00  0.00    -0.246 OA
BRANCH   6   8
ATOM      8  C   UNL     1      -1.295  -0.137  -0.203  1.00  0.00     0.060 A 
ATOM      9  C   UNL     1       2.439   0.641   0.266  1.00  0.00     0.046 C 
ATOM     10  C   UNL     1       0.967   0.840  -0.016  1.00  0.00    -0.026 A 
ATOM     11  C   UNL     1       0.046  -0.153   0.323  1.00  0.00     0.021 A 
ATOM     12  C   UNL     1       0.451   1.889  -0.779  1.00  0.00     0.052 A 
ATOM     13  C   UNL     1      -0.719   1.720  -1.530  1.00  0.00     0.028 A 
ATOM     14  C   UNL     1      -1.613   0.705  -1.232  1.00  0.00     0.018 A 
BRANCH  12  15
ATOM     15  N   UNL     1       0.984   3.210  -0.713  1.00  0.00    -0.279 N 
ATOM     16  H   UNL     1       1.847   3.409  -1.143  1.00  0.00     0.180 HD
BRANCH  15  17
ATOM     17  S   UNL     1       0.132   4.466   0.112  1.00  0.00     0.262 S 
ATOM     18  O   UNL     1       0.543   4.406   1.498  1.00  0.00    -0.201 OA
ATOM     19  O   UNL     1       0.475   5.626  -0.692  1.00  0.00    -0.201 OA
BRANCH  17  20
ATOM     20  C   UNL     1      -1.675   4.326   0.112  1.00  0.00     0.090 A 
ATOM     21  C   UNL     1      -2.298   3.137   0.505  1.00  0.00     0.024 A 
ATOM     22  C   UNL     1      -2.515   5.417  -0.197  1.00  0.00    -0.029 A 
ATOM     23  C   UNL     1      -3.670   2.916   0.276  1.00  0.00     0.021 A 
ATOM     24  C   UNL     1      -3.900   5.196  -0.401  1.00  0.00     0.024 A 
ATOM     25  C   UNL     1      -2.102   6.863  -0.126  1.00  0.00     0.046 C 
ATOM     26  C   UNL     1      -4.471   3.935  -0.226  1.00  0.00     0.052 A 
BRANCH  26  27
ATOM     27  C   UNL     1      -5.851   3.720  -0.513  1.00  0.00     0.099 C 
ATOM     28  N   UNL     1      -6.982   3.558  -0.798  1.00  0.00    -0.192 NA
ENDBRANCH  26  27
ENDBRANCH  17  20
ENDBRANCH  15  17
ENDBRANCH  12  15
ENDBRANCH   6   8
ENDBRANCH   5   6
ENDBRANCH   4   5
ENDBRANCH   3   4
ENDBRANCH   2   3
ENDBRANCH   1   2
BRANCH   1  29
ATOM     29  C   UNL     1      -3.072  -5.350  -3.561  1.00  0.00     0.188 C 
BRANCH  29  30
ATOM     30  O   UNL     1      -3.939  -4.242  -3.503  1.00  0.00    -0.376 OA
BRANCH  30  31
ATOM     31  C   UNL     1      -4.561  -3.859  -4.695  1.00  0.00     0.202 C 
BRANCH  31  32
ATOM     32  C   UNL     1      -3.581  -3.633  -5.851  1.00  0.00     0.261 C 
BRANCH  32  33
ATOM     33  O   UNL     1      -2.785  -2.408  -5.800  1.00  0.00    -0.460 OA
BRANCH  33  34
ATOM     34  C   UNL     1      -1.475  -2.357  -5.322  1.00  0.00     0.338 C 
ATOM     35  O   UNL     1      -0.552  -1.999  -6.034  1.00  0.00    -0.246 OA
BRANCH  34  36
ATOM     36  C   UNL     1      -1.415  -2.357  -3.828  1.00  0.00     0.060 A 
ATOM     37  C   UNL     1      -0.474  -2.788  -2.875  1.00  0.00     0.016 A 
ATOM     38  C   UNL     1      -2.519  -1.833  -3.299  1.00  0.00     0.016 A 
ATOM     39  C   UNL     1      -0.810  -3.080  -1.460  1.00  0.00     0.010 A 
ATOM     40  C   UNL     1      -2.853  -2.317  -2.055  1.00  0.00     0.010 A 
ATOM     41  C   UNL     1      -2.114  -3.012  -0.983  1.00  0.00    -0.014 A 
BRANCH  41  42
ATOM     42  C   UNL     1      -2.723  -3.470   0.671  1.00  0.00     0.031 A 
ATOM     43  C   UNL     1      -3.782  -2.540   1.855  1.00  0.00     0.074 A 
ATOM     44  C   UNL     1      -2.429  -4.705   1.131  1.00  0.00     0.049 A 
ATOM     45  N   UNL     1      -3.493  -2.362   3.126  1.00  0.00    -0.248 NA
ATOM     46  C   UNL     1      -4.920  -1.446   1.585  1.00  0.00     0.031 C 
ATOM     47  C   UNL     1      -3.001  -5.429   2.267  1.00  0.00     0.029 A 
ATOM     48  N   UNL     1      -1.551  -5.636   0.574  1.00  0.00    -0.354 N 
ATOM     49  C   UNL     1      -4.320  -1.308   3.600  1.00  0.00     0.074 A 
ATOM     50  C   UNL     1      -4.671  -0.537   2.498  1.00  0.00     0.031 C 
ATOM     51  C   UNL     1      -2.234  -6.512   2.513  1.00  0.00     0.029 A 
ATOM     52  C   UNL     1      -1.085  -6.434   1.619  1.00  0.00     0.049 A 
ATOM     53  H   UNL     1      -1.308  -5.715  -0.376  1.00  0.00     0.167 HD
ATOM     54  C   UNL     1      -5.048  -1.372   4.750  1.00  0.00     0.037 A 
ATOM     55  C   UNL     1       0.224  -6.286   1.964  1.00  0.00     0.037 A 
ATOM     56  C   UNL     1      -4.550  -2.542   5.432  1.00  0.00     0.049 A 
ATOM     57  C   UNL     1       0.271  -5.634   3.333  1.00  0.00     0.074 A 
ATOM     58  C   UNL     1      -4.920  -3.874   5.356  1.00  0.00     0.029 A 
ATOM     59  N   UNL     1      -3.202  -2.518   5.752  1.00  0.00    -0.354 N 
ATOM     60  N   UNL     1      -0.661  -4.848   3.822  1.00  0.00    -0.248 NA
ATOM     61  C   UNL     1       1.274  -5.994   4.325  1.00  0.00     0.031 C 
ATOM     62  C   UNL     1      -3.723  -4.647   5.506  1.00  0.00     0.029 A 
ATOM     63  C   UNL     1      -2.653  -3.786   5.707  1.00  0.00     0.049 A 
ATOM     64  H   UNL     1      -2.700  -1.703   5.981  1.00  0.00     0.167 HD
ATOM     65  C   UNL     1      -0.432  -4.638   5.155  1.00  0.00     0.074 A 
ATOM     66  C   UNL     1       0.792  -5.377   5.417  1.00  0.00     0.031 C 
ATOM     67  C   UNL     1      -1.233  -3.921   6.002  1.00  0.00     0.037 A 
BRANCH  54  68
ATOM     68  C   UNL     1      -6.364  -0.601   5.043  1.00  0.00     0.058 A 
ATOM     69  C   UNL     1      -7.172  -1.031   6.114  1.00  0.00     0.135 A 
ATOM     70  C   UNL     1      -6.939   0.499   4.334  1.00  0.00     0.135 A 
ATOM     71  F   UNL     1      -6.764  -2.021   6.920  1.00  0.00    -0.206 F 
ATOM     72  C   UNL     1      -8.428  -0.473   6.418  1.00  0.00     0.059 A 
ATOM     73  C   UNL     1      -8.208   1.040   4.588  1.00  0.00     0.059 A 
ATOM     74  F   UNL     1      -6.308   1.176   3.373  1.00  0.00    -0.206 F 
ATOM     75  C   UNL     1      -8.950   0.552   5.639  1.00  0.00     0.060 A 
BRANCH  75  76
ATOM     76  S   UNL     1     -10.558   1.265   6.039  1.00  0.00     0.124 S 
ATOM     77  O   UNL     1     -11.444   0.113   5.911  1.00  0.00    -0.237 OA
ATOM     78  O   UNL     1     -10.344   1.758   7.395  1.00  0.00    -0.237 OA
ATOM     79  O   UNL     1     -10.741   2.301   5.024  1.00  0.00    -0.744 OA
ENDBRANCH  75  76
ENDBRANCH  54  68
BRANCH  55  80
ATOM     80  C   UNL     1       1.114  -6.128   0.745  1.00  0.00     0.058 A 
ATOM     81  C   UNL     1       1.025  -7.146  -0.245  1.00  0.00     0.135 A 
ATOM     82  C   UNL     1       1.710  -4.933   0.321  1.00  0.00     0.135 A 
ATOM     83  F   UNL     1       0.500  -8.342   0.074  1.00  0.00    -0.206 F 
ATOM     84  C   UNL     1       1.330  -6.936  -1.592  1.00  0.00     0.059 A 
ATOM     85  C   UNL     1       2.074  -4.714  -1.032  1.00  0.00     0.059 A 
ATOM     86  F   UNL     1       1.824  -3.898   1.168  1.00  0.00    -0.206 F 
ATOM     87  C   UNL     1       1.811  -5.697  -1.991  1.00  0.00     0.060 A 
BRANCH  87  88
ATOM     88  S   UNL     1       1.911  -5.381  -3.781  1.00  0.00     0.124 S 
ATOM     89  O   UNL     1       2.882  -6.376  -4.219  1.00  0.00    -0.237 OA
ATOM     90  O   UNL     1       0.530  -5.620  -4.202  1.00  0.00    -0.237 OA
ATOM     91  O   UNL     1       2.364  -3.998  -3.859  1.00  0.00    -0.744 OA
ENDBRANCH  87  88
ENDBRANCH  55  80
BRANCH  67  92
ATOM     92  C   UNL     1      -0.709  -3.252   7.260  1.00  0.00     0.058 A 
ATOM     93  C   UNL     1       0.645  -2.936   7.452  1.00  0.00     0.135 A 
ATOM     94  C   UNL     1      -1.596  -2.738   8.243  1.00  0.00     0.135 A 
ATOM     95  F   UNL     1       1.577  -3.207   6.527  1.00  0.00    -0.206 F 
ATOM     96  C   UNL     1       1.103  -2.300   8.600  1.00  0.00     0.059 A 
ATOM     97  C   UNL     1      -1.172  -1.986   9.327  1.00  0.00     0.059 A 
ATOM     98  F   UNL     1      -2.921  -2.938   8.192  1.00  0.00    -0.206 F 
ATOM     99  C   UNL     1       0.186  -1.841   9.537  1.00  0.00     0.060 A 
BRANCH  99 100
ATOM    100  S   UNL     1       0.770  -1.100  11.060  1.00  0.00     0.124 S 
ATOM    101  O   UNL     1       0.965  -2.286  11.888  1.00  0.00    -0.237 OA
ATOM    102  O   UNL     1       1.988  -0.415  10.640  1.00  0.00    -0.237 OA
ATOM    103  O   UNL     1      -0.331  -0.227  11.453  1.00  0.00    -0.744 OA
ENDBRANCH  99 100
ENDBRANCH  67  92
ENDBRANCH  41  42
ENDBRANCH  34  36
ENDBRANCH  33  34
ENDBRANCH  32  33
ENDBRANCH  31  32
ENDBRANCH  30  31
ENDBRANCH  29  30
ENDBRANCH   1  29
TORSDOF 24
