REMARK SMILES COCCCC(=O)N[C@H]1CC[C@@H](C(=O)OCCOCCOCCOC(=O)c2ccc(-c3c4nc(c(-c5c(F)cc(S(=O)(=O)[O-])cc5F)c5ccc([nH]5)c(-c5c(F)cc(S(=O)(=O)[O-])cc5F)c5nc(c(-c6c(F)cc(S(=O)(=O)[O-])cc6F)c6ccc3[nH]6)C=C5)C=C4)cc2)CC1
REMARK SMILES IDX 19 1 18 2 17 3 16 4 15 5 13 6 14 7 12 8 9 9 10 10 94 11
REMARK SMILES IDX 11 12 93 13 8 14 6 15 7 16 5 18 4 19 3 20 2 21 1 22 20 23
REMARK SMILES IDX 21 24 22 25 23 26 24 27 25 28 26 29 27 30 28 31 92 32 29 33
REMARK SMILES IDX 91 34 30 35 31 36 32 37 85 38 33 39 90 40 84 41 86 42 34 43
REMARK SMILES IDX 89 44 83 45 82 46 35 48 69 49 48 50 68 51 49 52 52 53 67 54
REMARK SMILES IDX 87 55 50 56 51 57 66 59 88 60 53 61 36 62 37 63 46 64 38 65
REMARK SMILES IDX 39 66 45 67 47 68 40 69 41 70 42 71 43 72 44 73 70 74 71 75
REMARK SMILES IDX 80 76 72 77 73 78 79 79 81 80 74 81 75 82 76 83 77 84 78 85
REMARK SMILES IDX 54 86 55 87 64 88 56 89 57 90 63 91 65 92 58 93 59 94 60 95
REMARK SMILES IDX 61 96 62 97
REMARK H PARENT 8 17 86 47 52 58
REMARK Flexibility Score: inf
ROOT
ATOM      1  C   UNL     1       5.558  -1.361   5.154  1.00  0.00     0.188 C 
ENDROOT
BRANCH   1   2
ATOM      2  O   UNL     1       6.845  -1.947   5.009  1.00  0.00    -0.376 OA
BRANCH   2   3
ATOM      3  C   UNL     1       7.454  -1.874   3.723  1.00  0.00     0.202 C 
BRANCH   3   4
ATOM      4  C   UNL     1       6.777  -2.666   2.599  1.00  0.00     0.261 C 
BRANCH   4   5
ATOM      5  O   UNL     1       5.410  -2.289   2.368  1.00  0.00    -0.463 OA
BRANCH   5   6
ATOM      6  C   UNL     1       4.473  -3.223   2.678  1.00  0.00     0.309 C 
ATOM      7  O   UNL     1       4.717  -4.348   3.098  1.00  0.00    -0.252 OA
BRANCH   6   8
ATOM      8  C   UNL     1       3.051  -2.754   2.400  1.00  0.00     0.099 C 
ATOM      9  C   UNL     1       2.842  -1.543  -0.290  1.00  0.00     0.082 C 
ATOM     10  C   UNL     1       3.135  -3.033  -0.096  1.00  0.00     0.026 C 
ATOM     11  C   UNL     1       3.347  -0.693   0.871  1.00  0.00     0.026 C 
ATOM     12  C   UNL     1       2.530  -3.548   1.204  1.00  0.00     0.017 C 
ATOM     13  C   UNL     1       2.836  -1.242   2.209  1.00  0.00     0.017 C 
BRANCH   9  14
ATOM     14  N   UNL     1       3.353  -1.124  -1.577  1.00  0.00    -0.353 N 
ATOM     15  C   UNL     1       2.657  -0.870  -2.719  1.00  0.00     0.220 C 
ATOM     16  O   UNL     1       3.277  -0.844  -3.785  1.00  0.00    -0.275 OA
ATOM     17  H   UNL     1       4.329  -1.008  -1.634  1.00  0.00     0.163 HD
BRANCH  15  18
ATOM     18  C   UNL     1       1.182  -0.501  -2.667  1.00  0.00     0.102 C 
BRANCH  18  19
ATOM     19  C   UNL     1       0.129  -1.613  -2.598  1.00  0.00     0.038 C 
BRANCH  19  20
ATOM     20  C   UNL     1      -0.316  -2.226  -1.263  1.00  0.00     0.160 C 
BRANCH  20  21
ATOM     21  O   UNL     1      -0.914  -1.449  -0.234  1.00  0.00    -0.385 OA
ATOM     22  C   UNL     1      -0.670  -0.063  -0.141  1.00  0.00     0.194 C 
ENDBRANCH  20  21
ENDBRANCH  19  20
ENDBRANCH  18  19
ENDBRANCH  15  18
ENDBRANCH   9  14
ENDBRANCH   6   8
ENDBRANCH   5   6
ENDBRANCH   4   5
ENDBRANCH   3   4
ENDBRANCH   2   3
ENDBRANCH   1   2
BRANCH   1  23
ATOM     23  C   UNL     1       5.457   0.133   4.855  1.00  0.00     0.188 C 
BRANCH  23  24
ATOM     24  O   UNL     1       5.973   0.554   3.597  1.00  0.00    -0.376 OA
BRANCH  24  25
ATOM     25  C   UNL     1       5.855   1.958   3.328  1.00  0.00     0.202 C 
BRANCH  25  26
ATOM     26  C   UNL     1       6.400   2.911   4.415  1.00  0.00     0.261 C 
BRANCH  26  27
ATOM     27  O   UNL     1       5.721   2.840   5.689  1.00  0.00    -0.460 OA
BRANCH  27  28
ATOM     28  C   UNL     1       4.373   2.966   5.688  1.00  0.00     0.338 C 
ATOM     29  O   UNL     1       3.694   3.408   4.774  1.00  0.00    -0.246 OA
BRANCH  28  30
ATOM     30  C   UNL     1       3.820   2.226   6.859  1.00  0.00     0.060 A 
ATOM     31  C   UNL     1       2.601   1.551   6.695  1.00  0.00     0.016 A 
ATOM     32  C   UNL     1       4.509   2.120   8.072  1.00  0.00     0.016 A 
ATOM     33  C   UNL     1       2.042   0.829   7.753  1.00  0.00     0.010 A 
ATOM     34  C   UNL     1       3.945   1.402   9.136  1.00  0.00     0.010 A 
ATOM     35  C   UNL     1       2.686   0.790   8.997  1.00  0.00    -0.014 A 
BRANCH  35  36
ATOM     36  C   UNL     1       1.937   0.336  10.200  1.00  0.00     0.031 A 
ATOM     37  C   UNL     1       1.279   1.391  11.055  1.00  0.00     0.074 A 
ATOM     38  C   UNL     1       1.799  -0.963  10.524  1.00  0.00     0.049 A 
ATOM     39  N   UNL     1       0.587   1.260  12.156  1.00  0.00    -0.248 NA
ATOM     40  C   UNL     1       1.425   2.784  10.598  1.00  0.00     0.031 C 
ATOM     41  C   UNL     1       2.343  -2.091   9.770  1.00  0.00     0.029 A 
ATOM     42  N   UNL     1       1.152  -1.551  11.586  1.00  0.00    -0.354 N 
ATOM     43  C   UNL     1       0.219   2.549  12.525  1.00  0.00     0.074 A 
ATOM     44  C   UNL     1       0.794   3.450  11.552  1.00  0.00     0.031 C 
ATOM     45  C   UNL     1       2.013  -3.235  10.398  1.00  0.00     0.029 A 
ATOM     46  C   UNL     1       1.256  -2.922  11.612  1.00  0.00     0.049 A 
ATOM     47  H   UNL     1       0.659  -1.036  12.265  1.00  0.00     0.167 HD
ATOM     48  C   UNL     1      -0.540   2.952  13.572  1.00  0.00     0.037 A 
ATOM     49  C   UNL     1       0.807  -3.817  12.517  1.00  0.00     0.037 A 
ATOM     50  C   UNL     1      -1.112   2.064  14.548  1.00  0.00     0.049 A 
ATOM     51  C   UNL     1       0.028  -3.340  13.720  1.00  0.00     0.074 A 
ATOM     52  C   UNL     1      -1.901   2.381  15.640  1.00  0.00     0.029 A 
ATOM     53  N   UNL     1      -0.952   0.687  14.557  1.00  0.00    -0.354 N 
ATOM     54  N   UNL     1      -0.331  -2.120  14.044  1.00  0.00    -0.248 NA
ATOM     55  C   UNL     1      -0.412  -4.365  14.680  1.00  0.00     0.031 C 
ATOM     56  C   UNL     1      -2.179   1.201  16.337  1.00  0.00     0.029 A 
ATOM     57  C   UNL     1      -1.609   0.142  15.648  1.00  0.00     0.049 A 
ATOM     58  H   UNL     1      -0.447   0.173  13.887  1.00  0.00     0.167 HD
ATOM     59  C   UNL     1      -1.065  -2.236  15.223  1.00  0.00     0.074 A 
ATOM     60  C   UNL     1      -1.105  -3.645  15.552  1.00  0.00     0.031 C 
ATOM     61  C   UNL     1      -1.655  -1.264  15.962  1.00  0.00     0.037 A 
BRANCH  48  62
ATOM     62  C   UNL     1      -0.769   4.429  13.727  1.00  0.00     0.058 A 
ATOM     63  C   UNL     1      -1.602   5.143  12.851  1.00  0.00     0.135 A 
ATOM     64  C   UNL     1      -0.154   5.137  14.772  1.00  0.00     0.135 A 
ATOM     65  F   UNL     1      -2.194   4.519  11.820  1.00  0.00    -0.206 F 
ATOM     66  C   UNL     1      -1.794   6.514  12.987  1.00  0.00     0.059 A 
ATOM     67  C   UNL     1      -0.355   6.503  14.945  1.00  0.00     0.059 A 
ATOM     68  F   UNL     1       0.656   4.503  15.634  1.00  0.00    -0.206 F 
ATOM     69  C   UNL     1      -1.163   7.185  14.037  1.00  0.00     0.060 A 
BRANCH  69  70
ATOM     70  S   UNL     1      -1.415   8.965  14.196  1.00  0.00     0.124 S 
ATOM     71  O   UNL     1      -0.614   9.472  13.086  1.00  0.00    -0.237 OA
ATOM     72  O   UNL     1      -2.861   9.091  14.043  1.00  0.00    -0.237 OA
ATOM     73  O   UNL     1      -0.901   9.264  15.529  1.00  0.00    -0.744 OA
ENDBRANCH  69  70
ENDBRANCH  48  62
BRANCH  49  74
ATOM     74  C   UNL     1       1.085  -5.270  12.336  1.00  0.00     0.058 A 
ATOM     75  C   UNL     1       0.052  -6.178  12.053  1.00  0.00     0.135 A 
ATOM     76  C   UNL     1       2.383  -5.784  12.475  1.00  0.00     0.135 A 
ATOM     77  F   UNL     1      -1.210  -5.740  11.931  1.00  0.00    -0.206 F 
ATOM     78  C   UNL     1       0.293  -7.543  11.928  1.00  0.00     0.059 A 
ATOM     79  C   UNL     1       2.654  -7.142  12.329  1.00  0.00     0.059 A 
ATOM     80  F   UNL     1       3.407  -4.960  12.746  1.00  0.00    -0.206 F 
ATOM     81  C   UNL     1       1.600  -8.015  12.066  1.00  0.00     0.060 A 
BRANCH  81  82
ATOM     82  S   UNL     1       1.909  -9.783  11.859  1.00  0.00     0.124 S 
ATOM     83  O   UNL     1       1.349 -10.326  13.092  1.00  0.00    -0.237 OA
ATOM     84  O   UNL     1       1.170 -10.082  10.636  1.00  0.00    -0.237 OA
ATOM     85  O   UNL     1       3.362  -9.858  11.739  1.00  0.00    -0.744 OA
ENDBRANCH  81  82
ENDBRANCH  49  74
BRANCH  61  86
ATOM     86  C   UNL     1      -2.440  -1.683  17.178  1.00  0.00     0.058 A 
ATOM     87  C   UNL     1      -1.813  -2.143  18.346  1.00  0.00     0.135 A 
ATOM     88  C   UNL     1      -3.841  -1.567  17.192  1.00  0.00     0.135 A 
ATOM     89  F   UNL     1      -0.477  -2.274  18.389  1.00  0.00    -0.206 F 
ATOM     90  C   UNL     1      -2.546  -2.498  19.475  1.00  0.00     0.059 A 
ATOM     91  C   UNL     1      -4.592  -1.891  18.318  1.00  0.00     0.059 A 
ATOM     92  F   UNL     1      -4.493  -1.119  16.107  1.00  0.00    -0.206 F 
ATOM     93  C   UNL     1      -3.937  -2.368  19.451  1.00  0.00     0.060 A 
BRANCH  93  94
ATOM     94  S   UNL     1      -4.875  -2.806  20.931  1.00  0.00     0.124 S 
ATOM     95  O   UNL     1      -4.816  -4.264  20.896  1.00  0.00    -0.237 OA
ATOM     96  O   UNL     1      -4.105  -2.165  21.992  1.00  0.00    -0.237 OA
ATOM     97  O   UNL     1      -6.192  -2.226  20.683  1.00  0.00    -0.744 OA
ENDBRANCH  93  94
ENDBRANCH  61  86
ENDBRANCH  35  36
ENDBRANCH  28  30
ENDBRANCH  27  28
ENDBRANCH  26  27
ENDBRANCH  25  26
ENDBRANCH  24  25
ENDBRANCH  23  24
ENDBRANCH   1  23
TORSDOF 25
