REMARK SMILES O=C(OCCOCCOCCOC(=O)[C@H]1CCCCN1c1cc(-c2ccccc2)nc(-c2cccc(Cl)c2)n1)c1ccc(-c2c3nc(c(-c4c(F)cc(S(=O)(=O)[O-])cc4F)c4ccc([nH]4)c(-c4c(F)cc(S(=O)(=O)[O-])cc4F)c4nc(c(-c5c(F)cc(S(=O)(=O)[O-])cc5F)c5ccc2[nH]5)C=C4)C=C3)cc1
REMARK SMILES IDX 7 1 6 2 5 3 4 4 3 5 2 6 1 7 40 8 41 9 105 10 42 11 104 12
REMARK SMILES IDX 43 13 44 14 45 15 98 16 46 17 103 18 97 19 99 20 47 21
REMARK SMILES IDX 102 22 96 23 95 24 48 26 82 27 61 28 81 29 62 30 65 31 80 32
REMARK SMILES IDX 100 33 63 34 64 35 79 37 101 38 66 39 49 40 50 41 59 42
REMARK SMILES IDX 51 43 52 44 58 45 60 46 53 47 54 48 55 49 56 50 57 51 83 52
REMARK SMILES IDX 84 53 93 54 85 55 86 56 92 57 94 58 87 59 88 60 89 61 90 62
REMARK SMILES IDX 91 63 67 64 68 65 77 66 69 67 70 68 76 69 78 70 71 71 72 72
REMARK SMILES IDX 73 73 74 74 75 75 8 76 9 77 10 78 11 79 12 80 13 81 14 82
REMARK SMILES IDX 15 83 16 84 20 85 17 86 19 87 18 88 21 89 22 90 39 91 23 92
REMARK SMILES IDX 31 93 30 94 24 95 25 96 29 97 26 98 28 99 27 100 32 101
REMARK SMILES IDX 33 102 38 103 34 104 36 105 35 106 37 107
REMARK H PARENT 99 25 65 36
REMARK Flexibility Score: inf
ROOT
ATOM      1  C   UNL     1       5.373   0.079  -7.633  1.00  0.00     0.188 C 
ENDROOT
BRANCH   1   2
ATOM      2  O   UNL     1       4.919   1.441  -7.580  1.00  0.00    -0.376 OA
BRANCH   2   3
ATOM      3  C   UNL     1       5.530   2.288  -8.558  1.00  0.00     0.202 C 
BRANCH   3   4
ATOM      4  C   UNL     1       6.971   2.732  -8.263  1.00  0.00     0.261 C 
BRANCH   4   5
ATOM      5  O   UNL     1       7.713   1.794  -7.472  1.00  0.00    -0.460 OA
BRANCH   5   6
ATOM      6  C   UNL     1       7.798   1.678  -6.125  1.00  0.00     0.338 C 
ATOM      7  O   UNL     1       8.546   0.805  -5.683  1.00  0.00    -0.246 OA
BRANCH   6   8
ATOM      8  C   UNL     1       7.037   2.510  -5.130  1.00  0.00     0.060 A 
ATOM      9  C   UNL     1       6.060   3.462  -5.422  1.00  0.00     0.016 A 
ATOM     10  C   UNL     1       7.347   2.300  -3.768  1.00  0.00     0.016 A 
ATOM     11  C   UNL     1       5.482   4.238  -4.418  1.00  0.00     0.010 A 
ATOM     12  C   UNL     1       6.751   3.055  -2.750  1.00  0.00     0.010 A 
ATOM     13  C   UNL     1       5.840   4.055  -3.082  1.00  0.00    -0.014 A 
BRANCH  13  14
ATOM     14  C   UNL     1       5.391   5.071  -2.110  1.00  0.00     0.031 A 
ATOM     15  C   UNL     1       6.207   6.320  -2.002  1.00  0.00     0.074 A 
ATOM     16  C   UNL     1       4.223   4.934  -1.460  1.00  0.00     0.049 A 
ATOM     17  N   UNL     1       5.986   7.392  -1.297  1.00  0.00    -0.248 NA
ATOM     18  C   UNL     1       7.446   6.362  -2.800  1.00  0.00     0.031 C 
ATOM     19  C   UNL     1       3.370   3.757  -1.538  1.00  0.00     0.029 A 
ATOM     20  N   UNL     1       3.527   5.793  -0.652  1.00  0.00    -0.354 N 
ATOM     21  C   UNL     1       7.079   8.216  -1.524  1.00  0.00     0.074 A 
ATOM     22  C   UNL     1       7.940   7.543  -2.469  1.00  0.00     0.031 C 
ATOM     23  C   UNL     1       2.216   3.998  -0.898  1.00  0.00     0.029 A 
ATOM     24  C   UNL     1       2.285   5.320  -0.286  1.00  0.00     0.049 A 
ATOM     25  H   UNL     1       3.879   6.664  -0.359  1.00  0.00     0.167 HD
ATOM     26  C   UNL     1       7.356   9.406  -0.946  1.00  0.00     0.037 A 
ATOM     27  C   UNL     1       1.331   5.893   0.474  1.00  0.00     0.037 A 
ATOM     28  C   UNL     1       6.503  10.011   0.039  1.00  0.00     0.049 A 
ATOM     29  C   UNL     1       1.653   7.228   1.095  1.00  0.00     0.074 A 
ATOM     30  C   UNL     1       6.717  11.150   0.790  1.00  0.00     0.029 A 
ATOM     31  N   UNL     1       5.265   9.502   0.420  1.00  0.00    -0.354 N 
ATOM     32  N   UNL     1       2.723   7.973   0.929  1.00  0.00    -0.248 NA
ATOM     33  C   UNL     1       0.677   7.779   2.042  1.00  0.00     0.031 C 
ATOM     34  C   UNL     1       5.627  11.306   1.654  1.00  0.00     0.029 A 
ATOM     35  C   UNL     1       4.707  10.298   1.401  1.00  0.00     0.049 A 
ATOM     36  H   UNL     1       4.849   8.692   0.045  1.00  0.00     0.167 HD
ATOM     37  C   UNL     1       2.562   9.068   1.767  1.00  0.00     0.074 A 
ATOM     38  C   UNL     1       1.269   8.910   2.407  1.00  0.00     0.031 C 
ATOM     39  C   UNL     1       3.411  10.098   2.008  1.00  0.00     0.037 A 
BRANCH  26  40
ATOM     40  C   UNL     1       8.685  10.019  -1.280  1.00  0.00     0.058 A 
ATOM     41  C   UNL     1       8.955  10.579  -2.539  1.00  0.00     0.135 A 
ATOM     42  C   UNL     1       9.738   9.950  -0.353  1.00  0.00     0.135 A 
ATOM     43  F   UNL     1       7.995  10.631  -3.476  1.00  0.00    -0.206 F 
ATOM     44  C   UNL     1      10.234  11.007  -2.883  1.00  0.00     0.059 A 
ATOM     45  C   UNL     1      11.018  10.395  -0.667  1.00  0.00     0.059 A 
ATOM     46  F   UNL     1       9.539   9.406   0.857  1.00  0.00    -0.206 F 
ATOM     47  C   UNL     1      11.262  10.898  -1.944  1.00  0.00     0.060 A 
BRANCH  47  48
ATOM     48  S   UNL     1      12.930  11.393  -2.423  1.00  0.00     0.124 S 
ATOM     49  O   UNL     1      13.325  10.284  -3.286  1.00  0.00    -0.237 OA
ATOM     50  O   UNL     1      12.698  12.667  -3.096  1.00  0.00    -0.237 OA
ATOM     51  O   UNL     1      13.638  11.480  -1.149  1.00  0.00    -0.744 OA
ENDBRANCH  47  48
ENDBRANCH  26  40
BRANCH  27  52
ATOM     52  C   UNL     1       0.028   5.206   0.713  1.00  0.00     0.058 A 
ATOM     53  C   UNL     1      -1.177   5.748   0.238  1.00  0.00     0.135 A 
ATOM     54  C   UNL     1      -0.045   3.978   1.393  1.00  0.00     0.135 A 
ATOM     55  F   UNL     1      -1.175   6.925  -0.406  1.00  0.00    -0.206 F 
ATOM     56  C   UNL     1      -2.398   5.101   0.423  1.00  0.00     0.059 A 
ATOM     57  C   UNL     1      -1.248   3.297   1.563  1.00  0.00     0.059 A 
ATOM     58  F   UNL     1       1.071   3.408   1.874  1.00  0.00    -0.206 F 
ATOM     59  C   UNL     1      -2.422   3.870   1.080  1.00  0.00     0.060 A 
BRANCH  59  60
ATOM     60  S   UNL     1      -3.997   3.001   1.251  1.00  0.00     0.124 S 
ATOM     61  O   UNL     1      -4.642   3.769   2.310  1.00  0.00    -0.237 OA
ATOM     62  O   UNL     1      -4.574   3.142  -0.082  1.00  0.00    -0.237 OA
ATOM     63  O   UNL     1      -3.592   1.645   1.611  1.00  0.00    -0.744 OA
ENDBRANCH  59  60
ENDBRANCH  27  52
BRANCH  39  64
ATOM     64  C   UNL     1       2.966  11.136   2.995  1.00  0.00     0.058 A 
ATOM     65  C   UNL     1       2.998  10.894   4.377  1.00  0.00     0.135 A 
ATOM     66  C   UNL     1       2.603  12.417   2.554  1.00  0.00     0.135 A 
ATOM     67  F   UNL     1       3.337   9.682   4.844  1.00  0.00    -0.206 F 
ATOM     68  C   UNL     1       2.678  11.890   5.291  1.00  0.00     0.059 A 
ATOM     69  C   UNL     1       2.301  13.434   3.450  1.00  0.00     0.059 A 
ATOM     70  F   UNL     1       2.570  12.695   1.241  1.00  0.00    -0.206 F 
ATOM     71  C   UNL     1       2.338  13.159   4.817  1.00  0.00     0.060 A 
BRANCH  71  72
ATOM     72  S   UNL     1       1.989  14.464   6.014  1.00  0.00     0.124 S 
ATOM     73  O   UNL     1       0.661  14.084   6.484  1.00  0.00    -0.237 OA
ATOM     74  O   UNL     1       3.074  14.303   6.978  1.00  0.00    -0.237 OA
ATOM     75  O   UNL     1       2.047  15.683   5.213  1.00  0.00    -0.744 OA
ENDBRANCH  71  72
ENDBRANCH  39  64
ENDBRANCH  13  14
ENDBRANCH   6   8
ENDBRANCH   5   6
ENDBRANCH   4   5
ENDBRANCH   3   4
ENDBRANCH   2   3
ENDBRANCH   1   2
BRANCH   1  76
ATOM     76  C   UNL     1       4.224  -0.922  -7.486  1.00  0.00     0.188 C 
BRANCH  76  77
ATOM     77  O   UNL     1       3.412  -1.118  -8.645  1.00  0.00    -0.376 OA
BRANCH  77  78
ATOM     78  C   UNL     1       2.766   0.024  -9.197  1.00  0.00     0.202 C 
BRANCH  78  79
ATOM     79  C   UNL     1       1.551   0.557  -8.437  1.00  0.00     0.261 C 
BRANCH  79  80
ATOM     80  O   UNL     1       1.848   0.898  -7.080  1.00  0.00    -0.462 OA
BRANCH  80  81
ATOM     81  C   UNL     1       1.291   0.100  -6.122  1.00  0.00     0.328 C 
ATOM     82  O   UNL     1       0.580  -0.865  -6.363  1.00  0.00    -0.250 OA
BRANCH  81  83
ATOM     83  C   UNL     1       1.636   0.579  -4.693  1.00  0.00     0.193 C 
ATOM     84  C   UNL     1       2.655   1.715  -4.606  1.00  0.00     0.037 C 
ATOM     85  N   UNL     1       0.429   1.019  -3.985  1.00  0.00    -0.343 N 
ATOM     86  C   UNL     1       2.084   3.086  -4.991  1.00  0.00     0.005 C 
ATOM     87  C   UNL     1      -0.254   2.193  -4.495  1.00  0.00     0.119 C 
ATOM     88  C   UNL     1       0.704   3.376  -4.399  1.00  0.00     0.022 C 
BRANCH  85  89
ATOM     89  C   UNL     1      -0.257   0.035  -3.312  1.00  0.00     0.134 A 
ATOM     90  C   UNL     1      -1.363  -0.563  -3.861  1.00  0.00     0.076 A 
ATOM     91  N   UNL     1       0.244  -0.366  -2.137  1.00  0.00    -0.211 NA
ATOM     92  C   UNL     1      -1.911  -1.628  -3.177  1.00  0.00     0.076 A 
ATOM     93  C   UNL     1      -0.397  -1.363  -1.498  1.00  0.00     0.162 A 
ATOM     94  N   UNL     1      -1.440  -2.055  -1.990  1.00  0.00    -0.228 NA
BRANCH  92  95
ATOM     95  C   UNL     1      -3.040  -2.356  -3.755  1.00  0.00     0.000 A 
ATOM     96  C   UNL     1      -4.313  -2.283  -3.174  1.00  0.00     0.010 A 
ATOM     97  C   UNL     1      -2.891  -3.062  -4.962  1.00  0.00     0.010 A 
ATOM     98  C   UNL     1      -5.414  -2.872  -3.799  1.00  0.00     0.001 A 
ATOM     99  C   UNL     1      -3.990  -3.658  -5.583  1.00  0.00     0.001 A 
ATOM    100  C   UNL     1      -5.253  -3.554  -5.005  1.00  0.00     0.000 A 
ENDBRANCH  92  95
BRANCH  93 101
ATOM    101  C   UNL     1       0.120  -1.732  -0.176  1.00  0.00     0.021 A 
ATOM    102  C   UNL     1       0.411  -0.744   0.784  1.00  0.00     0.012 A 
ATOM    103  C   UNL     1       0.354  -3.074   0.168  1.00  0.00     0.032 A 
ATOM    104  C   UNL     1       0.917  -1.079   2.042  1.00  0.00     0.002 A 
ATOM    105  C   UNL     1       0.877  -3.404   1.419  1.00  0.00     0.041 A 
ATOM    106  C   UNL     1       1.157  -2.414   2.359  1.00  0.00     0.020 A 
ATOM    107  Cl  UNL     1       1.194  -5.054   1.803  1.00  0.00    -0.084 Cl
ENDBRANCH  93 101
ENDBRANCH  85  89
ENDBRANCH  81  83
ENDBRANCH  80  81
ENDBRANCH  79  80
ENDBRANCH  78  79
ENDBRANCH  77  78
ENDBRANCH  76  77
ENDBRANCH   1  76
TORSDOF 23
