REMARK SMILES Cc1ccc(C(c2ccccc2)(c2ccccc2)n2cnc(C[C@H]([NH3+])C(=O)OCCOCCOCCOC(=O)c3ccc(-c4c5nc(c(-c6c(F)cc(S(=O)(=O)[O-])cc6F)c6ccc([nH]6)c(-c6c(F)cc(S(=O)(=O)[O-])cc6F)c6nc(c(-c7c(F)cc(S(=O)(=O)[O-])cc7F)c7ccc4[nH]7)C=C6)C=C5)cc3)c2)cc1
REMARK SMILES IDX 32 1 31 2 30 3 29 4 28 5 26 6 27 7 24 8 23 9 22 10 19 11
REMARK SMILES IDX 20 12 106 13 21 14 6 15 5 16 1 17 2 18 3 19 108 20 4 21
REMARK SMILES IDX 107 22 7 23 8 24 12 25 9 26 11 27 10 28 13 29 14 30 18 31
REMARK SMILES IDX 15 32 17 33 16 34 25 35 33 39 34 40 35 41 36 42 37 43 38 44
REMARK SMILES IDX 39 45 40 46 41 47 105 48 42 49 104 50 43 51 44 52 45 53
REMARK SMILES IDX 98 54 46 55 103 56 97 57 99 58 47 59 102 60 96 61 95 62
REMARK SMILES IDX 48 64 82 65 61 66 81 67 62 68 65 69 80 70 100 71 63 72 64 73
REMARK SMILES IDX 79 75 101 76 66 77 49 78 50 79 59 80 51 81 52 82 58 83 60 84
REMARK SMILES IDX 53 85 54 86 55 87 56 88 57 89 83 90 84 91 93 92 85 93 86 94
REMARK SMILES IDX 92 95 94 96 87 97 88 98 89 99 90 100 91 101 67 102 68 103
REMARK SMILES IDX 77 104 69 105 70 106 76 107 78 108 71 109 72 110 73 111
REMARK SMILES IDX 74 112 75 113
REMARK H PARENT 25 36 25 37 25 38 99 63 65 74
REMARK Flexibility Score: inf
ROOT
ATOM      1  C   UNL     1      -9.532  -5.038   5.294  1.00  0.00     0.188 C 
ENDROOT
BRANCH   1   2
ATOM      2  O   UNL     1      -9.701  -6.418   5.542  1.00  0.00    -0.376 OA
BRANCH   2   3
ATOM      3  C   UNL     1      -9.223  -7.225   4.491  1.00  0.00     0.202 C 
BRANCH   3   4
ATOM      4  C   UNL     1      -8.089  -6.722   3.571  1.00  0.00     0.261 C 
BRANCH   4   5
ATOM      5  O   UNL     1      -8.159  -5.204   2.728  1.00  0.00    -0.459 OA
BRANCH   5   6
ATOM      6  C   UNL     1      -8.133  -4.249   1.663  1.00  0.00     0.365 C 
ATOM      7  O   UNL     1      -8.947  -3.347   1.900  1.00  0.00    -0.245 OA
BRANCH   6   8
ATOM      8  C   UNL     1      -7.528  -4.051   0.064  1.00  0.00     0.297 C 
BRANCH   8   9
ATOM      9  C   UNL     1      -6.769  -4.811  -1.105  1.00  0.00     0.135 C 
BRANCH   9  10
ATOM     10  C   UNL     1      -7.676  -5.363  -2.174  1.00  0.00     0.065 A 
ATOM     11  N   UNL     1      -8.872  -5.582  -4.049  1.00  0.00    -0.319 N 
ATOM     12  C   UNL     1      -9.611  -5.783  -2.911  1.00  0.00     0.201 A 
ATOM     13  C   UNL     1      -7.572  -5.406  -3.564  1.00  0.00     0.112 A 
ATOM     14  N   UNL     1      -8.926  -5.715  -1.806  1.00  0.00    -0.241 NA
BRANCH  11  15
ATOM     15  C   UNL     1      -9.487  -5.232  -5.423  1.00  0.00     0.121 C 
BRANCH  15  16
ATOM     16  C   UNL     1      -9.734  -6.621  -6.259  1.00  0.00    -0.013 A 
ATOM     17  C   UNL     1      -9.435 -11.542  -8.124  1.00  0.00     0.044 C 
ATOM     18  C   UNL     1      -9.528 -10.149  -7.617  1.00  0.00    -0.051 A 
ATOM     19  C   UNL     1     -10.300  -9.876  -6.028  1.00  0.00     0.004 A 
ATOM     20  C   UNL     1      -8.920  -8.716  -8.477  1.00  0.00     0.004 A 
ATOM     21  C   UNL     1     -10.426  -7.983  -5.338  1.00  0.00     0.007 A 
ATOM     22  C   UNL     1      -9.080  -7.038  -7.848  1.00  0.00     0.007 A 
ENDBRANCH  15  16
BRANCH  15  23
ATOM     23  C   UNL     1     -10.917  -4.547  -5.112  1.00  0.00    -0.013 A 
ATOM     24  C   UNL     1     -11.071  -3.511  -4.146  1.00  0.00     0.007 A 
ATOM     25  C   UNL     1     -12.121  -5.105  -5.588  1.00  0.00     0.007 A 
ATOM     26  C   UNL     1     -12.325  -3.076  -3.692  1.00  0.00     0.000 A 
ATOM     27  C   UNL     1     -13.376  -4.707  -5.093  1.00  0.00     0.000 A 
ATOM     28  C   UNL     1     -13.480  -3.688  -4.153  1.00  0.00     0.000 A 
ENDBRANCH  15  23
BRANCH  15  29
ATOM     29  C   UNL     1      -8.420  -4.253  -6.073  1.00  0.00    -0.013 A 
ATOM     30  C   UNL     1      -7.322  -4.763  -6.800  1.00  0.00     0.007 A 
ATOM     31  C   UNL     1      -8.294  -2.896  -5.694  1.00  0.00     0.007 A 
ATOM     32  C   UNL     1      -6.238  -3.975  -7.205  1.00  0.00     0.000 A 
ATOM     33  C   UNL     1      -7.171  -2.120  -6.027  1.00  0.00     0.000 A 
ATOM     34  C   UNL     1      -6.154  -2.652  -6.804  1.00  0.00     0.000 A 
ENDBRANCH  15  29
ENDBRANCH  11  15
ENDBRANCH   9  10
ENDBRANCH   8   9
BRANCH   8  35
ATOM     35  N   UNL     1      -6.837  -2.665   0.072  1.00  0.00    -0.346 N 
ATOM     36  H   UNL     1      -5.922  -2.744   0.516  1.00  0.00     0.345 HD
ATOM     37  H   UNL     1      -7.412  -2.002   0.593  1.00  0.00     0.345 HD
ATOM     38  H   UNL     1      -6.723  -2.336  -0.886  1.00  0.00     0.345 HD
ENDBRANCH   8  35
ENDBRANCH   6   8
ENDBRANCH   5   6
ENDBRANCH   4   5
ENDBRANCH   3   4
ENDBRANCH   2   3
ENDBRANCH   1   2
BRANCH   1  39
ATOM     39  C   UNL     1      -8.113  -4.538   5.447  1.00  0.00     0.188 C 
BRANCH  39  40
ATOM     40  O   UNL     1      -7.150  -5.572   5.492  1.00  0.00    -0.376 OA
BRANCH  40  41
ATOM     41  C   UNL     1      -6.797  -6.263   6.654  1.00  0.00     0.202 C 
BRANCH  41  42
ATOM     42  C   UNL     1      -6.299  -5.208   7.586  1.00  0.00     0.261 C 
BRANCH  42  43
ATOM     43  O   UNL     1      -5.101  -4.532   7.034  1.00  0.00    -0.460 OA
BRANCH  43  44
ATOM     44  C   UNL     1      -5.040  -3.791   5.872  1.00  0.00     0.338 C 
ATOM     45  O   UNL     1      -4.851  -2.579   5.910  1.00  0.00    -0.246 OA
BRANCH  44  46
ATOM     46  C   UNL     1      -4.948  -4.517   4.536  1.00  0.00     0.060 A 
ATOM     47  C   UNL     1      -5.319  -3.884   3.358  1.00  0.00     0.016 A 
ATOM     48  C   UNL     1      -4.572  -5.852   4.390  1.00  0.00     0.016 A 
ATOM     49  C   UNL     1      -5.524  -4.651   2.184  1.00  0.00     0.010 A 
ATOM     50  C   UNL     1      -5.023  -6.612   3.263  1.00  0.00     0.010 A 
ATOM     51  C   UNL     1      -5.760  -6.023   2.216  1.00  0.00    -0.014 A 
BRANCH  51  52
ATOM     52  C   UNL     1      -6.735  -6.916   1.218  1.00  0.00     0.031 A 
ATOM     53  C   UNL     1      -5.875  -7.553   0.213  1.00  0.00     0.074 A 
ATOM     54  C   UNL     1      -8.168  -7.135   1.006  1.00  0.00     0.049 A 
ATOM     55  N   UNL     1      -6.289  -7.948  -0.938  1.00  0.00    -0.248 NA
ATOM     56  C   UNL     1      -4.401  -7.493   0.289  1.00  0.00     0.031 C 
ATOM     57  C   UNL     1      -8.811  -8.509   1.137  1.00  0.00     0.029 A 
ATOM     58  N   UNL     1      -9.369  -6.403   1.325  1.00  0.00    -0.354 N 
ATOM     59  C   UNL     1      -5.244  -8.677  -1.418  1.00  0.00     0.074 A 
ATOM     60  C   UNL     1      -4.086  -8.015  -0.895  1.00  0.00     0.031 C 
ATOM     61  C   UNL     1     -10.132  -8.440   1.487  1.00  0.00     0.029 A 
ATOM     62  C   UNL     1     -10.576  -7.041   1.536  1.00  0.00     0.049 A 
ATOM     63  H   UNL     1      -9.328  -5.422   1.394  1.00  0.00     0.167 HD
ATOM     64  C   UNL     1      -5.479  -9.989  -1.694  1.00  0.00     0.037 A 
ATOM     65  C   UNL     1     -11.724  -6.416   1.105  1.00  0.00     0.037 A 
ATOM     66  C   UNL     1      -6.918 -10.340  -1.459  1.00  0.00     0.049 A 
ATOM     67  C   UNL     1     -11.845  -6.985  -0.289  1.00  0.00     0.074 A 
ATOM     68  C   UNL     1      -7.590 -11.253  -0.662  1.00  0.00     0.029 A 
ATOM     69  N   UNL     1      -7.934  -9.475  -1.883  1.00  0.00    -0.354 N 
ATOM     70  N   UNL     1     -11.022  -7.938  -0.639  1.00  0.00    -0.248 NA
ATOM     71  C   UNL     1     -12.790  -6.709  -1.350  1.00  0.00     0.031 C 
ATOM     72  C   UNL     1      -9.006 -11.037  -0.807  1.00  0.00     0.029 A 
ATOM     73  C   UNL     1      -9.208  -9.946  -1.634  1.00  0.00     0.049 A 
ATOM     74  H   UNL     1      -7.756  -8.611  -2.319  1.00  0.00     0.167 HD
ATOM     75  C   UNL     1     -11.204  -8.411  -1.859  1.00  0.00     0.074 A 
ATOM     76  C   UNL     1     -12.363  -7.593  -2.284  1.00  0.00     0.031 C 
ATOM     77  C   UNL     1     -10.326  -9.347  -2.350  1.00  0.00     0.037 A 
BRANCH  64  78
ATOM     78  C   UNL     1      -4.372 -11.009  -1.933  1.00  0.00     0.058 A 
ATOM     79  C   UNL     1      -4.738 -12.324  -2.273  1.00  0.00     0.135 A 
ATOM     80  C   UNL     1      -2.967 -10.800  -1.881  1.00  0.00     0.135 A 
ATOM     81  F   UNL     1      -6.022 -12.668  -2.435  1.00  0.00    -0.206 F 
ATOM     82  C   UNL     1      -3.810 -13.343  -2.493  1.00  0.00     0.059 A 
ATOM     83  C   UNL     1      -2.021 -11.802  -2.102  1.00  0.00     0.059 A 
ATOM     84  F   UNL     1      -2.401  -9.619  -1.629  1.00  0.00    -0.206 F 
ATOM     85  C   UNL     1      -2.452 -13.075  -2.405  1.00  0.00     0.060 A 
BRANCH  85  86
ATOM     86  S   UNL     1      -1.277 -14.394  -2.728  1.00  0.00     0.124 S 
ATOM     87  O   UNL     1      -1.615 -15.357  -1.685  1.00  0.00    -0.237 OA
ATOM     88  O   UNL     1      -1.624 -14.778  -4.091  1.00  0.00    -0.237 OA
ATOM     89  O   UNL     1       0.021 -13.742  -2.575  1.00  0.00    -0.744 OA
ENDBRANCH  85  86
ENDBRANCH  64  78
BRANCH  65  90
ATOM     90  C   UNL     1     -12.017  -5.017   1.694  1.00  0.00     0.058 A 
ATOM     91  C   UNL     1     -12.339  -4.954   3.076  1.00  0.00     0.135 A 
ATOM     92  C   UNL     1     -11.693  -3.762   1.143  1.00  0.00     0.135 A 
ATOM     93  F   UNL     1     -12.793  -6.058   3.694  1.00  0.00    -0.206 F 
ATOM     94  C   UNL     1     -12.097  -3.826   3.898  1.00  0.00     0.059 A 
ATOM     95  C   UNL     1     -11.421  -2.614   1.955  1.00  0.00     0.059 A 
ATOM     96  F   UNL     1     -11.507  -3.637  -0.179  1.00  0.00    -0.206 F 
ATOM     97  C   UNL     1     -11.489  -2.703   3.348  1.00  0.00     0.060 A 
BRANCH  97  98
ATOM     98  S   UNL     1     -10.471  -1.579   4.428  1.00  0.00     0.124 S 
ATOM     99  O   UNL     1     -11.218  -0.328   4.385  1.00  0.00    -0.237 OA
ATOM    100  O   UNL     1     -10.485  -2.251   5.728  1.00  0.00    -0.237 OA
ATOM    101  O   UNL     1      -9.153  -1.542   3.809  1.00  0.00    -0.744 OA
ENDBRANCH  97  98
ENDBRANCH  65  90
BRANCH  77 102
ATOM    102  C   UNL     1     -10.332  -9.572  -3.798  1.00  0.00     0.058 A 
ATOM    103  C   UNL     1     -11.929  -9.481  -4.545  1.00  0.00     0.135 A 
ATOM    104  C   UNL     1      -8.829  -9.196  -4.665  1.00  0.00     0.135 A 
ATOM    105  F   UNL     1     -12.999  -9.844  -3.815  1.00  0.00    -0.206 F 
ATOM    106  C   UNL     1     -12.202  -8.897  -6.143  1.00  0.00     0.059 A 
ATOM    107  C   UNL     1      -8.946  -8.604  -6.332  1.00  0.00     0.059 A 
ATOM    108  F   UNL     1      -7.593  -9.342  -4.183  1.00  0.00    -0.206 F 
ATOM    109  C   UNL     1     -10.779  -8.425  -7.159  1.00  0.00     0.060 A 
BRANCH 109 110
ATOM    110  S   UNL     1     -11.655  -8.313  -8.963  1.00  0.00     0.124 S 
ATOM    111  O   UNL     1     -12.905  -9.044  -8.732  1.00  0.00    -0.237 OA
ATOM    112  O   UNL     1     -11.820  -6.869  -9.101  1.00  0.00    -0.237 OA
ATOM    113  O   UNL     1     -10.833  -8.969  -9.976  1.00  0.00    -0.744 OA
ENDBRANCH 109 110
ENDBRANCH  77 102
ENDBRANCH  51  52
ENDBRANCH  44  46
ENDBRANCH  43  44
ENDBRANCH  42  43
ENDBRANCH  41  42
ENDBRANCH  40  41
ENDBRANCH  39  40
ENDBRANCH   1  39
TORSDOF 27
