REMARK SMILES C[C@@H]1[C@@H](C(=O)OCCOCCOCCOC(=O)c2ccc(-c3c4nc(c(-c5c(F)cc(S(=O)(=O)[O-])cc5F)c5ccc([nH]5)c(-c5c(F)cc(S(=O)(=O)[O-])cc5F)c5nc(c(-c6c(F)cc(S(=O)(=O)[O-])cc6F)c6ccc3[nH]6)C=C5)C=C4)cc2)CC[N@@H+]1C[C@H]1Cc2ccccc2O1
REMARK SMILES IDX 11 1 10 2 9 3 8 4 7 5 6 6 4 7 5 8 3 9 1 10 2 11 86 12 84 13
REMARK SMILES IDX 85 14 87 16 88 17 89 18 96 19 90 20 95 21 91 22 94 23 92 24
REMARK SMILES IDX 93 25 12 26 13 27 14 28 15 29 16 30 17 31 18 32 19 33 83 34
REMARK SMILES IDX 20 35 82 36 21 37 22 38 23 39 76 40 24 41 81 42 75 43 77 44
REMARK SMILES IDX 25 45 80 46 74 47 73 48 26 50 60 51 39 52 59 53 40 54 43 55
REMARK SMILES IDX 58 56 78 57 41 58 42 59 57 61 79 62 44 63 27 64 28 65 37 66
REMARK SMILES IDX 29 67 30 68 36 69 38 70 31 71 32 72 33 73 34 74 35 75 61 76
REMARK SMILES IDX 62 77 71 78 63 79 64 80 70 81 72 82 65 83 66 84 67 85 68 86
REMARK SMILES IDX 69 87 45 88 46 89 55 90 47 91 48 92 54 93 56 94 49 95 50 96
REMARK SMILES IDX 51 97 52 98 53 99
REMARK H PARENT 86 15 77 49 43 60
REMARK Flexibility Score: inf
ROOT
ATOM      1  C   UNL     1      -3.349   1.293  -2.169  1.00  0.00     0.188 C 
ENDROOT
BRANCH   1   2
ATOM      2  C   UNL     1      -2.340   2.428  -2.450  1.00  0.00     0.188 C 
BRANCH   2   3
ATOM      3  O   UNL     1      -2.196   2.755  -3.814  1.00  0.00    -0.376 OA
BRANCH   3   4
ATOM      4  C   UNL     1      -1.178   2.176  -4.613  1.00  0.00     0.202 C 
BRANCH   4   5
ATOM      5  C   UNL     1      -0.429   0.870  -4.305  1.00  0.00     0.261 C 
BRANCH   5   6
ATOM      6  O   UNL     1      -0.653   0.279  -3.033  1.00  0.00    -0.463 OA
BRANCH   6   7
ATOM      7  C   UNL     1       0.212   0.635  -2.038  1.00  0.00     0.315 C 
ATOM      8  O   UNL     1       1.141   1.414  -2.165  1.00  0.00    -0.252 OA
BRANCH   7   9
ATOM      9  C   UNL     1      -0.250  -0.037  -0.763  1.00  0.00     0.162 C 
ATOM     10  C   UNL     1      -0.503   0.682   1.617  1.00  0.00     0.076 C 
ATOM     11  C   UNL     1       0.509   0.393   0.494  1.00  0.00     0.195 C 
ATOM     12  N   UNL     1       1.477  -0.695   0.697  1.00  0.00    -0.329 N 
ATOM     13  C   UNL     1      -0.022  -1.529  -0.875  1.00  0.00     0.083 C 
ATOM     14  C   UNL     1       1.409  -1.641  -0.405  1.00  0.00     0.263 C 
ATOM     15  H   UNL     1       2.378  -0.218   0.667  1.00  0.00     0.348 HD
BRANCH  12  16
ATOM     16  C   UNL     1       1.769  -1.212   2.023  1.00  0.00     0.308 C 
BRANCH  16  17
ATOM     17  C   UNL     1       0.758  -2.153   2.702  1.00  0.00     0.232 C 
ATOM     18  C   UNL     1       0.491  -3.486   1.991  1.00  0.00     0.090 C 
ATOM     19  O   UNL     1       1.234  -2.487   4.042  1.00  0.00    -0.484 OA
ATOM     20  C   UNL     1       0.060  -4.266   3.169  1.00  0.00    -0.002 A 
ATOM     21  C   UNL     1       0.561  -3.654   4.307  1.00  0.00     0.123 A 
ATOM     22  C   UNL     1      -0.696  -5.419   3.241  1.00  0.00     0.007 A 
ATOM     23  C   UNL     1       0.358  -4.176   5.562  1.00  0.00     0.047 A 
ATOM     24  C   UNL     1      -0.946  -5.947   4.507  1.00  0.00     0.001 A 
ATOM     25  C   UNL     1      -0.417  -5.335   5.659  1.00  0.00     0.004 A 
ENDBRANCH  16  17
ENDBRANCH  12  16
ENDBRANCH   7   9
ENDBRANCH   6   7
ENDBRANCH   5   6
ENDBRANCH   4   5
ENDBRANCH   3   4
ENDBRANCH   2   3
ENDBRANCH   1   2
BRANCH   1  26
ATOM     26  O   UNL     1      -3.803   0.500  -3.247  1.00  0.00    -0.376 OA
BRANCH  26  27
ATOM     27  C   UNL     1      -4.498   1.143  -4.305  1.00  0.00     0.202 C 
BRANCH  27  28
ATOM     28  C   UNL     1      -5.412   2.375  -4.094  1.00  0.00     0.261 C 
BRANCH  28  29
ATOM     29  O   UNL     1      -4.996   3.372  -3.142  1.00  0.00    -0.460 OA
BRANCH  29  30
ATOM     30  C   UNL     1      -5.725   3.454  -2.000  1.00  0.00     0.338 C 
ATOM     31  O   UNL     1      -6.706   2.778  -1.710  1.00  0.00    -0.246 OA
BRANCH  30  32
ATOM     32  C   UNL     1      -5.051   4.341  -1.026  1.00  0.00     0.060 A 
ATOM     33  C   UNL     1      -4.533   3.788   0.158  1.00  0.00     0.016 A 
ATOM     34  C   UNL     1      -4.968   5.715  -1.249  1.00  0.00     0.016 A 
ATOM     35  C   UNL     1      -3.946   4.608   1.127  1.00  0.00     0.010 A 
ATOM     36  C   UNL     1      -4.407   6.538  -0.263  1.00  0.00     0.010 A 
ATOM     37  C   UNL     1      -3.919   5.996   0.941  1.00  0.00    -0.014 A 
BRANCH  37  38
ATOM     38  C   UNL     1      -3.564   6.901   2.068  1.00  0.00     0.031 A 
ATOM     39  C   UNL     1      -4.682   7.538   2.852  1.00  0.00     0.074 A 
ATOM     40  C   UNL     1      -2.284   7.164   2.393  1.00  0.00     0.049 A 
ATOM     41  N   UNL     1      -4.629   8.444   3.794  1.00  0.00    -0.248 NA
ATOM     42  C   UNL     1      -6.046   7.093   2.522  1.00  0.00     0.031 C 
ATOM     43  C   UNL     1      -1.109   6.574   1.755  1.00  0.00     0.029 A 
ATOM     44  N   UNL     1      -1.761   8.016   3.337  1.00  0.00    -0.354 N 
ATOM     45  C   UNL     1      -5.948   8.685   4.162  1.00  0.00     0.074 A 
ATOM     46  C   UNL     1      -6.780   7.853   3.320  1.00  0.00     0.031 C 
ATOM     47  C   UNL     1      -0.001   7.098   2.312  1.00  0.00     0.029 A 
ATOM     48  C   UNL     1      -0.387   8.088   3.318  1.00  0.00     0.049 A 
ATOM     49  H   UNL     1      -2.318   8.526   3.968  1.00  0.00     0.167 HD
ATOM     50  C   UNL     1      -6.424   9.517   5.119  1.00  0.00     0.037 A 
ATOM     51  C   UNL     1       0.457   8.883   4.008  1.00  0.00     0.037 A 
ATOM     52  C   UNL     1      -5.594  10.350   5.950  1.00  0.00     0.049 A 
ATOM     53  C   UNL     1      -0.102   9.875   5.002  1.00  0.00     0.074 A 
ATOM     54  C   UNL     1      -5.983  11.228   6.948  1.00  0.00     0.029 A 
ATOM     55  N   UNL     1      -4.211  10.415   5.879  1.00  0.00    -0.354 N 
ATOM     56  N   UNL     1      -1.351  10.089   5.346  1.00  0.00    -0.248 NA
ATOM     57  C   UNL     1       0.865  10.735   5.702  1.00  0.00     0.031 C 
ATOM     58  C   UNL     1      -4.840  11.863   7.442  1.00  0.00     0.029 A 
ATOM     59  C   UNL     1      -3.732  11.335   6.798  1.00  0.00     0.049 A 
ATOM     60  H   UNL     1      -3.651   9.886   5.266  1.00  0.00     0.167 HD
ATOM     61  C   UNL     1      -1.313  11.076   6.328  1.00  0.00     0.074 A 
ATOM     62  C   UNL     1       0.080  11.413   6.528  1.00  0.00     0.031 C 
ATOM     63  C   UNL     1      -2.340  11.650   7.005  1.00  0.00     0.037 A 
BRANCH  50  64
ATOM     64  C   UNL     1      -7.916   9.586   5.305  1.00  0.00     0.058 A 
ATOM     65  C   UNL     1      -8.642   8.520   5.859  1.00  0.00     0.135 A 
ATOM     66  C   UNL     1      -8.624  10.750   4.963  1.00  0.00     0.135 A 
ATOM     67  F   UNL     1      -8.020   7.376   6.187  1.00  0.00    -0.206 F 
ATOM     68  C   UNL     1     -10.018   8.596   6.046  1.00  0.00     0.059 A 
ATOM     69  C   UNL     1      -9.996  10.860   5.169  1.00  0.00     0.059 A 
ATOM     70  F   UNL     1      -7.981  11.800   4.426  1.00  0.00    -0.206 F 
ATOM     71  C   UNL     1     -10.686   9.771   5.700  1.00  0.00     0.060 A 
BRANCH  71  72
ATOM     72  S   UNL     1     -12.470   9.856   5.962  1.00  0.00     0.124 S 
ATOM     73  O   UNL     1     -12.960   8.942   4.934  1.00  0.00    -0.237 OA
ATOM     74  O   UNL     1     -12.604   9.391   7.339  1.00  0.00    -0.237 OA
ATOM     75  O   UNL     1     -12.781  11.266   5.746  1.00  0.00    -0.744 OA
ENDBRANCH  71  72
ENDBRANCH  50  64
BRANCH  51  76
ATOM     76  C   UNL     1       1.928   8.800   3.781  1.00  0.00     0.058 A 
ATOM     77  C   UNL     1       2.792   8.347   4.789  1.00  0.00     0.135 A 
ATOM     78  C   UNL     1       2.503   9.205   2.566  1.00  0.00     0.135 A 
ATOM     79  F   UNL     1       2.296   7.965   5.976  1.00  0.00    -0.206 F 
ATOM     80  C   UNL     1       4.173   8.321   4.612  1.00  0.00     0.059 A 
ATOM     81  C   UNL     1       3.879   9.158   2.353  1.00  0.00     0.059 A 
ATOM     82  F   UNL     1       1.724   9.644   1.565  1.00  0.00    -0.206 F 
ATOM     83  C   UNL     1       4.707   8.728   3.389  1.00  0.00     0.060 A 
BRANCH  83  84
ATOM     84  S   UNL     1       6.497   8.664   3.162  1.00  0.00     0.124 S 
ATOM     85  O   UNL     1       6.941   9.761   4.014  1.00  0.00    -0.237 OA
ATOM     86  O   UNL     1       6.817   7.320   3.633  1.00  0.00    -0.237 OA
ATOM     87  O   UNL     1       6.662   8.874   1.727  1.00  0.00    -0.744 OA
ENDBRANCH  83  84
ENDBRANCH  51  76
BRANCH  63  88
ATOM     88  C   UNL     1      -2.004  12.663   8.069  1.00  0.00     0.058 A 
ATOM     89  C   UNL     1      -1.520  13.943   7.754  1.00  0.00     0.135 A 
ATOM     90  C   UNL     1      -2.229  12.367   9.424  1.00  0.00     0.135 A 
ATOM     91  F   UNL     1      -1.282  14.280   6.476  1.00  0.00    -0.206 F 
ATOM     92  C   UNL     1      -1.250  14.883   8.744  1.00  0.00     0.059 A 
ATOM     93  C   UNL     1      -1.996  13.303  10.428  1.00  0.00     0.059 A 
ATOM     94  F   UNL     1      -2.703  11.163   9.784  1.00  0.00    -0.206 F 
ATOM     95  C   UNL     1      -1.496  14.555  10.079  1.00  0.00     0.060 A 
BRANCH  95  96
ATOM     96  S   UNL     1      -1.177  15.799  11.349  1.00  0.00     0.124 S 
ATOM     97  O   UNL     1       0.281  15.835  11.368  1.00  0.00    -0.237 OA
ATOM     98  O   UNL     1      -1.833  16.981  10.799  1.00  0.00    -0.237 OA
ATOM     99  O   UNL     1      -1.807  15.238  12.541  1.00  0.00    -0.744 OA
ENDBRANCH  95  96
ENDBRANCH  63  88
ENDBRANCH  37  38
ENDBRANCH  30  32
ENDBRANCH  29  30
ENDBRANCH  28  29
ENDBRANCH  27  28
ENDBRANCH  26  27
ENDBRANCH   1  26
TORSDOF 22
