REMARK SMILES CCc1ccc(C(=O)NCc2ccc(C(=O)OCCOCCOCCOC(=O)c3ccc(-c4c5nc(c(-c6c(F)cc(S(=O)(=O)[O-])cc6F)c6ccc([nH]6)c(-c6c(F)cc(S(=O)(=O)[O-])cc6F)c6nc(c(-c7c(F)cc(S(=O)(=O)[O-])cc7F)c7ccc4[nH]7)C=C6)C=C5)cc3)cc2)cc1
REMARK SMILES IDX 21 1 20 2 19 3 18 4 17 5 15 6 16 7 14 8 11 9 12 10 96 11
REMARK SMILES IDX 13 12 95 13 10 14 9 15 7 16 8 17 6 19 3 20 4 21 98 22 5 23
REMARK SMILES IDX 97 24 2 25 1 26 22 27 23 28 24 29 25 30 26 31 27 32 28 33
REMARK SMILES IDX 29 34 30 35 94 36 31 37 93 38 32 39 33 40 34 41 87 42 35 43
REMARK SMILES IDX 92 44 86 45 88 46 36 47 91 48 85 49 84 50 37 52 71 53 50 54
REMARK SMILES IDX 70 55 51 56 54 57 69 58 89 59 52 60 53 61 68 63 90 64 55 65
REMARK SMILES IDX 38 66 39 67 48 68 40 69 41 70 47 71 49 72 42 73 43 74 44 75
REMARK SMILES IDX 45 76 46 77 72 78 73 79 82 80 74 81 75 82 81 83 83 84 76 85
REMARK SMILES IDX 77 86 78 87 79 88 80 89 56 90 57 91 66 92 58 93 59 94 65 95
REMARK SMILES IDX 67 96 60 97 61 98 62 99 63 100 64 101
REMARK H PARENT 9 18 88 51 54 62
REMARK Flexibility Score: inf
ROOT
ATOM      1  C   UNL     1      -4.504  10.751   3.366  1.00  0.00     0.188 C 
ENDROOT
BRANCH   1   2
ATOM      2  O   UNL     1      -5.849  11.167   3.322  1.00  0.00    -0.376 OA
BRANCH   2   3
ATOM      3  C   UNL     1      -6.758  10.604   2.393  1.00  0.00     0.202 C 
BRANCH   3   4
ATOM      4  C   UNL     1      -6.448   9.507   1.354  1.00  0.00     0.261 C 
BRANCH   4   5
ATOM      5  O   UNL     1      -5.188   8.840   1.438  1.00  0.00    -0.460 OA
BRANCH   5   6
ATOM      6  C   UNL     1      -4.290   9.166   0.475  1.00  0.00     0.338 C 
ATOM      7  O   UNL     1      -4.468   9.927  -0.461  1.00  0.00    -0.246 OA
BRANCH   6   8
ATOM      8  C   UNL     1      -2.967   8.596   0.813  1.00  0.00     0.060 A 
ATOM      9  C   UNL     1      -0.391   7.588   1.343  1.00  0.00    -0.029 A 
ATOM     10  C   UNL     1      -0.573   8.927   0.964  1.00  0.00     0.006 A 
ATOM     11  C   UNL     1      -1.532   6.789   1.534  1.00  0.00     0.006 A 
ATOM     12  C   UNL     1      -1.849   9.426   0.696  1.00  0.00     0.016 A 
ATOM     13  C   UNL     1      -2.814   7.283   1.260  1.00  0.00     0.016 A 
BRANCH   9  14
ATOM     14  C   UNL     1       1.013   7.035   1.458  1.00  0.00     0.152 C 
BRANCH  14  15
ATOM     15  N   UNL     1       1.363   6.643   2.803  1.00  0.00    -0.348 N 
ATOM     16  C   UNL     1       1.685   5.453   3.395  1.00  0.00     0.251 C 
ATOM     17  O   UNL     1       2.195   5.521   4.517  1.00  0.00    -0.269 OA
ATOM     18  H   UNL     1       1.370   7.400   3.433  1.00  0.00     0.164 HD
BRANCH  16  19
ATOM     19  C   UNL     1       1.447   4.098   2.808  1.00  0.00     0.039 A 
ATOM     20  C   UNL     1       0.962   1.427   1.969  1.00  0.00    -0.048 A 
ATOM     21  C   UNL     1       1.765   1.685   3.082  1.00  0.00     0.004 A 
ATOM     22  C   UNL     1       0.404   2.510   1.286  1.00  0.00     0.004 A 
ATOM     23  C   UNL     1       2.003   3.002   3.493  1.00  0.00     0.014 A 
ATOM     24  C   UNL     1       0.648   3.825   1.699  1.00  0.00     0.014 A 
BRANCH  20  25
ATOM     25  C   UNL     1       0.671   0.016   1.527  1.00  0.00     0.032 C 
ATOM     26  C   UNL     1       1.168  -0.270   0.116  1.00  0.00     0.009 C 
ENDBRANCH  20  25
ENDBRANCH  16  19
ENDBRANCH  14  15
ENDBRANCH   9  14
ENDBRANCH   6   8
ENDBRANCH   5   6
ENDBRANCH   4   5
ENDBRANCH   3   4
ENDBRANCH   2   3
ENDBRANCH   1   2
BRANCH   1  27
ATOM     27  C   UNL     1      -4.215   9.443   4.128  1.00  0.00     0.188 C 
BRANCH  27  28
ATOM     28  O   UNL     1      -5.287   8.639   4.581  1.00  0.00    -0.376 OA
BRANCH  28  29
ATOM     29  C   UNL     1      -6.244   9.174   5.482  1.00  0.00     0.202 C 
BRANCH  29  30
ATOM     30  C   UNL     1      -5.927  10.223   6.566  1.00  0.00     0.261 C 
BRANCH  30  31
ATOM     31  O   UNL     1      -4.915  11.191   6.274  1.00  0.00    -0.460 OA
BRANCH  31  32
ATOM     32  C   UNL     1      -3.751  11.035   6.947  1.00  0.00     0.338 C 
ATOM     33  O   UNL     1      -3.475  10.155   7.754  1.00  0.00    -0.246 OA
BRANCH  32  34
ATOM     34  C   UNL     1      -2.764  12.003   6.440  1.00  0.00     0.060 A 
ATOM     35  C   UNL     1      -1.647  11.525   5.742  1.00  0.00     0.016 A 
ATOM     36  C   UNL     1      -2.916  13.367   6.691  1.00  0.00     0.016 A 
ATOM     37  C   UNL     1      -0.665  12.413   5.304  1.00  0.00     0.010 A 
ATOM     38  C   UNL     1      -1.919  14.253   6.271  1.00  0.00     0.010 A 
ATOM     39  C   UNL     1      -0.777  13.777   5.600  1.00  0.00    -0.014 A 
BRANCH  39  40
ATOM     40  C   UNL     1       0.373  14.682   5.362  1.00  0.00     0.031 A 
ATOM     41  C   UNL     1       1.272  15.022   6.519  1.00  0.00     0.074 A 
ATOM     42  C   UNL     1       0.620  15.188   4.141  1.00  0.00     0.049 A 
ATOM     43  N   UNL     1       2.292  15.839   6.567  1.00  0.00    -0.248 NA
ATOM     44  C   UNL     1       0.977  14.352   7.796  1.00  0.00     0.031 C 
ATOM     45  C   UNL     1      -0.154  14.901   2.935  1.00  0.00     0.029 A 
ATOM     46  N   UNL     1       1.589  16.064   3.719  1.00  0.00    -0.354 N 
ATOM     47  C   UNL     1       2.754  15.791   7.877  1.00  0.00     0.074 A 
ATOM     48  C   UNL     1       1.885  14.886   8.599  1.00  0.00     0.031 C 
ATOM     49  C   UNL     1       0.361  15.604   1.910  1.00  0.00     0.029 A 
ATOM     50  C   UNL     1       1.477  16.415   2.395  1.00  0.00     0.049 A 
ATOM     51  H   UNL     1       2.298  16.409   4.310  1.00  0.00     0.167 HD
ATOM     52  C   UNL     1       3.809  16.436   8.427  1.00  0.00     0.037 A 
ATOM     53  C   UNL     1       2.178  17.308   1.667  1.00  0.00     0.037 A 
ATOM     54  C   UNL     1       4.666  17.340   7.704  1.00  0.00     0.049 A 
ATOM     55  C   UNL     1       3.303  18.073   2.318  1.00  0.00     0.074 A 
ATOM     56  C   UNL     1       5.773  18.031   8.166  1.00  0.00     0.029 A 
ATOM     57  N   UNL     1       4.506  17.689   6.371  1.00  0.00    -0.354 N 
ATOM     58  N   UNL     1       3.747  18.001   3.552  1.00  0.00    -0.248 NA
ATOM     59  C   UNL     1       4.026  19.039   1.478  1.00  0.00     0.031 C 
ATOM     60  C   UNL     1       6.247  18.841   7.129  1.00  0.00     0.029 A 
ATOM     61  C   UNL     1       5.476  18.607   6.001  1.00  0.00     0.049 A 
ATOM     62  H   UNL     1       3.806  17.337   5.775  1.00  0.00     0.167 HD
ATOM     63  C   UNL     1       4.817  18.888   3.626  1.00  0.00     0.074 A 
ATOM     64  C   UNL     1       4.960  19.477   2.311  1.00  0.00     0.031 C 
ATOM     65  C   UNL     1       5.612  19.183   4.685  1.00  0.00     0.037 A 
BRANCH  52  66
ATOM     66  C   UNL     1       4.074  16.214   9.891  1.00  0.00     0.058 A 
ATOM     67  C   UNL     1       4.550  14.987  10.382  1.00  0.00     0.135 A 
ATOM     68  C   UNL     1       3.866  17.250  10.816  1.00  0.00     0.135 A 
ATOM     69  F   UNL     1       4.749  13.956   9.546  1.00  0.00    -0.206 F 
ATOM     70  C   UNL     1       4.779  14.786  11.739  1.00  0.00     0.059 A 
ATOM     71  C   UNL     1       4.119  17.081  12.174  1.00  0.00     0.059 A 
ATOM     72  F   UNL     1       3.411  18.444  10.403  1.00  0.00    -0.206 F 
ATOM     73  C   UNL     1       4.559  15.840  12.628  1.00  0.00     0.060 A 
BRANCH  73  74
ATOM     74  S   UNL     1       4.858  15.562  14.387  1.00  0.00     0.124 S 
ATOM     75  O   UNL     1       3.739  14.694  14.739  1.00  0.00    -0.237 OA
ATOM     76  O   UNL     1       6.173  14.930  14.383  1.00  0.00    -0.237 OA
ATOM     77  O   UNL     1       4.813  16.905  14.956  1.00  0.00    -0.744 OA
ENDBRANCH  73  74
ENDBRANCH  52  66
BRANCH  53  78
ATOM     78  C   UNL     1       1.831  17.537   0.238  1.00  0.00     0.058 A 
ATOM     79  C   UNL     1       2.698  17.140  -0.790  1.00  0.00     0.135 A 
ATOM     80  C   UNL     1       0.625  18.155  -0.127  1.00  0.00     0.135 A 
ATOM     81  F   UNL     1       3.869  16.558  -0.493  1.00  0.00    -0.206 F 
ATOM     82  C   UNL     1       2.388  17.356  -2.129  1.00  0.00     0.059 A 
ATOM     83  C   UNL     1       0.279  18.356  -1.460  1.00  0.00     0.059 A 
ATOM     84  F   UNL     1      -0.243  18.549   0.818  1.00  0.00    -0.206 F 
ATOM     85  C   UNL     1       1.171  17.959  -2.454  1.00  0.00     0.060 A 
BRANCH  85  86
ATOM     86  S   UNL     1       0.754  18.178  -4.198  1.00  0.00     0.124 S 
ATOM     87  O   UNL     1       1.675  19.238  -4.591  1.00  0.00    -0.237 OA
ATOM     88  O   UNL     1       1.033  16.854  -4.745  1.00  0.00    -0.237 OA
ATOM     89  O   UNL     1      -0.657  18.548  -4.162  1.00  0.00    -0.744 OA
ENDBRANCH  85  86
ENDBRANCH  53  78
BRANCH  65  90
ATOM     90  C   UNL     1       6.739  20.158   4.464  1.00  0.00     0.058 A 
ATOM     91  C   UNL     1       6.510  21.530   4.278  1.00  0.00     0.135 A 
ATOM     92  C   UNL     1       8.074  19.718   4.498  1.00  0.00     0.135 A 
ATOM     93  F   UNL     1       5.255  22.005   4.232  1.00  0.00    -0.206 F 
ATOM     94  C   UNL     1       7.561  22.428   4.109  1.00  0.00     0.059 A 
ATOM     95  C   UNL     1       9.140  20.602   4.362  1.00  0.00     0.059 A 
ATOM     96  F   UNL     1       8.353  18.418   4.684  1.00  0.00    -0.206 F 
ATOM     97  C   UNL     1       8.873  21.954   4.156  1.00  0.00     0.060 A 
BRANCH  97  98
ATOM     98  S   UNL     1      10.227  23.134   3.970  1.00  0.00     0.124 S 
ATOM     99  O   UNL     1      10.146  23.453   2.549  1.00  0.00    -0.237 OA
ATOM    100  O   UNL     1       9.837  24.203   4.884  1.00  0.00    -0.237 OA
ATOM    101  O   UNL     1      11.404  22.370   4.375  1.00  0.00    -0.744 OA
ENDBRANCH  97  98
ENDBRANCH  65  90
ENDBRANCH  39  40
ENDBRANCH  32  34
ENDBRANCH  31  32
ENDBRANCH  30  31
ENDBRANCH  29  30
ENDBRANCH  28  29
ENDBRANCH  27  28
ENDBRANCH   1  27
TORSDOF 24
