REMARK SMILES C/C(=C(\C#N)C(=O)OCCOCCOCCOC(=O)c1ccc(-c2c3nc(c(-c4c(F)cc(S(=O)(=O)[O-])cc4F)c4ccc([nH]4)c(-c4c(F)cc(S(=O)(=O)[O-])cc4F)c4nc(c(-c5c(F)cc(S(=O)(=O)[O-])cc5F)c5ccc2[nH]5)C=C4)C=C3)cc1)c1cccc2ccccc12
REMARK SMILES IDX 13 1 12 2 11 3 10 4 9 5 8 6 6 7 7 8 3 9 1 10 2 11 86 12
REMARK SMILES IDX 87 13 95 14 88 15 90 16 94 17 89 18 91 19 93 20 92 21 4 22
REMARK SMILES IDX 5 23 14 24 15 25 16 26 17 27 18 28 19 29 20 30 21 31 85 32
REMARK SMILES IDX 22 33 84 34 23 35 24 36 25 37 78 38 26 39 83 40 77 41 79 42
REMARK SMILES IDX 27 43 82 44 76 45 75 46 28 48 62 49 41 50 61 51 42 52 45 53
REMARK SMILES IDX 60 54 80 55 43 56 44 57 59 59 81 60 46 61 29 62 30 63 39 64
REMARK SMILES IDX 31 65 32 66 38 67 40 68 33 69 34 70 35 71 36 72 37 73 63 74
REMARK SMILES IDX 64 75 73 76 65 77 66 78 72 79 74 80 67 81 68 82 69 83 70 84
REMARK SMILES IDX 71 85 47 86 48 87 57 88 49 89 50 90 56 91 58 92 51 93 52 94
REMARK SMILES IDX 53 95 54 96 55 97
REMARK H PARENT 79 47 45 58
REMARK Flexibility Score: inf
ROOT
ATOM      1  C   UNL     1      -3.128   2.797   1.336  1.00  0.00     0.188 C 
ENDROOT
BRANCH   1   2
ATOM      2  C   UNL     1      -2.572   3.989   2.144  1.00  0.00     0.188 C 
BRANCH   2   3
ATOM      3  O   UNL     1      -3.090   5.228   1.708  1.00  0.00    -0.376 OA
BRANCH   3   4
ATOM      4  C   UNL     1      -2.172   6.113   1.096  1.00  0.00     0.202 C 
BRANCH   4   5
ATOM      5  C   UNL     1      -1.391   5.638  -0.146  1.00  0.00     0.261 C 
BRANCH   5   6
ATOM      6  O   UNL     1      -1.285   4.214  -0.327  1.00  0.00    -0.459 OA
BRANCH   6   7
ATOM      7  C   UNL     1      -0.106   3.623   0.002  1.00  0.00     0.349 C 
ATOM      8  O   UNL     1       0.887   4.229   0.369  1.00  0.00    -0.245 OA
BRANCH   7   9
ATOM      9  C   UNL     1      -0.193   2.122  -0.178  1.00  0.00     0.140 C 
ATOM     10  C   UNL     1       0.998  -0.075   0.206  1.00  0.00     0.047 C 
ATOM     11  C   UNL     1       0.572   1.307   0.630  1.00  0.00    -0.018 C 
BRANCH  11  12
ATOM     12  C   UNL     1       1.102   1.779   1.977  1.00  0.00    -0.013 A 
ATOM     13  C   UNL     1       0.122   2.273   2.841  1.00  0.00     0.009 A 
ATOM     14  C   UNL     1       2.458   1.884   2.435  1.00  0.00    -0.011 A 
ATOM     15  C   UNL     1       0.419   3.190   3.845  1.00  0.00     0.001 A 
ATOM     16  C   UNL     1       2.757   2.883   3.410  1.00  0.00    -0.018 A 
ATOM     17  C   UNL     1       3.537   1.025   2.103  1.00  0.00     0.009 A 
ATOM     18  C   UNL     1       1.731   3.581   4.044  1.00  0.00     0.009 A 
ATOM     19  C   UNL     1       4.070   3.126   3.840  1.00  0.00     0.009 A 
ATOM     20  C   UNL     1       4.814   1.175   2.674  1.00  0.00     0.001 A 
ATOM     21  C   UNL     1       5.095   2.257   3.495  1.00  0.00     0.001 A 
ENDBRANCH  11  12
BRANCH   9  22
ATOM     22  C   UNL     1      -0.560   1.742  -1.604  1.00  0.00     0.107 C 
ATOM     23  N   UNL     1      -0.865   1.426  -2.786  1.00  0.00    -0.192 NA
ENDBRANCH   9  22
ENDBRANCH   7   9
ENDBRANCH   6   7
ENDBRANCH   5   6
ENDBRANCH   4   5
ENDBRANCH   3   4
ENDBRANCH   2   3
ENDBRANCH   1   2
BRANCH   1  24
ATOM     24  O   UNL     1      -4.370   2.914   0.668  1.00  0.00    -0.376 OA
BRANCH  24  25
ATOM     25  C   UNL     1      -5.385   3.662   1.305  1.00  0.00     0.202 C 
BRANCH  25  26
ATOM     26  C   UNL     1      -5.857   3.194   2.691  1.00  0.00     0.261 C 
BRANCH  26  27
ATOM     27  O   UNL     1      -4.859   2.633   3.573  1.00  0.00    -0.460 OA
BRANCH  27  28
ATOM     28  C   UNL     1      -4.779   1.277   3.591  1.00  0.00     0.338 C 
ATOM     29  O   UNL     1      -5.473   0.505   2.935  1.00  0.00    -0.246 OA
BRANCH  28  30
ATOM     30  C   UNL     1      -3.605   0.817   4.380  1.00  0.00     0.060 A 
ATOM     31  C   UNL     1      -2.705  -0.080   3.783  1.00  0.00     0.016 A 
ATOM     32  C   UNL     1      -3.413   1.197   5.710  1.00  0.00     0.016 A 
ATOM     33  C   UNL     1      -1.634  -0.614   4.514  1.00  0.00     0.010 A 
ATOM     34  C   UNL     1      -2.355   0.636   6.450  1.00  0.00     0.010 A 
ATOM     35  C   UNL     1      -1.473  -0.294   5.869  1.00  0.00    -0.014 A 
BRANCH  35  36
ATOM     36  C   UNL     1      -0.483  -1.042   6.701  1.00  0.00     0.031 A 
ATOM     37  C   UNL     1      -0.939  -2.238   7.490  1.00  0.00     0.074 A 
ATOM     38  C   UNL     1       0.816  -0.689   6.758  1.00  0.00     0.049 A 
ATOM     39  N   UNL     1      -0.246  -3.034   8.264  1.00  0.00    -0.248 NA
ATOM     40  C   UNL     1      -2.367  -2.576   7.400  1.00  0.00     0.031 C 
ATOM     41  C   UNL     1       1.400   0.435   6.044  1.00  0.00     0.029 A 
ATOM     42  N   UNL     1       1.877  -1.229   7.448  1.00  0.00    -0.354 N 
ATOM     43  C   UNL     1      -1.148  -3.969   8.754  1.00  0.00     0.074 A 
ATOM     44  C   UNL     1      -2.447  -3.619   8.214  1.00  0.00     0.031 C 
ATOM     45  C   UNL     1       2.708   0.515   6.334  1.00  0.00     0.029 A 
ATOM     46  C   UNL     1       3.059  -0.547   7.269  1.00  0.00     0.049 A 
ATOM     47  H   UNL     1       1.797  -2.029   8.017  1.00  0.00     0.167 HD
ATOM     48  C   UNL     1      -0.918  -5.024   9.573  1.00  0.00     0.037 A 
ATOM     49  C   UNL     1       4.285  -0.742   7.799  1.00  0.00     0.037 A 
ATOM     50  C   UNL     1       0.368  -5.362  10.131  1.00  0.00     0.049 A 
ATOM     51  C   UNL     1       4.507  -1.895   8.740  1.00  0.00     0.074 A 
ATOM     52  C   UNL     1       0.693  -6.428  10.954  1.00  0.00     0.029 A 
ATOM     53  N   UNL     1       1.536  -4.637   9.945  1.00  0.00    -0.354 N 
ATOM     54  N   UNL     1       3.651  -2.799   9.153  1.00  0.00    -0.248 NA
ATOM     55  C   UNL     1       5.863  -2.060   9.282  1.00  0.00     0.031 C 
ATOM     56  C   UNL     1       2.040  -6.313  11.314  1.00  0.00     0.029 A 
ATOM     57  C   UNL     1       2.574  -5.214  10.663  1.00  0.00     0.049 A 
ATOM     58  H   UNL     1       1.617  -3.832   9.385  1.00  0.00     0.167 HD
ATOM     59  C   UNL     1       4.369  -3.648   9.989  1.00  0.00     0.074 A 
ATOM     60  C   UNL     1       5.735  -3.169   9.997  1.00  0.00     0.031 C 
ATOM     61  C   UNL     1       3.932  -4.726  10.688  1.00  0.00     0.037 A 
BRANCH  48  62
ATOM     62  C   UNL     1      -2.100  -5.879   9.942  1.00  0.00     0.058 A 
ATOM     63  C   UNL     1      -2.727  -6.718   9.007  1.00  0.00     0.135 A 
ATOM     64  C   UNL     1      -2.593  -5.880  11.257  1.00  0.00     0.135 A 
ATOM     65  F   UNL     1      -2.308  -6.742   7.731  1.00  0.00    -0.206 F 
ATOM     66  C   UNL     1      -3.818  -7.507   9.355  1.00  0.00     0.059 A 
ATOM     67  C   UNL     1      -3.664  -6.684  11.635  1.00  0.00     0.059 A 
ATOM     68  F   UNL     1      -2.033  -5.095  12.190  1.00  0.00    -0.206 F 
ATOM     69  C   UNL     1      -4.279  -7.484  10.673  1.00  0.00     0.060 A 
BRANCH  69  70
ATOM     70  S   UNL     1      -5.693  -8.517  11.109  1.00  0.00     0.124 S 
ATOM     71  O   UNL     1      -6.781  -7.825  10.426  1.00  0.00    -0.237 OA
ATOM     72  O   UNL     1      -5.315  -9.811  10.550  1.00  0.00    -0.237 OA
ATOM     73  O   UNL     1      -5.726  -8.452  12.567  1.00  0.00    -0.744 OA
ENDBRANCH  69  70
ENDBRANCH  48  62
BRANCH  49  74
ATOM     74  C   UNL     1       5.409   0.174   7.455  1.00  0.00     0.058 A 
ATOM     75  C   UNL     1       6.500  -0.271   6.692  1.00  0.00     0.135 A 
ATOM     76  C   UNL     1       5.426   1.505   7.900  1.00  0.00     0.135 A 
ATOM     77  F   UNL     1       6.542  -1.540   6.258  1.00  0.00    -0.206 F 
ATOM     78  C   UNL     1       7.573   0.563   6.396  1.00  0.00     0.059 A 
ATOM     79  C   UNL     1       6.474   2.368   7.591  1.00  0.00     0.059 A 
ATOM     80  F   UNL     1       4.407   1.985   8.629  1.00  0.00    -0.206 F 
ATOM     81  C   UNL     1       7.547   1.884   6.845  1.00  0.00     0.060 A 
BRANCH  81  82
ATOM     82  S   UNL     1       8.902   2.982   6.378  1.00  0.00     0.124 S 
ATOM     83  O   UNL     1       9.984   2.496   7.224  1.00  0.00    -0.237 OA
ATOM     84  O   UNL     1       9.030   2.708   4.950  1.00  0.00    -0.237 OA
ATOM     85  O   UNL     1       8.386   4.308   6.707  1.00  0.00    -0.744 OA
ENDBRANCH  81  82
ENDBRANCH  49  74
BRANCH  61  86
ATOM     86  C   UNL     1       4.950  -5.470  11.513  1.00  0.00     0.058 A 
ATOM     87  C   UNL     1       5.534  -4.904  12.658  1.00  0.00     0.135 A 
ATOM     88  C   UNL     1       5.347  -6.769  11.155  1.00  0.00     0.135 A 
ATOM     89  F   UNL     1       5.196  -3.664  13.046  1.00  0.00    -0.206 F 
ATOM     90  C   UNL     1       6.509  -5.576  13.388  1.00  0.00     0.059 A 
ATOM     91  C   UNL     1       6.295  -7.475  11.891  1.00  0.00     0.059 A 
ATOM     92  F   UNL     1       4.814  -7.368  10.078  1.00  0.00    -0.206 F 
ATOM     93  C   UNL     1       6.887  -6.861  12.993  1.00  0.00     0.060 A 
BRANCH  93  94
ATOM     94  S   UNL     1       8.162  -7.718  13.942  1.00  0.00     0.124 S 
ATOM     95  O   UNL     1       9.363  -6.993  13.543  1.00  0.00    -0.237 OA
ATOM     96  O   UNL     1       7.721  -7.508  15.318  1.00  0.00    -0.237 OA
ATOM     97  O   UNL     1       8.072  -9.095  13.465  1.00  0.00    -0.744 OA
ENDBRANCH  93  94
ENDBRANCH  61  86
ENDBRANCH  35  36
ENDBRANCH  28  30
ENDBRANCH  27  28
ENDBRANCH  26  27
ENDBRANCH  25  26
ENDBRANCH  24  25
ENDBRANCH   1  24
TORSDOF 22
