REMARK SMILES C[C@]12CCC[C@](C)(C(=O)OCCOCCOCCOC(=O)c3ccc(-c4c5nc(c(-c6c(F)cc(S(=O)(=O)[O-])cc6F)c6ccc([nH]6)c(-c6c(F)cc(S(=O)(=O)[O-])cc6F)c6nc(c(-c7c(F)cc(S(=O)(=O)[O-])cc7F)c7ccc4[nH]7)C=C6)C=C5)cc3)[C@@H]1CC[C@]13C=C(CO)[C@H](CC[C@H]12)C3
REMARK SMILES IDX 15 1 14 2 13 3 12 4 11 5 10 6 8 7 9 8 6 9 1 10 2 11 3 12
REMARK SMILES IDX 88 13 99 14 4 15 89 16 91 17 98 18 5 19 7 20 90 21 92 22
REMARK SMILES IDX 100 23 97 24 93 25 96 26 94 27 95 28 16 30 17 31 18 32 19 33
REMARK SMILES IDX 20 34 21 35 22 36 23 37 87 38 24 39 86 40 25 41 26 42 27 43
REMARK SMILES IDX 80 44 28 45 85 46 79 47 81 48 29 49 84 50 78 51 77 52 30 54
REMARK SMILES IDX 64 55 43 56 63 57 44 58 47 59 62 60 82 61 45 62 46 63 61 65
REMARK SMILES IDX 83 66 48 67 31 68 32 69 41 70 33 71 34 72 40 73 42 74 35 75
REMARK SMILES IDX 36 76 37 77 38 78 39 79 65 80 66 81 75 82 67 83 68 84 74 85
REMARK SMILES IDX 76 86 69 87 70 88 71 89 72 90 73 91 49 92 50 93 59 94 51 95
REMARK SMILES IDX 52 96 58 97 60 98 53 99 54 100 55 101 56 102 57 103
REMARK H PARENT 95 29 81 53 47 64
REMARK Flexibility Score: inf
ROOT
ATOM      1  C   UNL     1       3.272  -2.565  -2.213  1.00  0.00     0.188 C 
ENDROOT
BRANCH   1   2
ATOM      2  C   UNL     1       3.317  -1.040  -2.300  1.00  0.00     0.188 C 
BRANCH   2   3
ATOM      3  O   UNL     1       4.606  -0.482  -2.308  1.00  0.00    -0.376 OA
BRANCH   3   4
ATOM      4  C   UNL     1       5.293  -0.401  -1.063  1.00  0.00     0.202 C 
BRANCH   4   5
ATOM      5  C   UNL     1       4.782  -1.059   0.247  1.00  0.00     0.261 C 
BRANCH   5   6
ATOM      6  O   UNL     1       3.389  -1.437   0.217  1.00  0.00    -0.463 OA
BRANCH   6   7
ATOM      7  C   UNL     1       2.797  -1.842   1.359  1.00  0.00     0.312 C 
ATOM      8  O   UNL     1       3.448  -2.080   2.372  1.00  0.00    -0.252 OA
BRANCH   7   9
ATOM      9  C   UNL     1       1.211  -1.878   1.255  1.00  0.00     0.069 C 
ATOM     10  C   UNL     1       2.352   0.927   1.337  1.00  0.00     0.012 C 
ATOM     11  C   UNL     1       0.836   0.674   1.623  1.00  0.00    -0.025 C 
ATOM     12  C   UNL     1       0.610   0.403   3.126  1.00  0.00     0.007 C 
ATOM     13  C   UNL     1       0.344  -0.556   0.826  1.00  0.00     0.012 C 
ATOM     14  C   UNL     1       0.169   2.019   1.242  1.00  0.00     0.005 C 
ATOM     15  C   UNL     1       1.028  -0.959   3.668  1.00  0.00     0.002 C 
ATOM     16  C   UNL     1      -0.022  -0.243  -0.664  1.00  0.00     0.006 C 
ATOM     17  C   UNL     1      -0.048   2.340  -0.286  1.00  0.00    -0.008 C 
ATOM     18  C   UNL     1      -0.784   2.853   2.089  1.00  0.00     0.006 C 
ATOM     19  C   UNL     1       0.772  -2.145   2.732  1.00  0.00     0.019 C 
ATOM     20  C   UNL     1       0.852  -3.131   0.436  1.00  0.00     0.024 C 
ATOM     21  C   UNL     1      -0.695   1.140  -0.968  1.00  0.00     0.012 C 
ATOM     22  C   UNL     1       1.285   2.808  -0.798  1.00  0.00    -0.018 C 
ATOM     23  C   UNL     1      -0.732   3.736  -0.460  1.00  0.00     0.019 C 
ATOM     24  C   UNL     1      -0.235   4.319   1.890  1.00  0.00     0.008 C 
ATOM     25  C   UNL     1       1.558   3.984  -0.189  1.00  0.00    -0.045 C 
ATOM     26  C   UNL     1       0.236   4.590   0.397  1.00  0.00     0.018 C 
BRANCH  25  27
ATOM     27  C   UNL     1       2.926   4.571  -0.045  1.00  0.00     0.187 C 
BRANCH  27  28
ATOM     28  O   UNL     1       3.931   3.689  -0.560  1.00  0.00    -0.392 OA
ATOM     29  H   UNL     1       3.914   2.855  -0.064  1.00  0.00     0.211 HD
ENDBRANCH  27  28
ENDBRANCH  25  27
ENDBRANCH   7   9
ENDBRANCH   6   7
ENDBRANCH   5   6
ENDBRANCH   4   5
ENDBRANCH   3   4
ENDBRANCH   2   3
ENDBRANCH   1   2
BRANCH   1  30
ATOM     30  O   UNL     1       4.372  -3.346  -1.781  1.00  0.00    -0.376 OA
BRANCH  30  31
ATOM     31  C   UNL     1       5.510  -3.443  -2.627  1.00  0.00     0.202 C 
BRANCH  31  32
ATOM     32  C   UNL     1       5.396  -3.924  -4.093  1.00  0.00     0.261 C 
BRANCH  32  33
ATOM     33  O   UNL     1       4.219  -3.539  -4.819  1.00  0.00    -0.460 OA
BRANCH  33  34
ATOM     34  C   UNL     1       3.189  -4.438  -4.756  1.00  0.00     0.338 C 
ATOM     35  O   UNL     1       3.219  -5.536  -4.251  1.00  0.00    -0.246 OA
BRANCH  34  36
ATOM     36  C   UNL     1       1.925  -3.741  -5.143  1.00  0.00     0.060 A 
ATOM     37  C   UNL     1       0.834  -3.800  -4.254  1.00  0.00     0.016 A 
ATOM     38  C   UNL     1       1.823  -3.006  -6.321  1.00  0.00     0.016 A 
ATOM     39  C   UNL     1      -0.378  -3.183  -4.574  1.00  0.00     0.010 A 
ATOM     40  C   UNL     1       0.598  -2.418  -6.658  1.00  0.00     0.010 A 
ATOM     41  C   UNL     1      -0.522  -2.547  -5.812  1.00  0.00    -0.014 A 
BRANCH  41  42
ATOM     42  C   UNL     1      -1.881  -2.286  -6.358  1.00  0.00     0.031 A 
ATOM     43  C   UNL     1      -2.461  -3.320  -7.292  1.00  0.00     0.074 A 
ATOM     44  C   UNL     1      -2.591  -1.185  -6.055  1.00  0.00     0.049 A 
ATOM     45  N   UNL     1      -3.565  -3.289  -7.990  1.00  0.00    -0.248 NA
ATOM     46  C   UNL     1      -1.674  -4.553  -7.465  1.00  0.00     0.031 C 
ATOM     47  C   UNL     1      -2.180  -0.134  -5.128  1.00  0.00     0.029 A 
ATOM     48  N   UNL     1      -3.813  -0.763  -6.524  1.00  0.00    -0.354 N 
ATOM     49  C   UNL     1      -3.593  -4.484  -8.702  1.00  0.00     0.074 A 
ATOM     50  C   UNL     1      -2.385  -5.205  -8.370  1.00  0.00     0.031 C 
ATOM     51  C   UNL     1      -3.123   0.827  -5.117  1.00  0.00     0.029 A 
ATOM     52  C   UNL     1      -4.184   0.478  -6.063  1.00  0.00     0.049 A 
ATOM     53  H   UNL     1      -4.371  -1.300  -7.133  1.00  0.00     0.167 HD
ATOM     54  C   UNL     1      -4.540  -4.943  -9.555  1.00  0.00     0.037 A 
ATOM     55  C   UNL     1      -5.239   1.254  -6.391  1.00  0.00     0.037 A 
ATOM     56  C   UNL     1      -5.742  -4.226  -9.886  1.00  0.00     0.049 A 
ATOM     57  C   UNL     1      -6.251   0.756  -7.397  1.00  0.00     0.074 A 
ATOM     58  C   UNL     1      -6.773  -4.618 -10.721  1.00  0.00     0.029 A 
ATOM     59  N   UNL     1      -6.071  -2.965  -9.410  1.00  0.00    -0.354 N 
ATOM     60  N   UNL     1      -6.278  -0.383  -8.050  1.00  0.00    -0.248 NA
ATOM     61  C   UNL     1      -7.378   1.648  -7.709  1.00  0.00     0.031 C 
ATOM     62  C   UNL     1      -7.694  -3.569 -10.801  1.00  0.00     0.029 A 
ATOM     63  C   UNL     1      -7.274  -2.551  -9.959  1.00  0.00     0.049 A 
ATOM     64  H   UNL     1      -5.529  -2.442  -8.776  1.00  0.00     0.167 HD
ATOM     65  C   UNL     1      -7.437  -0.354  -8.824  1.00  0.00     0.074 A 
ATOM     66  C   UNL     1      -8.088   0.909  -8.550  1.00  0.00     0.031 C 
ATOM     67  C   UNL     1      -7.920  -1.293  -9.677  1.00  0.00     0.037 A 
BRANCH  54  68
ATOM     68  C   UNL     1      -4.285  -6.267 -10.224  1.00  0.00     0.058 A 
ATOM     69  C   UNL     1      -4.302  -7.478  -9.514  1.00  0.00     0.135 A 
ATOM     70  C   UNL     1      -4.029  -6.322 -11.604  1.00  0.00     0.135 A 
ATOM     71  F   UNL     1      -4.520  -7.484  -8.190  1.00  0.00    -0.206 F 
ATOM     72  C   UNL     1      -4.039  -8.692 -10.141  1.00  0.00     0.059 A 
ATOM     73  C   UNL     1      -3.798  -7.528 -12.258  1.00  0.00     0.059 A 
ATOM     74  F   UNL     1      -3.998  -5.194 -12.332  1.00  0.00    -0.206 F 
ATOM     75  C   UNL     1      -3.787  -8.706 -11.514  1.00  0.00     0.060 A 
BRANCH  75  76
ATOM     76  S   UNL     1      -3.441 -10.288 -12.312  1.00  0.00     0.124 S 
ATOM     77  O   UNL     1      -2.108 -10.588 -11.796  1.00  0.00    -0.237 OA
ATOM     78  O   UNL     1      -4.519 -11.132 -11.809  1.00  0.00    -0.237 OA
ATOM     79  O   UNL     1      -3.505  -9.973 -13.736  1.00  0.00    -0.744 OA
ENDBRANCH  75  76
ENDBRANCH  54  68
BRANCH  55  80
ATOM     80  C   UNL     1      -5.389   2.601  -5.774  1.00  0.00     0.058 A 
ATOM     81  C   UNL     1      -6.425   2.877  -4.870  1.00  0.00     0.135 A 
ATOM     82  C   UNL     1      -4.495   3.642  -6.077  1.00  0.00     0.135 A 
ATOM     83  F   UNL     1      -7.319   1.925  -4.564  1.00  0.00    -0.206 F 
ATOM     84  C   UNL     1      -6.572   4.133  -4.288  1.00  0.00     0.059 A 
ATOM     85  C   UNL     1      -4.603   4.897  -5.486  1.00  0.00     0.059 A 
ATOM     86  F   UNL     1      -3.486   3.432  -6.936  1.00  0.00    -0.206 F 
ATOM     87  C   UNL     1      -5.648   5.134  -4.595  1.00  0.00     0.060 A 
BRANCH  87  88
ATOM     88  S   UNL     1      -5.803   6.734  -3.771  1.00  0.00     0.124 S 
ATOM     89  O   UNL     1      -7.003   7.276  -4.398  1.00  0.00    -0.237 OA
ATOM     90  O   UNL     1      -5.934   6.343  -2.370  1.00  0.00    -0.237 OA
ATOM     91  O   UNL     1      -4.553   7.409  -4.109  1.00  0.00    -0.744 OA
ENDBRANCH  87  88
ENDBRANCH  55  80
BRANCH  67  92
ATOM     92  C   UNL     1      -9.242  -1.021 -10.351  1.00  0.00     0.058 A 
ATOM     93  C   UNL     1      -9.381  -0.052 -11.358  1.00  0.00     0.135 A 
ATOM     94  C   UNL     1     -10.373  -1.788 -10.025  1.00  0.00     0.135 A 
ATOM     95  F   UNL     1      -8.335   0.712 -11.710  1.00  0.00    -0.206 F 
ATOM     96  C   UNL     1     -10.600   0.165 -11.996  1.00  0.00     0.059 A 
ATOM     97  C   UNL     1     -11.593  -1.611 -10.673  1.00  0.00     0.059 A 
ATOM     98  F   UNL     1     -10.296  -2.739  -9.081  1.00  0.00    -0.206 F 
ATOM     99  C   UNL     1     -11.700  -0.622 -11.649  1.00  0.00     0.060 A 
BRANCH  99 100
ATOM    100  S   UNL     1     -13.267  -0.348 -12.503  1.00  0.00     0.124 S 
ATOM    101  O   UNL     1     -13.691   0.929 -11.939  1.00  0.00    -0.237 OA
ATOM    102  O   UNL     1     -12.857  -0.318 -13.904  1.00  0.00    -0.237 OA
ATOM    103  O   UNL     1     -14.073  -1.502 -12.117  1.00  0.00    -0.744 OA
ENDBRANCH  99 100
ENDBRANCH  67  92
ENDBRANCH  41  42
ENDBRANCH  34  36
ENDBRANCH  33  34
ENDBRANCH  32  33
ENDBRANCH  31  32
ENDBRANCH  30  31
ENDBRANCH   1  30
TORSDOF 22
