REMARK SMILES O=C(OCCOCCOCCOC(=O)[C@H]1Cc2c([nH]c3ccccc23)[C@H](c2c[nH]c3ccccc23)[NH2+]1)c1ccc(-c2c3nc(c(-c4c(F)cc(S(=O)(=O)[O-])cc4F)c4ccc([nH]4)c(-c4c(F)cc(S(=O)(=O)[O-])cc4F)c4nc(c(-c5c(F)cc(S(=O)(=O)[O-])cc5F)c5ccc2[nH]5)C=C4)C=C3)cc1
REMARK SMILES IDX 7 1 6 2 5 3 4 4 3 5 2 6 1 7 37 8 38 9 102 10 39 11 101 12
REMARK SMILES IDX 40 13 41 14 42 15 95 16 43 17 100 18 94 19 96 20 44 21 99 22
REMARK SMILES IDX 93 23 92 24 45 26 79 27 58 28 78 29 59 30 62 31 77 32 97 33
REMARK SMILES IDX 60 34 61 35 76 37 98 38 63 39 46 40 47 41 56 42 48 43 49 44
REMARK SMILES IDX 55 45 57 46 50 47 51 48 52 49 53 50 54 51 80 52 81 53 90 54
REMARK SMILES IDX 82 55 83 56 89 57 91 58 84 59 85 60 86 61 87 62 88 63 64 64
REMARK SMILES IDX 65 65 74 66 66 67 67 68 73 69 75 70 68 71 69 72 70 73 71 74
REMARK SMILES IDX 72 75 8 76 9 77 10 78 11 79 12 80 13 81 14 82 15 83 16 84
REMARK SMILES IDX 36 85 17 86 26 87 18 90 25 91 19 92 20 93 24 94 21 96 23 97
REMARK SMILES IDX 22 98 27 99 28 100 35 101 29 102 30 103 34 104 31 106 33 107
REMARK SMILES IDX 32 108
REMARK H PARENT 96 25 62 36 36 88 36 89 19 95 29 105
REMARK Flexibility Score: inf
ROOT
ATOM      1  C   UNL     1       2.540  -1.051   1.604  1.00  0.00     0.188 C 
ENDROOT
BRANCH   1   2
ATOM      2  O   UNL     1       3.897  -1.151   1.173  1.00  0.00    -0.376 OA
BRANCH   2   3
ATOM      3  C   UNL     1       4.752  -0.084   1.594  1.00  0.00     0.202 C 
BRANCH   3   4
ATOM      4  C   UNL     1       4.532   1.266   0.894  1.00  0.00     0.261 C 
BRANCH   4   5
ATOM      5  O   UNL     1       3.184   1.459   0.444  1.00  0.00    -0.460 OA
BRANCH   5   6
ATOM      6  C   UNL     1       2.700   1.196  -0.796  1.00  0.00     0.338 C 
ATOM      7  O   UNL     1       1.536   1.500  -1.050  1.00  0.00    -0.246 OA
BRANCH   6   8
ATOM      8  C   UNL     1       3.513   0.551  -1.872  1.00  0.00     0.060 A 
ATOM      9  C   UNL     1       4.539  -0.378  -1.675  1.00  0.00     0.016 A 
ATOM     10  C   UNL     1       3.152   0.841  -3.186  1.00  0.00     0.016 A 
ATOM     11  C   UNL     1       5.234  -0.969  -2.727  1.00  0.00     0.010 A 
ATOM     12  C   UNL     1       3.810   0.208  -4.245  1.00  0.00     0.010 A 
ATOM     13  C   UNL     1       4.855  -0.715  -4.030  1.00  0.00    -0.014 A 
BRANCH  13  14
ATOM     14  C   UNL     1       5.606  -1.287  -5.180  1.00  0.00     0.031 A 
ATOM     15  C   UNL     1       6.176  -0.298  -6.153  1.00  0.00     0.074 A 
ATOM     16  C   UNL     1       5.785  -2.615  -5.368  1.00  0.00     0.049 A 
ATOM     17  N   UNL     1       6.647  -0.485  -7.352  1.00  0.00    -0.248 NA
ATOM     18  C   UNL     1       6.222   1.109  -5.702  1.00  0.00     0.031 C 
ATOM     19  C   UNL     1       5.459  -3.678  -4.419  1.00  0.00     0.029 A 
ATOM     20  N   UNL     1       6.247  -3.314  -6.461  1.00  0.00    -0.354 N 
ATOM     21  C   UNL     1       7.042   0.771  -7.788  1.00  0.00     0.074 A 
ATOM     22  C   UNL     1       6.651   1.730  -6.785  1.00  0.00     0.031 C 
ATOM     23  C   UNL     1       5.598  -4.879  -5.005  1.00  0.00     0.029 A 
ATOM     24  C   UNL     1       6.024  -4.677  -6.374  1.00  0.00     0.049 A 
ATOM     25  H   UNL     1       6.692  -2.887  -7.229  1.00  0.00     0.167 HD
ATOM     26  C   UNL     1       7.740   1.082  -8.901  1.00  0.00     0.037 A 
ATOM     27  C   UNL     1       6.112  -5.641  -7.311  1.00  0.00     0.037 A 
ATOM     28  C   UNL     1       8.160   0.094  -9.851  1.00  0.00     0.049 A 
ATOM     29  C   UNL     1       6.685  -5.247  -8.637  1.00  0.00     0.074 A 
ATOM     30  C   UNL     1       8.914   0.263 -10.994  1.00  0.00     0.029 A 
ATOM     31  N   UNL     1       7.856  -1.259  -9.757  1.00  0.00    -0.354 N 
ATOM     32  N   UNL     1       7.050  -4.057  -9.049  1.00  0.00    -0.248 NA
ATOM     33  C   UNL     1       6.925  -6.328  -9.598  1.00  0.00     0.031 C 
ATOM     34  C   UNL     1       9.015  -0.981 -11.625  1.00  0.00     0.029 A 
ATOM     35  C   UNL     1       8.373  -1.933 -10.845  1.00  0.00     0.049 A 
ATOM     36  H   UNL     1       7.347  -1.674  -9.023  1.00  0.00     0.167 HD
ATOM     37  C   UNL     1       7.637  -4.253 -10.287  1.00  0.00     0.074 A 
ATOM     38  C   UNL     1       7.536  -5.672 -10.574  1.00  0.00     0.031 C 
ATOM     39  C   UNL     1       8.245  -3.349 -11.091  1.00  0.00     0.037 A 
BRANCH  26  40
ATOM     40  C   UNL     1       8.078   2.527  -9.114  1.00  0.00     0.058 A 
ATOM     41  C   UNL     1       8.986   3.207  -8.283  1.00  0.00     0.135 A 
ATOM     42  C   UNL     1       7.455   3.256 -10.137  1.00  0.00     0.135 A 
ATOM     43  F   UNL     1       9.582   2.568  -7.264  1.00  0.00    -0.206 F 
ATOM     44  C   UNL     1       9.236   4.566  -8.438  1.00  0.00     0.059 A 
ATOM     45  C   UNL     1       7.714   4.609 -10.330  1.00  0.00     0.059 A 
ATOM     46  F   UNL     1       6.565   2.659 -10.946  1.00  0.00    -0.206 F 
ATOM     47  C   UNL     1       8.595   5.258  -9.466  1.00  0.00     0.060 A 
BRANCH  47  48
ATOM     48  S   UNL     1       8.935   7.020  -9.654  1.00  0.00     0.124 S 
ATOM     49  O   UNL     1       8.239   7.577  -8.500  1.00  0.00    -0.237 OA
ATOM     50  O   UNL     1      10.390   7.063  -9.600  1.00  0.00    -0.237 OA
ATOM     51  O   UNL     1       8.348   7.340 -10.955  1.00  0.00    -0.744 OA
ENDBRANCH  47  48
ENDBRANCH  26  40
BRANCH  27  52
ATOM     52  C   UNL     1       5.665  -7.041  -7.062  1.00  0.00     0.058 A 
ATOM     53  C   UNL     1       6.543  -8.043  -6.627  1.00  0.00     0.135 A 
ATOM     54  C   UNL     1       4.339  -7.422  -7.313  1.00  0.00     0.135 A 
ATOM     55  F   UNL     1       7.837  -7.755  -6.427  1.00  0.00    -0.206 F 
ATOM     56  C   UNL     1       6.115  -9.358  -6.426  1.00  0.00     0.059 A 
ATOM     57  C   UNL     1       3.881  -8.718  -7.100  1.00  0.00     0.059 A 
ATOM     58  F   UNL     1       3.460  -6.534  -7.791  1.00  0.00    -0.206 F 
ATOM     59  C   UNL     1       4.778  -9.684  -6.658  1.00  0.00     0.060 A 
BRANCH  59  60
ATOM     60  S   UNL     1       4.184 -11.363  -6.344  1.00  0.00     0.124 S 
ATOM     61  O   UNL     1       4.540 -12.037  -7.587  1.00  0.00    -0.237 OA
ATOM     62  O   UNL     1       4.947 -11.752  -5.163  1.00  0.00    -0.237 OA
ATOM     63  O   UNL     1       2.754 -11.162  -6.120  1.00  0.00    -0.744 OA
ENDBRANCH  59  60
ENDBRANCH  27  52
BRANCH  39  64
ATOM     64  C   UNL     1       8.892  -3.881 -12.329  1.00  0.00     0.058 A 
ATOM     65  C   UNL     1       8.135  -4.283 -13.437  1.00  0.00     0.135 A 
ATOM     66  C   UNL     1      10.292  -3.913 -12.426  1.00  0.00     0.135 A 
ATOM     67  F   UNL     1       6.794  -4.286 -13.377  1.00  0.00    -0.206 F 
ATOM     68  C   UNL     1       8.749  -4.707 -14.607  1.00  0.00     0.059 A 
ATOM     69  C   UNL     1      10.926  -4.301 -13.597  1.00  0.00     0.059 A 
ATOM     70  F   UNL     1      11.053  -3.533 -11.387  1.00  0.00    -0.206 F 
ATOM     71  C   UNL     1      10.144  -4.700 -14.680  1.00  0.00     0.060 A 
BRANCH  71  72
ATOM     72  S   UNL     1      10.924  -5.179 -16.232  1.00  0.00     0.124 S 
ATOM     73  O   UNL     1      10.710  -6.622 -16.234  1.00  0.00    -0.237 OA
ATOM     74  O   UNL     1      10.153  -4.421 -17.212  1.00  0.00    -0.237 OA
ATOM     75  O   UNL     1      12.309  -4.749 -16.064  1.00  0.00    -0.744 OA
ENDBRANCH  71  72
ENDBRANCH  39  64
ENDBRANCH  13  14
ENDBRANCH   6   8
ENDBRANCH   5   6
ENDBRANCH   4   5
ENDBRANCH   3   4
ENDBRANCH   2   3
ENDBRANCH   1   2
BRANCH   1  76
ATOM     76  C   UNL     1       1.912  -2.417   1.886  1.00  0.00     0.188 C 
BRANCH  76  77
ATOM     77  O   UNL     1       2.535  -3.230   2.873  1.00  0.00    -0.376 OA
BRANCH  77  78
ATOM     78  C   UNL     1       3.944  -3.408   2.786  1.00  0.00     0.202 C 
BRANCH  78  79
ATOM     79  C   UNL     1       4.554  -4.115   1.556  1.00  0.00     0.261 C 
BRANCH  79  80
ATOM     80  O   UNL     1       3.917  -3.914   0.277  1.00  0.00    -0.459 OA
BRANCH  80  81
ATOM     81  C   UNL     1       2.978  -4.856   0.005  1.00  0.00     0.365 C 
ATOM     82  O   UNL     1       2.627  -5.700   0.833  1.00  0.00    -0.245 OA
BRANCH  81  83
ATOM     83  C   UNL     1       2.453  -4.916  -1.445  1.00  0.00     0.298 C 
ATOM     84  C   UNL     1       2.495  -3.652  -2.349  1.00  0.00     0.115 C 
ATOM     85  N   UNL     1       3.078  -6.143  -2.017  1.00  0.00    -0.323 N 
ATOM     86  C   UNL     1       2.225  -4.043  -3.787  1.00  0.00    -0.006 A 
ATOM     87  C   UNL     1       2.521  -6.568  -3.297  1.00  0.00     0.264 C 
ATOM     88  H   UNL     1       2.957  -6.904  -1.349  1.00  0.00     0.347 HD
ATOM     89  H   UNL     1       4.058  -5.914  -2.190  1.00  0.00     0.347 HD
ATOM     90  C   UNL     1       2.287  -5.374  -4.161  1.00  0.00     0.083 A 
ATOM     91  C   UNL     1       2.018  -3.291  -4.995  1.00  0.00     0.003 A 
ATOM     92  N   UNL     1       2.192  -5.445  -5.522  1.00  0.00    -0.353 N 
ATOM     93  C   UNL     1       2.148  -4.186  -6.060  1.00  0.00     0.046 A 
ATOM     94  C   UNL     1       1.813  -1.940  -5.329  1.00  0.00     0.010 A 
ATOM     95  H   UNL     1       2.160  -6.281  -6.041  1.00  0.00     0.166 HD
ATOM     96  C   UNL     1       2.242  -3.790  -7.402  1.00  0.00     0.026 A 
ATOM     97  C   UNL     1       1.924  -1.519  -6.668  1.00  0.00     0.001 A 
ATOM     98  C   UNL     1       2.179  -2.430  -7.685  1.00  0.00     0.002 A 
BRANCH  87  99
ATOM     99  C   UNL     1       1.289  -7.444  -3.197  1.00  0.00     0.041 A 
ATOM    100  C   UNL     1       0.899  -8.267  -4.247  1.00  0.00     0.093 A 
ATOM    101  C   UNL     1       0.295  -7.649  -2.164  1.00  0.00     0.009 A 
ATOM    102  N   UNL     1      -0.299  -8.843  -3.951  1.00  0.00    -0.361 N 
ATOM    103  C   UNL     1      -0.721  -8.441  -2.710  1.00  0.00     0.046 A 
ATOM    104  C   UNL     1       0.116  -7.251  -0.821  1.00  0.00     0.011 A 
ATOM    105  H   UNL     1      -0.790  -9.458  -4.542  1.00  0.00     0.166 HD
ATOM    106  C   UNL     1      -1.910  -8.744  -2.030  1.00  0.00     0.026 A 
ATOM    107  C   UNL     1      -1.065  -7.526  -0.126  1.00  0.00     0.001 A 
ATOM    108  C   UNL     1      -2.075  -8.250  -0.735  1.00  0.00     0.002 A 
ENDBRANCH  87  99
ENDBRANCH  81  83
ENDBRANCH  80  81
ENDBRANCH  79  80
ENDBRANCH  78  79
ENDBRANCH  77  78
ENDBRANCH  76  77
ENDBRANCH   1  76
TORSDOF 21
