REMARK SMILES C[C@@H](C(=O)OCCOCCOCCOC(=O)c1ccc(-c2c3nc(c(-c4c(F)cc(S(=O)(=O)[O-])cc4F)c4ccc([nH]4)c(-c4c(F)cc(S(=O)(=O)[O-])cc4F)c4nc(c(-c5c(F)cc(S(=O)(=O)[O-])cc5F)c5ccc2[nH]5)C=C4)C=C3)cc1)c1ccc2c3cc(Cl)ccc3n(C(=O)c3ccc(Cl)cc3)c2c1
REMARK SMILES IDX 9 1 8 2 7 3 6 4 5 5 3 6 4 7 2 8 1 9 83 10 84 11 105 12 85 13
REMARK SMILES IDX 104 14 86 15 94 16 87 17 93 18 88 19 92 20 89 21 91 22 90 23
REMARK SMILES IDX 95 24 96 25 97 26 98 27 103 28 99 29 102 30 100 31 101 32
REMARK SMILES IDX 10 33 11 34 12 35 13 36 14 37 15 38 16 39 17 40 18 41 82 42
REMARK SMILES IDX 19 43 81 44 20 45 21 46 22 47 75 48 23 49 80 50 74 51 76 52
REMARK SMILES IDX 24 53 79 54 73 55 72 56 25 58 59 59 38 60 58 61 39 62 42 63
REMARK SMILES IDX 57 64 77 65 40 66 41 67 56 69 78 70 43 71 26 72 27 73 36 74
REMARK SMILES IDX 28 75 29 76 35 77 37 78 30 79 31 80 32 81 33 82 34 83 60 84
REMARK SMILES IDX 61 85 70 86 62 87 63 88 69 89 71 90 64 91 65 92 66 93 67 94
REMARK SMILES IDX 68 95 44 96 45 97 54 98 46 99 47 100 53 101 55 102 48 103
REMARK SMILES IDX 49 104 50 105 51 106 52 107
REMARK H PARENT 76 57 42 68
REMARK Flexibility Score: inf
ROOT
ATOM      1  C   UNL     1       0.760  -1.998  -3.347  1.00  0.00     0.188 C 
ENDROOT
BRANCH   1   2
ATOM      2  O   UNL     1       1.728  -1.992  -4.387  1.00  0.00    -0.376 OA
BRANCH   2   3
ATOM      3  C   UNL     1       2.889  -1.187  -4.210  1.00  0.00     0.202 C 
BRANCH   3   4
ATOM      4  C   UNL     1       2.615   0.272  -3.855  1.00  0.00     0.261 C 
BRANCH   4   5
ATOM      5  O   UNL     1       2.276   0.377  -2.457  1.00  0.00    -0.463 OA
BRANCH   5   6
ATOM      6  C   UNL     1       1.405   1.369  -2.144  1.00  0.00     0.313 C 
ATOM      7  O   UNL     1       1.022   2.209  -2.953  1.00  0.00    -0.252 OA
BRANCH   6   8
ATOM      8  C   UNL     1       0.899   1.312  -0.691  1.00  0.00     0.126 C 
ATOM      9  C   UNL     1       1.841   0.632   0.307  1.00  0.00     0.025 C 
BRANCH   8  10
ATOM     10  C   UNL     1      -0.576   0.909  -0.627  1.00  0.00    -0.032 A 
ATOM     11  C   UNL     1      -1.477   1.791  -1.234  1.00  0.00     0.005 A 
ATOM     12  C   UNL     1      -1.076  -0.258   0.001  1.00  0.00     0.032 A 
ATOM     13  C   UNL     1      -2.837   1.529  -1.265  1.00  0.00     0.011 A 
ATOM     14  C   UNL     1      -2.477  -0.495   0.027  1.00  0.00     0.057 A 
ATOM     15  C   UNL     1      -3.337   0.382  -0.626  1.00  0.00     0.008 A 
ATOM     16  N   UNL     1      -3.255  -1.526   0.632  1.00  0.00    -0.276 N 
ATOM     17  C   UNL     1      -4.660  -0.053  -0.415  1.00  0.00     0.009 A 
ATOM     18  C   UNL     1      -4.617  -1.140   0.476  1.00  0.00     0.057 A 
ATOM     19  C   UNL     1      -5.881   0.525  -0.836  1.00  0.00     0.031 A 
ATOM     20  C   UNL     1      -5.834  -1.526   1.082  1.00  0.00     0.029 A 
ATOM     21  C   UNL     1      -7.073   0.071  -0.301  1.00  0.00     0.041 A 
ATOM     22  C   UNL     1      -7.050  -0.930   0.659  1.00  0.00     0.023 A 
ATOM     23  Cl  UNL     1      -8.546   0.835  -0.760  1.00  0.00    -0.084 Cl
BRANCH  16  24
ATOM     24  C   UNL     1      -2.642  -2.572   1.429  1.00  0.00     0.262 C 
ATOM     25  O   UNL     1      -1.767  -2.166   2.200  1.00  0.00    -0.268 OA
BRANCH  24  26
ATOM     26  C   UNL     1      -2.760  -4.092   1.384  1.00  0.00     0.040 A 
ATOM     27  C   UNL     1      -2.023  -4.895   2.270  1.00  0.00     0.015 A 
ATOM     28  C   UNL     1      -3.443  -4.800   0.416  1.00  0.00     0.015 A 
ATOM     29  C   UNL     1      -2.037  -6.311   2.204  1.00  0.00     0.021 A 
ATOM     30  C   UNL     1      -3.537  -6.209   0.368  1.00  0.00     0.021 A 
ATOM     31  C   UNL     1      -2.816  -6.968   1.262  1.00  0.00     0.041 A 
ATOM     32  Cl  UNL     1      -2.856  -8.683   1.169  1.00  0.00    -0.084 Cl
ENDBRANCH  24  26
ENDBRANCH  16  24
ENDBRANCH   8  10
ENDBRANCH   6   8
ENDBRANCH   5   6
ENDBRANCH   4   5
ENDBRANCH   3   4
ENDBRANCH   2   3
ENDBRANCH   1   2
BRANCH   1  33
ATOM     33  C   UNL     1       1.221  -2.357  -1.921  1.00  0.00     0.188 C 
BRANCH  33  34
ATOM     34  O   UNL     1       2.471  -3.006  -1.747  1.00  0.00    -0.376 OA
BRANCH  34  35
ATOM     35  C   UNL     1       2.629  -4.255  -2.417  1.00  0.00     0.202 C 
BRANCH  35  36
ATOM     36  C   UNL     1       1.548  -5.283  -2.091  1.00  0.00     0.261 C 
BRANCH  36  37
ATOM     37  O   UNL     1       0.291  -4.894  -2.687  1.00  0.00    -0.460 OA
BRANCH  37  38
ATOM     38  C   UNL     1      -0.771  -5.577  -2.222  1.00  0.00     0.338 C 
ATOM     39  O   UNL     1      -0.709  -6.554  -1.471  1.00  0.00    -0.246 OA
BRANCH  38  40
ATOM     40  C   UNL     1      -2.068  -5.005  -2.662  1.00  0.00     0.060 A 
ATOM     41  C   UNL     1      -2.391  -3.660  -2.450  1.00  0.00     0.016 A 
ATOM     42  C   UNL     1      -3.087  -5.896  -3.015  1.00  0.00     0.016 A 
ATOM     43  C   UNL     1      -3.737  -3.252  -2.469  1.00  0.00     0.010 A 
ATOM     44  C   UNL     1      -4.434  -5.489  -3.000  1.00  0.00     0.010 A 
ATOM     45  C   UNL     1      -4.785  -4.184  -2.634  1.00  0.00    -0.014 A 
BRANCH  45  46
ATOM     46  C   UNL     1      -6.207  -3.849  -2.302  1.00  0.00     0.031 A 
ATOM     47  C   UNL     1      -6.980  -4.528  -1.188  1.00  0.00     0.074 A 
ATOM     48  C   UNL     1      -6.833  -2.826  -2.894  1.00  0.00     0.049 A 
ATOM     49  N   UNL     1      -8.159  -5.086  -1.143  1.00  0.00    -0.248 NA
ATOM     50  C   UNL     1      -6.341  -4.537   0.115  1.00  0.00     0.031 C 
ATOM     51  C   UNL     1      -6.244  -1.883  -3.838  1.00  0.00     0.029 A 
ATOM     52  N   UNL     1      -8.139  -2.440  -2.777  1.00  0.00    -0.354 N 
ATOM     53  C   UNL     1      -8.248  -5.692   0.123  1.00  0.00     0.074 A 
ATOM     54  C   UNL     1      -7.037  -5.402   0.832  1.00  0.00     0.031 C 
ATOM     55  C   UNL     1      -7.200  -1.038  -4.248  1.00  0.00     0.029 A 
ATOM     56  C   UNL     1      -8.473  -1.472  -3.683  1.00  0.00     0.049 A 
ATOM     57  H   UNL     1      -8.766  -2.815  -2.117  1.00  0.00     0.167 HD
ATOM     58  C   UNL     1      -9.309  -6.282   0.720  1.00  0.00     0.037 A 
ATOM     59  C   UNL     1      -9.691  -1.072  -4.084  1.00  0.00     0.037 A 
ATOM     60  C   UNL     1     -10.643  -5.992   0.279  1.00  0.00     0.049 A 
ATOM     61  C   UNL     1     -10.895  -1.690  -3.439  1.00  0.00     0.074 A 
ATOM     62  C   UNL     1     -11.848  -6.466   0.755  1.00  0.00     0.029 A 
ATOM     63  N   UNL     1     -10.927  -4.994  -0.643  1.00  0.00    -0.354 N 
ATOM     64  N   UNL     1     -10.955  -2.666  -2.560  1.00  0.00    -0.248 NA
ATOM     65  C   UNL     1     -12.196  -1.152  -3.839  1.00  0.00     0.031 C 
ATOM     66  C   UNL     1     -12.865  -5.719   0.145  1.00  0.00     0.029 A 
ATOM     67  C   UNL     1     -12.285  -4.782  -0.699  1.00  0.00     0.049 A 
ATOM     68  H   UNL     1     -10.257  -4.510  -1.177  1.00  0.00     0.167 HD
ATOM     69  C   UNL     1     -12.307  -2.860  -2.299  1.00  0.00     0.074 A 
ATOM     70  C   UNL     1     -13.021  -1.877  -3.095  1.00  0.00     0.031 C 
ATOM     71  C   UNL     1     -12.919  -3.767  -1.495  1.00  0.00     0.037 A 
BRANCH  58  72
ATOM     72  C   UNL     1      -9.106  -7.240   1.872  1.00  0.00     0.058 A 
ATOM     73  C   UNL     1      -8.778  -6.877   3.188  1.00  0.00     0.135 A 
ATOM     74  C   UNL     1      -9.335  -8.608   1.629  1.00  0.00     0.135 A 
ATOM     75  F   UNL     1      -8.553  -5.591   3.503  1.00  0.00    -0.206 F 
ATOM     76  C   UNL     1      -8.660  -7.830   4.207  1.00  0.00     0.059 A 
ATOM     77  C   UNL     1      -9.256  -9.570   2.633  1.00  0.00     0.059 A 
ATOM     78  F   UNL     1      -9.663  -9.024   0.395  1.00  0.00    -0.206 F 
ATOM     79  C   UNL     1      -8.905  -9.174   3.920  1.00  0.00     0.060 A 
BRANCH  79  80
ATOM     80  S   UNL     1      -8.823 -10.401   5.248  1.00  0.00     0.124 S 
ATOM     81  O   UNL     1      -7.387 -10.653   5.327  1.00  0.00    -0.237 OA
ATOM     82  O   UNL     1      -9.402  -9.686   6.381  1.00  0.00    -0.237 OA
ATOM     83  O   UNL     1      -9.628 -11.506   4.735  1.00  0.00    -0.744 OA
ENDBRANCH  79  80
ENDBRANCH  58  72
BRANCH  59  84
ATOM     84  C   UNL     1      -9.760  -0.098  -5.198  1.00  0.00     0.058 A 
ATOM     85  C   UNL     1     -10.082   1.243  -4.963  1.00  0.00     0.135 A 
ATOM     86  C   UNL     1      -9.316  -0.458  -6.484  1.00  0.00     0.135 A 
ATOM     87  F   UNL     1     -10.517   1.628  -3.755  1.00  0.00    -0.206 F 
ATOM     88  C   UNL     1      -9.921   2.206  -5.953  1.00  0.00     0.059 A 
ATOM     89  C   UNL     1      -9.117   0.492  -7.478  1.00  0.00     0.059 A 
ATOM     90  F   UNL     1      -8.971  -1.729  -6.746  1.00  0.00    -0.206 F 
ATOM     91  C   UNL     1      -9.412   1.824  -7.197  1.00  0.00     0.060 A 
BRANCH  91  92
ATOM     92  S   UNL     1      -9.033   3.108  -8.409  1.00  0.00     0.124 S 
ATOM     93  O   UNL     1     -10.362   3.448  -8.902  1.00  0.00    -0.237 OA
ATOM     94  O   UNL     1      -8.377   4.121  -7.587  1.00  0.00    -0.237 OA
ATOM     95  O   UNL     1      -8.160   2.425  -9.358  1.00  0.00    -0.744 OA
ENDBRANCH  91  92
ENDBRANCH  59  84
BRANCH  71  96
ATOM     96  C   UNL     1     -14.410  -3.704  -1.433  1.00  0.00     0.058 A 
ATOM     97  C   UNL     1     -15.190  -4.258  -2.457  1.00  0.00     0.135 A 
ATOM     98  C   UNL     1     -15.056  -3.130  -0.329  1.00  0.00     0.135 A 
ATOM     99  F   UNL     1     -14.603  -4.821  -3.524  1.00  0.00    -0.206 F 
ATOM    100  C   UNL     1     -16.574  -4.211  -2.406  1.00  0.00     0.059 A 
ATOM    101  C   UNL     1     -16.442  -3.089  -0.249  1.00  0.00     0.059 A 
ATOM    102  F   UNL     1     -14.341  -2.610   0.681  1.00  0.00    -0.206 F 
ATOM    103  C   UNL     1     -17.190  -3.617  -1.302  1.00  0.00     0.060 A 
BRANCH 103 104
ATOM    104  S   UNL     1     -18.991  -3.554  -1.257  1.00  0.00     0.124 S 
ATOM    105  O   UNL     1     -19.267  -2.482  -2.208  1.00  0.00    -0.237 OA
ATOM    106  O   UNL     1     -19.362  -4.898  -1.690  1.00  0.00    -0.237 OA
ATOM    107  O   UNL     1     -19.284  -3.248   0.139  1.00  0.00    -0.744 OA
ENDBRANCH 103 104
ENDBRANCH  71  96
ENDBRANCH  45  46
ENDBRANCH  38  40
ENDBRANCH  37  38
ENDBRANCH  36  37
ENDBRANCH  35  36
ENDBRANCH  34  35
ENDBRANCH  33  34
ENDBRANCH   1  33
TORSDOF 23
