REMARK SMILES COC(=O)c1ccc([C@H]2CC(=O)Nc3c(C(=O)OCCOCCOCCOC(=O)c4ccc(-c5c6nc(c(-c7c(F)cc(S(=O)(=O)[O-])cc7F)c7ccc([nH]7)c(-c7c(F)cc(S(=O)(=O)[O-])cc7F)c7nc(c(-c8c(F)cc(S(=O)(=O)[O-])cc8F)c8ccc5[nH]8)C=C7)C=C6)cc4)cn(-c4ccccc4)c32)cc1
REMARK SMILES IDX 22 1 21 2 20 3 19 4 18 5 16 6 17 7 15 8 9 9 10 10 104 11
REMARK SMILES IDX 11 12 14 13 97 14 12 15 13 16 96 17 8 19 5 20 6 21 106 22
REMARK SMILES IDX 7 23 105 24 3 25 4 26 2 27 1 28 98 29 99 30 103 31 100 32
REMARK SMILES IDX 102 33 101 34 23 35 24 36 25 37 26 38 27 39 28 40 29 41
REMARK SMILES IDX 30 42 31 43 95 44 32 45 94 46 33 47 34 48 35 49 88 50 36 51
REMARK SMILES IDX 93 52 87 53 89 54 37 55 92 56 86 57 85 58 38 60 72 61 51 62
REMARK SMILES IDX 71 63 52 64 55 65 70 66 90 67 53 68 54 69 69 71 91 72 56 73
REMARK SMILES IDX 39 74 40 75 49 76 41 77 42 78 48 79 50 80 43 81 44 82 45 83
REMARK SMILES IDX 46 84 47 85 73 86 74 87 83 88 75 89 76 90 82 91 84 92 77 93
REMARK SMILES IDX 78 94 79 95 80 96 81 97 57 98 58 99 67 100 59 101 60 102
REMARK SMILES IDX 66 103 68 104 61 105 62 106 63 107 64 108 65 109
REMARK H PARENT 13 18 89 59 55 70
REMARK Flexibility Score: inf
ROOT
ATOM      1  C   UNL     1      -4.139  -6.451   8.367  1.00  0.00     0.188 C 
ENDROOT
BRANCH   1   2
ATOM      2  O   UNL     1      -5.101  -5.577   8.943  1.00  0.00    -0.376 OA
BRANCH   2   3
ATOM      3  C   UNL     1      -6.268  -5.215   8.226  1.00  0.00     0.202 C 
BRANCH   3   4
ATOM      4  C   UNL     1      -6.101  -4.406   6.929  1.00  0.00     0.261 C 
BRANCH   4   5
ATOM      5  O   UNL     1      -5.155  -4.939   5.984  1.00  0.00    -0.460 OA
BRANCH   5   6
ATOM      6  C   UNL     1      -3.922  -4.350   5.982  1.00  0.00     0.341 C 
ATOM      7  O   UNL     1      -3.636  -3.336   6.603  1.00  0.00    -0.246 OA
BRANCH   6   8
ATOM      8  C   UNL     1      -2.926  -5.124   5.243  1.00  0.00     0.102 A 
ATOM      9  C   UNL     1      -1.550  -7.324   2.562  1.00  0.00     0.078 C 
ATOM     10  C   UNL     1      -2.865  -8.022   2.164  1.00  0.00     0.115 C 
ATOM     11  C   UNL     1      -1.791  -6.459   3.775  1.00  0.00     0.055 A 
ATOM     12  C   UNL     1      -4.116  -7.178   2.331  1.00  0.00     0.225 C 
ATOM     13  C   UNL     1      -3.042  -5.981   4.122  1.00  0.00     0.078 A 
ATOM     14  N   UNL     1      -0.884  -5.917   4.667  1.00  0.00    -0.317 N 
ATOM     15  O   UNL     1      -5.101  -7.338   1.610  1.00  0.00    -0.275 OA
ATOM     16  N   UNL     1      -4.154  -6.304   3.384  1.00  0.00    -0.324 N 
ATOM     17  C   UNL     1      -1.587  -5.179   5.597  1.00  0.00     0.109 A 
ATOM     18  H   UNL     1      -5.015  -5.889   3.622  1.00  0.00     0.170 HD
BRANCH   9  19
ATOM     19  C   UNL     1      -0.455  -8.392   2.581  1.00  0.00    -0.038 A 
ATOM     20  C   UNL     1       1.501 -10.444   2.416  1.00  0.00     0.060 A 
ATOM     21  C   UNL     1       1.058  -9.793   1.262  1.00  0.00     0.016 A 
ATOM     22  C   UNL     1       0.951 -10.081   3.652  1.00  0.00     0.016 A 
ATOM     23  C   UNL     1       0.100  -8.780   1.345  1.00  0.00     0.005 A 
ATOM     24  C   UNL     1      -0.036  -9.082   3.728  1.00  0.00     0.005 A 
BRANCH  20  25
ATOM     25  C   UNL     1       2.537 -11.504   2.259  1.00  0.00     0.337 C 
ATOM     26  O   UNL     1       3.100 -11.733   1.198  1.00  0.00    -0.246 OA
BRANCH  25  27
ATOM     27  O   UNL     1       2.742 -12.165   3.423  1.00  0.00    -0.465 OA
ATOM     28  C   UNL     1       3.699 -13.224   3.333  1.00  0.00     0.282 C 
ENDBRANCH  25  27
ENDBRANCH  20  25
ENDBRANCH   9  19
BRANCH  14  29
ATOM     29  C   UNL     1       0.524  -5.995   4.656  1.00  0.00     0.045 A 
ATOM     30  C   UNL     1       1.228  -5.655   3.499  1.00  0.00     0.026 A 
ATOM     31  C   UNL     1       1.198  -6.389   5.819  1.00  0.00     0.026 A 
ATOM     32  C   UNL     1       2.620  -5.721   3.505  1.00  0.00     0.002 A 
ATOM     33  C   UNL     1       2.588  -6.493   5.800  1.00  0.00     0.002 A 
ATOM     34  C   UNL     1       3.297  -6.154   4.647  1.00  0.00     0.000 A 
ENDBRANCH  14  29
ENDBRANCH   6   8
ENDBRANCH   5   6
ENDBRANCH   4   5
ENDBRANCH   3   4
ENDBRANCH   2   3
ENDBRANCH   1   2
BRANCH   1  35
ATOM     35  C   UNL     1      -4.503  -7.498   7.286  1.00  0.00     0.188 C 
BRANCH  35  36
ATOM     36  O   UNL     1      -5.882  -7.612   6.964  1.00  0.00    -0.376 OA
BRANCH  36  37
ATOM     37  C   UNL     1      -6.469  -8.891   7.184  1.00  0.00     0.202 C 
BRANCH  37  38
ATOM     38  C   UNL     1      -6.800  -9.169   8.649  1.00  0.00     0.261 C 
BRANCH  38  39
ATOM     39  O   UNL     1      -5.707  -8.940   9.528  1.00  0.00    -0.460 OA
BRANCH  39  40
ATOM     40  C   UNL     1      -4.659  -9.777   9.393  1.00  0.00     0.338 C 
ATOM     41  O   UNL     1      -4.499 -10.622   8.533  1.00  0.00    -0.246 OA
BRANCH  40  42
ATOM     42  C   UNL     1      -3.727  -9.527  10.499  1.00  0.00     0.060 A 
ATOM     43  C   UNL     1      -2.511 -10.213  10.468  1.00  0.00     0.016 A 
ATOM     44  C   UNL     1      -4.196  -8.880  11.652  1.00  0.00     0.016 A 
ATOM     45  C   UNL     1      -1.900 -10.495  11.668  1.00  0.00     0.010 A 
ATOM     46  C   UNL     1      -3.602  -9.182  12.850  1.00  0.00     0.010 A 
ATOM     47  C   UNL     1      -2.537 -10.081  12.840  1.00  0.00    -0.014 A 
BRANCH  47  48
ATOM     48  C   UNL     1      -2.197 -10.775  14.062  1.00  0.00     0.031 A 
ATOM     49  C   UNL     1      -1.082 -10.204  14.836  1.00  0.00     0.074 A 
ATOM     50  C   UNL     1      -2.973 -11.793  14.484  1.00  0.00     0.049 A 
ATOM     51  N   UNL     1       0.042 -10.755  15.150  1.00  0.00    -0.248 NA
ATOM     52  C   UNL     1      -1.196  -8.789  15.220  1.00  0.00     0.031 C 
ATOM     53  C   UNL     1      -4.278 -12.207  13.948  1.00  0.00     0.029 A 
ATOM     54  N   UNL     1      -2.816 -12.598  15.566  1.00  0.00    -0.354 N 
ATOM     55  C   UNL     1       0.691  -9.825  15.954  1.00  0.00     0.074 A 
ATOM     56  C   UNL     1      -0.023  -8.583  15.812  1.00  0.00     0.031 C 
ATOM     57  C   UNL     1      -4.879 -13.028  14.835  1.00  0.00     0.029 A 
ATOM     58  C   UNL     1      -3.964 -13.282  15.934  1.00  0.00     0.049 A 
ATOM     59  H   UNL     1      -1.961 -12.688  16.047  1.00  0.00     0.167 HD
ATOM     60  C   UNL     1       1.618 -10.194  16.875  1.00  0.00     0.037 A 
ATOM     61  C   UNL     1      -4.173 -13.917  17.112  1.00  0.00     0.037 A 
ATOM     62  C   UNL     1       2.143 -11.508  16.620  1.00  0.00     0.049 A 
ATOM     63  C   UNL     1      -2.842 -14.162  17.727  1.00  0.00     0.074 A 
ATOM     64  C   UNL     1       2.831 -12.087  15.572  1.00  0.00     0.029 A 
ATOM     65  N   UNL     1       1.682 -12.548  17.390  1.00  0.00    -0.354 N 
ATOM     66  N   UNL     1      -1.939 -14.969  17.238  1.00  0.00    -0.248 NA
ATOM     67  C   UNL     1      -2.340 -13.186  18.685  1.00  0.00     0.031 C 
ATOM     68  C   UNL     1       2.382 -13.439  15.525  1.00  0.00     0.029 A 
ATOM     69  C   UNL     1       1.457 -13.615  16.556  1.00  0.00     0.049 A 
ATOM     70  H   UNL     1       1.539 -12.531  18.364  1.00  0.00     0.167 HD
ATOM     71  C   UNL     1      -0.720 -14.362  17.512  1.00  0.00     0.074 A 
ATOM     72  C   UNL     1      -1.025 -13.334  18.500  1.00  0.00     0.031 C 
ATOM     73  C   UNL     1       0.369 -14.561  16.711  1.00  0.00     0.037 A 
BRANCH  60  74
ATOM     74  C   UNL     1       1.787  -9.480  18.190  1.00  0.00     0.058 A 
ATOM     75  C   UNL     1       2.935  -9.709  18.970  1.00  0.00     0.135 A 
ATOM     76  C   UNL     1       0.741  -8.772  18.829  1.00  0.00     0.135 A 
ATOM     77  F   UNL     1       3.974 -10.395  18.468  1.00  0.00    -0.206 F 
ATOM     78  C   UNL     1       3.017  -9.308  20.303  1.00  0.00     0.059 A 
ATOM     79  C   UNL     1       0.828  -8.307  20.133  1.00  0.00     0.059 A 
ATOM     80  F   UNL     1      -0.454  -8.590  18.251  1.00  0.00    -0.206 F 
ATOM     81  C   UNL     1       1.950  -8.621  20.878  1.00  0.00     0.060 A 
BRANCH  81  82
ATOM     82  S   UNL     1       1.990  -8.217  22.632  1.00  0.00     0.124 S 
ATOM     83  O   UNL     1       1.753  -9.526  23.231  1.00  0.00    -0.237 OA
ATOM     84  O   UNL     1       3.334  -7.673  22.792  1.00  0.00    -0.237 OA
ATOM     85  O   UNL     1       0.907  -7.249  22.776  1.00  0.00    -0.744 OA
ENDBRANCH  81  82
ENDBRANCH  60  74
BRANCH  61  86
ATOM     86  C   UNL     1      -5.452 -13.995  17.865  1.00  0.00     0.058 A 
ATOM     87  C   UNL     1      -5.629 -14.909  18.917  1.00  0.00     0.135 A 
ATOM     88  C   UNL     1      -6.452 -13.007  17.728  1.00  0.00     0.135 A 
ATOM     89  F   UNL     1      -4.709 -15.858  19.146  1.00  0.00    -0.206 F 
ATOM     90  C   UNL     1      -6.719 -14.834  19.792  1.00  0.00     0.059 A 
ATOM     91  C   UNL     1      -7.555 -12.926  18.573  1.00  0.00     0.059 A 
ATOM     92  F   UNL     1      -6.343 -12.028  16.817  1.00  0.00    -0.206 F 
ATOM     93  C   UNL     1      -7.672 -13.831  19.618  1.00  0.00     0.060 A 
BRANCH  93  94
ATOM     94  S   UNL     1      -9.003 -13.642  20.826  1.00  0.00     0.124 S 
ATOM     95  O   UNL     1      -9.799 -14.841  20.587  1.00  0.00    -0.237 OA
ATOM     96  O   UNL     1      -8.270 -13.601  22.086  1.00  0.00    -0.237 OA
ATOM     97  O   UNL     1      -9.638 -12.384  20.437  1.00  0.00    -0.744 OA
ENDBRANCH  93  94
ENDBRANCH  61  86
BRANCH  73  98
ATOM     98  C   UNL     1       0.312 -15.689  15.711  1.00  0.00     0.058 A 
ATOM     99  C   UNL     1      -0.549 -15.697  14.600  1.00  0.00     0.135 A 
ATOM    100  C   UNL     1       1.275 -16.707  15.780  1.00  0.00     0.135 A 
ATOM    101  F   UNL     1      -1.424 -14.701  14.403  1.00  0.00    -0.206 F 
ATOM    102  C   UNL     1      -0.481 -16.687  13.620  1.00  0.00     0.059 A 
ATOM    103  C   UNL     1       1.383 -17.689  14.797  1.00  0.00     0.059 A 
ATOM    104  F   UNL     1       2.171 -16.718  16.781  1.00  0.00    -0.206 F 
ATOM    105  C   UNL     1       0.495 -17.677  13.722  1.00  0.00     0.060 A 
BRANCH 105 106
ATOM    106  S   UNL     1       0.660 -18.883  12.387  1.00  0.00     0.124 S 
ATOM    107  O   UNL     1      -0.477 -19.765  12.626  1.00  0.00    -0.237 OA
ATOM    108  O   UNL     1       0.575 -18.049  11.191  1.00  0.00    -0.237 OA
ATOM    109  O   UNL     1       1.973 -19.477  12.625  1.00  0.00    -0.744 OA
ENDBRANCH 105 106
ENDBRANCH  73  98
ENDBRANCH  47  48
ENDBRANCH  40  42
ENDBRANCH  39  40
ENDBRANCH  38  39
ENDBRANCH  37  38
ENDBRANCH  36  37
ENDBRANCH  35  36
ENDBRANCH   1  35
TORSDOF 24
