REMARK SMILES CC(C)C[C@H](NC(=O)[C@H](Cc1ccccc1)NC(=O)CNC(=O)C[NH3+])C(=O)OCCOCCOCCOC(=O)c1ccc(-c2c3nc(c(-c4c(F)cc(S(=O)(=O)[O-])cc4F)c4ccc([nH]4)c(-c4c(F)cc(S(=O)(=O)[O-])cc4F)c4nc(c(-c5c(F)cc(S(=O)(=O)[O-])cc5F)c5ccc2[nH]5)C=C4)C=C3)cc1
REMARK SMILES IDX 30 1 29 2 28 3 26 4 27 5 5 6 4 7 2 8 1 9 3 10 6 11 7 12 8 14
REMARK SMILES IDX 9 15 17 16 18 17 19 19 20 20 21 21 22 22 23 24 24 25 25 26
REMARK SMILES IDX 10 30 11 31 12 32 16 33 13 34 15 35 14 36 31 37 32 38 33 39
REMARK SMILES IDX 34 40 35 41 36 42 37 43 38 44 39 45 40 46 41 47 105 48 42 49
REMARK SMILES IDX 104 50 43 51 44 52 45 53 98 54 46 55 103 56 97 57 99 58
REMARK SMILES IDX 47 59 102 60 96 61 95 62 48 64 82 65 61 66 81 67 62 68 65 69
REMARK SMILES IDX 80 70 100 71 63 72 64 73 79 75 101 76 66 77 49 78 50 79
REMARK SMILES IDX 59 80 51 81 52 82 58 83 60 84 53 85 54 86 55 87 56 88 57 89
REMARK SMILES IDX 83 90 84 91 93 92 85 93 86 94 92 95 94 96 87 97 88 98 89 99
REMARK SMILES IDX 90 100 91 101 67 102 68 103 77 104 69 105 70 106 76 107
REMARK SMILES IDX 78 108 71 109 72 110 73 111 74 112 75 113
REMARK H PARENT 6 13 17 18 21 23 25 27 25 28 25 29 99 63 65 74
REMARK Flexibility Score: inf
ROOT
ATOM      1  C   UNL     1      -0.864   5.219   4.886  1.00  0.00     0.202 C 
ENDROOT
BRANCH   1   2
ATOM      2  C   UNL     1      -1.777   3.970   4.865  1.00  0.00     0.261 C 
BRANCH   2   3
ATOM      3  O   UNL     1      -1.410   2.856   4.032  1.00  0.00    -0.462 OA
BRANCH   3   4
ATOM      4  C   UNL     1      -1.643   3.021   2.709  1.00  0.00     0.328 C 
ATOM      5  O   UNL     1      -2.106   4.056   2.239  1.00  0.00    -0.250 OA
BRANCH   4   6
ATOM      6  C   UNL     1      -1.351   1.755   1.858  1.00  0.00     0.192 C 
BRANCH   6   7
ATOM      7  C   UNL     1      -2.745   1.194   1.546  1.00  0.00     0.040 C 
BRANCH   7   8
ATOM      8  C   UNL     1      -3.631   2.064   0.630  1.00  0.00    -0.015 C 
ATOM      9  C   UNL     1      -2.900   2.644  -0.582  1.00  0.00     0.007 C 
ATOM     10  C   UNL     1      -4.841   1.252   0.173  1.00  0.00     0.007 C 
ENDBRANCH   7   8
ENDBRANCH   6   7
BRANCH   6  11
ATOM     11  N   UNL     1      -0.505   0.685   2.441  1.00  0.00    -0.341 N 
ATOM     12  C   UNL     1       0.397  -0.215   1.938  1.00  0.00     0.243 C 
ATOM     13  H   UNL     1      -0.618   0.602   3.416  1.00  0.00     0.164 HD
ATOM     14  O   UNL     1       0.941  -0.924   2.800  1.00  0.00    -0.273 OA
BRANCH  12  15
ATOM     15  C   UNL     1       0.839  -0.399   0.427  1.00  0.00     0.175 C 
BRANCH  15  16
ATOM     16  N   UNL     1       1.310  -1.805   0.265  1.00  0.00    -0.342 N 
ATOM     17  C   UNL     1       1.812  -2.496  -0.793  1.00  0.00     0.240 C 
ATOM     18  H   UNL     1       1.245  -2.340   1.089  1.00  0.00     0.164 HD
ATOM     19  O   UNL     1       1.556  -3.708  -0.833  1.00  0.00    -0.273 OA
BRANCH  17  20
ATOM     20  C   UNL     1       2.853  -1.932  -1.770  1.00  0.00     0.216 C 
BRANCH  20  21
ATOM     21  N   UNL     1       2.828  -0.529  -2.109  1.00  0.00    -0.342 N 
ATOM     22  C   UNL     1       3.667   0.449  -1.669  1.00  0.00     0.275 C 
ATOM     23  H   UNL     1       2.121  -0.246  -2.732  1.00  0.00     0.164 HD
ATOM     24  O   UNL     1       3.383   1.618  -1.927  1.00  0.00    -0.268 OA
BRANCH  22  25
ATOM     25  C   UNL     1       4.886   0.080  -0.820  1.00  0.00     0.360 C 
BRANCH  25  26
ATOM     26  N   UNL     1       4.458  -0.240   0.548  1.00  0.00    -0.350 N 
ATOM     27  H   UNL     1       3.996   0.571   0.958  1.00  0.00     0.344 HD
ATOM     28  H   UNL     1       5.273  -0.487   1.110  1.00  0.00     0.344 HD
ATOM     29  H   UNL     1       3.809  -1.027   0.526  1.00  0.00     0.344 HD
ENDBRANCH  25  26
ENDBRANCH  22  25
ENDBRANCH  20  21
ENDBRANCH  17  20
ENDBRANCH  15  16
BRANCH  15  30
ATOM     30  C   UNL     1      -0.221  -0.114  -0.638  1.00  0.00     0.070 C 
BRANCH  30  31
ATOM     31  C   UNL     1      -1.400  -1.060  -0.742  1.00  0.00    -0.045 A 
ATOM     32  C   UNL     1      -1.768  -1.970   0.263  1.00  0.00     0.004 A 
ATOM     33  C   UNL     1      -2.196  -0.990  -1.894  1.00  0.00     0.004 A 
ATOM     34  C   UNL     1      -2.888  -2.785   0.123  1.00  0.00     0.000 A 
ATOM     35  C   UNL     1      -3.316  -1.808  -2.036  1.00  0.00     0.000 A 
ATOM     36  C   UNL     1      -3.661  -2.706  -1.028  1.00  0.00     0.000 A 
ENDBRANCH  30  31
ENDBRANCH  15  30
ENDBRANCH  12  15
ENDBRANCH   6  11
ENDBRANCH   4   6
ENDBRANCH   3   4
ENDBRANCH   2   3
ENDBRANCH   1   2
BRANCH   1  37
ATOM     37  O   UNL     1       0.540   5.119   4.712  1.00  0.00    -0.376 OA
BRANCH  37  38
ATOM     38  C   UNL     1       1.006   4.399   3.589  1.00  0.00     0.188 C 
BRANCH  38  39
ATOM     39  C   UNL     1       1.423   2.965   3.954  1.00  0.00     0.188 C 
BRANCH  39  40
ATOM     40  O   UNL     1       1.148   2.473   5.252  1.00  0.00    -0.376 OA
BRANCH  40  41
ATOM     41  C   UNL     1       1.637   3.216   6.363  1.00  0.00     0.202 C 
BRANCH  41  42
ATOM     42  C   UNL     1       2.983   3.989   6.342  1.00  0.00     0.261 C 
BRANCH  42  43
ATOM     43  O   UNL     1       3.482   4.462   5.079  1.00  0.00    -0.460 OA
BRANCH  43  44
ATOM     44  C   UNL     1       4.486   3.737   4.515  1.00  0.00     0.338 C 
ATOM     45  O   UNL     1       5.033   2.760   4.984  1.00  0.00    -0.246 OA
BRANCH  44  46
ATOM     46  C   UNL     1       4.662   4.174   3.106  1.00  0.00     0.060 A 
ATOM     47  C   UNL     1       4.279   3.300   2.076  1.00  0.00     0.016 A 
ATOM     48  C   UNL     1       5.202   5.419   2.794  1.00  0.00     0.016 A 
ATOM     49  C   UNL     1       4.422   3.672   0.740  1.00  0.00     0.010 A 
ATOM     50  C   UNL     1       5.392   5.769   1.449  1.00  0.00     0.010 A 
ATOM     51  C   UNL     1       5.020   4.891   0.414  1.00  0.00    -0.014 A 
BRANCH  51  52
ATOM     52  C   UNL     1       5.396   5.180  -0.995  1.00  0.00     0.031 A 
ATOM     53  C   UNL     1       6.825   4.965  -1.417  1.00  0.00     0.074 A 
ATOM     54  C   UNL     1       4.491   5.621  -1.889  1.00  0.00     0.049 A 
ATOM     55  N   UNL     1       7.413   5.267  -2.545  1.00  0.00    -0.248 NA
ATOM     56  C   UNL     1       7.711   4.325  -0.430  1.00  0.00     0.031 C 
ATOM     57  C   UNL     1       3.064   5.802  -1.630  1.00  0.00     0.029 A 
ATOM     58  N   UNL     1       4.648   6.019  -3.195  1.00  0.00    -0.354 N 
ATOM     59  C   UNL     1       8.739   4.878  -2.397  1.00  0.00     0.074 A 
ATOM     60  C   UNL     1       8.874   4.327  -1.067  1.00  0.00     0.031 C 
ATOM     61  C   UNL     1       2.481   6.304  -2.733  1.00  0.00     0.029 A 
ATOM     62  C   UNL     1       3.498   6.519  -3.761  1.00  0.00     0.049 A 
ATOM     63  H   UNL     1       5.502   5.952  -3.680  1.00  0.00     0.167 HD
ATOM     64  C   UNL     1       9.752   4.976  -3.291  1.00  0.00     0.037 A 
ATOM     65  C   UNL     1       3.299   7.117  -4.954  1.00  0.00     0.037 A 
ATOM     66  C   UNL     1       9.610   5.516  -4.618  1.00  0.00     0.049 A 
ATOM     67  C   UNL     1       4.463   7.286  -5.901  1.00  0.00     0.074 A 
ATOM     68  C   UNL     1      10.575   5.633  -5.604  1.00  0.00     0.029 A 
ATOM     69  N   UNL     1       8.438   6.037  -5.144  1.00  0.00    -0.354 N 
ATOM     70  N   UNL     1       5.710   6.902  -5.757  1.00  0.00    -0.248 NA
ATOM     71  C   UNL     1       4.194   7.975  -7.173  1.00  0.00     0.031 C 
ATOM     72  C   UNL     1      10.002   6.280  -6.703  1.00  0.00     0.029 A 
ATOM     73  C   UNL     1       8.664   6.509  -6.427  1.00  0.00     0.049 A 
ATOM     74  H   UNL     1       7.573   6.068  -4.675  1.00  0.00     0.167 HD
ATOM     75  C   UNL     1       6.363   7.277  -6.928  1.00  0.00     0.074 A 
ATOM     76  C   UNL     1       5.372   7.902  -7.777  1.00  0.00     0.031 C 
ATOM     77  C   UNL     1       7.667   7.121  -7.269  1.00  0.00     0.037 A 
BRANCH  64  78
ATOM     78  C   UNL     1      11.119   4.520  -2.862  1.00  0.00     0.058 A 
ATOM     79  C   UNL     1      11.438   3.161  -2.717  1.00  0.00     0.135 A 
ATOM     80  C   UNL     1      12.147   5.458  -2.668  1.00  0.00     0.135 A 
ATOM     81  F   UNL     1      10.489   2.223  -2.868  1.00  0.00    -0.206 F 
ATOM     82  C   UNL     1      12.726   2.748  -2.391  1.00  0.00     0.059 A 
ATOM     83  C   UNL     1      13.448   5.067  -2.368  1.00  0.00     0.059 A 
ATOM     84  F   UNL     1      11.894   6.771  -2.788  1.00  0.00    -0.206 F 
ATOM     85  C   UNL     1      13.726   3.709  -2.227  1.00  0.00     0.060 A 
BRANCH  85  86
ATOM     86  S   UNL     1      15.401   3.152  -1.847  1.00  0.00     0.124 S 
ATOM     87  O   UNL     1      15.245   2.672  -0.477  1.00  0.00    -0.237 OA
ATOM     88  O   UNL     1      15.622   2.123  -2.858  1.00  0.00    -0.237 OA
ATOM     89  O   UNL     1      16.206   4.361  -1.999  1.00  0.00    -0.744 OA
ENDBRANCH  85  86
ENDBRANCH  64  78
BRANCH  65  90
ATOM     90  C   UNL     1       1.955   7.650  -5.315  1.00  0.00     0.058 A 
ATOM     91  C   UNL     1       1.218   7.111  -6.380  1.00  0.00     0.135 A 
ATOM     92  C   UNL     1       1.400   8.742  -4.628  1.00  0.00     0.135 A 
ATOM     93  F   UNL     1       1.710   6.078  -7.081  1.00  0.00    -0.206 F 
ATOM     94  C   UNL     1      -0.005   7.650  -6.769  1.00  0.00     0.059 A 
ATOM     95  C   UNL     1       0.164   9.278  -4.977  1.00  0.00     0.059 A 
ATOM     96  F   UNL     1       2.058   9.296  -3.598  1.00  0.00    -0.206 F 
ATOM     97  C   UNL     1      -0.524   8.735  -6.061  1.00  0.00     0.060 A 
BRANCH  97  98
ATOM     98  S   UNL     1      -2.122   9.412  -6.560  1.00  0.00     0.124 S 
ATOM     99  O   UNL     1      -1.779  10.088  -7.806  1.00  0.00    -0.237 OA
ATOM    100  O   UNL     1      -2.937   8.209  -6.690  1.00  0.00    -0.237 OA
ATOM    101  O   UNL     1      -2.479  10.285  -5.446  1.00  0.00    -0.744 OA
ENDBRANCH  97  98
ENDBRANCH  65  90
BRANCH  77 102
ATOM    102  C   UNL     1       8.097   7.598  -8.632  1.00  0.00     0.058 A 
ATOM    103  C   UNL     1       8.191   8.964  -8.943  1.00  0.00     0.135 A 
ATOM    104  C   UNL     1       8.473   6.676  -9.623  1.00  0.00     0.135 A 
ATOM    105  F   UNL     1       7.840   9.889  -8.035  1.00  0.00    -0.206 F 
ATOM    106  C   UNL     1       8.616   9.398 -10.195  1.00  0.00     0.059 A 
ATOM    107  C   UNL     1       8.932   7.088 -10.871  1.00  0.00     0.059 A 
ATOM    108  F   UNL     1       8.415   5.357  -9.377  1.00  0.00    -0.206 F 
ATOM    109  C   UNL     1       8.988   8.452 -11.152  1.00  0.00     0.060 A 
BRANCH 109 110
ATOM    110  S   UNL     1       9.568   9.030 -12.761  1.00  0.00     0.124 S 
ATOM    111  O   UNL     1       8.330   9.509 -13.366  1.00  0.00    -0.237 OA
ATOM    112  O   UNL     1      10.534  10.061 -12.392  1.00  0.00    -0.237 OA
ATOM    113  O   UNL     1      10.140   7.832 -13.368  1.00  0.00    -0.744 OA
ENDBRANCH 109 110
ENDBRANCH  77 102
ENDBRANCH  51  52
ENDBRANCH  44  46
ENDBRANCH  43  44
ENDBRANCH  42  43
ENDBRANCH  41  42
ENDBRANCH  40  41
ENDBRANCH  39  40
ENDBRANCH  38  39
ENDBRANCH  37  38
ENDBRANCH   1  37
TORSDOF 31
