REMARK SMILES Cc1cc(F)ccc1CCNC(=O)NC[C@@](C)(O)C(=O)OCCOCCOCCOC(=O)c1ccc(-c2c3nc(c(-c4c(F)cc(S(=O)(=O)[O-])cc4F)c4ccc([nH]4)c(-c4c(F)cc(S(=O)(=O)[O-])cc4F)c4nc(c(-c5c(F)cc(S(=O)(=O)[O-])cc5F)c5ccc2[nH]5)C=C4)C=C3)cc1
REMARK SMILES IDX 25 1 24 2 23 3 22 4 21 5 19 6 20 7 16 8 17 9 15 10 14 11
REMARK SMILES IDX 11 12 12 13 13 15 10 17 9 18 8 19 1 20 2 21 3 22 4 23 7 24
REMARK SMILES IDX 5 25 6 26 18 27 26 29 27 30 28 31 29 32 30 33 31 34 32 35
REMARK SMILES IDX 33 36 34 37 98 38 35 39 97 40 36 41 37 42 38 43 91 44 39 45
REMARK SMILES IDX 96 46 90 47 92 48 40 49 95 50 89 51 88 52 41 54 75 55 54 56
REMARK SMILES IDX 74 57 55 58 58 59 73 60 93 61 56 62 57 63 72 65 94 66 59 67
REMARK SMILES IDX 42 68 43 69 52 70 44 71 45 72 51 73 53 74 46 75 47 76 48 77
REMARK SMILES IDX 49 78 50 79 76 80 77 81 86 82 78 83 79 84 85 85 87 86 80 87
REMARK SMILES IDX 81 88 82 89 83 90 84 91 60 92 61 93 70 94 62 95 63 96 69 97
REMARK SMILES IDX 71 98 64 99 65 100 66 101 67 102 68 103
REMARK H PARENT 11 14 14 16 18 28 92 53 58 64
REMARK Flexibility Score: inf
ROOT
ATOM      1  C   UNL     1       4.116  -2.518   4.531  1.00  0.00     0.188 C 
ENDROOT
BRANCH   1   2
ATOM      2  O   UNL     1       4.119  -3.002   5.872  1.00  0.00    -0.376 OA
BRANCH   2   3
ATOM      3  C   UNL     1       3.680  -4.357   6.011  1.00  0.00     0.202 C 
BRANCH   3   4
ATOM      4  C   UNL     1       4.837  -5.348   5.876  1.00  0.00     0.261 C 
BRANCH   4   5
ATOM      5  O   UNL     1       5.425  -5.317   4.567  1.00  0.00    -0.461 OA
BRANCH   5   6
ATOM      6  C   UNL     1       4.783  -5.977   3.568  1.00  0.00     0.339 C 
ATOM      7  O   UNL     1       3.818  -6.707   3.751  1.00  0.00    -0.249 OA
BRANCH   6   8
ATOM      8  C   UNL     1       5.419  -5.669   2.183  1.00  0.00     0.176 C 
ATOM      9  C   UNL     1       5.800  -7.002   1.534  1.00  0.00     0.057 C 
BRANCH   8  10
ATOM     10  C   UNL     1       4.433  -4.771   1.351  1.00  0.00     0.164 C 
BRANCH  10  11
ATOM     11  N   UNL     1       3.170  -5.383   0.980  1.00  0.00    -0.335 N 
ATOM     12  N   UNL     1       1.276  -4.217   1.891  1.00  0.00    -0.338 N 
ATOM     13  C   UNL     1       1.885  -5.252   1.307  1.00  0.00     0.314 C 
ATOM     14  H   UNL     1       0.509  -4.527   2.426  1.00  0.00     0.165 HD
ATOM     15  O   UNL     1       1.175  -6.229   1.043  1.00  0.00    -0.249 OA
ATOM     16  H   UNL     1       3.298  -6.085   0.303  1.00  0.00     0.165 HD
BRANCH  12  17
ATOM     17  C   UNL     1       1.406  -2.746   1.978  1.00  0.00     0.122 C 
BRANCH  17  18
ATOM     18  C   UNL     1       0.424  -2.021   1.008  1.00  0.00     0.057 C 
BRANCH  18  19
ATOM     19  C   UNL     1      -0.791  -1.125   1.342  1.00  0.00    -0.043 A 
ATOM     20  C   UNL     1       0.086   1.395   1.291  1.00  0.00     0.045 C 
ATOM     21  C   UNL     1      -0.933   0.292   1.163  1.00  0.00    -0.045 A 
ATOM     22  C   UNL     1      -2.196   0.821   0.811  1.00  0.00     0.043 A 
ATOM     23  C   UNL     1      -3.324   0.033   0.818  1.00  0.00     0.123 A 
ATOM     24  C   UNL     1      -1.988  -1.864   1.450  1.00  0.00     0.007 A 
ATOM     25  F   UNL     1      -4.502   0.562   0.466  1.00  0.00    -0.207 F 
ATOM     26  C   UNL     1      -3.238  -1.288   1.205  1.00  0.00     0.039 A 
ENDBRANCH  18  19
ENDBRANCH  17  18
ENDBRANCH  12  17
ENDBRANCH  10  11
ENDBRANCH   8  10
BRANCH   8  27
ATOM     27  O   UNL     1       6.679  -4.976   2.287  1.00  0.00    -0.377 OA
ATOM     28  H   UNL     1       7.030  -4.809   1.398  1.00  0.00     0.212 HD
ENDBRANCH   8  27
ENDBRANCH   6   8
ENDBRANCH   5   6
ENDBRANCH   4   5
ENDBRANCH   3   4
ENDBRANCH   2   3
ENDBRANCH   1   2
BRANCH   1  29
ATOM     29  C   UNL     1       5.511  -2.386   3.902  1.00  0.00     0.188 C 
BRANCH  29  30
ATOM     30  O   UNL     1       6.585  -1.781   4.602  1.00  0.00    -0.376 OA
BRANCH  30  31
ATOM     31  C   UNL     1       6.290  -0.804   5.573  1.00  0.00     0.202 C 
BRANCH  31  32
ATOM     32  C   UNL     1       5.584   0.466   5.085  1.00  0.00     0.261 C 
BRANCH  32  33
ATOM     33  O   UNL     1       5.030   0.408   3.756  1.00  0.00    -0.460 OA
BRANCH  33  34
ATOM     34  C   UNL     1       5.817   0.621   2.663  1.00  0.00     0.338 C 
ATOM     35  O   UNL     1       7.004   0.902   2.673  1.00  0.00    -0.246 OA
BRANCH  34  36
ATOM     36  C   UNL     1       4.983   0.397   1.422  1.00  0.00     0.060 A 
ATOM     37  C   UNL     1       5.505   0.231   0.123  1.00  0.00     0.016 A 
ATOM     38  C   UNL     1       3.610   0.342   1.544  1.00  0.00     0.016 A 
ATOM     39  C   UNL     1       4.653   0.040  -1.029  1.00  0.00     0.010 A 
ATOM     40  C   UNL     1       2.821   0.144   0.407  1.00  0.00     0.010 A 
ATOM     41  C   UNL     1       3.261  -0.004  -0.907  1.00  0.00    -0.014 A 
BRANCH  41  42
ATOM     42  C   UNL     1       2.169   0.055  -1.988  1.00  0.00     0.031 A 
ATOM     43  C   UNL     1       1.704   1.425  -2.467  1.00  0.00     0.074 A 
ATOM     44  C   UNL     1       1.345  -0.970  -2.353  1.00  0.00     0.049 A 
ATOM     45  N   UNL     1       0.730   1.728  -3.296  1.00  0.00    -0.248 NA
ATOM     46  C   UNL     1       2.412   2.595  -1.930  1.00  0.00     0.031 C 
ATOM     47  C   UNL     1       1.484  -2.380  -1.996  1.00  0.00     0.029 A 
ATOM     48  N   UNL     1       0.128  -0.946  -3.038  1.00  0.00    -0.354 N 
ATOM     49  C   UNL     1       0.768   3.106  -3.455  1.00  0.00     0.074 A 
ATOM     50  C   UNL     1       1.777   3.593  -2.533  1.00  0.00     0.031 C 
ATOM     51  C   UNL     1       0.348  -3.039  -2.320  1.00  0.00     0.029 A 
ATOM     52  C   UNL     1      -0.596  -2.126  -2.970  1.00  0.00     0.049 A 
ATOM     53  H   UNL     1      -0.190  -0.154  -3.529  1.00  0.00     0.167 HD
ATOM     54  C   UNL     1       0.093   3.896  -4.330  1.00  0.00     0.037 A 
ATOM     55  C   UNL     1      -1.853  -2.456  -3.367  1.00  0.00     0.037 A 
ATOM     56  C   UNL     1      -0.944   3.474  -5.238  1.00  0.00     0.049 A 
ATOM     57  C   UNL     1      -2.698  -1.530  -4.223  1.00  0.00     0.074 A 
ATOM     58  C   UNL     1      -1.512   4.186  -6.286  1.00  0.00     0.029 A 
ATOM     59  N   UNL     1      -1.621   2.272  -5.174  1.00  0.00    -0.354 N 
ATOM     60  N   UNL     1      -2.450  -0.306  -4.610  1.00  0.00    -0.248 NA
ATOM     61  C   UNL     1      -3.958  -2.074  -4.776  1.00  0.00     0.031 C 
ATOM     62  C   UNL     1      -2.570   3.437  -6.817  1.00  0.00     0.029 A 
ATOM     63  C   UNL     1      -2.625   2.236  -6.136  1.00  0.00     0.049 A 
ATOM     64  H   UNL     1      -1.423   1.546  -4.540  1.00  0.00     0.167 HD
ATOM     65  C   UNL     1      -3.442   0.011  -5.542  1.00  0.00     0.074 A 
ATOM     66  C   UNL     1      -4.342  -1.114  -5.608  1.00  0.00     0.031 C 
ATOM     67  C   UNL     1      -3.530   1.126  -6.308  1.00  0.00     0.037 A 
BRANCH  54  68
ATOM     68  C   UNL     1       0.542   5.326  -4.429  1.00  0.00     0.058 A 
ATOM     69  C   UNL     1       1.800   5.633  -4.975  1.00  0.00     0.135 A 
ATOM     70  C   UNL     1      -0.297   6.388  -4.063  1.00  0.00     0.135 A 
ATOM     71  F   UNL     1       2.633   4.650  -5.353  1.00  0.00    -0.206 F 
ATOM     72  C   UNL     1       2.232   6.944  -5.107  1.00  0.00     0.059 A 
ATOM     73  C   UNL     1       0.105   7.712  -4.215  1.00  0.00     0.059 A 
ATOM     74  F   UNL     1      -1.516   6.146  -3.558  1.00  0.00    -0.206 F 
ATOM     75  C   UNL     1       1.380   7.977  -4.718  1.00  0.00     0.060 A 
BRANCH  75  76
ATOM     76  S   UNL     1       1.970   9.673  -4.877  1.00  0.00     0.124 S 
ATOM     77  O   UNL     1       2.884   9.765  -3.743  1.00  0.00    -0.237 OA
ATOM     78  O   UNL     1       2.597   9.666  -6.195  1.00  0.00    -0.237 OA
ATOM     79  O   UNL     1       0.751  10.467  -4.769  1.00  0.00    -0.744 OA
ENDBRANCH  75  76
ENDBRANCH  54  68
BRANCH  55  80
ATOM     80  C   UNL     1      -2.456  -3.785  -3.030  1.00  0.00     0.058 A 
ATOM     81  C   UNL     1      -2.441  -4.854  -3.936  1.00  0.00     0.135 A 
ATOM     82  C   UNL     1      -3.214  -3.947  -1.861  1.00  0.00     0.135 A 
ATOM     83  F   UNL     1      -1.798  -4.725  -5.106  1.00  0.00    -0.206 F 
ATOM     84  C   UNL     1      -3.148  -6.032  -3.691  1.00  0.00     0.059 A 
ATOM     85  C   UNL     1      -3.912  -5.119  -1.580  1.00  0.00     0.059 A 
ATOM     86  F   UNL     1      -3.337  -2.928  -1.006  1.00  0.00    -0.206 F 
ATOM     87  C   UNL     1      -3.880  -6.156  -2.508  1.00  0.00     0.060 A 
BRANCH  87  88
ATOM     88  S   UNL     1      -4.785  -7.690  -2.195  1.00  0.00     0.124 S 
ATOM     89  O   UNL     1      -5.886  -7.584  -3.146  1.00  0.00    -0.237 OA
ATOM     90  O   UNL     1      -3.780  -8.705  -2.494  1.00  0.00    -0.237 OA
ATOM     91  O   UNL     1      -5.157  -7.580  -0.787  1.00  0.00    -0.744 OA
ENDBRANCH  87  88
ENDBRANCH  55  80
BRANCH  67  92
ATOM     92  C   UNL     1      -4.540   1.178  -7.433  1.00  0.00     0.058 A 
ATOM     93  C   UNL     1      -5.922   1.310  -7.229  1.00  0.00     0.135 A 
ATOM     94  C   UNL     1      -4.090   1.158  -8.767  1.00  0.00     0.135 A 
ATOM     95  F   UNL     1      -6.422   1.327  -5.984  1.00  0.00    -0.206 F 
ATOM     96  C   UNL     1      -6.817   1.414  -8.299  1.00  0.00     0.059 A 
ATOM     97  C   UNL     1      -4.961   1.282  -9.849  1.00  0.00     0.059 A 
ATOM     98  F   UNL     1      -2.780   1.034  -9.035  1.00  0.00    -0.206 F 
ATOM     99  C   UNL     1      -6.326   1.404  -9.607  1.00  0.00     0.060 A 
BRANCH  99 100
ATOM    100  S   UNL     1      -7.483   1.597 -10.985  1.00  0.00     0.124 S 
ATOM    101  O   UNL     1      -8.128   0.289 -11.019  1.00  0.00    -0.237 OA
ATOM    102  O   UNL     1      -8.321   2.706 -10.539  1.00  0.00    -0.237 OA
ATOM    103  O   UNL     1      -6.614   1.897 -12.120  1.00  0.00    -0.744 OA
ENDBRANCH  99 100
ENDBRANCH  67  92
ENDBRANCH  41  42
ENDBRANCH  34  36
ENDBRANCH  33  34
ENDBRANCH  32  33
ENDBRANCH  31  32
ENDBRANCH  30  31
ENDBRANCH  29  30
ENDBRANCH   1  29
TORSDOF 26
