REMARK SMILES C[C@H](C(=O)OCCOCCOCCOC(=O)c1ccc(-c2c3nc(c(-c4c(F)cc(S(=O)(=O)[O-])cc4F)c4ccc([nH]4)c(-c4c(F)cc(S(=O)(=O)[O-])cc4F)c4nc(c(-c5c(F)cc(S(=O)(=O)[O-])cc5F)c5ccc2[nH]5)C=C4)C=C3)cc1)c1ccc2c(c1)OCCO2
REMARK SMILES IDX 10 1 9 2 8 3 7 4 6 5 5 6 3 7 4 8 2 9 1 10 83 11 84 12 88 13
REMARK SMILES IDX 85 14 87 15 86 16 89 17 92 18 90 19 91 20 11 21 12 22 13 23
REMARK SMILES IDX 14 24 15 25 16 26 17 27 18 28 82 29 19 30 81 31 20 32 21 33
REMARK SMILES IDX 22 34 75 35 23 36 80 37 74 38 76 39 24 40 79 41 73 42 72 43
REMARK SMILES IDX 25 45 59 46 38 47 58 48 39 49 42 50 57 51 77 52 40 53 41 54
REMARK SMILES IDX 56 56 78 57 43 58 26 59 27 60 36 61 28 62 29 63 35 64 37 65
REMARK SMILES IDX 30 66 31 67 32 68 33 69 34 70 60 71 61 72 70 73 62 74 63 75
REMARK SMILES IDX 69 76 71 77 64 78 65 79 66 80 67 81 68 82 44 83 45 84 54 85
REMARK SMILES IDX 46 86 47 87 53 88 55 89 48 90 49 91 50 92 51 93 52 94
REMARK H PARENT 76 44 42 55
REMARK Flexibility Score: inf
ROOT
ATOM      1  C   UNL     1      -0.310  -1.284   1.823  1.00  0.00     0.188 C 
ENDROOT
BRANCH   1   2
ATOM      2  C   UNL     1       1.143  -1.732   1.614  1.00  0.00     0.188 C 
BRANCH   2   3
ATOM      3  O   UNL     1       2.149  -1.144   2.440  1.00  0.00    -0.376 OA
BRANCH   3   4
ATOM      4  C   UNL     1       1.969   0.213   2.823  1.00  0.00     0.202 C 
BRANCH   4   5
ATOM      5  C   UNL     1       2.176   1.225   1.697  1.00  0.00     0.261 C 
BRANCH   5   6
ATOM      6  O   UNL     1       1.269   1.017   0.593  1.00  0.00    -0.463 OA
BRANCH   6   7
ATOM      7  C   UNL     1       1.751   1.424  -0.607  1.00  0.00     0.313 C 
ATOM      8  O   UNL     1       2.831   1.996  -0.743  1.00  0.00    -0.252 OA
BRANCH   7   9
ATOM      9  C   UNL     1       0.889   1.085  -1.809  1.00  0.00     0.126 C 
ATOM     10  C   UNL     1       1.645   0.059  -2.669  1.00  0.00     0.025 C 
BRANCH   9  11
ATOM     11  C   UNL     1      -0.576   0.684  -1.636  1.00  0.00    -0.030 A 
ATOM     12  C   UNL     1      -1.584   1.642  -1.856  1.00  0.00     0.009 A 
ATOM     13  C   UNL     1      -0.964  -0.660  -1.519  1.00  0.00     0.055 A 
ATOM     14  C   UNL     1      -2.912   1.252  -2.083  1.00  0.00     0.051 A 
ATOM     15  C   UNL     1      -2.285  -1.048  -1.759  1.00  0.00     0.161 A 
ATOM     16  C   UNL     1      -3.245  -0.097  -2.096  1.00  0.00     0.161 A 
ATOM     17  O   UNL     1      -2.541  -2.393  -1.747  1.00  0.00    -0.486 OA
ATOM     18  O   UNL     1      -4.510  -0.436  -2.512  1.00  0.00    -0.486 OA
ATOM     19  C   UNL     1      -3.921  -2.712  -1.960  1.00  0.00     0.271 C 
ATOM     20  C   UNL     1      -4.517  -1.787  -3.005  1.00  0.00     0.271 C 
ENDBRANCH   9  11
ENDBRANCH   7   9
ENDBRANCH   6   7
ENDBRANCH   5   6
ENDBRANCH   4   5
ENDBRANCH   3   4
ENDBRANCH   2   3
ENDBRANCH   1   2
BRANCH   1  21
ATOM     21  O   UNL     1      -0.673  -1.325   3.202  1.00  0.00    -0.376 OA
BRANCH  21  22
ATOM     22  C   UNL     1      -2.014  -1.763   3.404  1.00  0.00     0.202 C 
BRANCH  22  23
ATOM     23  C   UNL     1      -1.989  -3.224   3.854  1.00  0.00     0.261 C 
BRANCH  23  24
ATOM     24  O   UNL     1      -1.337  -4.086   2.900  1.00  0.00    -0.460 OA
BRANCH  24  25
ATOM     25  C   UNL     1      -2.081  -4.421   1.828  1.00  0.00     0.338 C 
ATOM     26  O   UNL     1      -3.235  -4.083   1.599  1.00  0.00    -0.246 OA
BRANCH  25  27
ATOM     27  C   UNL     1      -1.250  -5.179   0.880  1.00  0.00     0.060 A 
ATOM     28  C   UNL     1      -0.843  -4.546  -0.294  1.00  0.00     0.016 A 
ATOM     29  C   UNL     1      -0.970  -6.527   1.082  1.00  0.00     0.016 A 
ATOM     30  C   UNL     1      -0.239  -5.269  -1.320  1.00  0.00     0.010 A 
ATOM     31  C   UNL     1      -0.328  -7.248   0.069  1.00  0.00     0.010 A 
ATOM     32  C   UNL     1       0.001  -6.636  -1.158  1.00  0.00    -0.014 A 
BRANCH  32  33
ATOM     33  C   UNL     1       0.474  -7.463  -2.298  1.00  0.00     0.031 A 
ATOM     34  C   UNL     1      -0.462  -8.477  -2.899  1.00  0.00     0.074 A 
ATOM     35  C   UNL     1       1.714  -7.319  -2.803  1.00  0.00     0.049 A 
ATOM     36  N   UNL     1      -0.209  -9.450  -3.734  1.00  0.00    -0.248 NA
ATOM     37  C   UNL     1      -1.875  -8.380  -2.498  1.00  0.00     0.031 C 
ATOM     38  C   UNL     1       2.692  -6.318  -2.380  1.00  0.00     0.029 A 
ATOM     39  N   UNL     1       2.367  -8.037  -3.774  1.00  0.00    -0.354 N 
ATOM     40  C   UNL     1      -1.418 -10.109  -3.925  1.00  0.00     0.074 A 
ATOM     41  C   UNL     1      -2.405  -9.425  -3.117  1.00  0.00     0.031 C 
ATOM     42  C   UNL     1       3.828  -6.497  -3.074  1.00  0.00     0.029 A 
ATOM     43  C   UNL     1       3.680  -7.664  -3.940  1.00  0.00     0.049 A 
ATOM     44  H   UNL     1       1.937  -8.749  -4.301  1.00  0.00     0.167 HD
ATOM     45  C   UNL     1      -1.678 -11.190  -4.698  1.00  0.00     0.037 A 
ATOM     46  C   UNL     1       4.666  -8.233  -4.662  1.00  0.00     0.037 A 
ATOM     47  C   UNL     1      -0.697 -11.851  -5.519  1.00  0.00     0.049 A 
ATOM     48  C   UNL     1       4.378  -9.479  -5.457  1.00  0.00     0.074 A 
ATOM     49  C   UNL     1      -0.856 -12.961  -6.329  1.00  0.00     0.029 A 
ATOM     50  N   UNL     1       0.627 -11.455  -5.639  1.00  0.00    -0.354 N 
ATOM     51  N   UNL     1       3.249 -10.135  -5.582  1.00  0.00    -0.248 NA
ATOM     52  C   UNL     1       5.501 -10.070  -6.198  1.00  0.00     0.031 C 
ATOM     53  C   UNL     1       0.381 -13.258  -6.913  1.00  0.00     0.029 A 
ATOM     54  C   UNL     1       1.300 -12.306  -6.501  1.00  0.00     0.049 A 
ATOM     55  H   UNL     1       1.030 -10.683  -5.180  1.00  0.00     0.167 HD
ATOM     56  C   UNL     1       3.521 -11.205  -6.428  1.00  0.00     0.074 A 
ATOM     57  C   UNL     1       4.919 -11.102  -6.794  1.00  0.00     0.031 C 
ATOM     58  C   UNL     1       2.690 -12.185  -6.862  1.00  0.00     0.037 A 
BRANCH  45  59
ATOM     59  C   UNL     1      -3.072 -11.751  -4.658  1.00  0.00     0.058 A 
ATOM     60  C   UNL     1      -4.152 -11.104  -5.277  1.00  0.00     0.135 A 
ATOM     61  C   UNL     1      -3.325 -12.965  -3.997  1.00  0.00     0.135 A 
ATOM     62  F   UNL     1      -3.969  -9.931  -5.903  1.00  0.00    -0.206 F 
ATOM     63  C   UNL     1      -5.441 -11.627  -5.220  1.00  0.00     0.059 A 
ATOM     64  C   UNL     1      -4.601 -13.518  -3.948  1.00  0.00     0.059 A 
ATOM     65  F   UNL     1      -2.328 -13.622  -3.385  1.00  0.00    -0.206 F 
ATOM     66  C   UNL     1      -5.655 -12.832  -4.548  1.00  0.00     0.060 A 
BRANCH  66  67
ATOM     67  S   UNL     1      -7.334 -13.492  -4.471  1.00  0.00     0.124 S 
ATOM     68  O   UNL     1      -7.948 -12.608  -3.485  1.00  0.00    -0.237 OA
ATOM     69  O   UNL     1      -7.799 -13.329  -5.844  1.00  0.00    -0.237 OA
ATOM     70  O   UNL     1      -7.137 -14.872  -4.039  1.00  0.00    -0.744 OA
ENDBRANCH  66  67
ENDBRANCH  45  59
BRANCH  46  71
ATOM     71  C   UNL     1       6.038  -7.659  -4.621  1.00  0.00     0.058 A 
ATOM     72  C   UNL     1       6.589  -7.018  -5.739  1.00  0.00     0.135 A 
ATOM     73  C   UNL     1       6.821  -7.735  -3.458  1.00  0.00     0.135 A 
ATOM     74  F   UNL     1       5.886  -6.933  -6.878  1.00  0.00    -0.206 F 
ATOM     75  C   UNL     1       7.871  -6.477  -5.709  1.00  0.00     0.059 A 
ATOM     76  C   UNL     1       8.095  -7.181  -3.396  1.00  0.00     0.059 A 
ATOM     77  F   UNL     1       6.336  -8.334  -2.359  1.00  0.00    -0.206 F 
ATOM     78  C   UNL     1       8.615  -6.561  -4.530  1.00  0.00     0.060 A 
BRANCH  78  79
ATOM     79  S   UNL     1      10.255  -5.806  -4.482  1.00  0.00     0.124 S 
ATOM     80  O   UNL     1      11.043  -6.768  -5.244  1.00  0.00    -0.237 OA
ATOM     81  O   UNL     1      10.021  -4.518  -5.129  1.00  0.00    -0.237 OA
ATOM     82  O   UNL     1      10.550  -5.736  -3.054  1.00  0.00    -0.744 OA
ENDBRANCH  78  79
ENDBRANCH  46  71
BRANCH  58  83
ATOM     83  C   UNL     1       3.255 -13.204  -7.811  1.00  0.00     0.058 A 
ATOM     84  C   UNL     1       4.114 -14.223  -7.373  1.00  0.00     0.135 A 
ATOM     85  C   UNL     1       2.888 -13.191  -9.167  1.00  0.00     0.135 A 
ATOM     86  F   UNL     1       4.500 -14.277  -6.089  1.00  0.00    -0.206 F 
ATOM     87  C   UNL     1       4.606 -15.185  -8.251  1.00  0.00     0.059 A 
ATOM     88  C   UNL     1       3.349 -14.156 -10.057  1.00  0.00     0.059 A 
ATOM     89  F   UNL     1       2.061 -12.243  -9.634  1.00  0.00    -0.206 F 
ATOM     90  C   UNL     1       4.216 -15.143  -9.592  1.00  0.00     0.060 A 
BRANCH  90  91
ATOM     91  S   UNL     1       4.831 -16.417 -10.715  1.00  0.00     0.124 S 
ATOM     92  O   UNL     1       6.205 -15.979 -10.932  1.00  0.00    -0.237 OA
ATOM     93  O   UNL     1       4.671 -17.635  -9.926  1.00  0.00    -0.237 OA
ATOM     94  O   UNL     1       3.945 -16.306 -11.870  1.00  0.00    -0.744 OA
ENDBRANCH  90  91
ENDBRANCH  58  83
ENDBRANCH  32  33
ENDBRANCH  25  27
ENDBRANCH  24  25
ENDBRANCH  23  24
ENDBRANCH  22  23
ENDBRANCH  21  22
ENDBRANCH   1  21
TORSDOF 21
