REMARK SMILES CCc1nc2sc(C(=O)NCC(=O)OCCOCCOCCOC(=O)c3ccc(-c4c5nc(c(-c6c(F)cc(S(=O)(=O)[O-])cc6F)c6ccc([nH]6)c(-c6c(F)cc(S(=O)(=O)[O-])cc6F)c6nc(c(-c7c(F)cc(S(=O)(=O)[O-])cc7F)c7ccc4[nH]7)C=C6)C=C5)cc3)c(N)c2c(C(F)(F)F)c1C
REMARK SMILES IDX 18 1 17 2 16 3 15 4 14 5 12 6 13 7 11 8 10 9 8 10 9 11 7 13
REMARK SMILES IDX 3 14 4 15 100 16 5 17 95 18 101 19 6 20 94 21 92 22 2 23
REMARK SMILES IDX 1 24 96 25 97 26 98 27 99 28 93 29 19 32 20 33 21 34 22 35
REMARK SMILES IDX 23 36 24 37 25 38 26 39 27 40 91 41 28 42 90 43 29 44 30 45
REMARK SMILES IDX 31 46 84 47 32 48 89 49 83 50 85 51 33 52 88 53 82 54 81 55
REMARK SMILES IDX 34 57 68 58 47 59 67 60 48 61 51 62 66 63 86 64 49 65 50 66
REMARK SMILES IDX 65 68 87 69 52 70 35 71 36 72 45 73 37 74 38 75 44 76 46 77
REMARK SMILES IDX 39 78 40 79 41 80 42 81 43 82 69 83 70 84 79 85 71 86 72 87
REMARK SMILES IDX 78 88 80 89 73 90 74 91 75 92 76 93 77 94 53 95 54 96 63 97
REMARK SMILES IDX 55 98 56 99 62 100 64 101 57 102 58 103 59 104 60 105 61 106
REMARK H PARENT 10 12 93 30 93 31 85 56 51 67
REMARK Flexibility Score: inf
ROOT
ATOM      1  C   UNL     1       0.808   7.230   9.763  1.00  0.00     0.188 C 
ENDROOT
BRANCH   1   2
ATOM      2  O   UNL     1      -0.565   7.482   9.930  1.00  0.00    -0.376 OA
BRANCH   2   3
ATOM      3  C   UNL     1      -1.524   6.526   9.515  1.00  0.00     0.202 C 
BRANCH   3   4
ATOM      4  C   UNL     1      -1.297   5.548   8.342  1.00  0.00     0.261 C 
BRANCH   4   5
ATOM      5  O   UNL     1      -0.050   4.830   8.345  1.00  0.00    -0.462 OA
BRANCH   5   6
ATOM      6  C   UNL     1       0.880   5.247   7.439  1.00  0.00     0.325 C 
ATOM      7  O   UNL     1       0.658   6.121   6.601  1.00  0.00    -0.250 OA
BRANCH   6   8
ATOM      8  C   UNL     1       2.297   4.683   7.688  1.00  0.00     0.239 C 
BRANCH   8   9
ATOM      9  N   UNL     1       2.409   3.374   8.289  1.00  0.00    -0.340 N 
ATOM     10  C   UNL     1       2.476   2.136   7.689  1.00  0.00     0.264 C 
ATOM     11  O   UNL     1       2.803   1.216   8.447  1.00  0.00    -0.268 OA
ATOM     12  H   UNL     1       2.441   3.365   9.273  1.00  0.00     0.164 HD
BRANCH  10  13
ATOM     13  C   UNL     1       2.140   1.915   6.275  1.00  0.00     0.118 A 
ATOM     14  C   UNL     1       0.717   0.204   2.122  1.00  0.00     0.045 A 
ATOM     15  N   UNL     1       1.329  -0.252   3.240  1.00  0.00    -0.242 NA
ATOM     16  C   UNL     1       0.331   1.540   1.910  1.00  0.00    -0.017 A 
ATOM     17  C   UNL     1       1.562   0.678   4.180  1.00  0.00     0.127 A 
ATOM     18  C   UNL     1       0.734   2.512   2.846  1.00  0.00     0.073 A 
ATOM     19  C   UNL     1      -0.491   1.965   0.725  1.00  0.00     0.047 C 
ATOM     20  S   UNL     1       2.208   0.273   5.700  1.00  0.00    -0.108 S 
ATOM     21  C   UNL     1       1.323   2.028   4.046  1.00  0.00     0.048 A 
ATOM     22  C   UNL     1       1.732   2.714   5.223  1.00  0.00     0.066 A 
BRANCH  14  23
ATOM     23  C   UNL     1       0.497  -0.855   1.068  1.00  0.00     0.053 C 
ATOM     24  C   UNL     1       1.330  -0.604  -0.183  1.00  0.00     0.011 C 
ENDBRANCH  14  23
BRANCH  18  25
ATOM     25  C   UNL     1       0.511   3.999   2.646  1.00  0.00     0.417 C 
ATOM     26  F   UNL     1      -0.380   4.513   3.544  1.00  0.00    -0.166 F 
ATOM     27  F   UNL     1       1.659   4.729   2.795  1.00  0.00    -0.166 F 
ATOM     28  F   UNL     1       0.040   4.372   1.425  1.00  0.00    -0.166 F 
ENDBRANCH  18  25
BRANCH  22  29
ATOM     29  N   UNL     1       1.624   4.048   5.214  1.00  0.00    -0.397 N 
ATOM     30  H   UNL     1       1.894   4.569   6.005  1.00  0.00     0.156 HD
ATOM     31  H   UNL     1       1.275   4.509   4.417  1.00  0.00     0.156 HD
ENDBRANCH  22  29
ENDBRANCH  10  13
ENDBRANCH   8   9
ENDBRANCH   6   8
ENDBRANCH   5   6
ENDBRANCH   4   5
ENDBRANCH   3   4
ENDBRANCH   2   3
ENDBRANCH   1   2
BRANCH   1  32
ATOM     32  C   UNL     1       1.489   6.127  10.577  1.00  0.00     0.188 C 
BRANCH  32  33
ATOM     33  O   UNL     1       0.917   4.861  10.824  1.00  0.00    -0.376 OA
BRANCH  33  34
ATOM     34  C   UNL     1      -0.039   4.603  11.844  1.00  0.00     0.202 C 
BRANCH  34  35
ATOM     35  C   UNL     1      -0.093   5.328  13.191  1.00  0.00     0.261 C 
BRANCH  35  36
ATOM     36  O   UNL     1       0.707   6.477  13.304  1.00  0.00    -0.460 OA
BRANCH  36  37
ATOM     37  C   UNL     1       2.015   6.206  13.539  1.00  0.00     0.338 C 
ATOM     38  O   UNL     1       2.553   5.124  13.577  1.00  0.00    -0.246 OA
BRANCH  37  39
ATOM     39  C   UNL     1       2.700   7.500  13.648  1.00  0.00     0.060 A 
ATOM     40  C   UNL     1       4.093   7.500  13.574  1.00  0.00     0.016 A 
ATOM     41  C   UNL     1       1.961   8.629  14.024  1.00  0.00     0.016 A 
ATOM     42  C   UNL     1       4.757   8.532  14.186  1.00  0.00     0.010 A 
ATOM     43  C   UNL     1       2.620   9.642  14.657  1.00  0.00     0.010 A 
ATOM     44  C   UNL     1       3.994   9.511  14.829  1.00  0.00    -0.014 A 
BRANCH  44  45
ATOM     45  C   UNL     1       4.672  10.490  15.643  1.00  0.00     0.031 A 
ATOM     46  C   UNL     1       5.344  11.485  14.790  1.00  0.00     0.074 A 
ATOM     47  C   UNL     1       4.547  10.477  16.987  1.00  0.00     0.049 A 
ATOM     48  N   UNL     1       6.610  11.576  14.557  1.00  0.00    -0.248 NA
ATOM     49  C   UNL     1       4.516  12.297  13.876  1.00  0.00     0.031 C 
ATOM     50  C   UNL     1       3.667   9.604  17.778  1.00  0.00     0.029 A 
ATOM     51  N   UNL     1       5.073  11.307  17.934  1.00  0.00    -0.354 N 
ATOM     52  C   UNL     1       6.728  12.718  13.774  1.00  0.00     0.074 A 
ATOM     53  C   UNL     1       5.450  12.918  13.151  1.00  0.00     0.031 C 
ATOM     54  C   UNL     1       3.533  10.109  19.025  1.00  0.00     0.029 A 
ATOM     55  C   UNL     1       4.412  11.254  19.166  1.00  0.00     0.049 A 
ATOM     56  H   UNL     1       5.848  11.890  17.765  1.00  0.00     0.167 HD
ATOM     57  C   UNL     1       7.679  13.635  14.097  1.00  0.00     0.037 A 
ATOM     58  C   UNL     1       4.547  12.140  20.188  1.00  0.00     0.037 A 
ATOM     59  C   UNL     1       8.673  13.050  14.959  1.00  0.00     0.049 A 
ATOM     60  C   UNL     1       5.861  12.804  19.994  1.00  0.00     0.074 A 
ATOM     61  C   UNL     1       9.675  12.112  14.839  1.00  0.00     0.029 A 
ATOM     62  N   UNL     1       8.362  13.154  16.288  1.00  0.00    -0.354 N 
ATOM     63  N   UNL     1       7.002  12.174  20.091  1.00  0.00    -0.248 NA
ATOM     64  C   UNL     1       5.911  14.086  19.298  1.00  0.00     0.031 C 
ATOM     65  C   UNL     1       9.886  11.584  16.146  1.00  0.00     0.029 A 
ATOM     66  C   UNL     1       9.056  12.253  17.044  1.00  0.00     0.049 A 
ATOM     67  H   UNL     1       7.715  13.799  16.655  1.00  0.00     0.167 HD
ATOM     68  C   UNL     1       7.795  12.754  19.119  1.00  0.00     0.074 A 
ATOM     69  C   UNL     1       7.141  14.013  18.783  1.00  0.00     0.031 C 
ATOM     70  C   UNL     1       8.698  12.007  18.424  1.00  0.00     0.037 A 
BRANCH  57  71
ATOM     71  C   UNL     1       7.414  15.126  14.131  1.00  0.00     0.058 A 
ATOM     72  C   UNL     1       8.501  16.008  14.275  1.00  0.00     0.135 A 
ATOM     73  C   UNL     1       6.136  15.702  14.323  1.00  0.00     0.135 A 
ATOM     74  F   UNL     1       9.762  15.556  14.175  1.00  0.00    -0.206 F 
ATOM     75  C   UNL     1       8.329  17.358  14.590  1.00  0.00     0.059 A 
ATOM     76  C   UNL     1       5.939  17.051  14.577  1.00  0.00     0.059 A 
ATOM     77  F   UNL     1       5.016  14.973  14.378  1.00  0.00    -0.206 F 
ATOM     78  C   UNL     1       7.041  17.870  14.729  1.00  0.00     0.060 A 
BRANCH  78  79
ATOM     79  S   UNL     1       6.808  19.607  15.137  1.00  0.00     0.124 S 
ATOM     80  O   UNL     1       7.335  19.663  16.495  1.00  0.00    -0.237 OA
ATOM     81  O   UNL     1       7.608  20.263  14.109  1.00  0.00    -0.237 OA
ATOM     82  O   UNL     1       5.365  19.790  15.009  1.00  0.00    -0.744 OA
ENDBRANCH  78  79
ENDBRANCH  57  71
BRANCH  58  83
ATOM     83  C   UNL     1       3.506  12.690  21.107  1.00  0.00     0.058 A 
ATOM     84  C   UNL     1       3.861  13.542  22.173  1.00  0.00     0.135 A 
ATOM     85  C   UNL     1       2.135  12.650  20.787  1.00  0.00     0.135 A 
ATOM     86  F   UNL     1       5.143  13.645  22.557  1.00  0.00    -0.206 F 
ATOM     87  C   UNL     1       2.932  14.368  22.819  1.00  0.00     0.059 A 
ATOM     88  C   UNL     1       1.189  13.456  21.424  1.00  0.00     0.059 A 
ATOM     89  F   UNL     1       1.678  11.894  19.779  1.00  0.00    -0.206 F 
ATOM     90  C   UNL     1       1.599  14.341  22.413  1.00  0.00     0.060 A 
BRANCH  90  91
ATOM     91  S   UNL     1       0.434  15.548  23.093  1.00  0.00     0.124 S 
ATOM     92  O   UNL     1       0.339  15.127  24.486  1.00  0.00    -0.237 OA
ATOM     93  O   UNL     1       1.125  16.810  22.854  1.00  0.00    -0.237 OA
ATOM     94  O   UNL     1      -0.772  15.341  22.296  1.00  0.00    -0.744 OA
ENDBRANCH  90  91
ENDBRANCH  58  83
BRANCH  70  95
ATOM     95  C   UNL     1       9.289  10.800  19.081  1.00  0.00     0.058 A 
ATOM     96  C   UNL     1       8.618   9.595  19.338  1.00  0.00     0.135 A 
ATOM     97  C   UNL     1      10.671  10.843  19.328  1.00  0.00     0.135 A 
ATOM     98  F   UNL     1       7.311   9.462  19.064  1.00  0.00    -0.206 F 
ATOM     99  C   UNL     1       9.301   8.477  19.824  1.00  0.00     0.059 A 
ATOM    100  C   UNL     1      11.374   9.737  19.779  1.00  0.00     0.059 A 
ATOM    101  F   UNL     1      11.366  11.961  19.062  1.00  0.00    -0.206 F 
ATOM    102  C   UNL     1      10.682   8.556  20.030  1.00  0.00     0.060 A 
BRANCH 102 103
ATOM    103  S   UNL     1      11.589   7.089  20.565  1.00  0.00     0.124 S 
ATOM    104  O   UNL     1      11.081   6.890  21.918  1.00  0.00    -0.237 OA
ATOM    105  O   UNL     1      11.181   6.092  19.579  1.00  0.00    -0.237 OA
ATOM    106  O   UNL     1      12.988   7.501  20.479  1.00  0.00    -0.744 OA
ENDBRANCH 102 103
ENDBRANCH  70  95
ENDBRANCH  44  45
ENDBRANCH  37  39
ENDBRANCH  36  37
ENDBRANCH  35  36
ENDBRANCH  34  35
ENDBRANCH  33  34
ENDBRANCH  32  33
ENDBRANCH   1  32
TORSDOF 25
