REMARK SMILES CC[C@H](C)Oc1ccc(NC(=O)/C=C/C(=O)OCCOCCOCCOC(=O)c2ccc(-c3c4nc(c(-c5c(F)cc(S(=O)(=O)[O-])cc5F)c5ccc([nH]5)c(-c5c(F)cc(S(=O)(=O)[O-])cc5F)c5nc(c(-c6c(F)cc(S(=O)(=O)[O-])cc6F)c6ccc3[nH]6)C=C5)C=C4)cc2)cc1
REMARK SMILES IDX 21 1 20 2 19 3 18 4 17 5 15 6 16 7 14 8 13 9 11 10 10 11
REMARK SMILES IDX 12 13 9 14 6 15 7 16 96 17 8 18 95 19 5 20 3 21 4 22 2 23
REMARK SMILES IDX 1 24 22 25 23 26 24 27 25 28 26 29 27 30 28 31 29 32 30 33
REMARK SMILES IDX 94 34 31 35 93 36 32 37 33 38 34 39 87 40 35 41 92 42 86 43
REMARK SMILES IDX 88 44 36 45 91 46 85 47 84 48 37 50 71 51 50 52 70 53 51 54
REMARK SMILES IDX 54 55 69 56 89 57 52 58 53 59 68 61 90 62 55 63 38 64 39 65
REMARK SMILES IDX 48 66 40 67 41 68 47 69 49 70 42 71 43 72 44 73 45 74 46 75
REMARK SMILES IDX 72 76 73 77 82 78 74 79 75 80 81 81 83 82 76 83 77 84 78 85
REMARK SMILES IDX 79 86 80 87 56 88 57 89 66 90 58 91 59 92 65 93 67 94 60 95
REMARK SMILES IDX 61 96 62 97 63 98 64 99
REMARK H PARENT 10 12 88 49 54 60
REMARK Flexibility Score: inf
ROOT
ATOM      1  C   UNL     1      -0.971   1.261   8.642  1.00  0.00     0.188 C 
ENDROOT
BRANCH   1   2
ATOM      2  O   UNL     1      -0.241   2.154   9.464  1.00  0.00    -0.376 OA
BRANCH   2   3
ATOM      3  C   UNL     1      -0.945   3.190  10.136  1.00  0.00     0.202 C 
BRANCH   3   4
ATOM      4  C   UNL     1      -2.010   4.031   9.409  1.00  0.00     0.261 C 
BRANCH   4   5
ATOM      5  O   UNL     1      -2.958   3.287   8.622  1.00  0.00    -0.460 OA
BRANCH   5   6
ATOM      6  C   UNL     1      -3.257   3.833   7.415  1.00  0.00     0.331 C 
ATOM      7  O   UNL     1      -2.858   4.908   6.992  1.00  0.00    -0.247 OA
BRANCH   6   8
ATOM      8  C   UNL     1      -4.062   2.935   6.562  1.00  0.00     0.099 C 
ATOM      9  C   UNL     1      -4.757   1.875   6.997  1.00  0.00     0.079 C 
BRANCH   9  10
ATOM     10  C   UNL     1      -5.495   0.988   6.071  1.00  0.00     0.248 C 
ATOM     11  N   UNL     1      -4.903   0.396   4.989  1.00  0.00    -0.323 N 
ATOM     12  H   UNL     1      -5.545  -0.033   4.378  1.00  0.00     0.170 HD
ATOM     13  O   UNL     1      -6.692   0.794   6.288  1.00  0.00    -0.270 OA
BRANCH  11  14
ATOM     14  C   UNL     1      -3.565   0.274   4.567  1.00  0.00     0.041 A 
ATOM     15  C   UNL     1      -0.941   0.199   3.548  1.00  0.00     0.119 A 
ATOM     16  C   UNL     1      -1.172   0.492   4.885  1.00  0.00     0.048 A 
ATOM     17  C   UNL     1      -2.011  -0.164   2.742  1.00  0.00     0.048 A 
ATOM     18  C   UNL     1      -2.471   0.509   5.389  1.00  0.00     0.030 A 
ATOM     19  C   UNL     1      -3.319  -0.128   3.251  1.00  0.00     0.030 A 
BRANCH  15  20
ATOM     20  O   UNL     1       0.364   0.243   3.179  1.00  0.00    -0.491 OA
BRANCH  20  21
ATOM     21  C   UNL     1       0.756   0.799   1.913  1.00  0.00     0.170 C 
ATOM     22  C   UNL     1       0.831  -0.279   0.839  1.00  0.00     0.053 C 
BRANCH  21  23
ATOM     23  C   UNL     1       0.104   2.154   1.564  1.00  0.00     0.041 C 
ATOM     24  C   UNL     1      -0.633   2.207   0.237  1.00  0.00     0.008 C 
ENDBRANCH  21  23
ENDBRANCH  20  21
ENDBRANCH  15  20
ENDBRANCH  11  14
ENDBRANCH   9  10
ENDBRANCH   6   8
ENDBRANCH   5   6
ENDBRANCH   4   5
ENDBRANCH   3   4
ENDBRANCH   2   3
ENDBRANCH   1   2
BRANCH   1  25
ATOM     25  C   UNL     1      -2.127   0.440   9.249  1.00  0.00     0.188 C 
BRANCH  25  26
ATOM     26  O   UNL     1      -2.563   0.802  10.535  1.00  0.00    -0.376 OA
BRANCH  26  27
ATOM     27  C   UNL     1      -1.940   0.252  11.683  1.00  0.00     0.202 C 
BRANCH  27  28
ATOM     28  C   UNL     1      -0.740  -0.717  11.702  1.00  0.00     0.261 C 
BRANCH  28  29
ATOM     29  O   UNL     1      -0.036  -0.972  10.486  1.00  0.00    -0.460 OA
BRANCH  29  30
ATOM     30  C   UNL     1      -0.259  -2.184   9.926  1.00  0.00     0.338 C 
ATOM     31  O   UNL     1      -1.068  -3.032  10.295  1.00  0.00    -0.246 OA
BRANCH  30  32
ATOM     32  C   UNL     1       0.537  -2.302   8.697  1.00  0.00     0.060 A 
ATOM     33  C   UNL     1      -0.112  -2.305   7.457  1.00  0.00     0.016 A 
ATOM     34  C   UNL     1       1.922  -2.460   8.778  1.00  0.00     0.016 A 
ATOM     35  C   UNL     1       0.631  -2.468   6.286  1.00  0.00     0.010 A 
ATOM     36  C   UNL     1       2.659  -2.643   7.606  1.00  0.00     0.010 A 
ATOM     37  C   UNL     1       2.018  -2.663   6.357  1.00  0.00    -0.014 A 
BRANCH  37  38
ATOM     38  C   UNL     1       2.793  -2.989   5.136  1.00  0.00     0.031 A 
ATOM     39  C   UNL     1       3.057  -4.427   4.797  1.00  0.00     0.074 A 
ATOM     40  C   UNL     1       3.295  -2.009   4.364  1.00  0.00     0.049 A 
ATOM     41  N   UNL     1       3.753  -4.930   3.812  1.00  0.00    -0.248 NA
ATOM     42  C   UNL     1       2.483  -5.429   5.707  1.00  0.00     0.031 C 
ATOM     43  C   UNL     1       3.131  -0.582   4.618  1.00  0.00     0.029 A 
ATOM     44  N   UNL     1       4.043  -2.065   3.214  1.00  0.00    -0.354 N 
ATOM     45  C   UNL     1       3.736  -6.306   4.003  1.00  0.00     0.074 A 
ATOM     46  C   UNL     1       2.957  -6.557   5.197  1.00  0.00     0.031 C 
ATOM     47  C   UNL     1       3.742   0.106   3.639  1.00  0.00     0.029 A 
ATOM     48  C   UNL     1       4.340  -0.830   2.689  1.00  0.00     0.049 A 
ATOM     49  H   UNL     1       4.338  -2.910   2.804  1.00  0.00     0.167 HD
ATOM     50  C   UNL     1       4.332  -7.268   3.259  1.00  0.00     0.037 A 
ATOM     51  C   UNL     1       5.004  -0.496   1.563  1.00  0.00     0.037 A 
ATOM     52  C   UNL     1       5.118  -7.008   2.080  1.00  0.00     0.049 A 
ATOM     53  C   UNL     1       5.610  -1.589   0.719  1.00  0.00     0.074 A 
ATOM     54  C   UNL     1       5.769  -7.915   1.262  1.00  0.00     0.029 A 
ATOM     55  N   UNL     1       5.367  -5.747   1.555  1.00  0.00    -0.354 N 
ATOM     56  N   UNL     1       5.562  -2.889   0.894  1.00  0.00    -0.248 NA
ATOM     57  C   UNL     1       6.385  -1.172  -0.458  1.00  0.00     0.031 C 
ATOM     58  C   UNL     1       6.449  -7.200   0.270  1.00  0.00     0.029 A 
ATOM     59  C   UNL     1       6.176  -5.851   0.435  1.00  0.00     0.049 A 
ATOM     60  H   UNL     1       5.019  -4.903   1.924  1.00  0.00     0.167 HD
ATOM     61  C   UNL     1       6.312  -3.441  -0.140  1.00  0.00     0.074 A 
ATOM     62  C   UNL     1       6.761  -2.339  -0.965  1.00  0.00     0.031 C 
ATOM     63  C   UNL     1       6.621  -4.742  -0.373  1.00  0.00     0.037 A 
BRANCH  50  64
ATOM     64  C   UNL     1       4.199  -8.688   3.735  1.00  0.00     0.058 A 
ATOM     65  C   UNL     1       2.982  -9.384   3.660  1.00  0.00     0.135 A 
ATOM     66  C   UNL     1       5.308  -9.365   4.269  1.00  0.00     0.135 A 
ATOM     67  F   UNL     1       1.885  -8.779   3.176  1.00  0.00    -0.206 F 
ATOM     68  C   UNL     1       2.861 -10.688   4.129  1.00  0.00     0.059 A 
ATOM     69  C   UNL     1       5.217 -10.679   4.716  1.00  0.00     0.059 A 
ATOM     70  F   UNL     1       6.495  -8.746   4.366  1.00  0.00    -0.206 F 
ATOM     71  C   UNL     1       3.984 -11.326   4.659  1.00  0.00     0.060 A 
BRANCH  71  72
ATOM     72  S   UNL     1       3.808 -13.014   5.275  1.00  0.00     0.124 S 
ATOM     73  O   UNL     1       3.059 -12.795   6.509  1.00  0.00    -0.237 OA
ATOM     74  O   UNL     1       3.073 -13.665   4.196  1.00  0.00    -0.237 OA
ATOM     75  O   UNL     1       5.187 -13.459   5.449  1.00  0.00    -0.744 OA
ENDBRANCH  71  72
ENDBRANCH  50  64
BRANCH  51  76
ATOM     76  C   UNL     1       5.115   0.932   1.151  1.00  0.00     0.058 A 
ATOM     77  C   UNL     1       4.475   1.394  -0.010  1.00  0.00     0.135 A 
ATOM     78  C   UNL     1       5.846   1.864   1.903  1.00  0.00     0.135 A 
ATOM     79  F   UNL     1       3.774   0.543  -0.774  1.00  0.00    -0.206 F 
ATOM     80  C   UNL     1       4.560   2.722  -0.415  1.00  0.00     0.059 A 
ATOM     81  C   UNL     1       5.921   3.205   1.535  1.00  0.00     0.059 A 
ATOM     82  F   UNL     1       6.473   1.480   3.025  1.00  0.00    -0.206 F 
ATOM     83  C   UNL     1       5.283   3.622   0.369  1.00  0.00     0.060 A 
BRANCH  83  84
ATOM     84  S   UNL     1       5.338   5.357  -0.131  1.00  0.00     0.124 S 
ATOM     85  O   UNL     1       6.291   5.313  -1.234  1.00  0.00    -0.237 OA
ATOM     86  O   UNL     1       3.949   5.615  -0.497  1.00  0.00    -0.237 OA
ATOM     87  O   UNL     1       5.798   6.037   1.077  1.00  0.00    -0.744 OA
ENDBRANCH  83  84
ENDBRANCH  51  76
BRANCH  63  88
ATOM     88  C   UNL     1       7.496  -5.050  -1.559  1.00  0.00     0.058 A 
ATOM     89  C   UNL     1       8.867  -4.745  -1.556  1.00  0.00     0.135 A 
ATOM     90  C   UNL     1       6.978  -5.722  -2.677  1.00  0.00     0.135 A 
ATOM     91  F   UNL     1       9.414  -4.098  -0.515  1.00  0.00    -0.206 F 
ATOM     92  C   UNL     1       9.690  -5.083  -2.627  1.00  0.00     0.059 A 
ATOM     93  C   UNL     1       7.787  -6.094  -3.747  1.00  0.00     0.059 A 
ATOM     94  F   UNL     1       5.676  -6.046  -2.727  1.00  0.00    -0.206 F 
ATOM     95  C   UNL     1       9.141  -5.762  -3.716  1.00  0.00     0.060 A 
BRANCH  95  96
ATOM     96  S   UNL     1      10.229  -6.237  -5.077  1.00  0.00     0.124 S 
ATOM     97  O   UNL     1      10.480  -4.950  -5.716  1.00  0.00    -0.237 OA
ATOM     98  O   UNL     1      11.365  -6.828  -4.376  1.00  0.00    -0.237 OA
ATOM     99  O   UNL     1       9.420  -7.175  -5.849  1.00  0.00    -0.744 OA
ENDBRANCH  95  96
ENDBRANCH  63  88
ENDBRANCH  37  38
ENDBRANCH  30  32
ENDBRANCH  29  30
ENDBRANCH  28  29
ENDBRANCH  27  28
ENDBRANCH  26  27
ENDBRANCH  25  26
ENDBRANCH   1  25
TORSDOF 25
