REMARK SMILES [NH3+][C@@H](Cc1ccc(OC(F)F)cc1)C(=O)OCCOCCOCCOC(=O)c1ccc(-c2c3nc(c(-c4c(F)cc(S(=O)(=O)[O-])cc4F)c4ccc([nH]4)c(-c4c(F)cc(S(=O)(=O)[O-])cc4F)c4nc(c(-c5c(F)cc(S(=O)(=O)[O-])cc5F)c5ccc2[nH]5)C=C4)C=C3)cc1
REMARK SMILES IDX 20 1 19 2 18 3 17 4 16 5 14 6 15 7 2 8 1 9 3 13 4 14 5 15
REMARK SMILES IDX 13 16 6 17 12 18 7 19 8 20 9 21 10 22 11 23 21 24 22 25
REMARK SMILES IDX 23 26 24 27 25 28 26 29 27 30 28 31 29 32 93 33 30 34 92 35
REMARK SMILES IDX 31 36 32 37 33 38 86 39 34 40 91 41 85 42 87 43 35 44 90 45
REMARK SMILES IDX 84 46 83 47 36 49 70 50 49 51 69 52 50 53 53 54 68 55 88 56
REMARK SMILES IDX 51 57 52 58 67 60 89 61 54 62 37 63 38 64 47 65 39 66 40 67
REMARK SMILES IDX 46 68 48 69 41 70 42 71 43 72 44 73 45 74 71 75 72 76 81 77
REMARK SMILES IDX 73 78 74 79 80 80 82 81 75 82 76 83 77 84 78 85 79 86 55 87
REMARK SMILES IDX 56 88 65 89 57 90 58 91 64 92 66 93 59 94 60 95 61 96 62 97
REMARK SMILES IDX 63 98
REMARK H PARENT 1 10 1 11 1 12 87 48 53 59
REMARK Flexibility Score: inf
ROOT
ATOM      1  C   UNL     1      -2.257   1.437  -1.114  1.00  0.00     0.188 C 
ENDROOT
BRANCH   1   2
ATOM      2  O   UNL     1      -3.576   0.933  -1.196  1.00  0.00    -0.376 OA
BRANCH   2   3
ATOM      3  C   UNL     1      -3.844  -0.375  -0.725  1.00  0.00     0.202 C 
BRANCH   3   4
ATOM      4  C   UNL     1      -2.884  -1.544  -1.000  1.00  0.00     0.261 C 
BRANCH   4   5
ATOM      5  O   UNL     1      -1.478  -1.264  -0.874  1.00  0.00    -0.459 OA
BRANCH   5   6
ATOM      6  C   UNL     1      -0.727  -1.502  -1.986  1.00  0.00     0.365 C 
ATOM      7  O   UNL     1      -1.182  -1.916  -3.049  1.00  0.00    -0.245 OA
BRANCH   6   8
ATOM      8  C   UNL     1       0.784  -1.306  -1.788  1.00  0.00     0.296 C 
BRANCH   8   9
ATOM      9  N   UNL     1       1.209  -0.148  -0.971  1.00  0.00    -0.346 N 
ATOM     10  H   UNL     1       2.227  -0.128  -0.915  1.00  0.00     0.345 HD
ATOM     11  H   UNL     1       0.818  -0.232  -0.033  1.00  0.00     0.345 HD
ATOM     12  H   UNL     1       0.875   0.713  -1.403  1.00  0.00     0.345 HD
ENDBRANCH   8   9
BRANCH   8  13
ATOM     13  C   UNL     1       1.450  -2.623  -1.375  1.00  0.00     0.113 C 
BRANCH  13  14
ATOM     14  C   UNL     1       0.947  -3.395  -0.171  1.00  0.00    -0.041 A 
ATOM     15  C   UNL     1       0.534  -2.819   1.036  1.00  0.00     0.008 A 
ATOM     16  C   UNL     1       0.970  -4.795  -0.249  1.00  0.00     0.008 A 
ATOM     17  C   UNL     1       0.154  -3.619   2.120  1.00  0.00     0.047 A 
ATOM     18  C   UNL     1       0.589  -5.593   0.833  1.00  0.00     0.047 A 
ATOM     19  C   UNL     1       0.185  -5.010   2.029  1.00  0.00     0.126 A 
BRANCH  19  20
ATOM     20  O   UNL     1      -0.190  -5.668   3.164  1.00  0.00    -0.435 OA
BRANCH  20  21
ATOM     21  C   UNL     1      -0.168  -7.088   3.146  1.00  0.00     0.542 C 
ATOM     22  F   UNL     1      -1.018  -7.555   2.200  1.00  0.00    -0.167 F 
ATOM     23  F   UNL     1       1.078  -7.537   2.861  1.00  0.00    -0.167 F 
ENDBRANCH  20  21
ENDBRANCH  19  20
ENDBRANCH  13  14
ENDBRANCH   8  13
ENDBRANCH   6   8
ENDBRANCH   5   6
ENDBRANCH   4   5
ENDBRANCH   3   4
ENDBRANCH   2   3
ENDBRANCH   1   2
BRANCH   1  24
ATOM     24  C   UNL     1      -1.507   1.388   0.231  1.00  0.00     0.188 C 
BRANCH  24  25
ATOM     25  O   UNL     1      -2.107   0.779   1.347  1.00  0.00    -0.376 OA
BRANCH  25  26
ATOM     26  C   UNL     1      -3.062   1.484   2.114  1.00  0.00     0.202 C 
BRANCH  26  27
ATOM     27  C   UNL     1      -3.374   2.989   2.003  1.00  0.00     0.261 C 
BRANCH  27  28
ATOM     28  O   UNL     1      -2.983   3.679   0.814  1.00  0.00    -0.460 OA
BRANCH  28  29
ATOM     29  C   UNL     1      -1.883   4.470   0.925  1.00  0.00     0.338 C 
ATOM     30  O   UNL     1      -1.189   4.631   1.917  1.00  0.00    -0.246 OA
BRANCH  29  31
ATOM     31  C   UNL     1      -1.526   4.959  -0.420  1.00  0.00     0.060 A 
ATOM     32  C   UNL     1      -0.338   4.518  -1.026  1.00  0.00     0.016 A 
ATOM     33  C   UNL     1      -2.374   5.844  -1.082  1.00  0.00     0.016 A 
ATOM     34  C   UNL     1       0.008   4.968  -2.302  1.00  0.00     0.010 A 
ATOM     35  C   UNL     1      -2.011   6.317  -2.342  1.00  0.00     0.010 A 
ATOM     36  C   UNL     1      -0.810   5.900  -2.949  1.00  0.00    -0.014 A 
BRANCH  36  37
ATOM     37  C   UNL     1      -0.353   6.616  -4.164  1.00  0.00     0.031 A 
ATOM     38  C   UNL     1       0.213   7.995  -3.989  1.00  0.00     0.074 A 
ATOM     39  C   UNL     1      -0.526   6.103  -5.393  1.00  0.00     0.049 A 
ATOM     40  N   UNL     1       0.453   8.916  -4.883  1.00  0.00    -0.248 NA
ATOM     41  C   UNL     1       0.526   8.393  -2.607  1.00  0.00     0.031 C 
ATOM     42  C   UNL     1      -1.024   4.763  -5.689  1.00  0.00     0.029 A 
ATOM     43  N   UNL     1      -0.346   6.680  -6.627  1.00  0.00    -0.354 N 
ATOM     44  C   UNL     1       0.908  10.019  -4.170  1.00  0.00     0.074 A 
ATOM     45  C   UNL     1       0.899   9.652  -2.771  1.00  0.00     0.031 C 
ATOM     46  C   UNL     1      -1.159   4.636  -7.021  1.00  0.00     0.029 A 
ATOM     47  C   UNL     1      -0.805   5.902  -7.663  1.00  0.00     0.049 A 
ATOM     48  H   UNL     1       0.071   7.563  -6.756  1.00  0.00     0.167 HD
ATOM     49  C   UNL     1       1.288  11.230  -4.642  1.00  0.00     0.037 A 
ATOM     50  C   UNL     1      -0.974   6.198  -8.969  1.00  0.00     0.037 A 
ATOM     51  C   UNL     1       1.278  11.583  -6.037  1.00  0.00     0.049 A 
ATOM     52  C   UNL     1      -0.600   7.567  -9.476  1.00  0.00     0.074 A 
ATOM     53  C   UNL     1       1.674  12.770  -6.626  1.00  0.00     0.029 A 
ATOM     54  N   UNL     1       0.831  10.758  -7.060  1.00  0.00    -0.354 N 
ATOM     55  N   UNL     1      -0.146   8.600  -8.804  1.00  0.00    -0.248 NA
ATOM     56  C   UNL     1      -0.760   7.816 -10.916  1.00  0.00     0.031 C 
ATOM     57  C   UNL     1       1.405  12.688  -7.995  1.00  0.00     0.029 A 
ATOM     58  C   UNL     1       0.911  11.422  -8.273  1.00  0.00     0.049 A 
ATOM     59  H   UNL     1       0.504   9.837  -6.941  1.00  0.00     0.167 HD
ATOM     60  C   UNL     1       0.064   9.607  -9.742  1.00  0.00     0.074 A 
ATOM     61  C   UNL     1      -0.317   9.062 -11.028  1.00  0.00     0.031 C 
ATOM     62  C   UNL     1       0.539  10.864  -9.553  1.00  0.00     0.037 A 
BRANCH  49  63
ATOM     63  C   UNL     1       1.679  12.272  -3.629  1.00  0.00     0.058 A 
ATOM     64  C   UNL     1       2.838  12.154  -2.844  1.00  0.00     0.135 A 
ATOM     65  C   UNL     1       0.866  13.399  -3.427  1.00  0.00     0.135 A 
ATOM     66  F   UNL     1       3.645  11.090  -2.983  1.00  0.00    -0.206 F 
ATOM     67  C   UNL     1       3.146  13.086  -1.858  1.00  0.00     0.059 A 
ATOM     68  C   UNL     1       1.174  14.362  -2.471  1.00  0.00     0.059 A 
ATOM     69  F   UNL     1      -0.253  13.565  -4.149  1.00  0.00    -0.206 F 
ATOM     70  C   UNL     1       2.302  14.183  -1.674  1.00  0.00     0.060 A 
BRANCH  70  71
ATOM     71  S   UNL     1       2.691  15.360  -0.362  1.00  0.00     0.124 S 
ATOM     72  O   UNL     1       2.353  14.588   0.830  1.00  0.00    -0.237 OA
ATOM     73  O   UNL     1       4.113  15.607  -0.575  1.00  0.00    -0.237 OA
ATOM     74  O   UNL     1       1.812  16.490  -0.647  1.00  0.00    -0.744 OA
ENDBRANCH  70  71
ENDBRANCH  49  63
BRANCH  50  75
ATOM     75  C   UNL     1      -1.555   5.171  -9.876  1.00  0.00     0.058 A 
ATOM     76  C   UNL     1      -0.766   4.516 -10.831  1.00  0.00     0.135 A 
ATOM     77  C   UNL     1      -2.901   4.783  -9.763  1.00  0.00     0.135 A 
ATOM     78  F   UNL     1       0.520   4.864 -10.992  1.00  0.00    -0.206 F 
ATOM     79  C   UNL     1      -1.284   3.503 -11.633  1.00  0.00     0.059 A 
ATOM     80  C   UNL     1      -3.435   3.756 -10.535  1.00  0.00     0.059 A 
ATOM     81  F   UNL     1      -3.698   5.378  -8.862  1.00  0.00    -0.206 F 
ATOM     82  C   UNL     1      -2.616   3.119 -11.466  1.00  0.00     0.060 A 
BRANCH  82  83
ATOM     83  S   UNL     1      -3.244   1.732 -12.439  1.00  0.00     0.124 S 
ATOM     84  O   UNL     1      -3.300   2.311 -13.777  1.00  0.00    -0.237 OA
ATOM     85  O   UNL     1      -2.214   0.721 -12.225  1.00  0.00    -0.237 OA
ATOM     86  O   UNL     1      -4.534   1.444 -11.821  1.00  0.00    -0.744 OA
ENDBRANCH  82  83
ENDBRANCH  50  75
BRANCH  62  87
ATOM     87  C   UNL     1       0.736  11.739 -10.763  1.00  0.00     0.058 A 
ATOM     88  C   UNL     1      -0.341  12.321 -11.448  1.00  0.00     0.135 A 
ATOM     89  C   UNL     1       2.036  12.084 -11.175  1.00  0.00     0.135 A 
ATOM     90  F   UNL     1      -1.603  12.023 -11.103  1.00  0.00    -0.206 F 
ATOM     91  C   UNL     1      -0.137  13.211 -12.501  1.00  0.00     0.059 A 
ATOM     92  C   UNL     1       2.263  12.992 -12.204  1.00  0.00     0.059 A 
ATOM     93  F   UNL     1       3.103  11.563 -10.549  1.00  0.00    -0.206 F 
ATOM     94  C   UNL     1       1.169  13.548 -12.864  1.00  0.00     0.060 A 
BRANCH  94  95
ATOM     95  S   UNL     1       1.418  14.757 -14.183  1.00  0.00     0.124 S 
ATOM     96  O   UNL     1       1.020  13.995 -15.362  1.00  0.00    -0.237 OA
ATOM     97  O   UNL     1       0.516  15.836 -13.790  1.00  0.00    -0.237 OA
ATOM     98  O   UNL     1       2.841  15.073 -14.091  1.00  0.00    -0.744 OA
ENDBRANCH  94  95
ENDBRANCH  62  87
ENDBRANCH  36  37
ENDBRANCH  29  31
ENDBRANCH  28  29
ENDBRANCH  27  28
ENDBRANCH  26  27
ENDBRANCH  25  26
ENDBRANCH  24  25
ENDBRANCH   1  24
TORSDOF 25
