REMARK SMILES O=C(OCCOCCOCCOC(=O)c1cn(-c2ccnc3ccc(Cl)cc23)cn1)c1ccc(-c2c3nc(c(-c4c(F)cc(S(=O)(=O)[O-])cc4F)c4ccc([nH]4)c(-c4c(F)cc(S(=O)(=O)[O-])cc4F)c4nc(c(-c5c(F)cc(S(=O)(=O)[O-])cc5F)c5ccc2[nH]5)C=C4)C=C3)cc1
REMARK SMILES IDX 7 1 6 2 5 3 4 4 3 5 2 6 1 7 31 8 32 9 96 10 33 11 95 12
REMARK SMILES IDX 34 13 35 14 36 15 89 16 37 17 94 18 88 19 90 20 38 21 93 22
REMARK SMILES IDX 87 23 86 24 39 26 73 27 52 28 72 29 53 30 56 31 71 32 91 33
REMARK SMILES IDX 54 34 55 35 70 37 92 38 57 39 40 40 41 41 50 42 42 43 43 44
REMARK SMILES IDX 49 45 51 46 44 47 45 48 46 49 47 50 48 51 74 52 75 53 84 54
REMARK SMILES IDX 76 55 77 56 83 57 85 58 78 59 79 60 80 61 81 62 82 63 58 64
REMARK SMILES IDX 59 65 68 66 60 67 61 68 67 69 69 70 62 71 63 72 64 73 65 74
REMARK SMILES IDX 66 75 8 76 9 77 10 78 11 79 12 80 13 81 14 82 15 83 16 84
REMARK SMILES IDX 30 85 17 86 29 87 18 88 19 89 28 90 20 91 22 92 27 93 21 94
REMARK SMILES IDX 23 95 25 96 24 97 26 98
REMARK H PARENT 90 25 56 36
REMARK Flexibility Score: inf
ROOT
ATOM      1  C   UNL     1       3.492  -0.913  -1.494  1.00  0.00     0.188 C 
ENDROOT
BRANCH   1   2
ATOM      2  O   UNL     1       4.786  -1.231  -1.001  1.00  0.00    -0.376 OA
BRANCH   2   3
ATOM      3  C   UNL     1       5.318  -0.276  -0.099  1.00  0.00     0.202 C 
BRANCH   3   4
ATOM      4  C   UNL     1       4.840  -0.513   1.335  1.00  0.00     0.261 C 
BRANCH   4   5
ATOM      5  O   UNL     1       3.435  -0.806   1.482  1.00  0.00    -0.460 OA
BRANCH   5   6
ATOM      6  C   UNL     1       2.329  -0.040   1.509  1.00  0.00     0.338 C 
ATOM      7  O   UNL     1       1.262  -0.564   1.830  1.00  0.00    -0.246 OA
BRANCH   6   8
ATOM      8  C   UNL     1       2.292   1.385   1.074  1.00  0.00     0.060 A 
ATOM      9  C   UNL     1       3.386   2.249   1.029  1.00  0.00     0.016 A 
ATOM     10  C   UNL     1       1.018   1.893   0.746  1.00  0.00     0.016 A 
ATOM     11  C   UNL     1       3.209   3.597   0.740  1.00  0.00     0.010 A 
ATOM     12  C   UNL     1       0.832   3.243   0.473  1.00  0.00     0.010 A 
ATOM     13  C   UNL     1       1.926   4.101   0.534  1.00  0.00    -0.014 A 
BRANCH  13  14
ATOM     14  C   UNL     1       1.772   5.550   0.537  1.00  0.00     0.031 A 
ATOM     15  C   UNL     1       2.258   6.311  -0.643  1.00  0.00     0.074 A 
ATOM     16  C   UNL     1       1.159   6.173   1.564  1.00  0.00     0.049 A 
ATOM     17  N   UNL     1       3.174   7.225  -0.690  1.00  0.00    -0.248 NA
ATOM     18  C   UNL     1       1.675   5.979  -1.950  1.00  0.00     0.031 C 
ATOM     19  C   UNL     1       0.390   5.557   2.651  1.00  0.00     0.029 A 
ATOM     20  N   UNL     1       1.003   7.507   1.788  1.00  0.00    -0.354 N 
ATOM     21  C   UNL     1       3.154   7.725  -1.991  1.00  0.00     0.074 A 
ATOM     22  C   UNL     1       2.300   6.845  -2.750  1.00  0.00     0.031 C 
ATOM     23  C   UNL     1      -0.333   6.510   3.275  1.00  0.00     0.029 A 
ATOM     24  C   UNL     1       0.019   7.806   2.719  1.00  0.00     0.049 A 
ATOM     25  H   UNL     1       1.538   8.196   1.332  1.00  0.00     0.167 HD
ATOM     26  C   UNL     1       3.691   8.932  -2.325  1.00  0.00     0.037 A 
ATOM     27  C   UNL     1      -0.536   9.019   2.950  1.00  0.00     0.037 A 
ATOM     28  C   UNL     1       4.585   9.432  -1.318  1.00  0.00     0.049 A 
ATOM     29  C   UNL     1       0.404  10.052   2.448  1.00  0.00     0.074 A 
ATOM     30  C   UNL     1       5.764   8.989  -0.753  1.00  0.00     0.029 A 
ATOM     31  N   UNL     1       4.150  10.456  -0.513  1.00  0.00    -0.354 N 
ATOM     32  N   UNL     1       1.569  10.309   2.977  1.00  0.00    -0.248 NA
ATOM     33  C   UNL     1       0.215  10.555   1.095  1.00  0.00     0.031 C 
ATOM     34  C   UNL     1       5.727   9.443   0.597  1.00  0.00     0.029 A 
ATOM     35  C   UNL     1       4.536  10.150   0.767  1.00  0.00     0.049 A 
ATOM     36  H   UNL     1       3.655  11.257  -0.799  1.00  0.00     0.167 HD
ATOM     37  C   UNL     1       2.386  10.637   1.905  1.00  0.00     0.074 A 
ATOM     38  C   UNL     1       1.473  10.884   0.795  1.00  0.00     0.031 C 
ATOM     39  C   UNL     1       3.732  10.410   1.942  1.00  0.00     0.037 A 
BRANCH  26  40
ATOM     40  C   UNL     1       3.178   9.811  -3.439  1.00  0.00     0.058 A 
ATOM     41  C   UNL     1       3.963  10.881  -3.916  1.00  0.00     0.135 A 
ATOM     42  C   UNL     1       1.829   9.805  -3.858  1.00  0.00     0.135 A 
ATOM     43  F   UNL     1       5.253  10.991  -3.563  1.00  0.00    -0.206 F 
ATOM     44  C   UNL     1       3.431  11.903  -4.704  1.00  0.00     0.059 A 
ATOM     45  C   UNL     1       1.292  10.784  -4.687  1.00  0.00     0.059 A 
ATOM     46  F   UNL     1       0.953   8.900  -3.402  1.00  0.00    -0.206 F 
ATOM     47  C   UNL     1       2.088  11.853  -5.068  1.00  0.00     0.060 A 
BRANCH  47  48
ATOM     48  S   UNL     1       1.363  13.229  -5.979  1.00  0.00     0.124 S 
ATOM     49  O   UNL     1       1.273  14.247  -4.939  1.00  0.00    -0.237 OA
ATOM     50  O   UNL     1       2.357  13.465  -7.021  1.00  0.00    -0.237 OA
ATOM     51  O   UNL     1       0.092  12.685  -6.447  1.00  0.00    -0.744 OA
ENDBRANCH  47  48
ENDBRANCH  26  40
BRANCH  27  52
ATOM     52  C   UNL     1      -1.960   9.297   3.269  1.00  0.00     0.058 A 
ATOM     53  C   UNL     1      -2.368  10.553   3.745  1.00  0.00     0.135 A 
ATOM     54  C   UNL     1      -2.989   8.417   2.871  1.00  0.00     0.135 A 
ATOM     55  F   UNL     1      -1.455  11.464   4.114  1.00  0.00    -0.206 F 
ATOM     56  C   UNL     1      -3.715  10.929   3.790  1.00  0.00     0.059 A 
ATOM     57  C   UNL     1      -4.337   8.761   2.926  1.00  0.00     0.059 A 
ATOM     58  F   UNL     1      -2.714   7.224   2.324  1.00  0.00    -0.206 F 
ATOM     59  C   UNL     1      -4.692  10.029   3.362  1.00  0.00     0.060 A 
BRANCH  59  60
ATOM     60  S   UNL     1      -6.413  10.567   3.253  1.00  0.00     0.124 S 
ATOM     61  O   UNL     1      -6.780  10.690   4.659  1.00  0.00    -0.237 OA
ATOM     62  O   UNL     1      -6.296  11.818   2.511  1.00  0.00    -0.237 OA
ATOM     63  O   UNL     1      -7.063   9.477   2.530  1.00  0.00    -0.744 OA
ENDBRANCH  59  60
ENDBRANCH  27  52
BRANCH  39  64
ATOM     64  C   UNL     1       4.373  10.121   3.273  1.00  0.00     0.058 A 
ATOM     65  C   UNL     1       4.096   8.977   4.042  1.00  0.00     0.135 A 
ATOM     66  C   UNL     1       5.425  10.944   3.703  1.00  0.00     0.135 A 
ATOM     67  F   UNL     1       3.183   8.082   3.641  1.00  0.00    -0.206 F 
ATOM     68  C   UNL     1       4.808   8.687   5.207  1.00  0.00     0.059 A 
ATOM     69  C   UNL     1       6.169  10.657   4.845  1.00  0.00     0.059 A 
ATOM     70  F   UNL     1       5.782  12.016   2.974  1.00  0.00    -0.206 F 
ATOM     71  C   UNL     1       5.847   9.530   5.598  1.00  0.00     0.060 A 
BRANCH  71  72
ATOM     72  S   UNL     1       6.838   9.087   7.042  1.00  0.00     0.124 S 
ATOM     73  O   UNL     1       5.940   9.417   8.143  1.00  0.00    -0.237 OA
ATOM     74  O   UNL     1       7.088   7.663   6.832  1.00  0.00    -0.237 OA
ATOM     75  O   UNL     1       8.018   9.939   6.920  1.00  0.00    -0.744 OA
ENDBRANCH  71  72
ENDBRANCH  39  64
ENDBRANCH  13  14
ENDBRANCH   6   8
ENDBRANCH   5   6
ENDBRANCH   4   5
ENDBRANCH   3   4
ENDBRANCH   2   3
ENDBRANCH   1   2
BRANCH   1  76
ATOM     76  C   UNL     1       2.462  -2.065  -1.417  1.00  0.00     0.188 C 
BRANCH  76  77
ATOM     77  O   UNL     1       2.837  -3.369  -0.972  1.00  0.00    -0.376 OA
BRANCH  77  78
ATOM     78  C   UNL     1       4.109  -3.893  -1.325  1.00  0.00     0.202 C 
BRANCH  78  79
ATOM     79  C   UNL     1       4.420  -4.011  -2.819  1.00  0.00     0.261 C 
BRANCH  79  80
ATOM     80  O   UNL     1       4.137  -2.797  -3.520  1.00  0.00    -0.458 OA
BRANCH  80  81
ATOM     81  C   UNL     1       3.396  -2.904  -4.654  1.00  0.00     0.358 C 
ATOM     82  O   UNL     1       3.137  -3.952  -5.231  1.00  0.00    -0.244 OA
BRANCH  81  83
ATOM     83  C   UNL     1       2.986  -1.599  -5.163  1.00  0.00     0.166 A 
ATOM     84  C   UNL     1       3.225  -1.148  -6.439  1.00  0.00     0.129 A 
ATOM     85  N   UNL     1       2.282  -0.634  -4.458  1.00  0.00    -0.229 NA
ATOM     86  N   UNL     1       2.588   0.063  -6.545  1.00  0.00    -0.305 N 
ATOM     87  C   UNL     1       2.090   0.359  -5.302  1.00  0.00     0.205 A 
BRANCH  86  88
ATOM     88  C   UNL     1       2.469   0.820  -7.726  1.00  0.00     0.057 A 
ATOM     89  C   UNL     1       2.775   2.178  -7.682  1.00  0.00     0.047 A 
ATOM     90  C   UNL     1       2.110   0.180  -8.942  1.00  0.00     0.026 A 
ATOM     91  C   UNL     1       2.812   2.845  -8.888  1.00  0.00     0.114 A 
ATOM     92  C   UNL     1       2.191   0.969 -10.105  1.00  0.00     0.072 A 
ATOM     93  C   UNL     1       1.622  -1.152  -9.055  1.00  0.00     0.033 A 
ATOM     94  N   UNL     1       2.551   2.262 -10.080  1.00  0.00    -0.256 NA
ATOM     95  C   UNL     1       1.869   0.388 -11.327  1.00  0.00     0.030 A 
ATOM     96  C   UNL     1       1.295  -1.701 -10.287  1.00  0.00     0.041 A 
ATOM     97  C   UNL     1       1.430  -0.937 -11.432  1.00  0.00     0.023 A 
ATOM     98  Cl  UNL     1       0.715  -3.316 -10.380  1.00  0.00    -0.084 Cl
ENDBRANCH  86  88
ENDBRANCH  81  83
ENDBRANCH  80  81
ENDBRANCH  79  80
ENDBRANCH  78  79
ENDBRANCH  77  78
ENDBRANCH  76  77
ENDBRANCH   1  76
TORSDOF 21
