REMARK SMILES CC(C)[C@H](NC(N)=O)C(=O)N[C@H](C)C(=O)OCCOCCOCCOC(=O)c1ccc(-c2c3nc(c(-c4c(F)cc(S(=O)(=O)[O-])cc4F)c4ccc([nH]4)c(-c4c(F)cc(S(=O)(=O)[O-])cc4F)c4nc(c(-c5c(F)cc(S(=O)(=O)[O-])cc5F)c5ccc2[nH]5)C=C4)C=C3)cc1
REMARK SMILES IDX 20 1 19 2 18 3 17 4 16 5 14 6 15 7 12 8 13 9 11 10 9 11
REMARK SMILES IDX 10 12 4 14 2 15 1 16 3 17 5 18 6 19 7 21 8 22 21 25 22 26
REMARK SMILES IDX 23 27 24 28 25 29 26 30 27 31 28 32 29 33 93 34 30 35 92 36
REMARK SMILES IDX 31 37 32 38 33 39 86 40 34 41 91 42 85 43 87 44 35 45 90 46
REMARK SMILES IDX 84 47 83 48 36 50 70 51 49 52 69 53 50 54 53 55 68 56 88 57
REMARK SMILES IDX 51 58 52 59 67 61 89 62 54 63 37 64 38 65 47 66 39 67 40 68
REMARK SMILES IDX 46 69 48 70 41 71 42 72 43 73 44 74 45 75 71 76 72 77 81 78
REMARK SMILES IDX 73 79 74 80 80 81 82 82 75 83 76 84 77 85 78 86 79 87 55 88
REMARK SMILES IDX 56 89 65 90 57 91 58 92 64 93 66 94 59 95 60 96 61 97 62 98
REMARK SMILES IDX 63 99
REMARK H PARENT 11 13 5 20 7 23 7 24 87 49 53 60
REMARK Flexibility Score: inf
ROOT
ATOM      1  C   UNL     1      -3.807   3.764   1.745  1.00  0.00     0.188 C 
ENDROOT
BRANCH   1   2
ATOM      2  O   UNL     1      -4.169   5.045   2.233  1.00  0.00    -0.376 OA
BRANCH   2   3
ATOM      3  C   UNL     1      -3.065   5.902   2.466  1.00  0.00     0.202 C 
BRANCH   3   4
ATOM      4  C   UNL     1      -2.452   6.422   1.176  1.00  0.00     0.261 C 
BRANCH   4   5
ATOM      5  O   UNL     1      -1.716   5.503   0.332  1.00  0.00    -0.462 OA
BRANCH   5   6
ATOM      6  C   UNL     1      -0.704   4.739   0.825  1.00  0.00     0.328 C 
ATOM      7  O   UNL     1      -0.458   4.617   2.019  1.00  0.00    -0.250 OA
BRANCH   6   8
ATOM      8  C   UNL     1       0.197   4.165  -0.286  1.00  0.00     0.189 C 
ATOM      9  C   UNL     1      -0.459   3.816  -1.617  1.00  0.00     0.043 C 
BRANCH   8  10
ATOM     10  N   UNL     1       1.514   4.792  -0.454  1.00  0.00    -0.341 N 
ATOM     11  C   UNL     1       1.954   6.067  -0.641  1.00  0.00     0.243 C 
ATOM     12  O   UNL     1       3.145   6.188  -0.959  1.00  0.00    -0.273 OA
ATOM     13  H   UNL     1       2.250   4.139  -0.423  1.00  0.00     0.164 HD
BRANCH  11  14
ATOM     14  C   UNL     1       1.153   7.328  -0.227  1.00  0.00     0.175 C 
BRANCH  14  15
ATOM     15  C   UNL     1       1.036   7.420   1.329  1.00  0.00     0.015 C 
ATOM     16  C   UNL     1       2.273   6.961   2.108  1.00  0.00     0.010 C 
ATOM     17  C   UNL     1       0.593   8.796   1.833  1.00  0.00     0.010 C 
ENDBRANCH  14  15
BRANCH  14  18
ATOM     18  N   UNL     1      -0.169   7.360  -0.853  1.00  0.00    -0.326 N 
ATOM     19  C   UNL     1      -0.385   7.262  -2.191  1.00  0.00     0.312 C 
ATOM     20  H   UNL     1      -0.954   7.460  -0.266  1.00  0.00     0.166 HD
ATOM     21  N   UNL     1      -1.710   7.181  -2.482  1.00  0.00    -0.352 N 
ATOM     22  O   UNL     1       0.473   7.181  -3.053  1.00  0.00    -0.249 OA
ATOM     23  H   UNL     1      -2.377   7.251  -1.762  1.00  0.00     0.161 HD
ATOM     24  H   UNL     1      -2.002   7.053  -3.414  1.00  0.00     0.161 HD
ENDBRANCH  14  18
ENDBRANCH  11  14
ENDBRANCH   8  10
ENDBRANCH   6   8
ENDBRANCH   5   6
ENDBRANCH   4   5
ENDBRANCH   3   4
ENDBRANCH   2   3
ENDBRANCH   1   2
BRANCH   1  25
ATOM     25  C   UNL     1      -3.865   3.612   0.211  1.00  0.00     0.188 C 
BRANCH  25  26
ATOM     26  O   UNL     1      -4.556   4.545  -0.605  1.00  0.00    -0.376 OA
BRANCH  26  27
ATOM     27  C   UNL     1      -5.790   5.082  -0.157  1.00  0.00     0.202 C 
BRANCH  27  28
ATOM     28  C   UNL     1      -6.943   4.151   0.258  1.00  0.00     0.261 C 
BRANCH  28  29
ATOM     29  O   UNL     1      -6.565   3.005   1.032  1.00  0.00    -0.460 OA
BRANCH  29  30
ATOM     30  C   UNL     1      -6.475   1.834   0.350  1.00  0.00     0.338 C 
ATOM     31  O   UNL     1      -6.772   1.648  -0.819  1.00  0.00    -0.246 OA
BRANCH  30  32
ATOM     32  C   UNL     1      -5.695   0.864   1.161  1.00  0.00     0.060 A 
ATOM     33  C   UNL     1      -4.624   0.203   0.538  1.00  0.00     0.016 A 
ATOM     34  C   UNL     1      -5.946   0.659   2.521  1.00  0.00     0.016 A 
ATOM     35  C   UNL     1      -3.819  -0.675   1.259  1.00  0.00     0.010 A 
ATOM     36  C   UNL     1      -5.163  -0.254   3.238  1.00  0.00     0.010 A 
ATOM     37  C   UNL     1      -4.123  -0.953   2.597  1.00  0.00    -0.014 A 
BRANCH  37  38
ATOM     38  C   UNL     1      -3.567  -2.190   3.196  1.00  0.00     0.031 A 
ATOM     39  C   UNL     1      -4.361  -3.457   3.002  1.00  0.00     0.074 A 
ATOM     40  C   UNL     1      -2.381  -2.220   3.830  1.00  0.00     0.049 A 
ATOM     41  N   UNL     1      -4.089  -4.676   3.381  1.00  0.00    -0.248 NA
ATOM     42  C   UNL     1      -5.636  -3.322   2.274  1.00  0.00     0.031 C 
ATOM     43  C   UNL     1      -1.503  -1.073   4.051  1.00  0.00     0.029 A 
ATOM     44  N   UNL     1      -1.712  -3.272   4.405  1.00  0.00    -0.354 N 
ATOM     45  C   UNL     1      -5.153  -5.452   2.935  1.00  0.00     0.074 A 
ATOM     46  C   UNL     1      -6.091  -4.564   2.287  1.00  0.00     0.031 C 
ATOM     47  C   UNL     1      -0.414  -1.483   4.729  1.00  0.00     0.029 A 
ATOM     48  C   UNL     1      -0.525  -2.916   5.000  1.00  0.00     0.049 A 
ATOM     49  H   UNL     1      -2.051  -4.196   4.393  1.00  0.00     0.167 HD
ATOM     50  C   UNL     1      -5.332  -6.788   3.044  1.00  0.00     0.037 A 
ATOM     51  C   UNL     1       0.359  -3.664   5.692  1.00  0.00     0.037 A 
ATOM     52  C   UNL     1      -4.407  -7.671   3.697  1.00  0.00     0.049 A 
ATOM     53  C   UNL     1       0.110  -5.145   5.852  1.00  0.00     0.074 A 
ATOM     54  C   UNL     1      -4.492  -9.043   3.853  1.00  0.00     0.029 A 
ATOM     55  N   UNL     1      -3.232  -7.268   4.313  1.00  0.00    -0.354 N 
ATOM     56  N   UNL     1      -0.884  -5.871   5.396  1.00  0.00    -0.248 NA
ATOM     57  C   UNL     1       1.110  -5.910   6.612  1.00  0.00     0.031 C 
ATOM     58  C   UNL     1      -3.389  -9.463   4.604  1.00  0.00     0.029 A 
ATOM     59  C   UNL     1      -2.593  -8.361   4.871  1.00  0.00     0.049 A 
ATOM     60  H   UNL     1      -2.902  -6.341   4.348  1.00  0.00     0.167 HD
ATOM     61  C   UNL     1      -0.616  -7.179   5.793  1.00  0.00     0.074 A 
ATOM     62  C   UNL     1       0.641  -7.146   6.511  1.00  0.00     0.031 C 
ATOM     63  C   UNL     1      -1.341  -8.307   5.582  1.00  0.00     0.037 A 
BRANCH  50  64
ATOM     64  C   UNL     1      -6.594  -7.362   2.466  1.00  0.00     0.058 A 
ATOM     65  C   UNL     1      -6.788  -7.469   1.080  1.00  0.00     0.135 A 
ATOM     66  C   UNL     1      -7.617  -7.818   3.311  1.00  0.00     0.135 A 
ATOM     67  F   UNL     1      -5.853  -7.018   0.228  1.00  0.00    -0.206 F 
ATOM     68  C   UNL     1      -7.963  -7.992   0.551  1.00  0.00     0.059 A 
ATOM     69  C   UNL     1      -8.789  -8.368   2.804  1.00  0.00     0.059 A 
ATOM     70  F   UNL     1      -7.485  -7.723   4.644  1.00  0.00    -0.206 F 
ATOM     71  C   UNL     1      -8.957  -8.441   1.422  1.00  0.00     0.060 A 
BRANCH  71  72
ATOM     72  S   UNL     1     -10.471  -9.130   0.721  1.00  0.00     0.124 S 
ATOM     73  O   UNL     1     -11.136  -7.929   0.228  1.00  0.00    -0.237 OA
ATOM     74  O   UNL     1      -9.957 -10.036  -0.301  1.00  0.00    -0.237 OA
ATOM     75  O   UNL     1     -11.109  -9.777   1.863  1.00  0.00    -0.744 OA
ENDBRANCH  71  72
ENDBRANCH  50  64
BRANCH  51  76
ATOM     76  C   UNL     1       1.562  -3.033   6.302  1.00  0.00     0.058 A 
ATOM     77  C   UNL     1       2.852  -3.305   5.824  1.00  0.00     0.135 A 
ATOM     78  C   UNL     1       1.443  -2.164   7.398  1.00  0.00     0.135 A 
ATOM     79  F   UNL     1       3.021  -4.142   4.789  1.00  0.00    -0.206 F 
ATOM     80  C   UNL     1       3.983  -2.754   6.420  1.00  0.00     0.059 A 
ATOM     81  C   UNL     1       2.557  -1.581   7.995  1.00  0.00     0.059 A 
ATOM     82  F   UNL     1       0.231  -1.866   7.892  1.00  0.00    -0.206 F 
ATOM     83  C   UNL     1       3.825  -1.892   7.506  1.00  0.00     0.060 A 
BRANCH  83  84
ATOM     84  S   UNL     1       5.294  -1.147   8.248  1.00  0.00     0.124 S 
ATOM     85  O   UNL     1       5.855  -2.275   8.984  1.00  0.00    -0.237 OA
ATOM     86  O   UNL     1       6.045  -0.714   7.074  1.00  0.00    -0.237 OA
ATOM     87  O   UNL     1       4.746  -0.069   9.065  1.00  0.00    -0.744 OA
ENDBRANCH  83  84
ENDBRANCH  51  76
BRANCH  63  88
ATOM     88  C   UNL     1      -0.781  -9.600   6.108  1.00  0.00     0.058 A 
ATOM     89  C   UNL     1      -0.760  -9.892   7.481  1.00  0.00     0.135 A 
ATOM     90  C   UNL     1      -0.292 -10.575   5.223  1.00  0.00     0.135 A 
ATOM     91  F   UNL     1      -1.216  -8.995   8.370  1.00  0.00    -0.206 F 
ATOM     92  C   UNL     1      -0.239 -11.090   7.961  1.00  0.00     0.059 A 
ATOM     93  C   UNL     1       0.206 -11.792   5.679  1.00  0.00     0.059 A 
ATOM     94  F   UNL     1      -0.306 -10.355   3.899  1.00  0.00    -0.206 F 
ATOM     95  C   UNL     1       0.246 -12.032   7.051  1.00  0.00     0.060 A 
BRANCH  95  96
ATOM     96  S   UNL     1       0.916 -13.585   7.684  1.00  0.00     0.124 S 
ATOM     97  O   UNL     1       2.218 -13.158   8.186  1.00  0.00    -0.237 OA
ATOM     98  O   UNL     1      -0.064 -13.960   8.699  1.00  0.00    -0.237 OA
ATOM     99  O   UNL     1       0.948 -14.445   6.505  1.00  0.00    -0.744 OA
ENDBRANCH  95  96
ENDBRANCH  63  88
ENDBRANCH  37  38
ENDBRANCH  30  32
ENDBRANCH  29  30
ENDBRANCH  28  29
ENDBRANCH  27  28
ENDBRANCH  26  27
ENDBRANCH  25  26
ENDBRANCH   1  25
TORSDOF 24
