REMARK SMILES O=C(OCCOCCOCCOC(=O)[C@@]1(Cl)C=CC=C(c2ccccc2)[C@H]1Cl)c1ccc(-c2c3nc(c(-c4c(F)cc(S(=O)(=O)[O-])cc4F)c4ccc([nH]4)c(-c4c(F)cc(S(=O)(=O)[O-])cc4F)c4nc(c(-c5c(F)cc(S(=O)(=O)[O-])cc5F)c5ccc2[nH]5)C=C4)C=C3)cc1
REMARK SMILES IDX 7 1 6 2 5 3 4 4 3 5 2 6 1 7 29 8 30 9 94 10 31 11 93 12
REMARK SMILES IDX 32 13 33 14 34 15 87 16 35 17 92 18 86 19 88 20 36 21 91 22
REMARK SMILES IDX 85 23 84 24 37 26 71 27 50 28 70 29 51 30 54 31 69 32 89 33
REMARK SMILES IDX 52 34 53 35 68 37 90 38 55 39 38 40 39 41 48 42 40 43 41 44
REMARK SMILES IDX 47 45 49 46 42 47 43 48 44 49 45 50 46 51 72 52 73 53 82 54
REMARK SMILES IDX 74 55 75 56 81 57 83 58 76 59 77 60 78 61 79 62 80 63 56 64
REMARK SMILES IDX 57 65 66 66 58 67 59 68 65 69 67 70 60 71 61 72 62 73 63 74
REMARK SMILES IDX 64 75 8 76 9 77 10 78 11 79 12 80 13 81 14 82 15 83 16 84
REMARK SMILES IDX 17 85 27 86 18 87 20 88 28 89 19 90 21 91 22 92 26 93 23 94
REMARK SMILES IDX 25 95 24 96
REMARK H PARENT 88 25 54 36
REMARK Flexibility Score: inf
ROOT
ATOM      1  C   UNL     1       2.679  -0.164  -1.941  1.00  0.00     0.188 C 
ENDROOT
BRANCH   1   2
ATOM      2  O   UNL     1       3.970   0.267  -1.503  1.00  0.00    -0.376 OA
BRANCH   2   3
ATOM      3  C   UNL     1       4.830  -0.806  -1.116  1.00  0.00     0.202 C 
BRANCH   3   4
ATOM      4  C   UNL     1       4.445  -1.530   0.188  1.00  0.00     0.261 C 
BRANCH   4   5
ATOM      5  O   UNL     1       3.056  -1.410   0.550  1.00  0.00    -0.460 OA
BRANCH   5   6
ATOM      6  C   UNL     1       2.435  -0.475   1.314  1.00  0.00     0.338 C 
ATOM      7  O   UNL     1       1.243  -0.640   1.573  1.00  0.00    -0.246 OA
BRANCH   6   8
ATOM      8  C   UNL     1       3.104   0.748   1.858  1.00  0.00     0.060 A 
ATOM      9  C   UNL     1       4.322   1.253   1.411  1.00  0.00     0.016 A 
ATOM     10  C   UNL     1       2.433   1.464   2.868  1.00  0.00     0.016 A 
ATOM     11  C   UNL     1       4.914   2.359   1.997  1.00  0.00     0.010 A 
ATOM     12  C   UNL     1       3.005   2.604   3.449  1.00  0.00     0.010 A 
ATOM     13  C   UNL     1       4.277   3.018   3.042  1.00  0.00    -0.014 A 
BRANCH  13  14
ATOM     14  C   UNL     1       5.106   3.952   3.825  1.00  0.00     0.031 A 
ATOM     15  C   UNL     1       5.707   3.424   5.095  1.00  0.00     0.074 A 
ATOM     16  C   UNL     1       5.478   5.131   3.297  1.00  0.00     0.049 A 
ATOM     17  N   UNL     1       6.535   3.998   5.921  1.00  0.00    -0.248 NA
ATOM     18  C   UNL     1       5.346   2.043   5.470  1.00  0.00     0.031 C 
ATOM     19  C   UNL     1       5.048   5.641   1.993  1.00  0.00     0.029 A 
ATOM     20  N   UNL     1       6.336   6.090   3.760  1.00  0.00    -0.354 N 
ATOM     21  C   UNL     1       6.771   3.063   6.922  1.00  0.00     0.074 A 
ATOM     22  C   UNL     1       5.995   1.888   6.611  1.00  0.00     0.031 C 
ATOM     23  C   UNL     1       5.667   6.807   1.748  1.00  0.00     0.029 A 
ATOM     24  C   UNL     1       6.486   7.156   2.903  1.00  0.00     0.049 A 
ATOM     25  H   UNL     1       6.802   6.024   4.625  1.00  0.00     0.167 HD
ATOM     26  C   UNL     1       7.566   3.186   8.008  1.00  0.00     0.037 A 
ATOM     27  C   UNL     1       7.192   8.292   3.059  1.00  0.00     0.037 A 
ATOM     28  C   UNL     1       8.324   4.375   8.284  1.00  0.00     0.049 A 
ATOM     29  C   UNL     1       7.987   8.449   4.329  1.00  0.00     0.074 A 
ATOM     30  C   UNL     1       9.117   4.660   9.378  1.00  0.00     0.029 A 
ATOM     31  N   UNL     1       8.374   5.482   7.445  1.00  0.00    -0.354 N 
ATOM     32  N   UNL     1       8.147   7.589   5.310  1.00  0.00    -0.248 NA
ATOM     33  C   UNL     1       8.691   9.721   4.520  1.00  0.00     0.031 C 
ATOM     34  C   UNL     1       9.601   5.964   9.227  1.00  0.00     0.029 A 
ATOM     35  C   UNL     1       9.168   6.464   8.006  1.00  0.00     0.049 A 
ATOM     36  H   UNL     1       7.912   5.556   6.579  1.00  0.00     0.167 HD
ATOM     37  C   UNL     1       8.997   8.203   6.221  1.00  0.00     0.074 A 
ATOM     38  C   UNL     1       9.322   9.504   5.665  1.00  0.00     0.031 C 
ATOM     39  C   UNL     1       9.472   7.740   7.405  1.00  0.00     0.037 A 
BRANCH  26  40
ATOM     40  C   UNL     1       7.562   2.052   8.994  1.00  0.00     0.058 A 
ATOM     41  C   UNL     1       8.144   0.805   8.713  1.00  0.00     0.135 A 
ATOM     42  C   UNL     1       6.914   2.205  10.230  1.00  0.00     0.135 A 
ATOM     43  F   UNL     1       8.742   0.588   7.530  1.00  0.00    -0.206 F 
ATOM     44  C   UNL     1       8.057  -0.257   9.609  1.00  0.00     0.059 A 
ATOM     45  C   UNL     1       6.838   1.167  11.153  1.00  0.00     0.059 A 
ATOM     46  F   UNL     1       6.323   3.369  10.543  1.00  0.00    -0.206 F 
ATOM     47  C   UNL     1       7.399  -0.067  10.826  1.00  0.00     0.060 A 
BRANCH  47  48
ATOM     48  S   UNL     1       7.277  -1.454  11.975  1.00  0.00     0.124 S 
ATOM     49  O   UNL     1       6.313  -2.314  11.293  1.00  0.00    -0.237 OA
ATOM     50  O   UNL     1       8.652  -1.950  12.007  1.00  0.00    -0.237 OA
ATOM     51  O   UNL     1       6.808  -0.838  13.207  1.00  0.00    -0.744 OA
ENDBRANCH  47  48
ENDBRANCH  26  40
BRANCH  27  52
ATOM     52  C   UNL     1       7.148   9.361   2.022  1.00  0.00     0.058 A 
ATOM     53  C   UNL     1       8.291   9.738   1.302  1.00  0.00     0.135 A 
ATOM     54  C   UNL     1       5.950  10.037   1.732  1.00  0.00     0.135 A 
ATOM     55  F   UNL     1       9.464   9.131   1.540  1.00  0.00    -0.206 F 
ATOM     56  C   UNL     1       8.255  10.752   0.347  1.00  0.00     0.059 A 
ATOM     57  C   UNL     1       5.881  11.032   0.762  1.00  0.00     0.059 A 
ATOM     58  F   UNL     1       4.821   9.714   2.381  1.00  0.00    -0.206 F 
ATOM     59  C   UNL     1       7.043  11.392   0.083  1.00  0.00     0.060 A 
BRANCH  59  60
ATOM     60  S   UNL     1       6.995  12.680  -1.183  1.00  0.00     0.124 S 
ATOM     61  O   UNL     1       7.724  13.761  -0.530  1.00  0.00    -0.237 OA
ATOM     62  O   UNL     1       7.674  12.033  -2.301  1.00  0.00    -0.237 OA
ATOM     63  O   UNL     1       5.566  12.908  -1.375  1.00  0.00    -0.744 OA
ENDBRANCH  59  60
ENDBRANCH  27  52
BRANCH  39  64
ATOM     64  C   UNL     1      10.439   8.623   8.139  1.00  0.00     0.058 A 
ATOM     65  C   UNL     1      10.030   9.800   8.782  1.00  0.00     0.135 A 
ATOM     66  C   UNL     1      11.789   8.249   8.238  1.00  0.00     0.135 A 
ATOM     67  F   UNL     1       8.750  10.200   8.712  1.00  0.00    -0.206 F 
ATOM     68  C   UNL     1      10.935  10.598   9.470  1.00  0.00     0.059 A 
ATOM     69  C   UNL     1      12.704   9.012   8.951  1.00  0.00     0.059 A 
ATOM     70  F   UNL     1      12.224   7.121   7.653  1.00  0.00    -0.206 F 
ATOM     71  C   UNL     1      12.270  10.194   9.549  1.00  0.00     0.060 A 
BRANCH  71  72
ATOM     72  S   UNL     1      13.432  11.226  10.463  1.00  0.00     0.124 S 
ATOM     73  O   UNL     1      13.613  12.345   9.545  1.00  0.00    -0.237 OA
ATOM     74  O   UNL     1      12.693  11.521  11.686  1.00  0.00    -0.237 OA
ATOM     75  O   UNL     1      14.594  10.359  10.634  1.00  0.00    -0.744 OA
ENDBRANCH  71  72
ENDBRANCH  39  64
ENDBRANCH  13  14
ENDBRANCH   6   8
ENDBRANCH   5   6
ENDBRANCH   4   5
ENDBRANCH   3   4
ENDBRANCH   2   3
ENDBRANCH   1   2
BRANCH   1  76
ATOM     76  C   UNL     1       2.240   0.514  -3.233  1.00  0.00     0.188 C 
BRANCH  76  77
ATOM     77  O   UNL     1       3.006   0.235  -4.401  1.00  0.00    -0.376 OA
BRANCH  77  78
ATOM     78  C   UNL     1       4.368   0.656  -4.387  1.00  0.00     0.202 C 
BRANCH  78  79
ATOM     79  C   UNL     1       4.656   2.168  -4.336  1.00  0.00     0.261 C 
BRANCH  79  80
ATOM     80  O   UNL     1       4.051   2.850  -3.224  1.00  0.00    -0.462 OA
BRANCH  80  81
ATOM     81  C   UNL     1       3.256   3.933  -3.495  1.00  0.00     0.333 C 
ATOM     82  O   UNL     1       3.091   4.374  -4.630  1.00  0.00    -0.250 OA
BRANCH  81  83
ATOM     83  C   UNL     1       2.620   4.566  -2.233  1.00  0.00     0.180 C 
ATOM     84  Cl  UNL     1       3.053   3.617  -0.756  1.00  0.00    -0.100 Cl
ATOM     85  C   UNL     1       3.284   5.925  -2.082  1.00  0.00     0.009 C 
ATOM     86  C   UNL     1       1.058   4.648  -2.290  1.00  0.00     0.148 C 
ATOM     87  C   UNL     1       2.639   7.078  -2.312  1.00  0.00    -0.002 C 
ATOM     88  C   UNL     1       0.489   6.001  -2.694  1.00  0.00    -0.020 C 
ATOM     89  Cl  UNL     1       0.298   3.328  -3.263  1.00  0.00    -0.115 Cl
ATOM     90  C   UNL     1       1.250   7.109  -2.703  1.00  0.00     0.006 C 
BRANCH  88  91
ATOM     91  C   UNL     1      -0.955   6.083  -2.986  1.00  0.00    -0.021 A 
ATOM     92  C   UNL     1      -1.392   6.367  -4.285  1.00  0.00     0.008 A 
ATOM     93  C   UNL     1      -1.898   5.745  -2.005  1.00  0.00     0.008 A 
ATOM     94  C   UNL     1      -2.748   6.278  -4.606  1.00  0.00     0.001 A 
ATOM     95  C   UNL     1      -3.254   5.659  -2.327  1.00  0.00     0.001 A 
ATOM     96  C   UNL     1      -3.676   5.916  -3.630  1.00  0.00     0.000 A 
ENDBRANCH  88  91
ENDBRANCH  81  83
ENDBRANCH  80  81
ENDBRANCH  79  80
ENDBRANCH  78  79
ENDBRANCH  77  78
ENDBRANCH  76  77
ENDBRANCH   1  76
TORSDOF 21
