REMARK SMILES CN(C)C(=O)CSc1ccc(C(=O)OCCOCCOCCOC(=O)c2ccc(-c3c4nc(c(-c5c(F)cc(S(=O)(=O)[O-])cc5F)c5ccc([nH]5)c(-c5c(F)cc(S(=O)(=O)[O-])cc5F)c5nc(c(-c6c(F)cc(S(=O)(=O)[O-])cc6F)c6ccc3[nH]6)C=C5)C=C4)cc2)cc1
REMARK SMILES IDX 18 1 17 2 16 3 15 4 14 5 12 6 13 7 11 8 8 9 9 10 93 11 10 12
REMARK SMILES IDX 92 13 7 14 6 15 4 16 1 17 2 18 3 19 5 20 19 21 20 22 21 23
REMARK SMILES IDX 22 24 23 25 24 26 25 27 26 28 27 29 91 30 28 31 90 32 29 33
REMARK SMILES IDX 30 34 31 35 84 36 32 37 89 38 83 39 85 40 33 41 88 42 82 43
REMARK SMILES IDX 81 44 34 46 68 47 47 48 67 49 48 50 51 51 66 52 86 53 49 54
REMARK SMILES IDX 50 55 65 57 87 58 52 59 35 60 36 61 45 62 37 63 38 64 44 65
REMARK SMILES IDX 46 66 39 67 40 68 41 69 42 70 43 71 69 72 70 73 79 74 71 75
REMARK SMILES IDX 72 76 78 77 80 78 73 79 74 80 75 81 76 82 77 83 53 84 54 85
REMARK SMILES IDX 63 86 55 87 56 88 62 89 64 90 57 91 58 92 59 93 60 94 61 95
REMARK H PARENT 85 45 51 56
REMARK Flexibility Score: inf
ROOT
ATOM      1  C   UNL     1       8.181  -4.277  -1.308  1.00  0.00     0.188 C 
ENDROOT
BRANCH   1   2
ATOM      2  O   UNL     1       9.559  -4.029  -1.464  1.00  0.00    -0.376 OA
BRANCH   2   3
ATOM      3  C   UNL     1      10.039  -3.154  -2.468  1.00  0.00     0.202 C 
BRANCH   3   4
ATOM      4  C   UNL     1       9.207  -2.491  -3.583  1.00  0.00     0.261 C 
BRANCH   4   5
ATOM      5  O   UNL     1       7.790  -2.449  -3.430  1.00  0.00    -0.460 OA
BRANCH   5   6
ATOM      6  C   UNL     1       7.096  -3.297  -4.229  1.00  0.00     0.338 C 
ATOM      7  O   UNL     1       7.562  -4.082  -5.041  1.00  0.00    -0.246 OA
BRANCH   6   8
ATOM      8  C   UNL     1       5.667  -3.267  -3.862  1.00  0.00     0.060 A 
ATOM      9  C   UNL     1       2.930  -3.291  -3.206  1.00  0.00     0.008 A 
ATOM     10  C   UNL     1       3.635  -4.489  -3.396  1.00  0.00     0.016 A 
ATOM     11  C   UNL     1       3.631  -2.085  -3.303  1.00  0.00     0.016 A 
ATOM     12  C   UNL     1       4.990  -4.482  -3.736  1.00  0.00     0.017 A 
ATOM     13  C   UNL     1       4.995  -2.068  -3.622  1.00  0.00     0.017 A 
BRANCH   9  14
ATOM     14  S   UNL     1       1.196  -3.466  -2.826  1.00  0.00    -0.116 SA
BRANCH  14  15
ATOM     15  C   UNL     1       0.441  -1.851  -3.222  1.00  0.00     0.175 C 
BRANCH  15  16
ATOM     16  C   UNL     1       0.760  -0.764  -2.205  1.00  0.00     0.232 C 
ATOM     17  C   UNL     1       1.003  -0.020   0.087  1.00  0.00     0.146 C 
ATOM     18  N   UNL     1       0.416  -0.938  -0.872  1.00  0.00    -0.348 N 
ATOM     19  C   UNL     1      -0.375  -2.040  -0.345  1.00  0.00     0.146 C 
ATOM     20  O   UNL     1       1.307   0.278  -2.587  1.00  0.00    -0.274 OA
ENDBRANCH  15  16
ENDBRANCH  14  15
ENDBRANCH   9  14
ENDBRANCH   6   8
ENDBRANCH   5   6
ENDBRANCH   4   5
ENDBRANCH   3   4
ENDBRANCH   2   3
ENDBRANCH   1   2
BRANCH   1  21
ATOM     21  C   UNL     1       7.340  -3.192  -0.610  1.00  0.00     0.188 C 
BRANCH  21  22
ATOM     22  O   UNL     1       7.912  -1.931  -0.330  1.00  0.00    -0.376 OA
BRANCH  22  23
ATOM     23  C   UNL     1       9.034  -1.829   0.531  1.00  0.00     0.202 C 
BRANCH  23  24
ATOM     24  C   UNL     1       9.348  -2.796   1.691  1.00  0.00     0.261 C 
BRANCH  24  25
ATOM     25  O   UNL     1       8.923  -4.155   1.560  1.00  0.00    -0.460 OA
BRANCH  25  26
ATOM     26  C   UNL     1       7.875  -4.515   2.339  1.00  0.00     0.338 C 
ATOM     27  O   UNL     1       7.250  -3.804   3.113  1.00  0.00    -0.246 OA
BRANCH  26  28
ATOM     28  C   UNL     1       7.467  -5.887   1.990  1.00  0.00     0.060 A 
ATOM     29  C   UNL     1       6.226  -6.083   1.369  1.00  0.00     0.016 A 
ATOM     30  C   UNL     1       8.281  -6.974   2.309  1.00  0.00     0.016 A 
ATOM     31  C   UNL     1       5.789  -7.374   1.074  1.00  0.00     0.010 A 
ATOM     32  C   UNL     1       7.830  -8.268   2.035  1.00  0.00     0.010 A 
ATOM     33  C   UNL     1       6.572  -8.476   1.440  1.00  0.00    -0.014 A 
BRANCH  33  34
ATOM     34  C   UNL     1       6.008  -9.845   1.351  1.00  0.00     0.031 A 
ATOM     35  C   UNL     1       5.455 -10.478   2.599  1.00  0.00     0.074 A 
ATOM     36  C   UNL     1       5.977 -10.511   0.183  1.00  0.00     0.049 A 
ATOM     37  N   UNL     1       4.973 -11.680   2.776  1.00  0.00    -0.248 NA
ATOM     38  C   UNL     1       5.451  -9.642   3.810  1.00  0.00     0.031 C 
ATOM     39  C   UNL     1       6.443  -9.989  -1.100  1.00  0.00     0.029 A 
ATOM     40  N   UNL     1       5.542 -11.780  -0.107  1.00  0.00    -0.354 N 
ATOM     41  C   UNL     1       4.617 -11.750   4.118  1.00  0.00     0.074 A 
ATOM     42  C   UNL     1       4.966 -10.479   4.715  1.00  0.00     0.031 C 
ATOM     43  C   UNL     1       6.285 -10.938  -2.039  1.00  0.00     0.029 A 
ATOM     44  C   UNL     1       5.741 -12.145  -1.418  1.00  0.00     0.049 A 
ATOM     45  H   UNL     1       5.128 -12.374   0.560  1.00  0.00     0.167 HD
ATOM     46  C   UNL     1       4.045 -12.777   4.790  1.00  0.00     0.037 A 
ATOM     47  C   UNL     1       5.533 -13.325  -2.036  1.00  0.00     0.037 A 
ATOM     48  C   UNL     1       3.705 -14.042   4.190  1.00  0.00     0.049 A 
ATOM     49  C   UNL     1       4.967 -14.482  -1.250  1.00  0.00     0.074 A 
ATOM     50  C   UNL     1       3.105 -15.140   4.781  1.00  0.00     0.029 A 
ATOM     51  N   UNL     1       3.947 -14.384   2.867  1.00  0.00    -0.354 N 
ATOM     52  N   UNL     1       4.608 -14.528   0.012  1.00  0.00    -0.248 NA
ATOM     53  C   UNL     1       4.774 -15.748  -1.973  1.00  0.00     0.031 C 
ATOM     54  C   UNL     1       3.038 -16.165   3.833  1.00  0.00     0.029 A 
ATOM     55  C   UNL     1       3.537 -15.686   2.631  1.00  0.00     0.049 A 
ATOM     56  H   UNL     1       4.351 -13.789   2.195  1.00  0.00     0.167 HD
ATOM     57  C   UNL     1       4.122 -15.815   0.225  1.00  0.00     0.074 A 
ATOM     58  C   UNL     1       4.221 -16.512  -1.041  1.00  0.00     0.031 C 
ATOM     59  C   UNL     1       3.635 -16.368   1.364  1.00  0.00     0.037 A 
BRANCH  46  60
ATOM     60  C   UNL     1       3.780 -12.587   6.259  1.00  0.00     0.058 A 
ATOM     61  C   UNL     1       2.786 -11.712   6.727  1.00  0.00     0.135 A 
ATOM     62  C   UNL     1       4.512 -13.313   7.212  1.00  0.00     0.135 A 
ATOM     63  F   UNL     1       2.068 -10.979   5.861  1.00  0.00    -0.206 F 
ATOM     64  C   UNL     1       2.549 -11.541   8.087  1.00  0.00     0.059 A 
ATOM     65  C   UNL     1       4.271 -13.182   8.576  1.00  0.00     0.059 A 
ATOM     66  F   UNL     1       5.476 -14.162   6.821  1.00  0.00    -0.206 F 
ATOM     67  C   UNL     1       3.297 -12.282   9.004  1.00  0.00     0.060 A 
BRANCH  67  68
ATOM     68  S   UNL     1       2.974 -12.050  10.765  1.00  0.00     0.124 S 
ATOM     69  O   UNL     1       3.521 -10.715  10.988  1.00  0.00    -0.237 OA
ATOM     70  O   UNL     1       1.520 -12.157  10.831  1.00  0.00    -0.237 OA
ATOM     71  O   UNL     1       3.710 -13.142  11.394  1.00  0.00    -0.744 OA
ENDBRANCH  67  68
ENDBRANCH  46  60
BRANCH  47  72
ATOM     72  C   UNL     1       5.876 -13.482  -3.476  1.00  0.00     0.058 A 
ATOM     73  C   UNL     1       4.878 -13.665  -4.444  1.00  0.00     0.135 A 
ATOM     74  C   UNL     1       7.211 -13.458  -3.913  1.00  0.00     0.135 A 
ATOM     75  F   UNL     1       3.588 -13.711  -4.077  1.00  0.00    -0.206 F 
ATOM     76  C   UNL     1       5.188 -13.830  -5.790  1.00  0.00     0.059 A 
ATOM     77  C   UNL     1       7.545 -13.592  -5.257  1.00  0.00     0.059 A 
ATOM     78  F   UNL     1       8.205 -13.281  -3.028  1.00  0.00    -0.206 F 
ATOM     79  C   UNL     1       6.526 -13.787  -6.188  1.00  0.00     0.060 A 
BRANCH  79  80
ATOM     80  S   UNL     1       6.912 -13.953  -7.944  1.00  0.00     0.124 S 
ATOM     81  O   UNL     1       6.619 -15.362  -8.179  1.00  0.00    -0.237 OA
ATOM     82  O   UNL     1       5.988 -12.999  -8.550  1.00  0.00    -0.237 OA
ATOM     83  O   UNL     1       8.322 -13.581  -8.015  1.00  0.00    -0.744 OA
ENDBRANCH  79  80
ENDBRANCH  47  72
BRANCH  59  84
ATOM     84  C   UNL     1       3.133 -17.787   1.294  1.00  0.00     0.058 A 
ATOM     85  C   UNL     1       4.005 -18.878   1.152  1.00  0.00     0.135 A 
ATOM     86  C   UNL     1       1.761 -18.062   1.430  1.00  0.00     0.135 A 
ATOM     87  F   UNL     1       5.324 -18.674   1.013  1.00  0.00    -0.206 F 
ATOM     88  C   UNL     1       3.534 -20.187   1.123  1.00  0.00     0.059 A 
ATOM     89  C   UNL     1       1.271 -19.364   1.436  1.00  0.00     0.059 A 
ATOM     90  F   UNL     1       0.882 -17.058   1.581  1.00  0.00    -0.206 F 
ATOM     91  C   UNL     1       2.165 -20.421   1.269  1.00  0.00     0.060 A 
BRANCH  91  92
ATOM     92  S   UNL     1       1.572 -22.126   1.265  1.00  0.00     0.124 S 
ATOM     93  O   UNL     1       1.729 -22.489  -0.140  1.00  0.00    -0.237 OA
ATOM     94  O   UNL     1       2.489 -22.778   2.195  1.00  0.00    -0.237 OA
ATOM     95  O   UNL     1       0.193 -22.009   1.732  1.00  0.00    -0.744 OA
ENDBRANCH  91  92
ENDBRANCH  59  84
ENDBRANCH  33  34
ENDBRANCH  26  28
ENDBRANCH  25  26
ENDBRANCH  24  25
ENDBRANCH  23  24
ENDBRANCH  22  23
ENDBRANCH  21  22
ENDBRANCH   1  21
TORSDOF 23
