REMARK SMILES CS(=O)(=O)c1ccc(-c2cc(Cl)cc3c2O[C@H](C(F)(F)F)C(C(=O)OCCOCCOCCOC(=O)c2ccc(-c4c5nc(c(-c6c(F)cc(S(=O)(=O)[O-])cc6F)c6ccc([nH]6)c(-c6c(F)cc(S(=O)(=O)[O-])cc6F)c6nc(c(-c7c(F)cc(S(=O)(=O)[O-])cc7F)c7ccc4[nH]7)C=C6)C=C5)cc2)=C3)cc1
REMARK SMILES IDX 30 1 29 2 28 3 27 4 26 5 25 6 23 7 24 8 22 9 9 10 10 11
REMARK SMILES IDX 15 12 11 13 14 14 16 15 12 16 13 17 103 18 17 19 8 20 5 21
REMARK SMILES IDX 6 22 105 23 7 24 104 25 2 26 1 27 3 28 4 29 18 30 19 31
REMARK SMILES IDX 20 32 21 33 31 34 32 35 33 36 34 37 35 38 36 39 37 40 38 41
REMARK SMILES IDX 102 42 39 43 101 44 40 45 41 46 42 47 95 48 43 49 100 50
REMARK SMILES IDX 94 51 96 52 44 53 99 54 93 55 92 56 45 58 79 59 58 60 78 61
REMARK SMILES IDX 59 62 62 63 77 64 97 65 60 66 61 67 76 69 98 70 63 71 46 72
REMARK SMILES IDX 47 73 56 74 48 75 49 76 55 77 57 78 50 79 51 80 52 81 53 82
REMARK SMILES IDX 54 83 80 84 81 85 90 86 82 87 83 88 89 89 91 90 84 91 85 92
REMARK SMILES IDX 86 93 87 94 88 95 64 96 65 97 74 98 66 99 67 100 73 101
REMARK SMILES IDX 75 102 68 103 69 104 70 105 71 106 72 107
REMARK H PARENT 96 57 62 68
REMARK Flexibility Score: inf
ROOT
ATOM      1  C   UNL     1       1.387   0.570  12.200  1.00  0.00     0.188 C 
ENDROOT
BRANCH   1   2
ATOM      2  C   UNL     1       2.693   0.634  11.375  1.00  0.00     0.188 C 
BRANCH   2   3
ATOM      3  O   UNL     1       3.868   0.369  12.119  1.00  0.00    -0.376 OA
BRANCH   3   4
ATOM      4  C   UNL     1       4.619   1.506  12.536  1.00  0.00     0.202 C 
BRANCH   4   5
ATOM      5  C   UNL     1       3.837   2.594  13.289  1.00  0.00     0.261 C 
BRANCH   5   6
ATOM      6  O   UNL     1       2.841   3.239  12.450  1.00  0.00    -0.460 OA
BRANCH   6   7
ATOM      7  C   UNL     1       3.261   4.337  11.786  1.00  0.00     0.338 C 
ATOM      8  O   UNL     1       4.350   4.869  11.959  1.00  0.00    -0.246 OA
BRANCH   7   9
ATOM      9  C   UNL     1       2.306   4.777  10.730  1.00  0.00     0.087 C 
ATOM     10  C   UNL     1       1.672   2.805   7.138  1.00  0.00     0.026 A 
ATOM     11  C   UNL     1       2.837   2.018   7.003  1.00  0.00     0.033 A 
ATOM     12  C   UNL     1       1.710   3.724   8.199  1.00  0.00     0.135 A 
ATOM     13  C   UNL     1       4.013   2.256   7.714  1.00  0.00     0.042 A 
ATOM     14  C   UNL     1       2.962   4.128   8.713  1.00  0.00     0.019 A 
ATOM     15  O   UNL     1       0.608   4.127   8.961  1.00  0.00    -0.475 OA
ATOM     16  Cl  UNL     1       5.371   1.219   7.562  1.00  0.00    -0.084 Cl
ATOM     17  C   UNL     1       4.109   3.376   8.508  1.00  0.00     0.032 A 
ATOM     18  C   UNL     1       2.977   5.254   9.670  1.00  0.00     0.027 C 
ATOM     19  C   UNL     1       0.951   4.132  10.442  1.00  0.00     0.316 C 
BRANCH  10  20
ATOM     20  C   UNL     1       0.823   2.810   5.897  1.00  0.00    -0.015 A 
ATOM     21  C   UNL     1       0.037   2.544   3.144  1.00  0.00     0.067 A 
ATOM     22  C   UNL     1      -0.169   1.495   4.034  1.00  0.00     0.021 A 
ATOM     23  C   UNL     1       0.608   3.730   3.615  1.00  0.00     0.021 A 
ATOM     24  C   UNL     1       0.221   1.639   5.385  1.00  0.00     0.010 A 
ATOM     25  C   UNL     1       0.984   3.859   4.971  1.00  0.00     0.010 A 
BRANCH  21  26
ATOM     26  S   UNL     1      -0.543   2.438   1.454  1.00  0.00     0.175 S 
ATOM     27  C   UNL     1       0.117   0.966   0.726  1.00  0.00     0.163 C 
ATOM     28  O   UNL     1       0.019   3.569   0.737  1.00  0.00    -0.224 OA
ATOM     29  O   UNL     1      -1.984   2.284   1.551  1.00  0.00    -0.224 OA
ENDBRANCH  21  26
ENDBRANCH  10  20
BRANCH  19  30
ATOM     30  C   UNL     1      -0.100   4.847  11.302  1.00  0.00     0.430 C 
ATOM     31  F   UNL     1      -0.211   6.159  10.993  1.00  0.00    -0.167 F 
ATOM     32  F   UNL     1      -1.324   4.287  11.189  1.00  0.00    -0.167 F 
ATOM     33  F   UNL     1       0.235   4.781  12.618  1.00  0.00    -0.167 F 
ENDBRANCH  19  30
ENDBRANCH   7   9
ENDBRANCH   6   7
ENDBRANCH   5   6
ENDBRANCH   4   5
ENDBRANCH   3   4
ENDBRANCH   2   3
ENDBRANCH   1   2
BRANCH   1  34
ATOM     34  O   UNL     1       1.431   0.283  13.590  1.00  0.00    -0.376 OA
BRANCH  34  35
ATOM     35  C   UNL     1       2.217  -0.808  14.050  1.00  0.00     0.202 C 
BRANCH  35  36
ATOM     36  C   UNL     1       2.043  -2.195  13.412  1.00  0.00     0.261 C 
BRANCH  36  37
ATOM     37  O   UNL     1       2.188  -2.248  11.980  1.00  0.00    -0.460 OA
BRANCH  37  38
ATOM     38  C   UNL     1       1.067  -2.568  11.291  1.00  0.00     0.338 C 
ATOM     39  O   UNL     1      -0.045  -2.787  11.758  1.00  0.00    -0.246 OA
BRANCH  38  40
ATOM     40  C   UNL     1       1.297  -2.451   9.837  1.00  0.00     0.060 A 
ATOM     41  C   UNL     1       0.541  -1.518   9.125  1.00  0.00     0.016 A 
ATOM     42  C   UNL     1       2.164  -3.309   9.156  1.00  0.00     0.016 A 
ATOM     43  C   UNL     1       0.642  -1.455   7.734  1.00  0.00     0.010 A 
ATOM     44  C   UNL     1       2.259  -3.241   7.755  1.00  0.00     0.010 A 
ATOM     45  C   UNL     1       1.494  -2.317   7.027  1.00  0.00    -0.014 A 
BRANCH  45  46
ATOM     46  C   UNL     1       1.460  -2.348   5.533  1.00  0.00     0.031 A 
ATOM     47  C   UNL     1       0.378  -3.128   4.848  1.00  0.00     0.074 A 
ATOM     48  C   UNL     1       2.359  -1.685   4.779  1.00  0.00     0.049 A 
ATOM     49  N   UNL     1       0.146  -3.264   3.568  1.00  0.00    -0.248 NA
ATOM     50  C   UNL     1      -0.542  -3.873   5.718  1.00  0.00     0.031 C 
ATOM     51  C   UNL     1       3.458  -0.904   5.316  1.00  0.00     0.029 A 
ATOM     52  N   UNL     1       2.473  -1.512   3.417  1.00  0.00    -0.354 N 
ATOM     53  C   UNL     1      -0.897  -4.177   3.475  1.00  0.00     0.074 A 
ATOM     54  C   UNL     1      -1.286  -4.513   4.829  1.00  0.00     0.031 C 
ATOM     55  C   UNL     1       4.037  -0.207   4.322  1.00  0.00     0.029 A 
ATOM     56  C   UNL     1       3.433  -0.589   3.051  1.00  0.00     0.049 A 
ATOM     57  H   UNL     1       1.921  -2.001   2.764  1.00  0.00     0.167 HD
ATOM     58  C   UNL     1      -1.441  -4.723   2.362  1.00  0.00     0.037 A 
ATOM     59  C   UNL     1       3.788  -0.111   1.838  1.00  0.00     0.037 A 
ATOM     60  C   UNL     1      -1.038  -4.402   1.018  1.00  0.00     0.049 A 
ATOM     61  C   UNL     1       3.171  -0.741   0.612  1.00  0.00     0.074 A 
ATOM     62  C   UNL     1      -1.550  -4.896  -0.169  1.00  0.00     0.029 A 
ATOM     63  N   UNL     1      -0.015  -3.528   0.677  1.00  0.00    -0.354 N 
ATOM     64  N   UNL     1       2.185  -1.603   0.540  1.00  0.00    -0.248 NA
ATOM     65  C   UNL     1       3.720  -0.346  -0.693  1.00  0.00     0.031 C 
ATOM     66  C   UNL     1      -0.801  -4.365  -1.224  1.00  0.00     0.029 A 
ATOM     67  C   UNL     1       0.128  -3.479  -0.701  1.00  0.00     0.049 A 
ATOM     68  H   UNL     1       0.529  -3.018   1.319  1.00  0.00     0.167 HD
ATOM     69  C   UNL     1       1.978  -1.833  -0.818  1.00  0.00     0.074 A 
ATOM     70  C   UNL     1       2.929  -1.006  -1.530  1.00  0.00     0.031 C 
ATOM     71  C   UNL     1       1.071  -2.648  -1.413  1.00  0.00     0.037 A 
BRANCH  58  72
ATOM     72  C   UNL     1      -2.468  -5.803   2.562  1.00  0.00     0.058 A 
ATOM     73  C   UNL     1      -3.757  -5.536   3.048  1.00  0.00     0.135 A 
ATOM     74  C   UNL     1      -2.145  -7.136   2.256  1.00  0.00     0.135 A 
ATOM     75  F   UNL     1      -4.108  -4.284   3.381  1.00  0.00    -0.206 F 
ATOM     76  C   UNL     1      -4.679  -6.557   3.255  1.00  0.00     0.059 A 
ATOM     77  C   UNL     1      -3.060  -8.168   2.426  1.00  0.00     0.059 A 
ATOM     78  F   UNL     1      -0.922  -7.447   1.797  1.00  0.00    -0.206 F 
ATOM     79  C   UNL     1      -4.320  -7.870   2.942  1.00  0.00     0.060 A 
BRANCH  79  80
ATOM     80  S   UNL     1      -5.521  -9.186   3.228  1.00  0.00     0.124 S 
ATOM     81  O   UNL     1      -5.531  -9.258   4.686  1.00  0.00    -0.237 OA
ATOM     82  O   UNL     1      -6.727  -8.645   2.611  1.00  0.00    -0.237 OA
ATOM     83  O   UNL     1      -4.934 -10.337   2.548  1.00  0.00    -0.744 OA
ENDBRANCH  79  80
ENDBRANCH  58  72
BRANCH  59  84
ATOM     84  C   UNL     1       4.728   1.046   1.691  1.00  0.00     0.058 A 
ATOM     85  C   UNL     1       4.284   2.249   1.112  1.00  0.00     0.135 A 
ATOM     86  C   UNL     1       6.069   0.995   2.097  1.00  0.00     0.135 A 
ATOM     87  F   UNL     1       3.017   2.363   0.692  1.00  0.00    -0.206 F 
ATOM     88  C   UNL     1       5.126   3.341   0.925  1.00  0.00     0.059 A 
ATOM     89  C   UNL     1       6.923   2.088   1.959  1.00  0.00     0.059 A 
ATOM     90  F   UNL     1       6.560  -0.123   2.654  1.00  0.00    -0.206 F 
ATOM     91  C   UNL     1       6.447   3.252   1.358  1.00  0.00     0.060 A 
BRANCH  91  92
ATOM     92  S   UNL     1       7.524   4.688   1.151  1.00  0.00     0.124 S 
ATOM     93  O   UNL     1       7.751   4.679  -0.290  1.00  0.00    -0.237 OA
ATOM     94  O   UNL     1       6.691   5.772   1.661  1.00  0.00    -0.237 OA
ATOM     95  O   UNL     1       8.683   4.357   1.974  1.00  0.00    -0.744 OA
ENDBRANCH  91  92
ENDBRANCH  59  84
BRANCH  71  96
ATOM     96  C   UNL     1       1.014  -2.664  -2.920  1.00  0.00     0.058 A 
ATOM     97  C   UNL     1       2.033  -3.228  -3.703  1.00  0.00     0.135 A 
ATOM     98  C   UNL     1      -0.125  -2.177  -3.586  1.00  0.00     0.135 A 
ATOM     99  F   UNL     1       3.147  -3.703  -3.123  1.00  0.00    -0.206 F 
ATOM    100  C   UNL     1       1.933  -3.295  -5.090  1.00  0.00     0.059 A 
ATOM    101  C   UNL     1      -0.262  -2.265  -4.968  1.00  0.00     0.059 A 
ATOM    102  F   UNL     1      -1.133  -1.632  -2.886  1.00  0.00    -0.206 F 
ATOM    103  C   UNL     1       0.778  -2.819  -5.713  1.00  0.00     0.060 A 
BRANCH 103 104
ATOM    104  S   UNL     1       0.634  -2.973  -7.507  1.00  0.00     0.124 S 
ATOM    105  O   UNL     1       1.551  -1.935  -7.965  1.00  0.00    -0.237 OA
ATOM    106  O   UNL     1       1.066  -4.348  -7.737  1.00  0.00    -0.237 OA
ATOM    107  O   UNL     1      -0.782  -2.717  -7.757  1.00  0.00    -0.744 OA
ENDBRANCH 103 104
ENDBRANCH  71  96
ENDBRANCH  45  46
ENDBRANCH  38  40
ENDBRANCH  37  38
ENDBRANCH  36  37
ENDBRANCH  35  36
ENDBRANCH  34  35
ENDBRANCH   1  34
TORSDOF 23
