REMARK SMILES Cc1cc(=O)c(Oc2ccc(C(=O)OCCOCCOCCOC(=O)c3ccc(-c4c5nc(c(-c6c(F)cc(S(=O)(=O)[O-])cc6F)c6ccc([nH]6)c(-c6c(F)cc(S(=O)(=O)[O-])cc6F)c6nc(c(-c7c(F)cc(S(=O)(=O)[O-])cc7F)c7ccc4[nH]7)C=C6)C=C5)cc3)cc2)c(-c2ccc(S(C)(=O)=O)cc2)o1
REMARK SMILES IDX 18 1 17 2 16 3 15 4 14 5 12 6 13 7 11 8 8 9 9 10 93 11 10 12
REMARK SMILES IDX 92 13 7 14 6 15 1 16 2 17 3 18 105 19 4 20 94 21 5 22 95 23
REMARK SMILES IDX 96 24 104 25 97 26 103 27 98 28 99 29 100 30 101 31 102 32
REMARK SMILES IDX 19 33 20 34 21 35 22 36 23 37 24 38 25 39 26 40 27 41 91 42
REMARK SMILES IDX 28 43 90 44 29 45 30 46 31 47 84 48 32 49 89 50 83 51 85 52
REMARK SMILES IDX 33 53 88 54 82 55 81 56 34 58 68 59 47 60 67 61 48 62 51 63
REMARK SMILES IDX 66 64 86 65 49 66 50 67 65 69 87 70 52 71 35 72 36 73 45 74
REMARK SMILES IDX 37 75 38 76 44 77 46 78 39 79 40 80 41 81 42 82 43 83 69 84
REMARK SMILES IDX 70 85 79 86 71 87 72 88 78 89 80 90 73 91 74 92 75 93 76 94
REMARK SMILES IDX 77 95 53 96 54 97 63 98 55 99 56 100 62 101 64 102 57 103
REMARK SMILES IDX 58 104 59 105 60 106 61 107
REMARK H PARENT 85 57 51 68
REMARK Flexibility Score: inf
ROOT
ATOM      1  C   UNL     1       0.472   4.989   9.581  1.00  0.00     0.188 C 
ENDROOT
BRANCH   1   2
ATOM      2  O   UNL     1      -0.009   6.098  10.340  1.00  0.00    -0.376 OA
BRANCH   2   3
ATOM      3  C   UNL     1      -1.401   6.062  10.697  1.00  0.00     0.202 C 
BRANCH   3   4
ATOM      4  C   UNL     1      -1.929   4.777  11.353  1.00  0.00     0.261 C 
BRANCH   4   5
ATOM      5  O   UNL     1      -1.887   3.635  10.474  1.00  0.00    -0.460 OA
BRANCH   5   6
ATOM      6  C   UNL     1      -2.894   3.506   9.571  1.00  0.00     0.338 C 
ATOM      7  O   UNL     1      -3.925   4.154   9.561  1.00  0.00    -0.246 OA
BRANCH   6   8
ATOM      8  C   UNL     1      -2.521   2.483   8.543  1.00  0.00     0.060 A 
ATOM      9  C   UNL     1      -1.795   0.693   6.498  1.00  0.00     0.127 A 
ATOM     10  C   UNL     1      -3.013   1.367   6.437  1.00  0.00     0.048 A 
ATOM     11  C   UNL     1      -0.975   0.845   7.616  1.00  0.00     0.048 A 
ATOM     12  C   UNL     1      -3.362   2.286   7.438  1.00  0.00     0.019 A 
ATOM     13  C   UNL     1      -1.337   1.734   8.634  1.00  0.00     0.019 A 
BRANCH   9  14
ATOM     14  O   UNL     1      -1.469  -0.267   5.581  1.00  0.00    -0.449 OA
BRANCH  14  15
ATOM     15  C   UNL     1      -0.927  -0.015   4.327  1.00  0.00     0.217 A 
ATOM     16  C   UNL     1       0.705   0.234   0.324  1.00  0.00     0.088 C 
ATOM     17  C   UNL     1       0.173   0.037   1.708  1.00  0.00     0.105 A 
ATOM     18  C   UNL     1       0.056  -1.167   2.271  1.00  0.00     0.098 A 
ATOM     19  O   UNL     1      -0.200   1.198   2.355  1.00  0.00    -0.457 OA
ATOM     20  C   UNL     1      -0.478  -1.268   3.637  1.00  0.00     0.228 A 
ATOM     21  C   UNL     1      -0.745   1.139   3.632  1.00  0.00     0.180 A 
ATOM     22  O   UNL     1      -0.527  -2.370   4.178  1.00  0.00    -0.285 OA
BRANCH  21  23
ATOM     23  C   UNL     1      -1.084   2.484   4.110  1.00  0.00     0.021 A 
ATOM     24  C   UNL     1      -2.301   3.085   3.761  1.00  0.00     0.013 A 
ATOM     25  C   UNL     1      -0.221   3.141   4.987  1.00  0.00     0.013 A 
ATOM     26  C   UNL     1      -2.717   4.259   4.399  1.00  0.00     0.021 A 
ATOM     27  C   UNL     1      -0.628   4.327   5.599  1.00  0.00     0.021 A 
ATOM     28  C   UNL     1      -1.881   4.884   5.327  1.00  0.00     0.067 A 
BRANCH  28  29
ATOM     29  S   UNL     1      -2.541   6.097   6.458  1.00  0.00     0.175 S 
ATOM     30  C   UNL     1      -2.142   7.733   5.953  1.00  0.00     0.163 C 
ATOM     31  O   UNL     1      -3.981   5.962   6.419  1.00  0.00    -0.224 OA
ATOM     32  O   UNL     1      -1.806   5.881   7.685  1.00  0.00    -0.224 OA
ENDBRANCH  28  29
ENDBRANCH  21  23
ENDBRANCH  14  15
ENDBRANCH   9  14
ENDBRANCH   6   8
ENDBRANCH   5   6
ENDBRANCH   4   5
ENDBRANCH   3   4
ENDBRANCH   2   3
ENDBRANCH   1   2
BRANCH   1  33
ATOM     33  C   UNL     1       1.504   5.375   8.514  1.00  0.00     0.188 C 
BRANCH  33  34
ATOM     34  O   UNL     1       2.553   6.208   8.988  1.00  0.00    -0.376 OA
BRANCH  34  35
ATOM     35  C   UNL     1       2.323   7.588   8.665  1.00  0.00     0.202 C 
BRANCH  35  36
ATOM     36  C   UNL     1       2.845   7.956   7.262  1.00  0.00     0.261 C 
BRANCH  36  37
ATOM     37  O   UNL     1       1.809   7.946   6.244  1.00  0.00    -0.460 OA
BRANCH  37  38
ATOM     38  C   UNL     1       2.032   7.193   5.131  1.00  0.00     0.338 C 
ATOM     39  O   UNL     1       2.928   6.379   4.981  1.00  0.00    -0.246 OA
BRANCH  38  40
ATOM     40  C   UNL     1       0.952   7.413   4.121  1.00  0.00     0.060 A 
ATOM     41  C   UNL     1       0.346   8.659   3.923  1.00  0.00     0.016 A 
ATOM     42  C   UNL     1       0.512   6.327   3.355  1.00  0.00     0.016 A 
ATOM     43  C   UNL     1      -0.754   8.785   3.050  1.00  0.00     0.010 A 
ATOM     44  C   UNL     1      -0.606   6.446   2.510  1.00  0.00     0.010 A 
ATOM     45  C   UNL     1      -1.280   7.669   2.373  1.00  0.00    -0.014 A 
BRANCH  45  46
ATOM     46  C   UNL     1      -2.376   7.824   1.368  1.00  0.00     0.031 A 
ATOM     47  C   UNL     1      -3.849   7.637   1.660  1.00  0.00     0.074 A 
ATOM     48  C   UNL     1      -2.008   8.129   0.113  1.00  0.00     0.049 A 
ATOM     49  N   UNL     1      -4.894   7.864   0.901  1.00  0.00    -0.248 NA
ATOM     50  C   UNL     1      -4.202   7.122   2.978  1.00  0.00     0.031 C 
ATOM     51  C   UNL     1      -0.627   8.313  -0.331  1.00  0.00     0.029 A 
ATOM     52  N   UNL     1      -2.760   8.329  -1.012  1.00  0.00    -0.354 N 
ATOM     53  C   UNL     1      -6.018   7.564   1.675  1.00  0.00     0.074 A 
ATOM     54  C   UNL     1      -5.528   7.106   2.954  1.00  0.00     0.031 C 
ATOM     55  C   UNL     1      -0.628   8.595  -1.641  1.00  0.00     0.029 A 
ATOM     56  C   UNL     1      -2.007   8.604  -2.124  1.00  0.00     0.049 A 
ATOM     57  H   UNL     1      -3.743   8.279  -1.023  1.00  0.00     0.167 HD
ATOM     58  C   UNL     1      -7.333   7.648   1.354  1.00  0.00     0.037 A 
ATOM     59  C   UNL     1      -2.379   8.843  -3.393  1.00  0.00     0.037 A 
ATOM     60  C   UNL     1      -7.822   8.025   0.051  1.00  0.00     0.049 A 
ATOM     61  C   UNL     1      -3.833   8.894  -3.750  1.00  0.00     0.074 A 
ATOM     62  C   UNL     1      -9.133   8.184  -0.367  1.00  0.00     0.029 A 
ATOM     63  N   UNL     1      -7.021   8.263  -1.054  1.00  0.00    -0.354 N 
ATOM     64  N   UNL     1      -4.877   8.713  -2.979  1.00  0.00    -0.248 NA
ATOM     65  C   UNL     1      -4.157   9.201  -5.148  1.00  0.00     0.031 C 
ATOM     66  C   UNL     1      -9.126   8.459  -1.739  1.00  0.00     0.029 A 
ATOM     67  C   UNL     1      -7.809   8.528  -2.162  1.00  0.00     0.049 A 
ATOM     68  H   UNL     1      -6.037   8.245  -1.053  1.00  0.00     0.167 HD
ATOM     69  C   UNL     1      -5.986   8.899  -3.796  1.00  0.00     0.074 A 
ATOM     70  C   UNL     1      -5.483   9.221  -5.116  1.00  0.00     0.031 C 
ATOM     71  C   UNL     1      -7.302   8.817  -3.479  1.00  0.00     0.037 A 
BRANCH  58  72
ATOM     72  C   UNL     1      -8.365   7.334   2.411  1.00  0.00     0.058 A 
ATOM     73  C   UNL     1      -8.636   8.233   3.455  1.00  0.00     0.135 A 
ATOM     74  C   UNL     1      -9.189   6.199   2.302  1.00  0.00     0.135 A 
ATOM     75  F   UNL     1      -7.879   9.331   3.613  1.00  0.00    -0.206 F 
ATOM     76  C   UNL     1      -9.689   8.027   4.344  1.00  0.00     0.059 A 
ATOM     77  C   UNL     1     -10.260   5.982   3.167  1.00  0.00     0.059 A 
ATOM     78  F   UNL     1      -8.977   5.305   1.324  1.00  0.00    -0.206 F 
ATOM     79  C   UNL     1     -10.505   6.904   4.184  1.00  0.00     0.060 A 
BRANCH  79  80
ATOM     80  S   UNL     1     -11.914   6.695   5.298  1.00  0.00     0.124 S 
ATOM     81  O   UNL     1     -11.251   6.381   6.559  1.00  0.00    -0.237 OA
ATOM     82  O   UNL     1     -12.559   8.002   5.230  1.00  0.00    -0.237 OA
ATOM     83  O   UNL     1     -12.665   5.598   4.695  1.00  0.00    -0.744 OA
ENDBRANCH  79  80
ENDBRANCH  58  72
BRANCH  59  84
ATOM     84  C   UNL     1      -1.321   9.104  -4.395  1.00  0.00     0.058 A 
ATOM     85  C   UNL     1      -1.063  10.408  -4.835  1.00  0.00     0.135 A 
ATOM     86  C   UNL     1      -0.478   8.073  -4.838  1.00  0.00     0.135 A 
ATOM     87  F   UNL     1      -1.844  11.420  -4.427  1.00  0.00    -0.206 F 
ATOM     88  C   UNL     1       0.004  10.687  -5.677  1.00  0.00     0.059 A 
ATOM     89  C   UNL     1       0.609   8.330  -5.663  1.00  0.00     0.059 A 
ATOM     90  F   UNL     1      -0.675   6.814  -4.415  1.00  0.00    -0.206 F 
ATOM     91  C   UNL     1       0.842   9.642  -6.075  1.00  0.00     0.060 A 
BRANCH  91  92
ATOM     92  S   UNL     1       2.287  10.035  -7.081  1.00  0.00     0.124 S 
ATOM     93  O   UNL     1       1.675  10.318  -8.374  1.00  0.00    -0.237 OA
ATOM     94  O   UNL     1       2.848  11.182  -6.373  1.00  0.00    -0.237 OA
ATOM     95  O   UNL     1       3.085   8.814  -7.011  1.00  0.00    -0.744 OA
ENDBRANCH  91  92
ENDBRANCH  59  84
BRANCH  71  96
ATOM     96  C   UNL     1      -8.294   9.067  -4.579  1.00  0.00     0.058 A 
ATOM     97  C   UNL     1      -8.503   8.128  -5.601  1.00  0.00     0.135 A 
ATOM     98  C   UNL     1      -9.066  10.239  -4.593  1.00  0.00     0.135 A 
ATOM     99  F   UNL     1      -7.786   6.994  -5.634  1.00  0.00    -0.206 F 
ATOM    100  C   UNL     1      -9.423   8.357  -6.618  1.00  0.00     0.059 A 
ATOM    101  C   UNL     1     -10.011  10.477  -5.586  1.00  0.00     0.059 A 
ATOM    102  F   UNL     1      -8.912  11.163  -3.631  1.00  0.00    -0.206 F 
ATOM    103  C   UNL     1     -10.171   9.536  -6.603  1.00  0.00     0.060 A 
BRANCH 103 104
ATOM    104  S   UNL     1     -11.367   9.815  -7.926  1.00  0.00     0.124 S 
ATOM    105  O   UNL     1     -10.490  10.097  -9.058  1.00  0.00    -0.237 OA
ATOM    106  O   UNL     1     -12.077   8.541  -7.978  1.00  0.00    -0.237 OA
ATOM    107  O   UNL     1     -12.152  10.946  -7.444  1.00  0.00    -0.744 OA
ENDBRANCH 103 104
ENDBRANCH  71  96
ENDBRANCH  45  46
ENDBRANCH  38  40
ENDBRANCH  37  38
ENDBRANCH  36  37
ENDBRANCH  35  36
ENDBRANCH  34  35
ENDBRANCH  33  34
ENDBRANCH   1  33
TORSDOF 24
