REMARK SMILES CC(C)N1C[C@@H](C(=O)N2CCC(C(=O)OCCOCCOCCOC(=O)c3ccc(-c4c5nc(c(-c6c(F)cc(S(=O)(=O)[O-])cc6F)c6ccc([nH]6)c(-c6c(F)cc(S(=O)(=O)[O-])cc6F)c6nc(c(-c7c(F)cc(S(=O)(=O)[O-])cc7F)c7ccc4[nH]7)C=C6)C=C5)cc3)CC2)CC1=O
REMARK SMILES IDX 20 1 19 2 18 3 17 4 16 5 15 6 13 7 14 8 12 9 7 10 8 11 9 12
REMARK SMILES IDX 10 13 94 14 11 15 93 16 6 17 4 18 5 19 96 20 95 21 97 22
REMARK SMILES IDX 2 23 1 24 3 25 21 26 22 27 23 28 24 29 25 30 26 31 27 32
REMARK SMILES IDX 28 33 92 34 29 35 91 36 30 37 31 38 32 39 85 40 33 41 90 42
REMARK SMILES IDX 84 43 86 44 34 45 89 46 83 47 82 48 35 50 69 51 48 52 68 53
REMARK SMILES IDX 49 54 52 55 67 56 87 57 50 58 51 59 66 61 88 62 53 63 36 64
REMARK SMILES IDX 37 65 46 66 38 67 39 68 45 69 47 70 40 71 41 72 42 73 43 74
REMARK SMILES IDX 44 75 70 76 71 77 80 78 72 79 73 80 79 81 81 82 74 83 75 84
REMARK SMILES IDX 76 85 77 86 78 87 54 88 55 89 64 90 56 91 57 92 63 93 65 94
REMARK SMILES IDX 58 95 59 96 60 97 61 98 62 99
REMARK H PARENT 86 49 52 60
REMARK Flexibility Score: inf
ROOT
ATOM      1  C   UNL     1      -8.030  -4.572   3.846  1.00  0.00     0.188 C 
ENDROOT
BRANCH   1   2
ATOM      2  C   UNL     1      -8.153  -3.351   4.756  1.00  0.00     0.188 C 
BRANCH   2   3
ATOM      3  O   UNL     1      -9.476  -2.920   5.049  1.00  0.00    -0.376 OA
BRANCH   3   4
ATOM      4  C   UNL     1     -10.323  -2.616   3.943  1.00  0.00     0.202 C 
BRANCH   4   5
ATOM      5  C   UNL     1      -9.856  -1.510   2.984  1.00  0.00     0.261 C 
BRANCH   5   6
ATOM      6  O   UNL     1      -8.544  -1.709   2.413  1.00  0.00    -0.463 OA
BRANCH   6   7
ATOM      7  C   UNL     1      -7.596  -0.826   2.818  1.00  0.00     0.309 C 
ATOM      8  O   UNL     1      -7.804   0.113   3.581  1.00  0.00    -0.252 OA
BRANCH   7   9
ATOM      9  C   UNL     1      -6.197  -1.120   2.299  1.00  0.00     0.103 C 
ATOM     10  C   UNL     1      -4.183  -0.974  -1.183  1.00  0.00     0.227 C 
ATOM     11  O   UNL     1      -4.893  -1.697  -1.890  1.00  0.00    -0.274 OA
ATOM     12  N   UNL     1      -4.211  -1.093   0.196  1.00  0.00    -0.342 N 
ATOM     13  C   UNL     1      -4.608  -2.371   0.781  1.00  0.00     0.120 C 
ATOM     14  C   UNL     1      -4.276   0.021   1.128  1.00  0.00     0.120 C 
ATOM     15  C   UNL     1      -6.024  -2.322   1.359  1.00  0.00     0.037 C 
ATOM     16  C   UNL     1      -5.703   0.170   1.633  1.00  0.00     0.037 C 
BRANCH  10  17
ATOM     17  C   UNL     1      -3.100  -0.143  -1.864  1.00  0.00     0.107 C 
ATOM     18  N   UNL     1      -0.837   0.430  -1.648  1.00  0.00    -0.339 N 
ATOM     19  C   UNL     1      -1.735  -0.680  -1.459  1.00  0.00     0.133 C 
ATOM     20  C   UNL     1      -1.508   1.635  -1.766  1.00  0.00     0.223 C 
ATOM     21  C   UNL     1      -2.994   1.369  -1.724  1.00  0.00     0.115 C 
ATOM     22  O   UNL     1      -1.006   2.744  -1.859  1.00  0.00    -0.275 OA
BRANCH  18  23
ATOM     23  C   UNL     1       0.617   0.311  -1.528  1.00  0.00     0.078 C 
ATOM     24  C   UNL     1       1.025  -0.075  -0.107  1.00  0.00     0.031 C 
ATOM     25  C   UNL     1       1.188  -0.671  -2.549  1.00  0.00     0.031 C 
ENDBRANCH  18  23
ENDBRANCH  10  17
ENDBRANCH   7   9
ENDBRANCH   6   7
ENDBRANCH   5   6
ENDBRANCH   4   5
ENDBRANCH   3   4
ENDBRANCH   2   3
ENDBRANCH   1   2
BRANCH   1  26
ATOM     26  O   UNL     1      -8.895  -4.600   2.725  1.00  0.00    -0.376 OA
BRANCH  26  27
ATOM     27  C   UNL     1      -9.106  -5.859   2.085  1.00  0.00     0.202 C 
BRANCH  27  28
ATOM     28  C   UNL     1      -9.401  -7.108   2.954  1.00  0.00     0.261 C 
BRANCH  28  29
ATOM     29  O   UNL     1      -8.464  -7.437   4.005  1.00  0.00    -0.460 OA
BRANCH  29  30
ATOM     30  C   UNL     1      -7.145  -7.501   3.689  1.00  0.00     0.338 C 
ATOM     31  O   UNL     1      -6.687  -7.553   2.566  1.00  0.00    -0.246 OA
BRANCH  30  32
ATOM     32  C   UNL     1      -6.337  -7.199   4.915  1.00  0.00     0.060 A 
ATOM     33  C   UNL     1      -5.215  -6.368   4.769  1.00  0.00     0.016 A 
ATOM     34  C   UNL     1      -6.693  -7.644   6.192  1.00  0.00     0.016 A 
ATOM     35  C   UNL     1      -4.428  -6.020   5.875  1.00  0.00     0.010 A 
ATOM     36  C   UNL     1      -5.891  -7.312   7.298  1.00  0.00     0.010 A 
ATOM     37  C   UNL     1      -4.732  -6.528   7.144  1.00  0.00    -0.014 A 
BRANCH  37  38
ATOM     38  C   UNL     1      -3.732  -6.430   8.249  1.00  0.00     0.031 A 
ATOM     39  C   UNL     1      -2.856  -7.630   8.518  1.00  0.00     0.074 A 
ATOM     40  C   UNL     1      -3.564  -5.314   8.985  1.00  0.00     0.049 A 
ATOM     41  N   UNL     1      -1.969  -7.824   9.460  1.00  0.00    -0.248 NA
ATOM     42  C   UNL     1      -3.007  -8.766   7.593  1.00  0.00     0.031 C 
ATOM     43  C   UNL     1      -4.291  -4.059   8.806  1.00  0.00     0.029 A 
ATOM     44  N   UNL     1      -2.724  -5.064  10.047  1.00  0.00    -0.354 N 
ATOM     45  C   UNL     1      -1.460  -9.101   9.245  1.00  0.00     0.074 A 
ATOM     46  C   UNL     1      -2.164  -9.649   8.106  1.00  0.00     0.031 C 
ATOM     47  C   UNL     1      -3.879  -3.179   9.738  1.00  0.00     0.029 A 
ATOM     48  C   UNL     1      -2.885  -3.815  10.604  1.00  0.00     0.049 A 
ATOM     49  H   UNL     1      -2.068  -5.719  10.379  1.00  0.00     0.167 HD
ATOM     50  C   UNL     1      -0.487  -9.757   9.922  1.00  0.00     0.037 A 
ATOM     51  C   UNL     1      -2.321  -3.260  11.699  1.00  0.00     0.037 A 
ATOM     52  C   UNL     1       0.212  -9.222  11.061  1.00  0.00     0.049 A 
ATOM     53  C   UNL     1      -1.312  -4.050  12.503  1.00  0.00     0.074 A 
ATOM     54  C   UNL     1       1.207  -9.818  11.817  1.00  0.00     0.029 A 
ATOM     55  N   UNL     1      -0.010  -7.969  11.613  1.00  0.00    -0.354 N 
ATOM     56  N   UNL     1      -0.837  -5.254  12.284  1.00  0.00    -0.248 NA
ATOM     57  C   UNL     1      -0.760  -3.403  13.705  1.00  0.00     0.031 C 
ATOM     58  C   UNL     1       1.549  -8.949  12.857  1.00  0.00     0.029 A 
ATOM     59  C   UNL     1       0.814  -7.784  12.711  1.00  0.00     0.049 A 
ATOM     60  H   UNL     1      -0.657  -7.309  11.274  1.00  0.00     0.167 HD
ATOM     61  C   UNL     1       0.093  -5.489  13.295  1.00  0.00     0.074 A 
ATOM     62  C   UNL     1       0.122  -4.301  14.120  1.00  0.00     0.031 C 
ATOM     63  C   UNL     1       0.855  -6.589  13.518  1.00  0.00     0.037 A 
BRANCH  50  64
ATOM     64  C   UNL     1      -0.133 -11.145   9.459  1.00  0.00     0.058 A 
ATOM     65  C   UNL     1       0.541 -11.370   8.248  1.00  0.00     0.135 A 
ATOM     66  C   UNL     1      -0.438 -12.263  10.253  1.00  0.00     0.135 A 
ATOM     67  F   UNL     1       0.841 -10.340   7.439  1.00  0.00    -0.206 F 
ATOM     68  C   UNL     1       0.876 -12.653   7.828  1.00  0.00     0.059 A 
ATOM     69  C   UNL     1      -0.085 -13.553   9.869  1.00  0.00     0.059 A 
ATOM     70  F   UNL     1      -1.084 -12.107  11.420  1.00  0.00    -0.206 F 
ATOM     71  C   UNL     1       0.560 -13.738   8.647  1.00  0.00     0.060 A 
BRANCH  71  72
ATOM     72  S   UNL     1       1.009 -15.395   8.089  1.00  0.00     0.124 S 
ATOM     73  O   UNL     1       0.074 -15.592   6.985  1.00  0.00    -0.237 OA
ATOM     74  O   UNL     1       2.408 -15.227   7.712  1.00  0.00    -0.237 OA
ATOM     75  O   UNL     1       0.773 -16.227   9.265  1.00  0.00    -0.744 OA
ENDBRANCH  71  72
ENDBRANCH  50  64
BRANCH  51  76
ATOM     76  C   UNL     1      -2.705  -1.885  12.135  1.00  0.00     0.058 A 
ATOM     77  C   UNL     1      -1.778  -0.830  12.120  1.00  0.00     0.135 A 
ATOM     78  C   UNL     1      -3.992  -1.610  12.625  1.00  0.00     0.135 A 
ATOM     79  F   UNL     1      -0.528  -1.043  11.682  1.00  0.00    -0.206 F 
ATOM     80  C   UNL     1      -2.104   0.437  12.595  1.00  0.00     0.059 A 
ATOM     81  C   UNL     1      -4.351  -0.342  13.074  1.00  0.00     0.059 A 
ATOM     82  F   UNL     1      -4.919  -2.580  12.662  1.00  0.00    -0.206 F 
ATOM     83  C   UNL     1      -3.395   0.672  13.069  1.00  0.00     0.060 A 
BRANCH  83  84
ATOM     84  S   UNL     1      -3.816   2.328  13.655  1.00  0.00     0.124 S 
ATOM     85  O   UNL     1      -3.071   2.395  14.907  1.00  0.00    -0.237 OA
ATOM     86  O   UNL     1      -3.320   3.170  12.571  1.00  0.00    -0.237 OA
ATOM     87  O   UNL     1      -5.269   2.279  13.787  1.00  0.00    -0.744 OA
ENDBRANCH  83  84
ENDBRANCH  51  76
BRANCH  63  88
ATOM     88  C   UNL     1       1.834  -6.551  14.665  1.00  0.00     0.058 A 
ATOM     89  C   UNL     1       1.416  -6.587  16.004  1.00  0.00     0.135 A 
ATOM     90  C   UNL     1       3.217  -6.539  14.414  1.00  0.00     0.135 A 
ATOM     91  F   UNL     1       0.108  -6.597  16.304  1.00  0.00    -0.206 F 
ATOM     92  C   UNL     1       2.332  -6.585  17.054  1.00  0.00     0.059 A 
ATOM     93  C   UNL     1       4.150  -6.569  15.447  1.00  0.00     0.059 A 
ATOM     94  F   UNL     1       3.676  -6.518  13.153  1.00  0.00    -0.206 F 
ATOM     95  C   UNL     1       3.698  -6.580  16.765  1.00  0.00     0.060 A 
BRANCH  95  96
ATOM     96  S   UNL     1       4.874  -6.613  18.135  1.00  0.00     0.124 S 
ATOM     97  O   UNL     1       4.731  -5.267  18.679  1.00  0.00    -0.237 OA
ATOM     98  O   UNL     1       4.352  -7.693  18.967  1.00  0.00    -0.237 OA
ATOM     99  O   UNL     1       6.149  -6.894  17.483  1.00  0.00    -0.744 OA
ENDBRANCH  95  96
ENDBRANCH  63  88
ENDBRANCH  37  38
ENDBRANCH  30  32
ENDBRANCH  29  30
ENDBRANCH  28  29
ENDBRANCH  27  28
ENDBRANCH  26  27
ENDBRANCH   1  26
TORSDOF 22
