REMARK SMILES O=C(CNc1nc(-c2ccccc2)c(-c2ccccc2)s1)OCCOCCOCCOC(=O)c1ccc(-c2c3nc(c(-c4c(F)cc(S(=O)(=O)[O-])cc4F)c4ccc([nH]4)c(-c4c(F)cc(S(=O)(=O)[O-])cc4F)c4nc(c(-c5c(F)cc(S(=O)(=O)[O-])cc5F)c5ccc2[nH]5)C=C4)C=C3)cc1
REMARK SMILES IDX 26 1 25 2 24 3 23 4 22 5 2 6 1 7 3 8 4 9 5 11 6 12 21 13
REMARK SMILES IDX 7 14 14 15 8 16 9 17 13 18 10 19 12 20 11 21 15 22 16 23
REMARK SMILES IDX 20 24 17 25 19 26 18 27 27 28 28 29 29 30 30 31 31 32 32 33
REMARK SMILES IDX 33 34 34 35 35 36 99 37 36 38 98 39 37 40 38 41 39 42 92 43
REMARK SMILES IDX 40 44 97 45 91 46 93 47 41 48 96 49 90 50 89 51 42 53 76 54
REMARK SMILES IDX 55 55 75 56 56 57 59 58 74 59 94 60 57 61 58 62 73 64 95 65
REMARK SMILES IDX 60 66 43 67 44 68 53 69 45 70 46 71 52 72 54 73 47 74 48 75
REMARK SMILES IDX 49 76 50 77 51 78 77 79 78 80 87 81 79 82 80 83 86 84 88 85
REMARK SMILES IDX 81 86 82 87 83 88 84 89 85 90 61 91 62 92 71 93 63 94 64 95
REMARK SMILES IDX 70 96 72 97 65 98 66 99 67 100 68 101 69 102
REMARK H PARENT 4 10 93 52 59 63
REMARK Flexibility Score: inf
ROOT
ATOM      1  C   UNL     1       2.777  -1.813   0.362  1.00  0.00     0.188 C 
ENDROOT
BRANCH   1   2
ATOM      2  O   UNL     1       4.062  -1.521   0.883  1.00  0.00    -0.376 OA
BRANCH   2   3
ATOM      3  C   UNL     1       4.735  -0.423   0.297  1.00  0.00     0.202 C 
BRANCH   3   4
ATOM      4  C   UNL     1       4.279   0.878   0.949  1.00  0.00     0.261 C 
BRANCH   4   5
ATOM      5  O   UNL     1       2.924   1.292   0.656  1.00  0.00    -0.462 OA
BRANCH   5   6
ATOM      6  C   UNL     1       2.374   1.595  -0.542  1.00  0.00     0.325 C 
ATOM      7  O   UNL     1       1.180   1.891  -0.589  1.00  0.00    -0.250 OA
BRANCH   6   8
ATOM      8  C   UNL     1       3.220   1.548  -1.810  1.00  0.00     0.238 C 
BRANCH   8   9
ATOM      9  N   UNL     1       4.386   2.403  -1.707  1.00  0.00    -0.351 N 
ATOM     10  H   UNL     1       4.259   3.345  -1.453  1.00  0.00     0.163 HD
BRANCH   9  11
ATOM     11  C   UNL     1       5.635   1.963  -1.944  1.00  0.00     0.184 A 
ATOM     12  N   UNL     1       5.968   0.840  -2.536  1.00  0.00    -0.220 NA
ATOM     13  S   UNL     1       6.949   2.876  -1.317  1.00  0.00    -0.096 S 
ATOM     14  C   UNL     1       7.344   0.650  -2.466  1.00  0.00     0.091 A 
ATOM     15  C   UNL     1       8.029   1.619  -1.749  1.00  0.00     0.064 A 
BRANCH  14  16
ATOM     16  C   UNL     1       7.999  -0.473  -3.124  1.00  0.00     0.002 A 
ATOM     17  C   UNL     1       8.829  -1.352  -2.414  1.00  0.00     0.010 A 
ATOM     18  C   UNL     1       7.869  -0.630  -4.510  1.00  0.00     0.010 A 
ATOM     19  C   UNL     1       9.556  -2.339  -3.087  1.00  0.00     0.001 A 
ATOM     20  C   UNL     1       8.598  -1.616  -5.181  1.00  0.00     0.001 A 
ATOM     21  C   UNL     1       9.449  -2.462  -4.471  1.00  0.00     0.000 A 
ENDBRANCH  14  16
BRANCH  15  22
ATOM     22  C   UNL     1       9.434   1.756  -1.392  1.00  0.00    -0.006 A 
ATOM     23  C   UNL     1       9.840   1.603  -0.059  1.00  0.00     0.009 A 
ATOM     24  C   UNL     1      10.388   2.044  -2.373  1.00  0.00     0.009 A 
ATOM     25  C   UNL     1      11.182   1.755   0.290  1.00  0.00     0.001 A 
ATOM     26  C   UNL     1      11.728   2.200  -2.022  1.00  0.00     0.001 A 
ATOM     27  C   UNL     1      12.123   2.060  -0.691  1.00  0.00     0.000 A 
ENDBRANCH  15  22
ENDBRANCH   9  11
ENDBRANCH   8   9
ENDBRANCH   6   8
ENDBRANCH   5   6
ENDBRANCH   4   5
ENDBRANCH   3   4
ENDBRANCH   2   3
ENDBRANCH   1   2
BRANCH   1  28
ATOM     28  C   UNL     1       2.056  -2.874   1.207  1.00  0.00     0.188 C 
BRANCH  28  29
ATOM     29  O   UNL     1       2.744  -3.460   2.308  1.00  0.00    -0.376 OA
BRANCH  29  30
ATOM     30  C   UNL     1       4.051  -3.989   2.100  1.00  0.00     0.202 C 
BRANCH  30  31
ATOM     31  C   UNL     1       4.228  -5.070   1.031  1.00  0.00     0.261 C 
BRANCH  31  32
ATOM     32  O   UNL     1       3.881  -4.658  -0.305  1.00  0.00    -0.460 OA
BRANCH  32  33
ATOM     33  C   UNL     1       2.873  -5.368  -0.870  1.00  0.00     0.338 C 
ATOM     34  O   UNL     1       2.222  -6.260  -0.352  1.00  0.00    -0.246 OA
BRANCH  33  35
ATOM     35  C   UNL     1       2.555  -4.866  -2.218  1.00  0.00     0.060 A 
ATOM     36  C   UNL     1       1.300  -4.284  -2.434  1.00  0.00     0.016 A 
ATOM     37  C   UNL     1       3.400  -5.149  -3.293  1.00  0.00     0.016 A 
ATOM     38  C   UNL     1       0.865  -4.024  -3.735  1.00  0.00     0.010 A 
ATOM     39  C   UNL     1       2.956  -4.899  -4.598  1.00  0.00     0.010 A 
ATOM     40  C   UNL     1       1.672  -4.373  -4.827  1.00  0.00    -0.014 A 
BRANCH  40  41
ATOM     41  C   UNL     1       1.112  -4.341  -6.203  1.00  0.00     0.031 A 
ATOM     42  C   UNL     1       0.557  -5.609  -6.798  1.00  0.00     0.074 A 
ATOM     43  C   UNL     1       1.086  -3.200  -6.915  1.00  0.00     0.049 A 
ATOM     44  N   UNL     1       0.072  -5.821  -7.995  1.00  0.00    -0.248 NA
ATOM     45  C   UNL     1       0.549  -6.795  -5.926  1.00  0.00     0.031 C 
ATOM     46  C   UNL     1       1.556  -1.899  -6.443  1.00  0.00     0.029 A 
ATOM     47  N   UNL     1       0.655  -2.959  -8.196  1.00  0.00    -0.354 N 
ATOM     48  C   UNL     1      -0.294  -7.162  -8.023  1.00  0.00     0.074 A 
ATOM     49  C   UNL     1       0.045  -7.720  -6.731  1.00  0.00     0.031 C 
ATOM     50  C   UNL     1       1.403  -0.998  -7.429  1.00  0.00     0.029 A 
ATOM     51  C   UNL     1       0.853  -1.663  -8.609  1.00  0.00     0.049 A 
ATOM     52  H   UNL     1       0.243  -3.648  -8.765  1.00  0.00     0.167 HD
ATOM     53  C   UNL     1      -0.866  -7.865  -9.031  1.00  0.00     0.037 A 
ATOM     54  C   UNL     1       0.639  -1.087  -9.809  1.00  0.00     0.037 A 
ATOM     55  C   UNL     1      -1.200  -7.314 -10.318  1.00  0.00     0.049 A 
ATOM     56  C   UNL     1       0.065  -1.904 -10.938  1.00  0.00     0.074 A 
ATOM     57  C   UNL     1      -1.795  -7.946 -11.397  1.00  0.00     0.029 A 
ATOM     58  N   UNL     1      -0.962  -6.004 -10.706  1.00  0.00    -0.354 N 
ATOM     59  N   UNL     1      -0.294  -3.166 -10.945  1.00  0.00    -0.248 NA
ATOM     60  C   UNL     1      -0.131  -1.219 -12.225  1.00  0.00     0.031 C 
ATOM     61  C   UNL     1      -1.877  -7.029 -12.451  1.00  0.00     0.029 A 
ATOM     62  C   UNL     1      -1.376  -5.814 -12.014  1.00  0.00     0.049 A 
ATOM     63  H   UNL     1      -0.558  -5.311 -10.135  1.00  0.00     0.167 HD
ATOM     64  C   UNL     1      -0.782  -3.417 -12.224  1.00  0.00     0.074 A 
ATOM     65  C   UNL     1      -0.679  -2.176 -12.962  1.00  0.00     0.031 C 
ATOM     66  C   UNL     1      -1.275  -4.571 -12.738  1.00  0.00     0.037 A 
BRANCH  53  67
ATOM     67  C   UNL     1      -1.144  -9.322  -8.788  1.00  0.00     0.058 A 
ATOM     68  C   UNL     1      -2.193  -9.743  -7.956  1.00  0.00     0.135 A 
ATOM     69  C   UNL     1      -0.370 -10.309  -9.419  1.00  0.00     0.135 A 
ATOM     70  F   UNL     1      -2.953  -8.841  -7.317  1.00  0.00    -0.206 F 
ATOM     71  C   UNL     1      -2.449 -11.093  -7.738  1.00  0.00     0.059 A 
ATOM     72  C   UNL     1      -0.623 -11.665  -9.234  1.00  0.00     0.059 A 
ATOM     73  F   UNL     1       0.645  -9.959 -10.225  1.00  0.00    -0.206 F 
ATOM     74  C   UNL     1      -1.656 -12.047  -8.379  1.00  0.00     0.060 A 
BRANCH  74  75
ATOM     75  S   UNL     1      -1.997 -13.796  -8.085  1.00  0.00     0.124 S 
ATOM     76  O   UNL     1      -1.464 -13.973  -6.738  1.00  0.00    -0.237 OA
ATOM     77  O   UNL     1      -3.450 -13.856  -8.204  1.00  0.00    -0.237 OA
ATOM     78  O   UNL     1      -1.256 -14.469  -9.147  1.00  0.00    -0.744 OA
ENDBRANCH  74  75
ENDBRANCH  53  67
BRANCH  54  79
ATOM     79  C   UNL     1       0.985   0.344 -10.016  1.00  0.00     0.058 A 
ATOM     80  C   UNL     1      -0.013   1.316 -10.176  1.00  0.00     0.135 A 
ATOM     81  C   UNL     1       2.323   0.765 -10.063  1.00  0.00     0.135 A 
ATOM     82  F   UNL     1      -1.306   0.960 -10.153  1.00  0.00    -0.206 F 
ATOM     83  C   UNL     1       0.302   2.655 -10.388  1.00  0.00     0.059 A 
ATOM     84  C   UNL     1       2.663   2.101 -10.251  1.00  0.00     0.059 A 
ATOM     85  F   UNL     1       3.315  -0.126  -9.909  1.00  0.00    -0.206 F 
ATOM     86  C   UNL     1       1.644   3.038 -10.422  1.00  0.00     0.060 A 
BRANCH  86  87
ATOM     87  S   UNL     1       2.045   4.784 -10.649  1.00  0.00     0.124 S 
ATOM     88  O   UNL     1       1.778   4.965 -12.071  1.00  0.00    -0.237 OA
ATOM     89  O   UNL     1       1.111   5.436  -9.735  1.00  0.00    -0.237 OA
ATOM     90  O   UNL     1       3.449   4.859 -10.255  1.00  0.00    -0.744 OA
ENDBRANCH  86  87
ENDBRANCH  54  79
BRANCH  66  91
ATOM     91  C   UNL     1      -1.775  -4.546 -14.157  1.00  0.00     0.058 A 
ATOM     92  C   UNL     1      -0.894  -4.510 -15.249  1.00  0.00     0.135 A 
ATOM     93  C   UNL     1      -3.151  -4.619 -14.428  1.00  0.00     0.135 A 
ATOM     94  F   UNL     1       0.431  -4.435 -15.046  1.00  0.00    -0.206 F 
ATOM     95  C   UNL     1      -1.361  -4.529 -16.560  1.00  0.00     0.059 A 
ATOM     96  C   UNL     1      -3.639  -4.663 -15.730  1.00  0.00     0.059 A 
ATOM     97  F   UNL     1      -4.036  -4.666 -13.420  1.00  0.00    -0.206 F 
ATOM     98  C   UNL     1      -2.736  -4.607 -16.791  1.00  0.00     0.060 A 
BRANCH  98  99
ATOM     99  S   UNL     1      -3.328  -4.670 -18.496  1.00  0.00     0.124 S 
ATOM    100  O   UNL     1      -3.174  -3.280 -18.912  1.00  0.00    -0.237 OA
ATOM    101  O   UNL     1      -2.410  -5.622 -19.113  1.00  0.00    -0.237 OA
ATOM    102  O   UNL     1      -4.705  -5.136 -18.360  1.00  0.00    -0.744 OA
ENDBRANCH  98  99
ENDBRANCH  66  91
ENDBRANCH  40  41
ENDBRANCH  33  35
ENDBRANCH  32  33
ENDBRANCH  31  32
ENDBRANCH  30  31
ENDBRANCH  29  30
ENDBRANCH  28  29
ENDBRANCH   1  28
TORSDOF 24
