REMARK SMILES CCc1ccc(S(=O)(=O)c2nnn(-c3ccc(C(=O)OCCOCCOCCOC(=O)c4ccc(-c5c6nc(c(-c7c(F)cc(S(=O)(=O)[O-])cc7F)c7ccc([nH]7)c(-c7c(F)cc(S(=O)(=O)[O-])cc7F)c7nc(c(-c8c(F)cc(S(=O)(=O)[O-])cc8F)c8ccc5[nH]8)C=C7)C=C6)cc4)cc3)c2C)cc1
REMARK SMILES IDX 24 1 23 2 22 3 21 4 20 5 18 6 19 7 17 8 14 9 15 10 99 11
REMARK SMILES IDX 16 12 98 13 13 14 10 15 11 16 100 17 12 18 101 19 7 20 8 21
REMARK SMILES IDX 9 22 6 23 3 24 4 25 103 26 5 27 102 28 2 29 1 30 25 31 26 32
REMARK SMILES IDX 27 33 28 34 29 35 30 36 31 37 32 38 33 39 97 40 34 41 96 42
REMARK SMILES IDX 35 43 36 44 37 45 90 46 38 47 95 48 89 49 91 50 39 51 94 52
REMARK SMILES IDX 88 53 87 54 40 56 74 57 53 58 73 59 54 60 57 61 72 62 92 63
REMARK SMILES IDX 55 64 56 65 71 67 93 68 58 69 41 70 42 71 51 72 43 73 44 74
REMARK SMILES IDX 50 75 52 76 45 77 46 78 47 79 48 80 49 81 75 82 76 83 85 84
REMARK SMILES IDX 77 85 78 86 84 87 86 88 79 89 80 90 81 91 82 92 83 93 59 94
REMARK SMILES IDX 60 95 69 96 61 97 62 98 68 99 70 100 63 101 64 102 65 103
REMARK SMILES IDX 66 104 67 105
REMARK H PARENT 91 55 57 66
REMARK Flexibility Score: inf
ROOT
ATOM      1  C   UNL     1       9.599   5.934  -9.886  1.00  0.00     0.188 C 
ENDROOT
BRANCH   1   2
ATOM      2  O   UNL     1      10.655   6.777  -9.454  1.00  0.00    -0.376 OA
BRANCH   2   3
ATOM      3  C   UNL     1      11.558   6.345  -8.448  1.00  0.00     0.202 C 
BRANCH   3   4
ATOM      4  C   UNL     1      11.084   5.630  -7.168  1.00  0.00     0.261 C 
BRANCH   4   5
ATOM      5  O   UNL     1      10.073   4.634  -7.350  1.00  0.00    -0.460 OA
BRANCH   5   6
ATOM      6  C   UNL     1       8.841   4.952  -6.896  1.00  0.00     0.338 C 
ATOM      7  O   UNL     1       8.525   5.937  -6.250  1.00  0.00    -0.246 OA
BRANCH   6   8
ATOM      8  C   UNL     1       7.847   3.988  -7.417  1.00  0.00     0.060 A 
ATOM      9  C   UNL     1       5.813   2.242  -8.119  1.00  0.00     0.067 A 
ATOM     10  C   UNL     1       5.592   3.616  -8.236  1.00  0.00     0.029 A 
ATOM     11  C   UNL     1       7.089   1.741  -7.821  1.00  0.00     0.029 A 
ATOM     12  C   UNL     1       6.608   4.488  -7.849  1.00  0.00     0.018 A 
ATOM     13  C   UNL     1       8.114   2.618  -7.473  1.00  0.00     0.018 A 
BRANCH   9  14
ATOM     14  N   UNL     1       4.700   1.372  -8.095  1.00  0.00    -0.216 N 
ATOM     15  C   UNL     1       3.187  -0.071  -7.487  1.00  0.00     0.205 A 
ATOM     16  N   UNL     1       2.719   0.623  -8.569  1.00  0.00    -0.117 NA
ATOM     17  C   UNL     1       4.420   0.434  -7.111  1.00  0.00     0.081 A 
ATOM     18  N   UNL     1       3.611   1.557  -8.874  1.00  0.00    -0.061 NA
ATOM     19  C   UNL     1       5.228   0.239  -5.882  1.00  0.00     0.070 C 
BRANCH  15  20
ATOM     20  S   UNL     1       2.257  -1.278  -6.678  1.00  0.00     0.227 S 
ATOM     21  O   UNL     1       3.213  -2.334  -6.408  1.00  0.00    -0.217 OA
ATOM     22  O   UNL     1       1.071  -1.493  -7.485  1.00  0.00    -0.217 OA
BRANCH  20  23
ATOM     23  C   UNL     1       1.729  -0.635  -5.110  1.00  0.00     0.073 A 
ATOM     24  C   UNL     1       0.952   0.232  -2.555  1.00  0.00    -0.048 A 
ATOM     25  C   UNL     1       0.822  -1.115  -2.919  1.00  0.00     0.005 A 
ATOM     26  C   UNL     1       1.458   1.140  -3.498  1.00  0.00     0.005 A 
ATOM     27  C   UNL     1       1.221  -1.552  -4.184  1.00  0.00     0.021 A 
ATOM     28  C   UNL     1       1.839   0.715  -4.775  1.00  0.00     0.021 A 
BRANCH  24  29
ATOM     29  C   UNL     1       0.493   0.725  -1.202  1.00  0.00     0.032 C 
ATOM     30  C   UNL     1       1.046  -0.071  -0.026  1.00  0.00     0.009 C 
ENDBRANCH  24  29
ENDBRANCH  20  23
ENDBRANCH  15  20
ENDBRANCH   9  14
ENDBRANCH   6   8
ENDBRANCH   5   6
ENDBRANCH   4   5
ENDBRANCH   3   4
ENDBRANCH   2   3
ENDBRANCH   1   2
BRANCH   1  31
ATOM     31  C   UNL     1       9.850   4.457 -10.274  1.00  0.00     0.188 C 
BRANCH  31  32
ATOM     32  O   UNL     1      11.024   3.858  -9.770  1.00  0.00    -0.376 OA
BRANCH  32  33
ATOM     33  C   UNL     1      12.220   3.743 -10.528  1.00  0.00     0.202 C 
BRANCH  33  34
ATOM     34  C   UNL     1      12.582   4.566 -11.765  1.00  0.00     0.261 C 
BRANCH  34  35
ATOM     35  O   UNL     1      11.673   5.586 -12.108  1.00  0.00    -0.460 OA
BRANCH  35  36
ATOM     36  C   UNL     1      10.774   5.208 -13.041  1.00  0.00     0.338 C 
ATOM     37  O   UNL     1      10.598   4.081 -13.473  1.00  0.00    -0.246 OA
BRANCH  36  38
ATOM     38  C   UNL     1      10.023   6.386 -13.479  1.00  0.00     0.060 A 
ATOM     39  C   UNL     1       8.960   6.139 -14.348  1.00  0.00     0.016 A 
ATOM     40  C   UNL     1      10.581   7.661 -13.303  1.00  0.00     0.016 A 
ATOM     41  C   UNL     1       8.680   7.098 -15.286  1.00  0.00     0.010 A 
ATOM     42  C   UNL     1      10.302   8.618 -14.243  1.00  0.00     0.010 A 
ATOM     43  C   UNL     1       9.463   8.256 -15.292  1.00  0.00    -0.014 A 
BRANCH  43  44
ATOM     44  C   UNL     1       9.506   8.996 -16.529  1.00  0.00     0.031 A 
ATOM     45  C   UNL     1       8.328   9.840 -16.774  1.00  0.00     0.074 A 
ATOM     46  C   UNL     1      10.568   8.906 -17.351  1.00  0.00     0.049 A 
ATOM     47  N   UNL     1       7.398   9.667 -17.651  1.00  0.00    -0.248 NA
ATOM     48  C   UNL     1       8.076  10.922 -15.814  1.00  0.00     0.031 C 
ATOM     49  C   UNL     1      11.887   8.319 -17.088  1.00  0.00     0.029 A 
ATOM     50  N   UNL     1      10.711   9.430 -18.592  1.00  0.00    -0.354 N 
ATOM     51  C   UNL     1       6.541  10.746 -17.490  1.00  0.00     0.074 A 
ATOM     52  C   UNL     1       6.900  11.377 -16.244  1.00  0.00     0.031 C 
ATOM     53  C   UNL     1      12.753   8.736 -18.040  1.00  0.00     0.029 A 
ATOM     54  C   UNL     1      12.020   9.499 -19.036  1.00  0.00     0.049 A 
ATOM     55  H   UNL     1       9.947   9.736 -19.133  1.00  0.00     0.167 HD
ATOM     56  C   UNL     1       5.750  11.189 -18.501  1.00  0.00     0.037 A 
ATOM     57  C   UNL     1      12.454  10.242 -20.083  1.00  0.00     0.037 A 
ATOM     58  C   UNL     1       5.633  10.227 -19.564  1.00  0.00     0.049 A 
ATOM     59  C   UNL     1      11.269  10.514 -20.946  1.00  0.00     0.074 A 
ATOM     60  C   UNL     1       5.136   8.941 -19.652  1.00  0.00     0.029 A 
ATOM     61  N   UNL     1       6.414  10.403 -20.682  1.00  0.00    -0.354 N 
ATOM     62  N   UNL     1      10.619   9.588 -21.602  1.00  0.00    -0.248 NA
ATOM     63  C   UNL     1      10.518  11.740 -20.709  1.00  0.00     0.031 C 
ATOM     64  C   UNL     1       6.004   8.265 -20.558  1.00  0.00     0.029 A 
ATOM     65  C   UNL     1       6.960   9.183 -20.997  1.00  0.00     0.049 A 
ATOM     66  H   UNL     1       6.555  11.248 -21.168  1.00  0.00     0.167 HD
ATOM     67  C   UNL     1       9.279   9.941 -21.502  1.00  0.00     0.074 A 
ATOM     68  C   UNL     1       9.288  11.319 -21.016  1.00  0.00     0.031 C 
ATOM     69  C   UNL     1       8.286   9.002 -21.551  1.00  0.00     0.037 A 
BRANCH  56  70
ATOM     70  C   UNL     1       5.369  12.632 -18.657  1.00  0.00     0.058 A 
ATOM     71  C   UNL     1       4.287  12.987 -19.479  1.00  0.00     0.135 A 
ATOM     72  C   UNL     1       6.196  13.693 -18.221  1.00  0.00     0.135 A 
ATOM     73  F   UNL     1       3.461  12.046 -19.965  1.00  0.00    -0.206 F 
ATOM     74  C   UNL     1       4.067  14.305 -19.878  1.00  0.00     0.059 A 
ATOM     75  C   UNL     1       5.959  15.017 -18.555  1.00  0.00     0.059 A 
ATOM     76  F   UNL     1       7.326  13.476 -17.536  1.00  0.00    -0.206 F 
ATOM     77  C   UNL     1       4.918  15.309 -19.420  1.00  0.00     0.060 A 
BRANCH  77  78
ATOM     78  S   UNL     1       4.714  16.990 -20.030  1.00  0.00     0.124 S 
ATOM     79  O   UNL     1       5.158  16.850 -21.412  1.00  0.00    -0.237 OA
ATOM     80  O   UNL     1       3.285  17.213 -19.836  1.00  0.00    -0.237 OA
ATOM     81  O   UNL     1       5.588  17.772 -19.160  1.00  0.00    -0.744 OA
ENDBRANCH  77  78
ENDBRANCH  56  70
BRANCH  57  82
ATOM     82  C   UNL     1      13.690  11.071 -20.102  1.00  0.00     0.058 A 
ATOM     83  C   UNL     1      14.188  11.614 -21.297  1.00  0.00     0.135 A 
ATOM     84  C   UNL     1      14.265  11.562 -18.910  1.00  0.00     0.135 A 
ATOM     85  F   UNL     1      13.676  11.229 -22.476  1.00  0.00    -0.206 F 
ATOM     86  C   UNL     1      15.176  12.607 -21.309  1.00  0.00     0.059 A 
ATOM     87  C   UNL     1      15.258  12.538 -18.897  1.00  0.00     0.059 A 
ATOM     88  F   UNL     1      13.816  11.174 -17.707  1.00  0.00    -0.206 F 
ATOM     89  C   UNL     1      15.695  13.073 -20.101  1.00  0.00     0.060 A 
BRANCH  89  90
ATOM     90  S   UNL     1      16.856  14.458 -20.099  1.00  0.00     0.124 S 
ATOM     91  O   UNL     1      18.047  13.854 -20.687  1.00  0.00    -0.237 OA
ATOM     92  O   UNL     1      16.164  15.441 -20.926  1.00  0.00    -0.237 OA
ATOM     93  O   UNL     1      16.967  14.807 -18.685  1.00  0.00    -0.744 OA
ENDBRANCH  89  90
ENDBRANCH  57  82
BRANCH  69  94
ATOM     94  C   UNL     1       8.659   7.602 -21.972  1.00  0.00     0.058 A 
ATOM     95  C   UNL     1       9.499   6.757 -21.224  1.00  0.00     0.135 A 
ATOM     96  C   UNL     1       8.021   7.039 -23.087  1.00  0.00     0.135 A 
ATOM     97  F   UNL     1      10.058   7.181 -20.082  1.00  0.00    -0.206 F 
ATOM     98  C   UNL     1       9.733   5.431 -21.593  1.00  0.00     0.059 A 
ATOM     99  C   UNL     1       8.215   5.709 -23.457  1.00  0.00     0.059 A 
ATOM    100  F   UNL     1       7.152   7.770 -23.804  1.00  0.00    -0.206 F 
ATOM    101  C   UNL     1       9.085   4.914 -22.713  1.00  0.00     0.060 A 
BRANCH 101 102
ATOM    102  S   UNL     1       9.328   3.176 -23.143  1.00  0.00     0.124 S 
ATOM    103  O   UNL     1      10.691   3.177 -23.664  1.00  0.00    -0.237 OA
ATOM    104  O   UNL     1       9.139   2.501 -21.863  1.00  0.00    -0.237 OA
ATOM    105  O   UNL     1       8.283   2.920 -24.132  1.00  0.00    -0.744 OA
ENDBRANCH 101 102
ENDBRANCH  69  94
ENDBRANCH  43  44
ENDBRANCH  36  38
ENDBRANCH  35  36
ENDBRANCH  34  35
ENDBRANCH  33  34
ENDBRANCH  32  33
ENDBRANCH  31  32
ENDBRANCH   1  31
TORSDOF 24
