REMARK SMILES O=C(Cc1c(F)cc(Cl)cc1F)OCCOCCOCCOC(=O)c1ccc(-c2c3nc(c(-c4c(F)cc(S(=O)(=O)[O-])cc4F)c4ccc([nH]4)c(-c4c(F)cc(S(=O)(=O)[O-])cc4F)c4nc(c(-c5c(F)cc(S(=O)(=O)[O-])cc5F)c5ccc2[nH]5)C=C4)C=C3)cc1
REMARK SMILES IDX 18 1 17 2 16 3 15 4 14 5 13 6 2 7 1 8 3 9 4 10 5 11 11 12
REMARK SMILES IDX 6 13 7 14 10 15 12 16 8 17 9 18 19 19 20 20 21 21 22 22
REMARK SMILES IDX 23 23 24 24 25 25 26 26 90 27 27 28 89 29 28 30 29 31 30 32
REMARK SMILES IDX 83 33 31 34 88 35 82 36 84 37 32 38 87 39 81 40 80 41 33 43
REMARK SMILES IDX 67 44 46 45 66 46 47 47 50 48 65 49 85 50 48 51 49 52 64 54
REMARK SMILES IDX 86 55 51 56 34 57 35 58 44 59 36 60 37 61 43 62 45 63 38 64
REMARK SMILES IDX 39 65 40 66 41 67 42 68 68 69 69 70 78 71 70 72 71 73 77 74
REMARK SMILES IDX 79 75 72 76 73 77 74 78 75 79 76 80 52 81 53 82 62 83 54 84
REMARK SMILES IDX 55 85 61 86 63 87 56 88 57 89 58 90 59 91 60 92
REMARK H PARENT 84 42 50 53
REMARK Flexibility Score: inf
ROOT
ATOM      1  C   UNL     1       2.403   0.925  -2.579  1.00  0.00     0.188 C 
ENDROOT
BRANCH   1   2
ATOM      2  C   UNL     1       3.271   1.402  -1.405  1.00  0.00     0.188 C 
BRANCH   2   3
ATOM      3  O   UNL     1       4.581   0.869  -1.413  1.00  0.00    -0.376 OA
BRANCH   3   4
ATOM      4  C   UNL     1       5.022   0.264  -0.217  1.00  0.00     0.202 C 
BRANCH   4   5
ATOM      5  C   UNL     1       4.393  -1.107   0.003  1.00  0.00     0.261 C 
BRANCH   5   6
ATOM      6  O   UNL     1       2.953  -1.151   0.135  1.00  0.00    -0.463 OA
BRANCH   6   7
ATOM      7  C   UNL     1       2.128  -0.615   1.058  1.00  0.00     0.310 C 
ATOM      8  O   UNL     1       0.921  -0.844   0.970  1.00  0.00    -0.252 OA
BRANCH   7   9
ATOM      9  C   UNL     1       2.630   0.381   2.075  1.00  0.00     0.164 C 
BRANCH   9  10
ATOM     10  C   UNL     1       3.789  -0.002   2.943  1.00  0.00     0.035 A 
ATOM     11  C   UNL     1       4.689   0.980   3.371  1.00  0.00     0.131 A 
ATOM     12  C   UNL     1       3.972  -1.302   3.407  1.00  0.00     0.131 A 
ATOM     13  F   UNL     1       4.540   2.243   2.947  1.00  0.00    -0.207 F 
ATOM     14  C   UNL     1       5.767   0.675   4.191  1.00  0.00     0.060 A 
ATOM     15  C   UNL     1       5.050  -1.634   4.217  1.00  0.00     0.060 A 
ATOM     16  F   UNL     1       3.130  -2.271   3.028  1.00  0.00    -0.207 F 
ATOM     17  C   UNL     1       5.946  -0.641   4.605  1.00  0.00     0.046 A 
ATOM     18  Cl  UNL     1       7.296  -1.054   5.585  1.00  0.00    -0.084 Cl
ENDBRANCH   9  10
ENDBRANCH   7   9
ENDBRANCH   6   7
ENDBRANCH   5   6
ENDBRANCH   4   5
ENDBRANCH   3   4
ENDBRANCH   2   3
ENDBRANCH   1   2
BRANCH   1  19
ATOM     19  O   UNL     1       3.004   0.296  -3.704  1.00  0.00    -0.376 OA
BRANCH  19  20
ATOM     20  C   UNL     1       4.287   0.716  -4.142  1.00  0.00     0.202 C 
BRANCH  20  21
ATOM     21  C   UNL     1       4.481   2.184  -4.550  1.00  0.00     0.261 C 
BRANCH  21  22
ATOM     22  O   UNL     1       4.169   3.166  -3.543  1.00  0.00    -0.460 OA
BRANCH  22  23
ATOM     23  C   UNL     1       3.056   3.915  -3.766  1.00  0.00     0.338 C 
ATOM     24  O   UNL     1       2.299   3.834  -4.715  1.00  0.00    -0.246 OA
BRANCH  23  25
ATOM     25  C   UNL     1       2.782   4.785  -2.597  1.00  0.00     0.060 A 
ATOM     26  C   UNL     1       1.601   4.584  -1.868  1.00  0.00     0.016 A 
ATOM     27  C   UNL     1       3.644   5.828  -2.256  1.00  0.00     0.016 A 
ATOM     28  C   UNL     1       1.272   5.435  -0.808  1.00  0.00     0.010 A 
ATOM     29  C   UNL     1       3.301   6.694  -1.208  1.00  0.00     0.010 A 
ATOM     30  C   UNL     1       2.101   6.520  -0.494  1.00  0.00    -0.014 A 
BRANCH  30  31
ATOM     31  C   UNL     1       1.633   7.552   0.472  1.00  0.00     0.031 A 
ATOM     32  C   UNL     1       1.016   8.820  -0.055  1.00  0.00     0.074 A 
ATOM     33  C   UNL     1       1.730   7.364   1.802  1.00  0.00     0.049 A 
ATOM     34  N   UNL     1       0.518   9.836   0.602  1.00  0.00    -0.248 NA
ATOM     35  C   UNL     1       0.957   8.960  -1.518  1.00  0.00     0.031 C 
ATOM     36  C   UNL     1       2.288   6.177   2.445  1.00  0.00     0.029 A 
ATOM     37  N   UNL     1       1.363   8.175   2.850  1.00  0.00    -0.354 N 
ATOM     38  C   UNL     1       0.086  10.736  -0.366  1.00  0.00     0.074 A 
ATOM     39  C   UNL     1       0.420  10.163  -1.652  1.00  0.00     0.031 C 
ATOM     40  C   UNL     1       2.225   6.336   3.779  1.00  0.00     0.029 A 
ATOM     41  C   UNL     1       1.646   7.645   4.086  1.00  0.00     0.049 A 
ATOM     42  H   UNL     1       0.936   9.053   2.726  1.00  0.00     0.167 HD
ATOM     43  C   UNL     1      -0.545  11.924  -0.201  1.00  0.00     0.037 A 
ATOM     44  C   UNL     1       1.467   8.155   5.324  1.00  0.00     0.037 A 
ATOM     45  C   UNL     1      -0.868  12.496   1.080  1.00  0.00     0.049 A 
ATOM     46  C   UNL     1       0.823   9.507   5.493  1.00  0.00     0.074 A 
ATOM     47  C   UNL     1      -1.536  13.679   1.346  1.00  0.00     0.029 A 
ATOM     48  N   UNL     1      -0.529  11.944   2.307  1.00  0.00    -0.354 N 
ATOM     49  N   UNL     1       0.369  10.321   4.570  1.00  0.00    -0.248 NA
ATOM     50  C   UNL     1       0.662  10.011   6.866  1.00  0.00     0.031 C 
ATOM     51  C   UNL     1      -1.542  13.875   2.730  1.00  0.00     0.029 A 
ATOM     52  C   UNL     1      -0.940  12.781   3.332  1.00  0.00     0.049 A 
ATOM     53  H   UNL     1      -0.066  11.084   2.431  1.00  0.00     0.167 HD
ATOM     54  C   UNL     1      -0.154  11.419   5.249  1.00  0.00     0.074 A 
ATOM     55  C   UNL     1       0.041  11.167   6.661  1.00  0.00     0.031 C 
ATOM     56  C   UNL     1      -0.749  12.527   4.740  1.00  0.00     0.037 A 
BRANCH  43  57
ATOM     57  C   UNL     1      -0.903  12.698  -1.441  1.00  0.00     0.058 A 
ATOM     58  C   UNL     1      -1.896  12.255  -2.329  1.00  0.00     0.135 A 
ATOM     59  C   UNL     1      -0.256  13.909  -1.736  1.00  0.00     0.135 A 
ATOM     60  F   UNL     1      -2.542  11.100  -2.102  1.00  0.00    -0.206 F 
ATOM     61  C   UNL     1      -2.201  12.960  -3.490  1.00  0.00     0.059 A 
ATOM     62  C   UNL     1      -0.567  14.647  -2.874  1.00  0.00     0.059 A 
ATOM     63  F   UNL     1       0.698  14.383  -0.918  1.00  0.00    -0.206 F 
ATOM     64  C   UNL     1      -1.526  14.152  -3.756  1.00  0.00     0.060 A 
BRANCH  64  65
ATOM     65  S   UNL     1      -1.909  15.034  -5.283  1.00  0.00     0.124 S 
ATOM     66  O   UNL     1      -1.346  14.136  -6.286  1.00  0.00    -0.237 OA
ATOM     67  O   UNL     1      -3.366  15.106  -5.244  1.00  0.00    -0.237 OA
ATOM     68  O   UNL     1      -1.216  16.309  -5.125  1.00  0.00    -0.744 OA
ENDBRANCH  64  65
ENDBRANCH  43  57
BRANCH  44  69
ATOM     69  C   UNL     1       1.889   7.349   6.502  1.00  0.00     0.058 A 
ATOM     70  C   UNL     1       0.944   6.722   7.326  1.00  0.00     0.135 A 
ATOM     71  C   UNL     1       3.248   7.118   6.773  1.00  0.00     0.135 A 
ATOM     72  F   UNL     1      -0.366   6.928   7.120  1.00  0.00    -0.206 F 
ATOM     73  C   UNL     1       1.327   5.869   8.357  1.00  0.00     0.059 A 
ATOM     74  C   UNL     1       3.656   6.253   7.785  1.00  0.00     0.059 A 
ATOM     75  F   UNL     1       4.192   7.693   6.013  1.00  0.00    -0.206 F 
ATOM     76  C   UNL     1       2.686   5.624   8.564  1.00  0.00     0.060 A 
BRANCH  76  77
ATOM     77  S   UNL     1       3.163   4.407   9.811  1.00  0.00     0.124 S 
ATOM     78  O   UNL     1       2.774   5.077  11.046  1.00  0.00    -0.237 OA
ATOM     79  O   UNL     1       2.357   3.252   9.427  1.00  0.00    -0.237 OA
ATOM     80  O   UNL     1       4.600   4.254   9.600  1.00  0.00    -0.744 OA
ENDBRANCH  76  77
ENDBRANCH  44  69
BRANCH  56  81
ATOM     81  C   UNL     1      -1.264  13.573   5.694  1.00  0.00     0.058 A 
ATOM     82  C   UNL     1      -0.398  14.462   6.348  1.00  0.00     0.135 A 
ATOM     83  C   UNL     1      -2.647  13.790   5.826  1.00  0.00     0.135 A 
ATOM     84  F   UNL     1       0.931  14.297   6.263  1.00  0.00    -0.206 F 
ATOM     85  C   UNL     1      -0.884  15.539   7.086  1.00  0.00     0.059 A 
ATOM     86  C   UNL     1      -3.154  14.873   6.538  1.00  0.00     0.059 A 
ATOM     87  F   UNL     1      -3.519  12.973   5.214  1.00  0.00    -0.206 F 
ATOM     88  C   UNL     1      -2.263  15.747   7.159  1.00  0.00     0.060 A 
BRANCH  88  89
ATOM     89  S   UNL     1      -2.871  17.209   8.029  1.00  0.00     0.124 S 
ATOM     90  O   UNL     1      -2.535  16.891   9.413  1.00  0.00    -0.237 OA
ATOM     91  O   UNL     1      -2.089  18.279   7.418  1.00  0.00    -0.237 OA
ATOM     92  O   UNL     1      -4.297  17.225   7.719  1.00  0.00    -0.744 OA
ENDBRANCH  88  89
ENDBRANCH  56  81
ENDBRANCH  30  31
ENDBRANCH  23  25
ENDBRANCH  22  23
ENDBRANCH  21  22
ENDBRANCH  20  21
ENDBRANCH  19  20
ENDBRANCH   1  19
TORSDOF 21
