REMARK SMILES COc1ccc(NS(=O)(=O)c2ccc(NC(=O)[C@H]3CCCC[C@@H]3C(=O)OCCOCCOCCOC(=O)c3ccc(-c4c5nc(c(-c6c(F)cc(S(=O)(=O)[O-])cc6F)c6ccc([nH]6)c(-c6c(F)cc(S(=O)(=O)[O-])cc6F)c6nc(c(-c7c(F)cc(S(=O)(=O)[O-])cc7F)c7ccc4[nH]7)C=C6)C=C5)cc3)cc2)cc1
REMARK SMILES IDX 29 1 28 2 27 3 26 4 24 5 25 6 23 7 18 8 19 9 20 10 22 11
REMARK SMILES IDX 21 12 16 13 15 14 17 16 14 17 11 18 12 19 105 20 13 21
REMARK SMILES IDX 104 22 8 23 9 24 10 25 7 26 6 28 3 29 4 30 107 31 5 32
REMARK SMILES IDX 106 33 2 34 1 35 30 36 31 37 32 38 33 39 34 40 35 41 36 42
REMARK SMILES IDX 37 43 38 44 39 45 103 46 40 47 102 48 41 49 42 50 43 51
REMARK SMILES IDX 96 52 44 53 101 54 95 55 97 56 45 57 100 58 94 59 93 60
REMARK SMILES IDX 46 62 80 63 59 64 79 65 60 66 63 67 78 68 98 69 61 70 62 71
REMARK SMILES IDX 77 73 99 74 64 75 47 76 48 77 57 78 49 79 50 80 56 81 58 82
REMARK SMILES IDX 51 83 52 84 53 85 54 86 55 87 81 88 82 89 91 90 83 91 84 92
REMARK SMILES IDX 90 93 92 94 85 95 86 96 87 97 88 98 89 99 65 100 66 101
REMARK SMILES IDX 75 102 67 103 68 104 74 105 76 106 69 107 70 108 71 109
REMARK SMILES IDX 72 110 73 111
REMARK H PARENT 15 15 7 27 97 61 63 72
REMARK Flexibility Score: inf
ROOT
ATOM      1  O   UNL     1      -5.931   0.030   9.749  1.00  0.00    -0.376 OA
ENDROOT
BRANCH   1   2
ATOM      2  C   UNL     1      -5.657   1.413   9.904  1.00  0.00     0.202 C 
BRANCH   2   3
ATOM      3  C   UNL     1      -5.666   2.207   8.592  1.00  0.00     0.261 C 
BRANCH   3   4
ATOM      4  O   UNL     1      -4.626   1.957   7.610  1.00  0.00    -0.463 OA
BRANCH   4   5
ATOM      5  C   UNL     1      -3.322   2.065   7.982  1.00  0.00     0.309 C 
ATOM      6  O   UNL     1      -2.967   2.255   9.136  1.00  0.00    -0.252 OA
BRANCH   5   7
ATOM      7  C   UNL     1      -2.382   2.074   6.763  1.00  0.00     0.111 C 
ATOM      8  C   UNL     1      -2.462   0.858   5.797  1.00  0.00     0.093 C 
ATOM      9  C   UNL     1      -1.752  -0.329   6.495  1.00  0.00     0.014 C 
ATOM     10  C   UNL     1      -0.302   0.016   6.852  1.00  0.00     0.001 C 
ATOM     11  C   UNL     1      -0.949   2.420   7.153  1.00  0.00     0.016 C 
ATOM     12  C   UNL     1      -0.220   1.237   7.758  1.00  0.00     0.001 C 
BRANCH   8  13
ATOM     13  C   UNL     1      -1.880   0.945   4.336  1.00  0.00     0.228 C 
ATOM     14  N   UNL     1      -1.831   2.075   3.569  1.00  0.00    -0.326 N 
ATOM     15  H   UNL     1      -1.250   2.019   2.776  1.00  0.00     0.169 HD
ATOM     16  O   UNL     1      -1.429  -0.071   3.789  1.00  0.00    -0.274 OA
BRANCH  14  17
ATOM     17  C   UNL     1      -2.481   3.292   3.742  1.00  0.00     0.041 A 
ATOM     18  C   UNL     1      -3.411   5.665   4.834  1.00  0.00     0.087 A 
ATOM     19  C   UNL     1      -4.081   4.467   5.028  1.00  0.00     0.024 A 
ATOM     20  C   UNL     1      -2.291   5.689   3.993  1.00  0.00     0.024 A 
ATOM     21  C   UNL     1      -3.722   3.320   4.345  1.00  0.00     0.027 A 
ATOM     22  C   UNL     1      -1.807   4.484   3.459  1.00  0.00     0.027 A 
BRANCH  18  23
ATOM     23  S   UNL     1      -3.853   7.086   5.798  1.00  0.00     0.261 S 
ATOM     24  O   UNL     1      -3.364   8.252   5.093  1.00  0.00    -0.201 OA
ATOM     25  O   UNL     1      -3.417   6.813   7.153  1.00  0.00    -0.201 OA
BRANCH  23  26
ATOM     26  N   UNL     1      -5.557   7.302   5.892  1.00  0.00    -0.280 N 
ATOM     27  H   UNL     1      -5.919   8.217   5.916  1.00  0.00     0.180 HD
BRANCH  26  28
ATOM     28  C   UNL     1      -6.473   6.194   5.937  1.00  0.00     0.049 A 
ATOM     29  C   UNL     1      -7.996   3.853   6.033  1.00  0.00     0.119 A 
ATOM     30  C   UNL     1      -7.471   4.285   4.819  1.00  0.00     0.048 A 
ATOM     31  C   UNL     1      -7.824   4.613   7.188  1.00  0.00     0.048 A 
ATOM     32  C   UNL     1      -6.763   5.491   4.762  1.00  0.00     0.030 A 
ATOM     33  C   UNL     1      -7.041   5.775   7.146  1.00  0.00     0.030 A 
BRANCH  29  34
ATOM     34  O   UNL     1      -8.527   2.598   6.128  1.00  0.00    -0.497 OA
ATOM     35  C   UNL     1      -9.926   2.605   5.865  1.00  0.00     0.278 C 
ENDBRANCH  29  34
ENDBRANCH  26  28
ENDBRANCH  23  26
ENDBRANCH  18  23
ENDBRANCH  14  17
ENDBRANCH   8  13
ENDBRANCH   5   7
ENDBRANCH   4   5
ENDBRANCH   3   4
ENDBRANCH   2   3
ENDBRANCH   1   2
BRANCH   1  36
ATOM     36  C   UNL     1      -4.912  -0.712   9.100  1.00  0.00     0.188 C 
BRANCH  36  37
ATOM     37  C   UNL     1      -5.238  -1.021   7.628  1.00  0.00     0.188 C 
BRANCH  37  38
ATOM     38  O   UNL     1      -6.575  -1.226   7.192  1.00  0.00    -0.376 OA
BRANCH  38  39
ATOM     39  C   UNL     1      -7.521  -1.761   8.096  1.00  0.00     0.202 C 
BRANCH  39  40
ATOM     40  C   UNL     1      -7.297  -3.190   8.613  1.00  0.00     0.261 C 
BRANCH  40  41
ATOM     41  O   UNL     1      -5.953  -3.495   9.023  1.00  0.00    -0.460 OA
BRANCH  41  42
ATOM     42  C   UNL     1      -5.208  -4.207   8.134  1.00  0.00     0.338 C 
ATOM     43  O   UNL     1      -5.589  -4.675   7.080  1.00  0.00    -0.246 OA
BRANCH  42  44
ATOM     44  C   UNL     1      -3.776  -4.165   8.535  1.00  0.00     0.060 A 
ATOM     45  C   UNL     1      -2.837  -3.759   7.576  1.00  0.00     0.016 A 
ATOM     46  C   UNL     1      -3.347  -4.526   9.815  1.00  0.00     0.016 A 
ATOM     47  C   UNL     1      -1.475  -3.716   7.886  1.00  0.00     0.010 A 
ATOM     48  C   UNL     1      -1.974  -4.523  10.112  1.00  0.00     0.010 A 
ATOM     49  C   UNL     1      -1.029  -4.138   9.143  1.00  0.00    -0.014 A 
BRANCH  49  50
ATOM     50  C   UNL     1       0.421  -4.396   9.353  1.00  0.00     0.031 A 
ATOM     51  C   UNL     1       0.947  -5.771   9.030  1.00  0.00     0.074 A 
ATOM     52  C   UNL     1       1.271  -3.443   9.779  1.00  0.00     0.049 A 
ATOM     53  N   UNL     1       2.148  -6.262   9.187  1.00  0.00    -0.248 NA
ATOM     54  C   UNL     1      -0.019  -6.715   8.444  1.00  0.00     0.031 C 
ATOM     55  C   UNL     1       0.920  -2.052  10.054  1.00  0.00     0.029 A 
ATOM     56  N   UNL     1       2.617  -3.510  10.056  1.00  0.00    -0.354 N 
ATOM     57  C   UNL     1       2.083  -7.571   8.725  1.00  0.00     0.074 A 
ATOM     58  C   UNL     1       0.721  -7.803   8.296  1.00  0.00     0.031 C 
ATOM     59  C   UNL     1       2.021  -1.399  10.472  1.00  0.00     0.029 A 
ATOM     60  C   UNL     1       3.145  -2.334  10.536  1.00  0.00     0.049 A 
ATOM     61  H   UNL     1       3.153  -4.325   9.923  1.00  0.00     0.167 HD
ATOM     62  C   UNL     1       3.066  -8.501   8.664  1.00  0.00     0.037 A 
ATOM     63  C   UNL     1       4.382  -2.055  11.001  1.00  0.00     0.037 A 
ATOM     64  C   UNL     1       4.417  -8.284   9.106  1.00  0.00     0.049 A 
ATOM     65  C   UNL     1       5.435  -3.139  11.024  1.00  0.00     0.074 A 
ATOM     66  C   UNL     1       5.475  -9.177   9.105  1.00  0.00     0.029 A 
ATOM     67  N   UNL     1       4.897  -7.096   9.636  1.00  0.00    -0.354 N 
ATOM     68  N   UNL     1       5.358  -4.378  10.598  1.00  0.00    -0.248 NA
ATOM     69  C   UNL     1       6.744  -2.788  11.599  1.00  0.00     0.031 C 
ATOM     70  C   UNL     1       6.582  -8.544   9.681  1.00  0.00     0.029 A 
ATOM     71  C   UNL     1       6.229  -7.240   9.988  1.00  0.00     0.049 A 
ATOM     72  H   UNL     1       4.369  -6.273   9.746  1.00  0.00     0.167 HD
ATOM     73  C   UNL     1       6.612  -4.941  10.827  1.00  0.00     0.074 A 
ATOM     74  C   UNL     1       7.432  -3.908  11.421  1.00  0.00     0.031 C 
ATOM     75  C   UNL     1       7.045  -6.201  10.566  1.00  0.00     0.037 A 
BRANCH  62  76
ATOM     76  C   UNL     1       2.693  -9.859   8.142  1.00  0.00     0.058 A 
ATOM     77  C   UNL     1       2.434 -10.084   6.781  1.00  0.00     0.135 A 
ATOM     78  C   UNL     1       2.604 -10.954   9.017  1.00  0.00     0.135 A 
ATOM     79  F   UNL     1       2.483  -9.066   5.906  1.00  0.00    -0.206 F 
ATOM     80  C   UNL     1       2.071 -11.341   6.309  1.00  0.00     0.059 A 
ATOM     81  C   UNL     1       2.269 -12.225   8.563  1.00  0.00     0.059 A 
ATOM     82  F   UNL     1       2.837 -10.791  10.329  1.00  0.00    -0.206 F 
ATOM     83  C   UNL     1       1.988 -12.405   7.210  1.00  0.00     0.060 A 
BRANCH  83  84
ATOM     84  S   UNL     1       1.509 -14.029   6.586  1.00  0.00     0.124 S 
ATOM     85  O   UNL     1       0.086 -13.833   6.327  1.00  0.00    -0.237 OA
ATOM     86  O   UNL     1       2.354 -14.173   5.405  1.00  0.00    -0.237 OA
ATOM     87  O   UNL     1       1.826 -14.926   7.693  1.00  0.00    -0.744 OA
ENDBRANCH  83  84
ENDBRANCH  62  76
BRANCH  63  88
ATOM     88  C   UNL     1       4.699  -0.698  11.528  1.00  0.00     0.058 A 
ATOM     89  C   UNL     1       5.615   0.142  10.877  1.00  0.00     0.135 A 
ATOM     90  C   UNL     1       4.120  -0.229  12.719  1.00  0.00     0.135 A 
ATOM     91  F   UNL     1       6.214  -0.267   9.748  1.00  0.00    -0.206 F 
ATOM     92  C   UNL     1       5.959   1.389  11.392  1.00  0.00     0.059 A 
ATOM     93  C   UNL     1       4.426   1.025  13.239  1.00  0.00     0.059 A 
ATOM     94  F   UNL     1       3.239  -0.991  13.384  1.00  0.00    -0.206 F 
ATOM     95  C   UNL     1       5.357   1.823  12.575  1.00  0.00     0.060 A 
BRANCH  95  96
ATOM     96  S   UNL     1       5.781   3.457  13.216  1.00  0.00     0.124 S 
ATOM     97  O   UNL     1       7.129   3.232  13.726  1.00  0.00    -0.237 OA
ATOM     98  O   UNL     1       5.681   4.291  12.023  1.00  0.00    -0.237 OA
ATOM     99  O   UNL     1       4.756   3.697  14.228  1.00  0.00    -0.744 OA
ENDBRANCH  95  96
ENDBRANCH  63  88
BRANCH  75 100
ATOM    100  C   UNL     1       8.481  -6.534  10.876  1.00  0.00     0.058 A 
ATOM    101  C   UNL     1       8.938  -6.697  12.193  1.00  0.00     0.135 A 
ATOM    102  C   UNL     1       9.396  -6.762   9.834  1.00  0.00     0.135 A 
ATOM    103  F   UNL     1       8.108  -6.489  13.227  1.00  0.00    -0.206 F 
ATOM    104  C   UNL     1      10.255  -7.057  12.466  1.00  0.00     0.059 A 
ATOM    105  C   UNL     1      10.710  -7.149  10.084  1.00  0.00     0.059 A 
ATOM    106  F   UNL     1       9.010  -6.633   8.555  1.00  0.00    -0.206 F 
ATOM    107  C   UNL     1      11.133  -7.285  11.405  1.00  0.00     0.060 A 
BRANCH 107 108
ATOM    108  S   UNL     1      12.828  -7.792  11.772  1.00  0.00     0.124 S 
ATOM    109  O   UNL     1      13.410  -6.545  12.256  1.00  0.00    -0.237 OA
ATOM    110  O   UNL     1      12.632  -8.832  12.777  1.00  0.00    -0.237 OA
ATOM    111  O   UNL     1      13.330  -8.261  10.484  1.00  0.00    -0.744 OA
ENDBRANCH 107 108
ENDBRANCH  75 100
ENDBRANCH  49  50
ENDBRANCH  42  44
ENDBRANCH  41  42
ENDBRANCH  40  41
ENDBRANCH  39  40
ENDBRANCH  38  39
ENDBRANCH  37  38
ENDBRANCH  36  37
ENDBRANCH   1  36
TORSDOF 26
