REMARK SMILES O=C(CCCN1C(=O)/C(=C/c2ccccc2Cl)SC1=S)Nc1cccc(C(=O)OCCOCCOCCOC(=O)c2ccc(-c3c4nc(c(-c5c(F)cc(S(=O)(=O)[O-])cc5F)c5ccc([nH]5)c(-c5c(F)cc(S(=O)(=O)[O-])cc5F)c5nc(c(-c6c(F)cc(S(=O)(=O)[O-])cc6F)c6ccc3[nH]6)C=C5)C=C4)cc2)c1
REMARK SMILES IDX 32 1 31 2 30 3 29 4 27 5 28 6 26 7 22 8 23 9 107 10 24 11
REMARK SMILES IDX 25 12 21 13 1 14 2 15 3 17 4 18 5 19 6 20 7 21 19 22 8 23
REMARK SMILES IDX 9 24 18 25 20 26 10 27 11 28 12 29 16 30 13 31 15 32 17 33
REMARK SMILES IDX 14 34 33 35 34 36 35 37 36 38 37 39 38 40 39 41 40 42 41 43
REMARK SMILES IDX 42 44 106 45 43 46 105 47 44 48 45 49 46 50 99 51 47 52
REMARK SMILES IDX 104 53 98 54 100 55 48 56 103 57 97 58 96 59 49 61 83 62
REMARK SMILES IDX 62 63 82 64 63 65 66 66 81 67 101 68 64 69 65 70 80 72
REMARK SMILES IDX 102 73 67 74 50 75 51 76 60 77 52 78 53 79 59 80 61 81 54 82
REMARK SMILES IDX 55 83 56 84 57 85 58 86 84 87 85 88 94 89 86 90 87 91 93 92
REMARK SMILES IDX 95 93 88 94 89 95 90 96 91 97 92 98 68 99 69 100 78 101
REMARK SMILES IDX 70 102 71 103 77 104 79 105 72 106 73 107 74 108 75 109
REMARK SMILES IDX 76 110
REMARK H PARENT 21 16 100 60 66 71
REMARK Flexibility Score: inf
ROOT
ATOM      1  O   UNL     1      -1.427   6.833   0.438  1.00  0.00    -0.376 OA
ENDROOT
BRANCH   1   2
ATOM      2  C   UNL     1      -2.589   6.032   0.527  1.00  0.00     0.202 C 
BRANCH   2   3
ATOM      3  C   UNL     1      -2.546   4.492   0.513  1.00  0.00     0.261 C 
BRANCH   3   4
ATOM      4  O   UNL     1      -1.418   3.872  -0.103  1.00  0.00    -0.460 OA
BRANCH   4   5
ATOM      5  C   UNL     1      -1.534   3.492  -1.401  1.00  0.00     0.338 C 
ATOM      6  O   UNL     1      -2.491   3.666  -2.134  1.00  0.00    -0.246 OA
BRANCH   5   7
ATOM      7  C   UNL     1      -0.201   3.015  -1.830  1.00  0.00     0.062 A 
ATOM      8  C   UNL     1       1.823   1.785  -1.347  1.00  0.00     0.042 A 
ATOM      9  C   UNL     1       2.458   2.447  -2.405  1.00  0.00     0.026 A 
ATOM     10  C   UNL     1       0.493   2.083  -1.053  1.00  0.00     0.041 A 
ATOM     11  C   UNL     1       1.747   3.336  -3.217  1.00  0.00     0.003 A 
ATOM     12  C   UNL     1       0.409   3.614  -2.937  1.00  0.00     0.016 A 
BRANCH   8  13
ATOM     13  N   UNL     1       2.581   0.857  -0.609  1.00  0.00    -0.326 N 
ATOM     14  O   UNL     1       0.884  -0.450   0.294  1.00  0.00    -0.275 OA
ATOM     15  C   UNL     1       2.073  -0.180   0.145  1.00  0.00     0.224 C 
ATOM     16  H   UNL     1       3.560   0.957  -0.632  1.00  0.00     0.169 HD
BRANCH  15  17
ATOM     17  C   UNL     1       3.127  -1.054   0.796  1.00  0.00     0.102 C 
BRANCH  17  18
ATOM     18  C   UNL     1       3.950  -1.880  -0.197  1.00  0.00     0.032 C 
BRANCH  18  19
ATOM     19  C   UNL     1       5.232  -1.221  -0.731  1.00  0.00     0.128 C 
BRANCH  19  20
ATOM     20  N   UNL     1       6.041  -0.597   0.318  1.00  0.00    -0.293 N 
ATOM     21  C   UNL     1       5.967   0.776   0.485  1.00  0.00     0.266 C 
ATOM     22  C   UNL     1       6.857  -1.279   1.197  1.00  0.00     0.148 C 
ATOM     23  O   UNL     1       5.265   1.527  -0.181  1.00  0.00    -0.268 OA
ATOM     24  C   UNL     1       6.803   1.210   1.632  1.00  0.00     0.081 C 
ATOM     25  S   UNL     1       7.505  -0.164   2.391  1.00  0.00    -0.054 SA
ATOM     26  S   UNL     1       7.215  -2.907   1.223  1.00  0.00    -0.052 S 
ATOM     27  C   UNL     1       6.938   2.499   1.976  1.00  0.00     0.031 C 
BRANCH  27  28
ATOM     28  C   UNL     1       7.760   2.986   3.095  1.00  0.00    -0.006 A 
ATOM     29  C   UNL     1       7.097   3.522   4.210  1.00  0.00     0.010 A 
ATOM     30  C   UNL     1       9.165   2.931   3.106  1.00  0.00     0.048 A 
ATOM     31  C   UNL     1       7.819   3.955   5.326  1.00  0.00     0.001 A 
ATOM     32  C   UNL     1       9.882   3.351   4.230  1.00  0.00     0.021 A 
ATOM     33  Cl  UNL     1      10.075   2.375   1.742  1.00  0.00    -0.084 Cl
ATOM     34  C   UNL     1       9.209   3.857   5.341  1.00  0.00     0.002 A 
ENDBRANCH  27  28
ENDBRANCH  19  20
ENDBRANCH  18  19
ENDBRANCH  17  18
ENDBRANCH  15  17
ENDBRANCH   8  13
ENDBRANCH   5   7
ENDBRANCH   4   5
ENDBRANCH   3   4
ENDBRANCH   2   3
ENDBRANCH   1   2
BRANCH   1  35
ATOM     35  C   UNL     1      -0.418   6.493  -0.486  1.00  0.00     0.188 C 
BRANCH  35  36
ATOM     36  C   UNL     1       0.832   5.881   0.186  1.00  0.00     0.188 C 
BRANCH  36  37
ATOM     37  O   UNL     1       0.900   5.751   1.602  1.00  0.00    -0.376 OA
BRANCH  37  38
ATOM     38  C   UNL     1       0.464   6.824   2.426  1.00  0.00     0.202 C 
BRANCH  38  39
ATOM     39  C   UNL     1       1.043   8.234   2.224  1.00  0.00     0.261 C 
BRANCH  39  40
ATOM     40  O   UNL     1       1.063   8.716   0.873  1.00  0.00    -0.460 OA
BRANCH  40  41
ATOM     41  C   UNL     1       2.291   8.818   0.305  1.00  0.00     0.338 C 
ATOM     42  O   UNL     1       3.366   8.545   0.810  1.00  0.00    -0.246 OA
BRANCH  41  43
ATOM     43  C   UNL     1       2.137   9.176  -1.119  1.00  0.00     0.060 A 
ATOM     44  C   UNL     1       2.564   8.265  -2.095  1.00  0.00     0.016 A 
ATOM     45  C   UNL     1       1.620  10.418  -1.487  1.00  0.00     0.016 A 
ATOM     46  C   UNL     1       2.479   8.596  -3.448  1.00  0.00     0.010 A 
ATOM     47  C   UNL     1       1.559  10.758  -2.841  1.00  0.00     0.010 A 
ATOM     48  C   UNL     1       2.006   9.858  -3.827  1.00  0.00    -0.014 A 
BRANCH  48  49
ATOM     49  C   UNL     1       2.116  10.314  -5.234  1.00  0.00     0.031 A 
ATOM     50  C   UNL     1       3.273  11.195  -5.614  1.00  0.00     0.074 A 
ATOM     51  C   UNL     1       1.187   9.979  -6.147  1.00  0.00     0.049 A 
ATOM     52  N   UNL     1       3.503  11.823  -6.737  1.00  0.00    -0.248 NA
ATOM     53  C   UNL     1       4.304  11.400  -4.585  1.00  0.00     0.031 C 
ATOM     54  C   UNL     1       0.046   9.097  -5.909  1.00  0.00     0.029 A 
ATOM     55  N   UNL     1       1.047  10.367  -7.457  1.00  0.00    -0.354 N 
ATOM     56  C   UNL     1       4.694  12.512  -6.545  1.00  0.00     0.074 A 
ATOM     57  C   UNL     1       5.130  12.239  -5.193  1.00  0.00     0.031 C 
ATOM     58  C   UNL     1      -0.696   9.035  -7.029  1.00  0.00     0.029 A 
ATOM     59  C   UNL     1      -0.105   9.903  -8.047  1.00  0.00     0.049 A 
ATOM     60  H   UNL     1       1.708  10.924  -7.928  1.00  0.00     0.167 HD
ATOM     61  C   UNL     1       5.363  13.302  -7.419  1.00  0.00     0.037 A 
ATOM     62  C   UNL     1      -0.639  10.178  -9.254  1.00  0.00     0.037 A 
ATOM     63  C   UNL     1       4.919  13.573  -8.761  1.00  0.00     0.049 A 
ATOM     64  C   UNL     1       0.086  11.118 -10.186  1.00  0.00     0.074 A 
ATOM     65  C   UNL     1       5.533  14.348  -9.729  1.00  0.00     0.029 A 
ATOM     66  N   UNL     1       3.745  13.090  -9.320  1.00  0.00    -0.354 N 
ATOM     67  N   UNL     1       1.221  11.751 -10.003  1.00  0.00    -0.248 NA
ATOM     68  C   UNL     1      -0.542  11.383 -11.489  1.00  0.00     0.031 C 
ATOM     69  C   UNL     1       4.704  14.375 -10.856  1.00  0.00     0.029 A 
ATOM     70  C   UNL     1       3.604  13.568 -10.612  1.00  0.00     0.049 A 
ATOM     71  H   UNL     1       3.106  12.495  -8.865  1.00  0.00     0.167 HD
ATOM     72  C   UNL     1       1.460  12.457 -11.178  1.00  0.00     0.074 A 
ATOM     73  C   UNL     1       0.352  12.175 -12.067  1.00  0.00     0.031 C 
ATOM     74  C   UNL     1       2.505  13.262 -11.494  1.00  0.00     0.037 A 
BRANCH  61  75
ATOM     75  C   UNL     1       6.628  13.958  -6.938  1.00  0.00     0.058 A 
ATOM     76  C   UNL     1       7.802  13.224  -6.708  1.00  0.00     0.135 A 
ATOM     77  C   UNL     1       6.673  15.346  -6.732  1.00  0.00     0.135 A 
ATOM     78  F   UNL     1       7.810  11.891  -6.870  1.00  0.00    -0.206 F 
ATOM     79  C   UNL     1       8.969  13.839  -6.266  1.00  0.00     0.059 A 
ATOM     80  C   UNL     1       7.836  15.987  -6.317  1.00  0.00     0.059 A 
ATOM     81  F   UNL     1       5.577  16.095  -6.933  1.00  0.00    -0.206 F 
ATOM     82  C   UNL     1       8.975  15.222  -6.073  1.00  0.00     0.060 A 
BRANCH  82  83
ATOM     83  S   UNL     1      10.498  16.006  -5.502  1.00  0.00     0.124 S 
ATOM     84  O   UNL     1      10.550  15.561  -4.112  1.00  0.00    -0.237 OA
ATOM     85  O   UNL     1      11.499  15.425  -6.390  1.00  0.00    -0.237 OA
ATOM     86  O   UNL     1      10.242  17.430  -5.695  1.00  0.00    -0.744 OA
ENDBRANCH  82  83
ENDBRANCH  61  75
BRANCH  62  87
ATOM     87  C   UNL     1      -1.940   9.574  -9.648  1.00  0.00     0.058 A 
ATOM     88  C   UNL     1      -2.014   8.610 -10.664  1.00  0.00     0.135 A 
ATOM     89  C   UNL     1      -3.137   9.949  -9.017  1.00  0.00     0.135 A 
ATOM     90  F   UNL     1      -0.900   8.228 -11.307  1.00  0.00    -0.206 F 
ATOM     91  C   UNL     1      -3.227   8.049 -11.050  1.00  0.00     0.059 A 
ATOM     92  C   UNL     1      -4.359   9.382  -9.366  1.00  0.00     0.059 A 
ATOM     93  F   UNL     1      -3.122  10.862  -8.033  1.00  0.00    -0.206 F 
ATOM     94  C   UNL     1      -4.395   8.439 -10.392  1.00  0.00     0.060 A 
BRANCH  94  95
ATOM     95  S   UNL     1      -5.956   7.667 -10.870  1.00  0.00     0.124 S 
ATOM     96  O   UNL     1      -6.200   8.279 -12.171  1.00  0.00    -0.237 OA
ATOM     97  O   UNL     1      -5.605   6.251 -10.886  1.00  0.00    -0.237 OA
ATOM     98  O   UNL     1      -6.869   8.067  -9.803  1.00  0.00    -0.744 OA
ENDBRANCH  94  95
ENDBRANCH  62  87
BRANCH  74  99
ATOM     99  C   UNL     1       2.543  13.857 -12.877  1.00  0.00     0.058 A 
ATOM    100  C   UNL     1       1.693  14.905 -13.260  1.00  0.00     0.135 A 
ATOM    101  C   UNL     1       3.507  13.422 -13.803  1.00  0.00     0.135 A 
ATOM    102  F   UNL     1       0.751  15.354 -12.417  1.00  0.00    -0.206 F 
ATOM    103  C   UNL     1       1.789  15.494 -14.518  1.00  0.00     0.059 A 
ATOM    104  C   UNL     1       3.638  14.015 -15.055  1.00  0.00     0.059 A 
ATOM    105  F   UNL     1       4.352  12.429 -13.484  1.00  0.00    -0.206 F 
ATOM    106  C   UNL     1       2.769  15.046 -15.406  1.00  0.00     0.060 A 
BRANCH 106 107
ATOM    107  S   UNL     1       2.919  15.857 -17.013  1.00  0.00     0.124 S 
ATOM    108  O   UNL     1       1.741  15.351 -17.710  1.00  0.00    -0.237 OA
ATOM    109  O   UNL     1       2.884  17.271 -16.654  1.00  0.00    -0.237 OA
ATOM    110  O   UNL     1       4.202  15.377 -17.519  1.00  0.00    -0.744 OA
ENDBRANCH 106 107
ENDBRANCH  74  99
ENDBRANCH  48  49
ENDBRANCH  41  43
ENDBRANCH  40  41
ENDBRANCH  39  40
ENDBRANCH  38  39
ENDBRANCH  37  38
ENDBRANCH  36  37
ENDBRANCH  35  36
ENDBRANCH   1  35
TORSDOF 26
