REMARK SMILES CC(C)N(CC1CC1)C(=O)N1CC[C@H](C(=O)OCCOCCOCCOC(=O)c2ccc(-c3c4nc(c(-c5c(F)cc(S(=O)(=O)[O-])cc5F)c5ccc([nH]5)c(-c5c(F)cc(S(=O)(=O)[O-])cc5F)c5nc(c(-c6c(F)cc(S(=O)(=O)[O-])cc6F)c6ccc3[nH]6)C=C5)C=C4)cc2)[C@H]1C
REMARK SMILES IDX 21 1 20 2 19 3 18 4 17 5 15 6 16 7 14 8 11 9 12 10 95 11
REMARK SMILES IDX 13 12 96 13 9 14 10 15 4 16 2 17 1 18 3 19 5 20 6 21 7 22
REMARK SMILES IDX 8 23 22 24 23 25 24 26 25 27 26 28 27 29 28 30 29 31 30 32
REMARK SMILES IDX 94 33 31 34 93 35 32 36 33 37 34 38 87 39 35 40 92 41 86 42
REMARK SMILES IDX 88 43 36 44 91 45 85 46 84 47 37 49 71 50 50 51 70 52 51 53
REMARK SMILES IDX 54 54 69 55 89 56 52 57 53 58 68 60 90 61 55 62 38 63 39 64
REMARK SMILES IDX 48 65 40 66 41 67 47 68 49 69 42 70 43 71 44 72 45 73 46 74
REMARK SMILES IDX 72 75 73 76 82 77 74 78 75 79 81 80 83 81 76 82 77 83 78 84
REMARK SMILES IDX 79 85 80 86 56 87 57 88 66 89 58 90 59 91 65 92 67 93 60 94
REMARK SMILES IDX 61 95 62 96 63 97 64 98
REMARK H PARENT 88 48 54 59
REMARK Flexibility Score: inf
ROOT
ATOM      1  C   UNL     1      -7.454  -4.241   1.977  1.00  0.00     0.188 C 
ENDROOT
BRANCH   1   2
ATOM      2  O   UNL     1      -7.025  -5.274   2.846  1.00  0.00    -0.376 OA
BRANCH   2   3
ATOM      3  C   UNL     1      -5.668  -5.289   3.288  1.00  0.00     0.202 C 
BRANCH   3   4
ATOM      4  C   UNL     1      -4.522  -4.838   2.360  1.00  0.00     0.261 C 
BRANCH   4   5
ATOM      5  O   UNL     1      -4.616  -3.465   1.927  1.00  0.00    -0.463 OA
BRANCH   5   6
ATOM      6  C   UNL     1      -4.583  -3.260   0.588  1.00  0.00     0.311 C 
ATOM      7  O   UNL     1      -4.382  -4.148  -0.235  1.00  0.00    -0.252 OA
BRANCH   6   8
ATOM      8  C   UNL     1      -4.992  -1.851   0.161  1.00  0.00     0.123 C 
ATOM      9  N   UNL     1      -2.956  -0.713  -0.088  1.00  0.00    -0.321 N 
ATOM     10  C   UNL     1      -3.530  -0.249   1.174  1.00  0.00     0.122 C 
ATOM     11  C   UNL     1      -3.993  -1.365  -0.885  1.00  0.00     0.098 C 
ATOM     12  C   UNL     1      -4.970  -0.705   1.173  1.00  0.00     0.039 C 
ATOM     13  C   UNL     1      -4.696  -0.431  -1.877  1.00  0.00     0.032 C 
BRANCH   9  14
ATOM     14  C   UNL     1      -1.626  -1.075  -0.044  1.00  0.00     0.320 C 
ATOM     15  O   UNL     1      -1.083  -1.168   1.064  1.00  0.00    -0.248 OA
BRANCH  14  16
ATOM     16  N   UNL     1      -0.880  -1.233  -1.202  1.00  0.00    -0.322 N 
BRANCH  16  17
ATOM     17  C   UNL     1       0.595  -1.260  -1.019  1.00  0.00     0.080 C 
ATOM     18  C   UNL     1       1.122  -0.021  -0.267  1.00  0.00     0.031 C 
ATOM     19  C   UNL     1       1.106  -2.552  -0.377  1.00  0.00     0.031 C 
ENDBRANCH  16  17
BRANCH  16  20
ATOM     20  C   UNL     1      -1.341  -1.080  -2.593  1.00  0.00     0.125 C 
BRANCH  20  21
ATOM     21  C   UNL     1      -2.111  -2.246  -3.159  1.00  0.00     0.009 C 
ATOM     22  C   UNL     1      -1.530  -3.243  -4.132  1.00  0.00     0.006 C 
ATOM     23  C   UNL     1      -1.856  -3.676  -2.735  1.00  0.00     0.006 C 
ENDBRANCH  20  21
ENDBRANCH  16  20
ENDBRANCH  14  16
ENDBRANCH   9  14
ENDBRANCH   6   8
ENDBRANCH   5   6
ENDBRANCH   4   5
ENDBRANCH   3   4
ENDBRANCH   2   3
ENDBRANCH   1   2
BRANCH   1  24
ATOM     24  C   UNL     1      -7.325  -2.800   2.471  1.00  0.00     0.188 C 
BRANCH  24  25
ATOM     25  O   UNL     1      -6.534  -2.600   3.612  1.00  0.00    -0.376 OA
BRANCH  25  26
ATOM     26  C   UNL     1      -7.141  -2.483   4.886  1.00  0.00     0.202 C 
BRANCH  26  27
ATOM     27  C   UNL     1      -8.586  -2.914   5.223  1.00  0.00     0.261 C 
BRANCH  27  28
ATOM     28  O   UNL     1      -9.537  -3.064   4.161  1.00  0.00    -0.460 OA
BRANCH  28  29
ATOM     29  C   UNL     1     -10.136  -1.939   3.698  1.00  0.00     0.338 C 
ATOM     30  O   UNL     1      -9.963  -0.800   4.105  1.00  0.00    -0.246 OA
BRANCH  29  31
ATOM     31  C   UNL     1     -10.816  -2.290   2.424  1.00  0.00     0.060 A 
ATOM     32  C   UNL     1     -10.407  -1.664   1.234  1.00  0.00     0.016 A 
ATOM     33  C   UNL     1     -11.811  -3.266   2.395  1.00  0.00     0.016 A 
ATOM     34  C   UNL     1     -11.010  -1.996   0.018  1.00  0.00     0.010 A 
ATOM     35  C   UNL     1     -12.438  -3.572   1.183  1.00  0.00     0.010 A 
ATOM     36  C   UNL     1     -12.062  -2.920  -0.006  1.00  0.00    -0.014 A 
BRANCH  36  37
ATOM     37  C   UNL     1     -12.916  -3.049  -1.215  1.00  0.00     0.031 A 
ATOM     38  C   UNL     1     -14.215  -2.287  -1.242  1.00  0.00     0.074 A 
ATOM     39  C   UNL     1     -12.561  -3.816  -2.261  1.00  0.00     0.049 A 
ATOM     40  N   UNL     1     -15.178  -2.315  -2.125  1.00  0.00    -0.248 NA
ATOM     41  C   UNL     1     -14.459  -1.372  -0.114  1.00  0.00     0.031 C 
ATOM     42  C   UNL     1     -11.309  -4.560  -2.383  1.00  0.00     0.029 A 
ATOM     43  N   UNL     1     -13.239  -4.108  -3.421  1.00  0.00    -0.354 N 
ATOM     44  C   UNL     1     -16.145  -1.433  -1.656  1.00  0.00     0.074 A 
ATOM     45  C   UNL     1     -15.667  -0.909  -0.396  1.00  0.00     0.031 C 
ATOM     46  C   UNL     1     -11.317  -5.239  -3.545  1.00  0.00     0.029 A 
ATOM     47  C   UNL     1     -12.589  -5.011  -4.230  1.00  0.00     0.049 A 
ATOM     48  H   UNL     1     -14.109  -3.708  -3.651  1.00  0.00     0.167 HD
ATOM     49  C   UNL     1     -17.322  -1.085  -2.227  1.00  0.00     0.037 A 
ATOM     50  C   UNL     1     -12.990  -5.605  -5.373  1.00  0.00     0.037 A 
ATOM     51  C   UNL     1     -17.797  -1.613  -3.478  1.00  0.00     0.049 A 
ATOM     52  C   UNL     1     -14.348  -5.271  -5.944  1.00  0.00     0.074 A 
ATOM     53  C   UNL     1     -18.976  -1.322  -4.141  1.00  0.00     0.029 A 
ATOM     54  N   UNL     1     -17.123  -2.546  -4.253  1.00  0.00    -0.354 N 
ATOM     55  N   UNL     1     -15.251  -4.429  -5.497  1.00  0.00    -0.248 NA
ATOM     56  C   UNL     1     -14.743  -5.968  -7.178  1.00  0.00     0.031 C 
ATOM     57  C   UNL     1     -19.040  -2.119  -5.289  1.00  0.00     0.029 A 
ATOM     58  C   UNL     1     -17.871  -2.857  -5.375  1.00  0.00     0.049 A 
ATOM     59  H   UNL     1     -16.242  -2.929  -4.037  1.00  0.00     0.167 HD
ATOM     60  C   UNL     1     -16.298  -4.467  -6.414  1.00  0.00     0.074 A 
ATOM     61  C   UNL     1     -15.915  -5.408  -7.445  1.00  0.00     0.031 C 
ATOM     62  C   UNL     1     -17.470  -3.783  -6.406  1.00  0.00     0.037 A 
BRANCH  49  63
ATOM     63  C   UNL     1     -18.191  -0.102  -1.491  1.00  0.00     0.058 A 
ATOM     64  C   UNL     1     -17.840   1.252  -1.374  1.00  0.00     0.135 A 
ATOM     65  C   UNL     1     -19.412  -0.512  -0.931  1.00  0.00     0.135 A 
ATOM     66  F   UNL     1     -16.674   1.695  -1.871  1.00  0.00    -0.206 F 
ATOM     67  C   UNL     1     -18.659   2.161  -0.712  1.00  0.00     0.059 A 
ATOM     68  C   UNL     1     -20.261   0.385  -0.291  1.00  0.00     0.059 A 
ATOM     69  F   UNL     1     -19.794  -1.797  -1.008  1.00  0.00    -0.206 F 
ATOM     70  C   UNL     1     -19.870   1.718  -0.177  1.00  0.00     0.060 A 
BRANCH  70  71
ATOM     71  S   UNL     1     -20.929   2.916   0.661  1.00  0.00     0.124 S 
ATOM     72  O   UNL     1     -20.165   3.180   1.876  1.00  0.00    -0.237 OA
ATOM     73  O   UNL     1     -20.984   4.009  -0.304  1.00  0.00    -0.237 OA
ATOM     74  O   UNL     1     -22.180   2.189   0.854  1.00  0.00    -0.744 OA
ENDBRANCH  70  71
ENDBRANCH  49  63
BRANCH  50  75
ATOM     75  C   UNL     1     -12.112  -6.596  -6.057  1.00  0.00     0.058 A 
ATOM     76  C   UNL     1     -11.566  -6.329  -7.322  1.00  0.00     0.135 A 
ATOM     77  C   UNL     1     -11.830  -7.843  -5.477  1.00  0.00     0.135 A 
ATOM     78  F   UNL     1     -11.818  -5.159  -7.927  1.00  0.00    -0.206 F 
ATOM     79  C   UNL     1     -10.793  -7.269  -7.997  1.00  0.00     0.059 A 
ATOM     80  C   UNL     1     -11.033  -8.787  -6.119  1.00  0.00     0.059 A 
ATOM     81  F   UNL     1     -12.322  -8.150  -4.267  1.00  0.00    -0.206 F 
ATOM     82  C   UNL     1     -10.531  -8.496  -7.386  1.00  0.00     0.060 A 
BRANCH  82  83
ATOM     83  S   UNL     1      -9.501  -9.695  -8.261  1.00  0.00     0.124 S 
ATOM     84  O   UNL     1     -10.395 -10.126  -9.329  1.00  0.00    -0.237 OA
ATOM     85  O   UNL     1      -8.363  -8.878  -8.670  1.00  0.00    -0.237 OA
ATOM     86  O   UNL     1      -9.210 -10.696  -7.239  1.00  0.00    -0.744 OA
ENDBRANCH  82  83
ENDBRANCH  50  75
BRANCH  62  87
ATOM     87  C   UNL     1     -18.405  -3.975  -7.572  1.00  0.00     0.058 A 
ATOM     88  C   UNL     1     -19.120  -5.167  -7.765  1.00  0.00     0.135 A 
ATOM     89  C   UNL     1     -18.632  -2.923  -8.476  1.00  0.00     0.135 A 
ATOM     90  F   UNL     1     -18.940  -6.206  -6.935  1.00  0.00    -0.206 F 
ATOM     91  C   UNL     1     -20.008  -5.319  -8.827  1.00  0.00     0.059 A 
ATOM     92  C   UNL     1     -19.539  -3.041  -9.525  1.00  0.00     0.059 A 
ATOM     93  F   UNL     1     -17.985  -1.756  -8.333  1.00  0.00    -0.206 F 
ATOM     94  C   UNL     1     -20.213  -4.248  -9.700  1.00  0.00     0.060 A 
BRANCH  94  95
ATOM     95  S   UNL     1     -21.394  -4.448 -11.052  1.00  0.00     0.124 S 
ATOM     96  O   UNL     1     -20.674  -5.355 -11.940  1.00  0.00    -0.237 OA
ATOM     97  O   UNL     1     -22.554  -5.014 -10.371  1.00  0.00    -0.237 OA
ATOM     98  O   UNL     1     -21.571  -3.088 -11.553  1.00  0.00    -0.744 OA
ENDBRANCH  94  95
ENDBRANCH  62  87
ENDBRANCH  36  37
ENDBRANCH  29  31
ENDBRANCH  28  29
ENDBRANCH  27  28
ENDBRANCH  26  27
ENDBRANCH  25  26
ENDBRANCH  24  25
ENDBRANCH   1  24
TORSDOF 25
