REMARK SMILES CCC(CC)(NC(=O)c1ccc(NC(C)=O)cc1)C(=O)OCCOCCOCCOC(=O)c1ccc(-c2c3nc(c(-c4c(F)cc(S(=O)(=O)[O-])cc4F)c4ccc([nH]4)c(-c4c(F)cc(S(=O)(=O)[O-])cc4F)c4nc(c(-c5c(F)cc(S(=O)(=O)[O-])cc5F)c5ccc2[nH]5)C=C4)C=C3)cc1
REMARK SMILES IDX 25 1 24 2 23 3 22 4 21 5 19 6 20 7 3 8 2 9 1 10 4 11 5 12
REMARK SMILES IDX 6 13 7 14 8 16 9 17 10 18 18 19 11 20 17 21 12 22 13 23
REMARK SMILES IDX 14 24 15 26 16 27 26 28 27 29 28 30 29 31 30 32 31 33 32 34
REMARK SMILES IDX 33 35 34 36 98 37 35 38 97 39 36 40 37 41 38 42 91 43 39 44
REMARK SMILES IDX 96 45 90 46 92 47 40 48 95 49 89 50 88 51 41 53 75 54 54 55
REMARK SMILES IDX 74 56 55 57 58 58 73 59 93 60 56 61 57 62 72 64 94 65 59 66
REMARK SMILES IDX 42 67 43 68 52 69 44 70 45 71 51 72 53 73 46 74 47 75 48 76
REMARK SMILES IDX 49 77 50 78 76 79 77 80 86 81 78 82 79 83 85 84 87 85 80 86
REMARK SMILES IDX 81 87 82 88 83 89 84 90 60 91 61 92 70 93 62 94 63 95 69 96
REMARK SMILES IDX 71 97 64 98 65 99 66 100 67 101 68 102
REMARK H PARENT 6 15 13 25 92 52 58 63
REMARK Flexibility Score: inf
ROOT
ATOM      1  C   UNL     1       3.366   2.914   1.120  1.00  0.00     0.188 C 
ENDROOT
BRANCH   1   2
ATOM      2  O   UNL     1       4.750   3.038   0.810  1.00  0.00    -0.376 OA
BRANCH   2   3
ATOM      3  C   UNL     1       5.322   1.845   0.251  1.00  0.00     0.202 C 
BRANCH   3   4
ATOM      4  C   UNL     1       4.905   1.401  -1.172  1.00  0.00     0.261 C 
BRANCH   4   5
ATOM      5  O   UNL     1       3.645   1.935  -1.570  1.00  0.00    -0.461 OA
BRANCH   5   6
ATOM      6  C   UNL     1       2.558   1.143  -1.657  1.00  0.00     0.331 C 
ATOM      7  O   UNL     1       2.608  -0.079  -1.692  1.00  0.00    -0.249 OA
BRANCH   6   8
ATOM      8  C   UNL     1       1.244   1.998  -1.621  1.00  0.00     0.137 C 
BRANCH   8   9
ATOM      9  C   UNL     1       0.495   1.622  -0.269  1.00  0.00     0.037 C 
ATOM     10  C   UNL     1       0.294   0.134   0.040  1.00  0.00     0.007 C 
ENDBRANCH   8   9
BRANCH   8  11
ATOM     11  C   UNL     1       0.366   1.612  -2.843  1.00  0.00     0.037 C 
ATOM     12  C   UNL     1      -1.134   1.877  -2.687  1.00  0.00     0.007 C 
ENDBRANCH   8  11
BRANCH   8  13
ATOM     13  N   UNL     1       1.470   3.524  -1.617  1.00  0.00    -0.336 N 
ATOM     14  C   UNL     1       2.168   4.349  -2.508  1.00  0.00     0.252 C 
ATOM     15  H   UNL     1       1.053   3.998  -0.861  1.00  0.00     0.165 HD
ATOM     16  O   UNL     1       1.545   5.185  -3.161  1.00  0.00    -0.269 OA
BRANCH  14  17
ATOM     17  C   UNL     1       3.670   4.485  -2.471  1.00  0.00     0.039 A 
ATOM     18  C   UNL     1       4.264   5.030  -1.343  1.00  0.00     0.016 A 
ATOM     19  C   UNL     1       4.528   4.228  -3.535  1.00  0.00     0.016 A 
ATOM     20  C   UNL     1       5.647   5.114  -1.141  1.00  0.00     0.027 A 
ATOM     21  C   UNL     1       5.941   4.319  -3.359  1.00  0.00     0.027 A 
ATOM     22  C   UNL     1       6.513   4.693  -2.128  1.00  0.00     0.041 A 
BRANCH  22  23
ATOM     23  N   UNL     1       7.903   4.526  -1.894  1.00  0.00    -0.326 N 
ATOM     24  C   UNL     1       8.583   4.851  -0.724  1.00  0.00     0.221 C 
ATOM     25  H   UNL     1       8.437   4.144  -2.628  1.00  0.00     0.169 HD
ATOM     26  C   UNL     1       9.897   4.122  -0.553  1.00  0.00     0.114 C 
ATOM     27  O   UNL     1       8.214   5.639   0.143  1.00  0.00    -0.275 OA
ENDBRANCH  22  23
ENDBRANCH  14  17
ENDBRANCH   8  13
ENDBRANCH   6   8
ENDBRANCH   5   6
ENDBRANCH   4   5
ENDBRANCH   3   4
ENDBRANCH   2   3
ENDBRANCH   1   2
BRANCH   1  28
ATOM     28  C   UNL     1       2.763   4.092   1.881  1.00  0.00     0.188 C 
BRANCH  28  29
ATOM     29  O   UNL     1       2.637   5.290   1.139  1.00  0.00    -0.376 OA
BRANCH  29  30
ATOM     30  C   UNL     1       3.090   6.548   1.652  1.00  0.00     0.202 C 
BRANCH  30  31
ATOM     31  C   UNL     1       4.365   6.597   2.518  1.00  0.00     0.261 C 
BRANCH  31  32
ATOM     32  O   UNL     1       4.287   5.861   3.750  1.00  0.00    -0.460 OA
BRANCH  32  33
ATOM     33  C   UNL     1       3.166   6.059   4.478  1.00  0.00     0.338 C 
ATOM     34  O   UNL     1       2.434   7.035   4.453  1.00  0.00    -0.246 OA
BRANCH  33  35
ATOM     35  C   UNL     1       2.777   4.750   5.039  1.00  0.00     0.060 A 
ATOM     36  C   UNL     1       1.492   4.277   4.725  1.00  0.00     0.016 A 
ATOM     37  C   UNL     1       3.674   3.963   5.767  1.00  0.00     0.016 A 
ATOM     38  C   UNL     1       1.066   3.053   5.214  1.00  0.00     0.010 A 
ATOM     39  C   UNL     1       3.222   2.767   6.324  1.00  0.00     0.010 A 
ATOM     40  C   UNL     1       1.890   2.366   6.112  1.00  0.00    -0.014 A 
BRANCH  40  41
ATOM     41  C   UNL     1       1.190   1.578   7.148  1.00  0.00     0.031 A 
ATOM     42  C   UNL     1       0.722   2.349   8.359  1.00  0.00     0.074 A 
ATOM     43  C   UNL     1       0.871   0.289   6.962  1.00  0.00     0.049 A 
ATOM     44  N   UNL     1       0.048   1.942   9.398  1.00  0.00    -0.248 NA
ATOM     45  C   UNL     1       1.049   3.788   8.391  1.00  0.00     0.031 C 
ATOM     46  C   UNL     1       1.198  -0.506   5.780  1.00  0.00     0.029 A 
ATOM     47  N   UNL     1       0.179  -0.571   7.771  1.00  0.00    -0.354 N 
ATOM     48  C   UNL     1      -0.115   3.067  10.201  1.00  0.00     0.074 A 
ATOM     49  C   UNL     1       0.542   4.170   9.548  1.00  0.00     0.031 C 
ATOM     50  C   UNL     1       0.708  -1.749   5.946  1.00  0.00     0.029 A 
ATOM     51  C   UNL     1       0.064  -1.837   7.255  1.00  0.00     0.049 A 
ATOM     52  H   UNL     1      -0.200  -0.306   8.640  1.00  0.00     0.167 HD
ATOM     53  C   UNL     1      -0.761   3.172  11.383  1.00  0.00     0.037 A 
ATOM     54  C   UNL     1      -0.488  -2.938   7.802  1.00  0.00     0.037 A 
ATOM     55  C   UNL     1      -1.405   2.059  12.019  1.00  0.00     0.049 A 
ATOM     56  C   UNL     1      -1.132  -2.819   9.161  1.00  0.00     0.074 A 
ATOM     57  C   UNL     1      -2.078   2.027  13.225  1.00  0.00     0.029 A 
ATOM     58  N   UNL     1      -1.447   0.775  11.495  1.00  0.00    -0.354 N 
ATOM     59  N   UNL     1      -1.265  -1.756   9.923  1.00  0.00    -0.248 NA
ATOM     60  C   UNL     1      -1.706  -4.043   9.731  1.00  0.00     0.031 C 
ATOM     61  C   UNL     1      -2.477   0.707  13.457  1.00  0.00     0.029 A 
ATOM     62  C   UNL     1      -2.114  -0.067  12.364  1.00  0.00     0.049 A 
ATOM     63  H   UNL     1      -1.058   0.503  10.632  1.00  0.00     0.167 HD
ATOM     64  C   UNL     1      -1.972  -2.177  11.045  1.00  0.00     0.074 A 
ATOM     65  C   UNL     1      -2.242  -3.588  10.855  1.00  0.00     0.031 C 
ATOM     66  C   UNL     1      -2.370  -1.467  12.133  1.00  0.00     0.037 A 
BRANCH  53  67
ATOM     67  C   UNL     1      -0.734   4.506  12.075  1.00  0.00     0.058 A 
ATOM     68  C   UNL     1      -1.438   5.621  11.589  1.00  0.00     0.135 A 
ATOM     69  C   UNL     1       0.022   4.673  13.246  1.00  0.00     0.135 A 
ATOM     70  F   UNL     1      -2.147   5.531  10.452  1.00  0.00    -0.206 F 
ATOM     71  C   UNL     1      -1.378   6.856  12.229  1.00  0.00     0.059 A 
ATOM     72  C   UNL     1       0.072   5.889  13.920  1.00  0.00     0.059 A 
ATOM     73  F   UNL     1       0.732   3.647  13.743  1.00  0.00    -0.206 F 
ATOM     74  C   UNL     1      -0.623   6.978  13.397  1.00  0.00     0.060 A 
BRANCH  74  75
ATOM     75  S   UNL     1      -0.569   8.579  14.230  1.00  0.00     0.124 S 
ATOM     76  O   UNL     1       0.254   9.360  13.311  1.00  0.00    -0.237 OA
ATOM     77  O   UNL     1      -1.980   8.947  14.286  1.00  0.00    -0.237 OA
ATOM     78  O   UNL     1       0.048   8.273  15.517  1.00  0.00    -0.744 OA
ENDBRANCH  74  75
ENDBRANCH  53  67
BRANCH  54  79
ATOM     79  C   UNL     1      -0.445  -4.236   7.076  1.00  0.00     0.058 A 
ATOM     80  C   UNL     1      -1.613  -4.845   6.596  1.00  0.00     0.135 A 
ATOM     81  C   UNL     1       0.774  -4.895   6.846  1.00  0.00     0.135 A 
ATOM     82  F   UNL     1      -2.804  -4.261   6.796  1.00  0.00    -0.206 F 
ATOM     83  C   UNL     1      -1.579  -6.067   5.930  1.00  0.00     0.059 A 
ATOM     84  C   UNL     1       0.837  -6.103   6.158  1.00  0.00     0.059 A 
ATOM     85  F   UNL     1       1.925  -4.352   7.275  1.00  0.00    -0.206 F 
ATOM     86  C   UNL     1      -0.347  -6.686   5.712  1.00  0.00     0.060 A 
BRANCH  86  87
ATOM     87  S   UNL     1      -0.309  -8.249   4.808  1.00  0.00     0.124 S 
ATOM     88  O   UNL     1      -0.891  -9.166   5.780  1.00  0.00    -0.237 OA
ATOM     89  O   UNL     1      -1.133  -7.945   3.642  1.00  0.00    -0.237 OA
ATOM     90  O   UNL     1       1.111  -8.441   4.529  1.00  0.00    -0.744 OA
ENDBRANCH  86  87
ENDBRANCH  54  79
BRANCH  66  91
ATOM     91  C   UNL     1      -3.187  -2.193  13.165  1.00  0.00     0.058 A 
ATOM     92  C   UNL     1      -2.629  -3.168  14.005  1.00  0.00     0.135 A 
ATOM     93  C   UNL     1      -4.543  -1.872  13.338  1.00  0.00     0.135 A 
ATOM     94  F   UNL     1      -1.336  -3.509  13.880  1.00  0.00    -0.206 F 
ATOM     95  C   UNL     1      -3.399  -3.834  14.951  1.00  0.00     0.059 A 
ATOM     96  C   UNL     1      -5.323  -2.499  14.302  1.00  0.00     0.059 A 
ATOM     97  F   UNL     1      -5.120  -0.931  12.574  1.00  0.00    -0.206 F 
ATOM     98  C   UNL     1      -4.747  -3.494  15.089  1.00  0.00     0.060 A 
BRANCH  98  99
ATOM     99  S   UNL     1      -5.736  -4.365  16.321  1.00  0.00     0.124 S 
ATOM    100  O   UNL     1      -5.906  -5.669  15.689  1.00  0.00    -0.237 OA
ATOM    101  O   UNL     1      -4.869  -4.337  17.494  1.00  0.00    -0.237 OA
ATOM    102  O   UNL     1      -6.945  -3.553  16.422  1.00  0.00    -0.744 OA
ENDBRANCH  98  99
ENDBRANCH  66  91
ENDBRANCH  40  41
ENDBRANCH  33  35
ENDBRANCH  32  33
ENDBRANCH  31  32
ENDBRANCH  30  31
ENDBRANCH  29  30
ENDBRANCH  28  29
ENDBRANCH   1  28
TORSDOF 25
