REMARK SMILES CC1=C(C)C(=O)N(C[C@H](CC(C)C)C(=O)OCCOCCOCCOC(=O)c2ccc(-c3c4nc(c(-c5c(F)cc(S(=O)(=O)[O-])cc5F)c5ccc([nH]5)c(-c5c(F)cc(S(=O)(=O)[O-])cc5F)c5nc(c(-c6c(F)cc(S(=O)(=O)[O-])cc6F)c6ccc3[nH]6)C=C5)C=C4)cc2)C1=O
REMARK SMILES IDX 21 1 20 2 19 3 18 4 17 5 16 6 14 7 15 8 9 9 8 10 7 11 1 12
REMARK SMILES IDX 2 13 3 14 94 15 4 16 5 17 95 18 6 19 10 20 11 21 12 22 13 23
REMARK SMILES IDX 22 24 23 25 24 26 25 27 26 28 27 29 28 30 29 31 93 32 30 33
REMARK SMILES IDX 92 34 31 35 32 36 33 37 86 38 34 39 91 40 85 41 87 42 35 43
REMARK SMILES IDX 90 44 84 45 83 46 36 48 70 49 49 50 69 51 50 52 53 53 68 54
REMARK SMILES IDX 88 55 51 56 52 57 67 59 89 60 54 61 37 62 38 63 47 64 39 65
REMARK SMILES IDX 40 66 46 67 48 68 41 69 42 70 43 71 44 72 45 73 71 74 72 75
REMARK SMILES IDX 81 76 73 77 74 78 80 79 82 80 75 81 76 82 77 83 78 84 79 85
REMARK SMILES IDX 55 86 56 87 65 88 57 89 58 90 64 91 66 92 59 93 60 94 61 95
REMARK SMILES IDX 62 96 63 97
REMARK H PARENT 87 47 53 58
REMARK Flexibility Score: inf
ROOT
ATOM      1  C   UNL     1      -3.664   7.526  -0.714  1.00  0.00     0.188 C 
ENDROOT
BRANCH   1   2
ATOM      2  C   UNL     1      -4.213   7.562  -2.164  1.00  0.00     0.188 C 
BRANCH   2   3
ATOM      3  O   UNL     1      -5.519   7.038  -2.418  1.00  0.00    -0.376 OA
BRANCH   3   4
ATOM      4  C   UNL     1      -6.126   6.244  -1.417  1.00  0.00     0.202 C 
BRANCH   4   5
ATOM      5  C   UNL     1      -5.665   4.786  -1.333  1.00  0.00     0.261 C 
BRANCH   5   6
ATOM      6  O   UNL     1      -4.342   4.558  -0.808  1.00  0.00    -0.463 OA
BRANCH   6   7
ATOM      7  C   UNL     1      -3.253   4.493  -1.625  1.00  0.00     0.310 C 
ATOM      8  O   UNL     1      -2.454   5.413  -1.800  1.00  0.00    -0.252 OA
BRANCH   7   9
ATOM      9  C   UNL     1      -2.778   3.100  -1.862  1.00  0.00     0.119 C 
BRANCH   9  10
ATOM     10  C   UNL     1      -3.874   2.219  -2.501  1.00  0.00     0.144 C 
BRANCH  10  11
ATOM     11  N   UNL     1      -4.408   2.677  -3.850  1.00  0.00    -0.274 N 
ATOM     12  C   UNL     1      -5.760   5.325  -6.048  1.00  0.00     0.051 C 
ATOM     13  C   UNL     1      -5.347   4.012  -5.489  1.00  0.00     0.023 C 
ATOM     14  C   UNL     1      -5.566   2.752  -5.856  1.00  0.00     0.023 C 
ATOM     15  C   UNL     1      -4.470   3.951  -4.325  1.00  0.00     0.256 C 
ATOM     16  C   UNL     1      -6.268   2.321  -7.085  1.00  0.00     0.051 C 
ATOM     17  C   UNL     1      -5.030   1.883  -4.772  1.00  0.00     0.256 C 
ATOM     18  O   UNL     1      -3.937   4.954  -3.930  1.00  0.00    -0.269 OA
ATOM     19  O   UNL     1      -5.205   0.677  -4.718  1.00  0.00    -0.269 OA
ENDBRANCH  10  11
ENDBRANCH   9  10
BRANCH   9  20
ATOM     20  C   UNL     1      -1.966   2.868  -0.533  1.00  0.00     0.020 C 
BRANCH  20  21
ATOM     21  C   UNL     1      -2.529   2.138   0.702  1.00  0.00    -0.017 C 
ATOM     22  C   UNL     1      -1.716   0.857   0.900  1.00  0.00     0.007 C 
ATOM     23  C   UNL     1      -2.354   2.993   1.985  1.00  0.00     0.007 C 
ENDBRANCH  20  21
ENDBRANCH   9  20
ENDBRANCH   7   9
ENDBRANCH   6   7
ENDBRANCH   5   6
ENDBRANCH   4   5
ENDBRANCH   3   4
ENDBRANCH   2   3
ENDBRANCH   1   2
BRANCH   1  24
ATOM     24  O   UNL     1      -4.350   8.283   0.275  1.00  0.00    -0.376 OA
BRANCH  24  25
ATOM     25  C   UNL     1      -4.787   9.564  -0.127  1.00  0.00     0.202 C 
BRANCH  25  26
ATOM     26  C   UNL     1      -3.665  10.581  -0.354  1.00  0.00     0.261 C 
BRANCH  26  27
ATOM     27  O   UNL     1      -2.785  10.251  -1.450  1.00  0.00    -0.460 OA
BRANCH  27  28
ATOM     28  C   UNL     1      -1.543   9.815  -1.108  1.00  0.00     0.338 C 
ATOM     29  O   UNL     1      -1.099   9.690   0.021  1.00  0.00    -0.246 OA
BRANCH  28  30
ATOM     30  C   UNL     1      -0.797   9.383  -2.313  1.00  0.00     0.060 A 
ATOM     31  C   UNL     1      -0.158   8.134  -2.322  1.00  0.00     0.016 A 
ATOM     32  C   UNL     1      -0.615  10.271  -3.373  1.00  0.00     0.016 A 
ATOM     33  C   UNL     1       0.735   7.807  -3.349  1.00  0.00     0.010 A 
ATOM     34  C   UNL     1       0.279   9.944  -4.397  1.00  0.00     0.010 A 
ATOM     35  C   UNL     1       1.004   8.738  -4.359  1.00  0.00    -0.014 A 
BRANCH  35  36
ATOM     36  C   UNL     1       2.184   8.582  -5.252  1.00  0.00     0.031 A 
ATOM     37  C   UNL     1       3.411   9.410  -4.962  1.00  0.00     0.074 A 
ATOM     38  C   UNL     1       2.161   7.769  -6.322  1.00  0.00     0.049 A 
ATOM     39  N   UNL     1       4.499   9.568  -5.671  1.00  0.00    -0.248 NA
ATOM     40  C   UNL     1       3.393  10.180  -3.708  1.00  0.00     0.031 C 
ATOM     41  C   UNL     1       1.052   6.896  -6.696  1.00  0.00     0.029 A 
ATOM     42  N   UNL     1       3.095   7.576  -7.312  1.00  0.00    -0.354 N 
ATOM     43  C   UNL     1       5.279  10.480  -4.967  1.00  0.00     0.074 A 
ATOM     44  C   UNL     1       4.527  10.857  -3.789  1.00  0.00     0.031 C 
ATOM     45  C   UNL     1       1.353   6.286  -7.856  1.00  0.00     0.029 A 
ATOM     46  C   UNL     1       2.659   6.755  -8.324  1.00  0.00     0.049 A 
ATOM     47  H   UNL     1       3.990   7.986  -7.297  1.00  0.00     0.167 HD
ATOM     48  C   UNL     1       6.509  10.960  -5.273  1.00  0.00     0.037 A 
ATOM     49  C   UNL     1       3.227   6.449  -9.508  1.00  0.00     0.037 A 
ATOM     50  C   UNL     1       7.252  10.572  -6.445  1.00  0.00     0.049 A 
ATOM     51  C   UNL     1       4.579   7.017  -9.855  1.00  0.00     0.074 A 
ATOM     52  C   UNL     1       8.526  10.958  -6.822  1.00  0.00     0.029 A 
ATOM     53  N   UNL     1       6.780   9.726  -7.440  1.00  0.00    -0.354 N 
ATOM     54  N   UNL     1       5.327   7.846  -9.165  1.00  0.00    -0.248 NA
ATOM     55  C   UNL     1       5.168   6.605 -11.137  1.00  0.00     0.031 C 
ATOM     56  C   UNL     1       8.797  10.401  -8.077  1.00  0.00     0.029 A 
ATOM     57  C   UNL     1       7.723   9.609  -8.449  1.00  0.00     0.049 A 
ATOM     58  H   UNL     1       5.905   9.276  -7.430  1.00  0.00     0.167 HD
ATOM     59  C   UNL     1       6.484   8.036  -9.916  1.00  0.00     0.074 A 
ATOM     60  C   UNL     1       6.340   7.227 -11.109  1.00  0.00     0.031 C 
ATOM     61  C   UNL     1       7.568   8.804  -9.639  1.00  0.00     0.037 A 
BRANCH  48  62
ATOM     62  C   UNL     1       7.102  11.995  -4.352  1.00  0.00     0.058 A 
ATOM     63  C   UNL     1       7.495  11.694  -3.037  1.00  0.00     0.135 A 
ATOM     64  C   UNL     1       7.279  13.316  -4.797  1.00  0.00     0.135 A 
ATOM     65  F   UNL     1       7.340  10.452  -2.551  1.00  0.00    -0.206 F 
ATOM     66  C   UNL     1       7.993  12.674  -2.183  1.00  0.00     0.059 A 
ATOM     67  C   UNL     1       7.809  14.304  -3.972  1.00  0.00     0.059 A 
ATOM     68  F   UNL     1       6.926  13.663  -6.044  1.00  0.00    -0.206 F 
ATOM     69  C   UNL     1       8.141  13.978  -2.658  1.00  0.00     0.060 A 
BRANCH  69  70
ATOM     70  S   UNL     1       8.762  15.245  -1.531  1.00  0.00     0.124 S 
ATOM     71  O   UNL     1       7.622  15.424  -0.637  1.00  0.00    -0.237 OA
ATOM     72  O   UNL     1       9.930  14.595  -0.946  1.00  0.00    -0.237 OA
ATOM     73  O   UNL     1       9.051  16.373  -2.411  1.00  0.00    -0.744 OA
ENDBRANCH  69  70
ENDBRANCH  48  62
BRANCH  49  74
ATOM     74  C   UNL     1       2.495   5.567 -10.459  1.00  0.00     0.058 A 
ATOM     75  C   UNL     1       2.916   4.253 -10.706  1.00  0.00     0.135 A 
ATOM     76  C   UNL     1       1.325   6.009 -11.098  1.00  0.00     0.135 A 
ATOM     77  F   UNL     1       4.038   3.789 -10.135  1.00  0.00    -0.206 F 
ATOM     78  C   UNL     1       2.196   3.402 -11.540  1.00  0.00     0.059 A 
ATOM     79  C   UNL     1       0.574   5.169 -11.915  1.00  0.00     0.059 A 
ATOM     80  F   UNL     1       0.877   7.257 -10.893  1.00  0.00    -0.206 F 
ATOM     81  C   UNL     1       1.017   3.865 -12.127  1.00  0.00     0.060 A 
BRANCH  81  82
ATOM     82  S   UNL     1       0.034   2.717 -13.117  1.00  0.00     0.124 S 
ATOM     83  O   UNL     1       0.868   2.557 -14.302  1.00  0.00    -0.237 OA
ATOM     84  O   UNL     1      -0.055   1.556 -12.236  1.00  0.00    -0.237 OA
ATOM     85  O   UNL     1      -1.220   3.436 -13.319  1.00  0.00    -0.744 OA
ENDBRANCH  81  82
ENDBRANCH  49  74
BRANCH  61  86
ATOM     86  C   UNL     1       8.709   8.790 -10.623  1.00  0.00     0.058 A 
ATOM     87  C   UNL     1       8.613   9.400 -11.884  1.00  0.00     0.135 A 
ATOM     88  C   UNL     1       9.941   8.211 -10.272  1.00  0.00     0.135 A 
ATOM     89  F   UNL     1       7.460   9.965 -12.275  1.00  0.00    -0.206 F 
ATOM     90  C   UNL     1       9.687   9.415 -12.770  1.00  0.00     0.059 A 
ATOM     91  C   UNL     1      11.038   8.243 -11.129  1.00  0.00     0.059 A 
ATOM     92  F   UNL     1      10.096   7.624  -9.075  1.00  0.00    -0.206 F 
ATOM     93  C   UNL     1      10.897   8.837 -12.382  1.00  0.00     0.060 A 
BRANCH  93  94
ATOM     94  S   UNL     1      12.291   8.892 -13.528  1.00  0.00     0.124 S 
ATOM     95  O   UNL     1      11.871   7.938 -14.549  1.00  0.00    -0.237 OA
ATOM     96  O   UNL     1      12.305  10.293 -13.936  1.00  0.00    -0.237 OA
ATOM     97  O   UNL     1      13.424   8.473 -12.707  1.00  0.00    -0.744 OA
ENDBRANCH  93  94
ENDBRANCH  61  86
ENDBRANCH  35  36
ENDBRANCH  28  30
ENDBRANCH  27  28
ENDBRANCH  26  27
ENDBRANCH  25  26
ENDBRANCH  24  25
ENDBRANCH   1  24
TORSDOF 24
