REMARK SMILES Cc1ccc(-c2nc(C)cc(N3CCCC[C@H]3C(=O)OCCOCCOCCOC(=O)c3ccc(-c4c5nc(c(-c6c(F)cc(S(=O)(=O)[O-])cc6F)c6ccc([nH]6)c(-c6c(F)cc(S(=O)(=O)[O-])cc6F)c6nc(c(-c7c(F)cc(S(=O)(=O)[O-])cc7F)c7ccc4[nH]7)C=C6)C=C5)cc3)n2)cc1
REMARK SMILES IDX 25 1 24 2 23 3 22 4 21 5 20 6 18 7 19 8 17 9 12 10 13 11
REMARK SMILES IDX 14 12 16 13 15 14 11 15 6 16 7 17 98 18 8 19 9 20 10 21 5 22
REMARK SMILES IDX 1 23 2 24 3 25 100 26 4 27 99 28 26 29 27 30 28 31 29 32
REMARK SMILES IDX 30 33 31 34 32 35 33 36 97 37 34 38 96 39 35 40 36 41 37 42
REMARK SMILES IDX 90 43 38 44 95 45 89 46 91 47 39 48 94 49 88 50 87 51 40 53
REMARK SMILES IDX 74 54 53 55 73 56 54 57 57 58 72 59 92 60 55 61 56 62 71 64
REMARK SMILES IDX 93 65 58 66 41 67 42 68 51 69 43 70 44 71 50 72 52 73 45 74
REMARK SMILES IDX 46 75 47 76 48 77 49 78 75 79 76 80 85 81 77 82 78 83 84 84
REMARK SMILES IDX 86 85 79 86 80 87 81 88 82 89 83 90 59 91 60 92 69 93 61 94
REMARK SMILES IDX 62 95 68 96 70 97 63 98 64 99 65 100 66 101 67 102
REMARK H PARENT 91 52 57 63
REMARK Flexibility Score: inf
ROOT
ATOM      1  C   UNL     1     -10.357  -0.559  -6.627  1.00  0.00     0.188 C 
ENDROOT
BRANCH   1   2
ATOM      2  C   UNL     1     -10.800   0.241  -5.404  1.00  0.00     0.188 C 
BRANCH   2   3
ATOM      3  O   UNL     1     -10.948   1.680  -5.372  1.00  0.00    -0.376 OA
BRANCH   3   4
ATOM      4  C   UNL     1     -10.060   2.649  -5.976  1.00  0.00     0.202 C 
BRANCH   4   5
ATOM      5  C   UNL     1      -8.936   3.768  -5.233  1.00  0.00     0.261 C 
BRANCH   5   6
ATOM      6  O   UNL     1      -7.386   3.528  -4.338  1.00  0.00    -0.462 OA
BRANCH   6   7
ATOM      7  C   UNL     1      -6.854   3.138  -2.997  1.00  0.00     0.328 C 
ATOM      8  O   UNL     1      -7.465   2.636  -2.041  1.00  0.00    -0.250 OA
BRANCH   7   9
ATOM      9  C   UNL     1      -5.458   3.499  -2.541  1.00  0.00     0.193 C 
ATOM     10  N   UNL     1      -4.662   2.286  -2.255  1.00  0.00    -0.343 N 
ATOM     11  C   UNL     1      -4.219   1.531  -3.417  1.00  0.00     0.119 C 
ATOM     12  C   UNL     1      -3.519   2.464  -4.405  1.00  0.00     0.022 C 
ATOM     13  C   UNL     1      -4.724   4.446  -3.454  1.00  0.00     0.037 C 
ATOM     14  C   UNL     1      -4.310   3.730  -4.726  1.00  0.00     0.005 C 
BRANCH  10  15
ATOM     15  C   UNL     1      -4.468   1.642  -1.051  1.00  0.00     0.133 A 
ATOM     16  C   UNL     1      -2.847   0.592   0.224  1.00  0.00     0.161 A 
ATOM     17  N   UNL     1      -3.696  -0.002   1.061  1.00  0.00    -0.233 NA
ATOM     18  N   UNL     1      -3.176   1.407  -0.791  1.00  0.00    -0.211 NA
ATOM     19  C   UNL     1      -4.997   0.274   0.846  1.00  0.00     0.043 A 
ATOM     20  C   UNL     1      -5.919  -0.439   1.793  1.00  0.00     0.067 C 
ATOM     21  C   UNL     1      -5.432   1.103  -0.203  1.00  0.00     0.070 A 
BRANCH  16  22
ATOM     22  C   UNL     1      -1.419   0.332   0.349  1.00  0.00     0.019 A 
ATOM     23  C   UNL     1       2.826  -0.300  -0.007  1.00  0.00     0.044 C 
ATOM     24  C   UNL     1       1.359  -0.081   0.188  1.00  0.00    -0.051 A 
ATOM     25  C   UNL     1       0.485  -1.172   0.299  1.00  0.00     0.004 A 
ATOM     26  C   UNL     1       0.843   1.216   0.211  1.00  0.00     0.004 A 
ATOM     27  C   UNL     1      -0.895  -0.967   0.389  1.00  0.00     0.012 A 
ATOM     28  C   UNL     1      -0.530   1.416   0.292  1.00  0.00     0.012 A 
ENDBRANCH  16  22
ENDBRANCH  10  15
ENDBRANCH   7   9
ENDBRANCH   6   7
ENDBRANCH   5   6
ENDBRANCH   4   5
ENDBRANCH   3   4
ENDBRANCH   2   3
ENDBRANCH   1   2
BRANCH   1  29
ATOM     29  O   UNL     1      -9.428   0.172  -7.395  1.00  0.00    -0.376 OA
BRANCH  29  30
ATOM     30  C   UNL     1      -8.986  -0.457  -8.580  1.00  0.00     0.202 C 
BRANCH  30  31
ATOM     31  C   UNL     1      -8.014  -1.627  -8.355  1.00  0.00     0.261 C 
BRANCH  31  32
ATOM     32  O   UNL     1      -6.728  -1.224  -7.829  1.00  0.00    -0.460 OA
BRANCH  32  33
ATOM     33  C   UNL     1      -6.389  -1.658  -6.563  1.00  0.00     0.338 C 
ATOM     34  O   UNL     1      -5.579  -2.554  -6.375  1.00  0.00    -0.246 OA
BRANCH  33  35
ATOM     35  C   UNL     1      -6.896  -0.721  -5.521  1.00  0.00     0.060 A 
ATOM     36  C   UNL     1      -7.290  -0.954  -4.196  1.00  0.00     0.016 A 
ATOM     37  C   UNL     1      -7.014   0.553  -5.941  1.00  0.00     0.016 A 
ATOM     38  C   UNL     1      -8.031   0.026  -3.390  1.00  0.00     0.010 A 
ATOM     39  C   UNL     1      -7.802   1.410  -5.190  1.00  0.00     0.010 A 
ATOM     40  C   UNL     1      -8.430   1.272  -3.890  1.00  0.00    -0.014 A 
BRANCH  40  41
ATOM     41  C   UNL     1      -9.500   2.437  -3.075  1.00  0.00     0.031 A 
ATOM     42  C   UNL     1      -9.293   4.173  -2.597  1.00  0.00     0.074 A 
ATOM     43  C   UNL     1     -10.668   1.963  -2.588  1.00  0.00     0.049 A 
ATOM     44  N   UNL     1      -9.990   4.812  -1.678  1.00  0.00    -0.248 NA
ATOM     45  C   UNL     1      -8.278   5.253  -3.075  1.00  0.00     0.031 C 
ATOM     46  C   UNL     1     -11.849   2.746  -2.229  1.00  0.00     0.029 A 
ATOM     47  N   UNL     1     -11.024   0.650  -2.264  1.00  0.00    -0.354 N 
ATOM     48  C   UNL     1      -9.654   6.183  -1.747  1.00  0.00     0.074 A 
ATOM     49  C   UNL     1      -8.369   6.298  -2.281  1.00  0.00     0.031 C 
ATOM     50  C   UNL     1     -12.677   1.974  -1.509  1.00  0.00     0.029 A 
ATOM     51  C   UNL     1     -11.957   0.749  -1.222  1.00  0.00     0.049 A 
ATOM     52  H   UNL     1     -10.687  -0.175  -2.681  1.00  0.00     0.167 HD
ATOM     53  C   UNL     1     -10.574   7.184  -1.679  1.00  0.00     0.037 A 
ATOM     54  C   UNL     1     -11.683   0.248   0.014  1.00  0.00     0.037 A 
ATOM     55  C   UNL     1     -11.667   6.701  -0.890  1.00  0.00     0.049 A 
ATOM     56  C   UNL     1     -11.812   1.300   1.095  1.00  0.00     0.074 A 
ATOM     57  C   UNL     1     -12.948   6.285  -1.169  1.00  0.00     0.029 A 
ATOM     58  N   UNL     1     -11.341   6.222   0.370  1.00  0.00    -0.354 N 
ATOM     59  N   UNL     1     -11.855   2.585   0.858  1.00  0.00    -0.248 NA
ATOM     60  C   UNL     1     -11.960   1.003   2.515  1.00  0.00     0.031 C 
ATOM     61  C   UNL     1     -13.314   5.378  -0.129  1.00  0.00     0.029 A 
ATOM     62  C   UNL     1     -12.286   5.322   0.801  1.00  0.00     0.049 A 
ATOM     63  H   UNL     1     -10.545   6.489   0.883  1.00  0.00     0.167 HD
ATOM     64  C   UNL     1     -12.012   3.277   2.027  1.00  0.00     0.074 A 
ATOM     65  C   UNL     1     -12.090   2.237   3.036  1.00  0.00     0.031 C 
ATOM     66  C   UNL     1     -12.059   4.642   2.069  1.00  0.00     0.037 A 
BRANCH  53  67
ATOM     67  C   UNL     1     -10.506   8.521  -2.449  1.00  0.00     0.058 A 
ATOM     68  C   UNL     1     -11.437   9.543  -2.171  1.00  0.00     0.135 A 
ATOM     69  C   UNL     1      -9.661   8.818  -3.560  1.00  0.00     0.135 A 
ATOM     70  F   UNL     1     -12.331   9.395  -1.183  1.00  0.00    -0.206 F 
ATOM     71  C   UNL     1     -11.523  10.738  -2.913  1.00  0.00     0.059 A 
ATOM     72  C   UNL     1      -9.685  10.027  -4.271  1.00  0.00     0.059 A 
ATOM     73  F   UNL     1      -8.812   7.925  -4.084  1.00  0.00    -0.206 F 
ATOM     74  C   UNL     1     -10.641  10.975  -3.962  1.00  0.00     0.060 A 
BRANCH  74  75
ATOM     75  S   UNL     1     -10.780  12.483  -4.951  1.00  0.00     0.124 S 
ATOM     76  O   UNL     1     -12.019  12.247  -5.686  1.00  0.00    -0.237 OA
ATOM     77  O   UNL     1     -10.831  13.526  -3.933  1.00  0.00    -0.237 OA
ATOM     78  O   UNL     1      -9.566  12.472  -5.766  1.00  0.00    -0.744 OA
ENDBRANCH  74  75
ENDBRANCH  53  67
BRANCH  54  79
ATOM     79  C   UNL     1     -10.782  -0.947  -0.035  1.00  0.00     0.058 A 
ATOM     80  C   UNL     1     -11.245  -2.101  -0.707  1.00  0.00     0.135 A 
ATOM     81  C   UNL     1      -9.399  -0.849   0.152  1.00  0.00     0.135 A 
ATOM     82  F   UNL     1     -12.557  -2.246  -0.956  1.00  0.00    -0.206 F 
ATOM     83  C   UNL     1     -10.382  -3.049  -1.255  1.00  0.00     0.059 A 
ATOM     84  C   UNL     1      -8.509  -1.808  -0.367  1.00  0.00     0.059 A 
ATOM     85  F   UNL     1      -8.889   0.255   0.716  1.00  0.00    -0.206 F 
ATOM     86  C   UNL     1      -9.010  -2.880  -1.108  1.00  0.00     0.060 A 
BRANCH  86  87
ATOM     87  S   UNL     1      -7.922  -3.971  -2.067  1.00  0.00     0.124 S 
ATOM     88  O   UNL     1      -8.138  -5.262  -1.428  1.00  0.00    -0.237 OA
ATOM     89  O   UNL     1      -8.478  -3.836  -3.414  1.00  0.00    -0.237 OA
ATOM     90  O   UNL     1      -6.601  -3.382  -1.875  1.00  0.00    -0.744 OA
ENDBRANCH  86  87
ENDBRANCH  54  79
BRANCH  66  91
ATOM     91  C   UNL     1     -11.882   5.496   3.309  1.00  0.00     0.058 A 
ATOM     92  C   UNL     1     -11.188   5.083   4.457  1.00  0.00     0.135 A 
ATOM     93  C   UNL     1     -12.269   6.863   3.294  1.00  0.00     0.135 A 
ATOM     94  F   UNL     1     -10.651   3.858   4.551  1.00  0.00    -0.206 F 
ATOM     95  C   UNL     1     -10.971   5.929   5.545  1.00  0.00     0.059 A 
ATOM     96  C   UNL     1     -11.989   7.744   4.332  1.00  0.00     0.059 A 
ATOM     97  F   UNL     1     -12.919   7.401   2.251  1.00  0.00    -0.206 F 
ATOM     98  C   UNL     1     -11.378   7.257   5.475  1.00  0.00     0.060 A 
BRANCH  98  99
ATOM     99  S   UNL     1     -11.097   8.365   6.863  1.00  0.00     0.124 S 
ATOM    100  O   UNL     1     -12.364   8.253   7.579  1.00  0.00    -0.237 OA
ATOM    101  O   UNL     1      -9.942   7.771   7.530  1.00  0.00    -0.237 OA
ATOM    102  O   UNL     1     -10.846   9.649   6.216  1.00  0.00    -0.744 OA
ENDBRANCH  98  99
ENDBRANCH  66  91
ENDBRANCH  40  41
ENDBRANCH  33  35
ENDBRANCH  32  33
ENDBRANCH  31  32
ENDBRANCH  30  31
ENDBRANCH  29  30
ENDBRANCH   1  29
TORSDOF 22
