REMARK SMILES Cc1ccc(C(=O)NC2CC2)cc1NC(=O)[C@@H]1[C@@H](C(=O)OCCOCCOCCOC(=O)c2ccc(-c3c4nc(c(-c5c(F)cc(S(=O)(=O)[O-])cc5F)c5ccc([nH]5)c(-c5c(F)cc(S(=O)(=O)[O-])cc5F)c5nc(c(-c6c(F)cc(S(=O)(=O)[O-])cc6F)c6ccc3[nH]6)C=C5)C=C4)cc2)[C@H]2C=C[C@@H]1C2
REMARK SMILES IDX 25 1 24 2 23 3 22 4 21 5 19 6 20 7 18 8 17 9 102 10 99 11
REMARK SMILES IDX 101 12 103 13 100 14 15 15 14 16 16 18 13 19 1 20 2 21 3 22
REMARK SMILES IDX 4 23 12 24 5 25 6 26 7 27 8 28 9 30 10 31 11 32 26 33 27 34
REMARK SMILES IDX 28 35 29 36 30 37 31 38 32 39 33 40 34 41 98 42 35 43 97 44
REMARK SMILES IDX 36 45 37 46 38 47 91 48 39 49 96 50 90 51 92 52 40 53 95 54
REMARK SMILES IDX 89 55 88 56 41 58 75 59 54 60 74 61 55 62 58 63 73 64 93 65
REMARK SMILES IDX 56 66 57 67 72 69 94 70 59 71 42 72 43 73 52 74 44 75 45 76
REMARK SMILES IDX 51 77 53 78 46 79 47 80 48 81 49 82 50 83 76 84 77 85 86 86
REMARK SMILES IDX 78 87 79 88 85 89 87 90 80 91 81 92 82 93 83 94 84 95 60 96
REMARK SMILES IDX 61 97 70 98 62 99 63 100 69 101 71 102 64 103 65 104 66 105
REMARK SMILES IDX 67 106 68 107
REMARK H PARENT 14 17 8 29 92 57 58 68
REMARK Flexibility Score: inf
ROOT
ATOM      1  C   UNL     1      -0.845   6.730  -5.286  1.00  0.00     0.188 C 
ENDROOT
BRANCH   1   2
ATOM      2  O   UNL     1      -2.213   7.098  -5.376  1.00  0.00    -0.376 OA
BRANCH   2   3
ATOM      3  C   UNL     1      -2.953   6.422  -4.360  1.00  0.00     0.202 C 
BRANCH   3   4
ATOM      4  C   UNL     1      -2.496   6.725  -2.925  1.00  0.00     0.261 C 
BRANCH   4   5
ATOM      5  O   UNL     1      -1.487   6.038  -1.994  1.00  0.00    -0.463 OA
BRANCH   5   6
ATOM      6  C   UNL     1      -1.409   4.784  -1.426  1.00  0.00     0.310 C 
ATOM      7  O   UNL     1      -1.776   3.800  -2.055  1.00  0.00    -0.252 OA
BRANCH   6   8
ATOM      8  C   UNL     1      -0.863   4.626   0.057  1.00  0.00     0.119 C 
ATOM      9  C   UNL     1      -0.418   3.162   0.407  1.00  0.00     0.100 C 
ATOM     10  C   UNL     1      -0.467   3.090   1.978  1.00  0.00     0.025 C 
ATOM     11  C   UNL     1      -1.636   4.899   1.437  1.00  0.00     0.027 C 
ATOM     12  C   UNL     1      -1.877   2.828   2.407  1.00  0.00    -0.027 C 
ATOM     13  C   UNL     1      -0.466   4.560   2.387  1.00  0.00     0.017 C 
ATOM     14  C   UNL     1      -2.594   3.873   1.988  1.00  0.00    -0.027 C 
BRANCH   9  15
ATOM     15  C   UNL     1       0.960   2.801  -0.036  1.00  0.00     0.228 C 
ATOM     16  N   UNL     1       1.317   1.503  -0.268  1.00  0.00    -0.326 N 
ATOM     17  H   UNL     1       2.238   1.428  -0.608  1.00  0.00     0.169 HD
ATOM     18  O   UNL     1       1.859   3.649  -0.007  1.00  0.00    -0.274 OA
BRANCH  16  19
ATOM     19  C   UNL     1       0.692   0.237  -0.141  1.00  0.00     0.044 A 
ATOM     20  C   UNL     1       3.035  -0.799   0.120  1.00  0.00     0.046 C 
ATOM     21  C   UNL     1       1.531  -0.877   0.084  1.00  0.00    -0.027 A 
ATOM     22  C   UNL     1       0.967  -2.155   0.252  1.00  0.00     0.006 A 
ATOM     23  C   UNL     1      -0.410  -2.341   0.230  1.00  0.00     0.014 A 
ATOM     24  C   UNL     1      -0.693   0.002  -0.238  1.00  0.00     0.040 A 
ATOM     25  C   UNL     1      -1.263  -1.265  -0.012  1.00  0.00     0.041 A 
BRANCH  25  26
ATOM     26  C   UNL     1      -2.726  -1.596  -0.067  1.00  0.00     0.251 C 
ATOM     27  O   UNL     1      -3.066  -2.738  -0.383  1.00  0.00    -0.269 OA
ATOM     28  N   UNL     1      -3.700  -0.695   0.293  1.00  0.00    -0.349 N 
ATOM     29  H   UNL     1      -4.621  -1.044   0.297  1.00  0.00     0.164 HD
BRANCH  28  30
ATOM     30  C   UNL     1      -3.559   0.665   0.658  1.00  0.00     0.082 C 
ATOM     31  C   UNL     1      -3.750   1.690  -0.410  1.00  0.00     0.027 C 
ATOM     32  C   UNL     1      -4.729   1.605   0.695  1.00  0.00     0.027 C 
ENDBRANCH  28  30
ENDBRANCH  25  26
ENDBRANCH  16  19
ENDBRANCH   9  15
ENDBRANCH   6   8
ENDBRANCH   5   6
ENDBRANCH   4   5
ENDBRANCH   3   4
ENDBRANCH   2   3
ENDBRANCH   1   2
BRANCH   1  33
ATOM     33  C   UNL     1       0.023   7.828  -4.674  1.00  0.00     0.188 C 
BRANCH  33  34
ATOM     34  O   UNL     1      -0.638   8.701  -3.765  1.00  0.00    -0.376 OA
BRANCH  34  35
ATOM     35  C   UNL     1      -1.374   9.777  -4.346  1.00  0.00     0.202 C 
BRANCH  35  36
ATOM     36  C   UNL     1      -0.663  11.061  -3.923  1.00  0.00     0.261 C 
BRANCH  36  37
ATOM     37  O   UNL     1      -0.993  11.363  -2.547  1.00  0.00    -0.460 OA
BRANCH  37  38
ATOM     38  C   UNL     1      -0.356  10.583  -1.639  1.00  0.00     0.338 C 
ATOM     39  O   UNL     1       0.861  10.473  -1.538  1.00  0.00    -0.246 OA
BRANCH  38  40
ATOM     40  C   UNL     1      -1.362   9.756  -0.905  1.00  0.00     0.060 A 
ATOM     41  C   UNL     1      -0.896   8.652  -0.239  1.00  0.00     0.016 A 
ATOM     42  C   UNL     1      -2.753   9.886  -1.032  1.00  0.00     0.016 A 
ATOM     43  C   UNL     1      -1.802   7.635   0.107  1.00  0.00     0.010 A 
ATOM     44  C   UNL     1      -3.639   8.813  -0.709  1.00  0.00     0.010 A 
ATOM     45  C   UNL     1      -3.171   7.574  -0.239  1.00  0.00    -0.014 A 
BRANCH  45  46
ATOM     46  C   UNL     1      -4.156   6.332  -0.245  1.00  0.00     0.031 A 
ATOM     47  C   UNL     1      -4.982   6.132   0.989  1.00  0.00     0.074 A 
ATOM     48  C   UNL     1      -4.597   5.420  -1.223  1.00  0.00     0.049 A 
ATOM     49  N   UNL     1      -5.816   5.146   1.157  1.00  0.00    -0.248 NA
ATOM     50  C   UNL     1      -4.856   6.970   2.182  1.00  0.00     0.031 C 
ATOM     51  C   UNL     1      -6.039   5.254  -1.495  1.00  0.00     0.029 A 
ATOM     52  N   UNL     1      -4.096   4.641  -2.299  1.00  0.00    -0.354 N 
ATOM     53  C   UNL     1      -6.634   5.536   2.175  1.00  0.00     0.074 A 
ATOM     54  C   UNL     1      -5.820   6.442   2.947  1.00  0.00     0.031 C 
ATOM     55  C   UNL     1      -6.252   4.333  -2.448  1.00  0.00     0.029 A 
ATOM     56  C   UNL     1      -5.000   3.746  -2.877  1.00  0.00     0.049 A 
ATOM     57  H   UNL     1      -3.169   4.726  -2.618  1.00  0.00     0.167 HD
ATOM     58  C   UNL     1      -7.979   5.328   2.082  1.00  0.00     0.037 A 
ATOM     59  C   UNL     1      -4.787   2.539  -3.519  1.00  0.00     0.037 A 
ATOM     60  C   UNL     1      -8.383   4.402   1.006  1.00  0.00     0.049 A 
ATOM     61  C   UNL     1      -5.820   1.506  -3.051  1.00  0.00     0.074 A 
ATOM     62  C   UNL     1      -9.186   4.539  -0.116  1.00  0.00     0.029 A 
ATOM     63  N   UNL     1      -7.858   3.113   0.931  1.00  0.00    -0.354 N 
ATOM     64  N   UNL     1      -6.914   1.832  -2.415  1.00  0.00    -0.248 NA
ATOM     65  C   UNL     1      -5.632   0.049  -3.045  1.00  0.00     0.031 C 
ATOM     66  C   UNL     1      -9.142   3.325  -0.859  1.00  0.00     0.029 A 
ATOM     67  C   UNL     1      -8.333   2.426  -0.186  1.00  0.00     0.049 A 
ATOM     68  H   UNL     1      -7.229   2.733   1.587  1.00  0.00     0.167 HD
ATOM     69  C   UNL     1      -7.284   0.788  -1.602  1.00  0.00     0.074 A 
ATOM     70  C   UNL     1      -6.583  -0.348  -2.175  1.00  0.00     0.031 C 
ATOM     71  C   UNL     1      -7.962   1.016  -0.425  1.00  0.00     0.037 A 
BRANCH  58  72
ATOM     72  C   UNL     1      -8.987   6.178   2.847  1.00  0.00     0.058 A 
ATOM     73  C   UNL     1     -10.335   5.773   2.941  1.00  0.00     0.135 A 
ATOM     74  C   UNL     1      -8.718   7.445   3.419  1.00  0.00     0.135 A 
ATOM     75  F   UNL     1     -10.748   4.622   2.391  1.00  0.00    -0.206 F 
ATOM     76  C   UNL     1     -11.318   6.545   3.573  1.00  0.00     0.059 A 
ATOM     77  C   UNL     1      -9.659   8.189   4.125  1.00  0.00     0.059 A 
ATOM     78  F   UNL     1      -7.553   8.082   3.252  1.00  0.00    -0.206 F 
ATOM     79  C   UNL     1     -10.966   7.746   4.178  1.00  0.00     0.060 A 
BRANCH  79  80
ATOM     80  S   UNL     1     -12.213   8.754   4.997  1.00  0.00     0.124 S 
ATOM     81  O   UNL     1     -12.940   9.307   3.858  1.00  0.00    -0.237 OA
ATOM     82  O   UNL     1     -12.933   7.774   5.802  1.00  0.00    -0.237 OA
ATOM     83  O   UNL     1     -11.421   9.718   5.757  1.00  0.00    -0.744 OA
ENDBRANCH  79  80
ENDBRANCH  58  72
BRANCH  59  84
ATOM     84  C   UNL     1      -3.417   2.222  -4.115  1.00  0.00     0.058 A 
ATOM     85  C   UNL     1      -2.990   2.991  -5.213  1.00  0.00     0.135 A 
ATOM     86  C   UNL     1      -2.410   1.410  -3.559  1.00  0.00     0.135 A 
ATOM     87  F   UNL     1      -3.899   3.655  -5.947  1.00  0.00    -0.206 F 
ATOM     88  C   UNL     1      -1.636   3.195  -5.527  1.00  0.00     0.059 A 
ATOM     89  C   UNL     1      -1.042   1.615  -3.825  1.00  0.00     0.059 A 
ATOM     90  F   UNL     1      -2.706   0.425  -2.704  1.00  0.00    -0.206 F 
ATOM     91  C   UNL     1      -0.664   2.595  -4.737  1.00  0.00     0.060 A 
BRANCH  91  92
ATOM     92  S   UNL     1       1.035   3.240  -4.691  1.00  0.00     0.124 S 
ATOM     93  O   UNL     1       1.824   2.093  -5.122  1.00  0.00    -0.237 OA
ATOM     94  O   UNL     1       1.008   4.360  -5.629  1.00  0.00    -0.237 OA
ATOM     95  O   UNL     1       1.179   3.621  -3.290  1.00  0.00    -0.744 OA
ENDBRANCH  91  92
ENDBRANCH  59  84
BRANCH  71  96
ATOM     96  C   UNL     1      -8.276   0.000   0.674  1.00  0.00     0.058 A 
ATOM     97  C   UNL     1      -7.593  -1.205   0.921  1.00  0.00     0.135 A 
ATOM     98  C   UNL     1      -9.289   0.306   1.621  1.00  0.00     0.135 A 
ATOM     99  F   UNL     1      -6.509  -1.552   0.216  1.00  0.00    -0.206 F 
ATOM    100  C   UNL     1      -7.957  -2.086   1.951  1.00  0.00     0.059 A 
ATOM    101  C   UNL     1      -9.619  -0.518   2.694  1.00  0.00     0.059 A 
ATOM    102  F   UNL     1     -10.005   1.436   1.537  1.00  0.00    -0.206 F 
ATOM    103  C   UNL     1      -8.985  -1.741   2.822  1.00  0.00     0.060 A 
BRANCH 103 104
ATOM    104  S   UNL     1      -9.498  -2.878   4.125  1.00  0.00     0.124 S 
ATOM    105  O   UNL     1     -10.434  -3.736   3.405  1.00  0.00    -0.237 OA
ATOM    106  O   UNL     1      -8.242  -3.506   4.521  1.00  0.00    -0.237 OA
ATOM    107  O   UNL     1     -10.092  -1.998   5.126  1.00  0.00    -0.744 OA
ENDBRANCH 103 104
ENDBRANCH  71  96
ENDBRANCH  45  46
ENDBRANCH  38  40
ENDBRANCH  37  38
ENDBRANCH  36  37
ENDBRANCH  35  36
ENDBRANCH  34  35
ENDBRANCH  33  34
ENDBRANCH   1  33
TORSDOF 24
