REMARK SMILES Cn1ccc(C(=O)NCc2ccc(C(=O)OCCOCCOCCOC(=O)c3ccc(-c4c5nc(c(-c6c(F)cc(S(=O)(=O)[O-])cc6F)c6ccc([nH]6)c(-c6c(F)cc(S(=O)(=O)[O-])cc6F)c6nc(c(-c7c(F)cc(S(=O)(=O)[O-])cc7F)c7ccc4[nH]7)C=C6)C=C5)cc3)cc2)cc1=O
REMARK SMILES IDX 20 1 19 2 18 3 17 4 16 5 14 6 15 7 13 8 10 9 11 10 95 11
REMARK SMILES IDX 12 12 94 13 9 14 8 15 6 16 7 17 5 19 1 20 2 21 3 22 97 23
REMARK SMILES IDX 4 24 96 25 98 26 21 27 22 28 23 29 24 30 25 31 26 32 27 33
REMARK SMILES IDX 28 34 29 35 93 36 30 37 92 38 31 39 32 40 33 41 86 42 34 43
REMARK SMILES IDX 91 44 85 45 87 46 35 47 90 48 84 49 83 50 36 52 70 53 49 54
REMARK SMILES IDX 69 55 50 56 53 57 68 58 88 59 51 60 52 61 67 63 89 64 54 65
REMARK SMILES IDX 37 66 38 67 47 68 39 69 40 70 46 71 48 72 41 73 42 74 43 75
REMARK SMILES IDX 44 76 45 77 71 78 72 79 81 80 73 81 74 82 80 83 82 84 75 85
REMARK SMILES IDX 76 86 77 87 78 88 79 89 55 90 56 91 65 92 57 93 58 94 64 95
REMARK SMILES IDX 66 96 59 97 60 98 61 99 62 100 63 101
REMARK H PARENT 8 18 87 51 53 62
REMARK Flexibility Score: inf
ROOT
ATOM      1  C   UNL     1       1.698   9.305   4.206  1.00  0.00     0.188 C 
ENDROOT
BRANCH   1   2
ATOM      2  O   UNL     1       1.750   9.874   5.495  1.00  0.00    -0.376 OA
BRANCH   2   3
ATOM      3  C   UNL     1       2.130   9.104   6.621  1.00  0.00     0.202 C 
BRANCH   3   4
ATOM      4  C   UNL     1       2.023   7.574   6.721  1.00  0.00     0.261 C 
BRANCH   4   5
ATOM      5  O   UNL     1       2.218   6.835   5.512  1.00  0.00    -0.460 OA
BRANCH   5   6
ATOM      6  C   UNL     1       1.118   6.162   5.069  1.00  0.00     0.338 C 
ATOM      7  O   UNL     1       0.033   6.110   5.599  1.00  0.00    -0.246 OA
BRANCH   6   8
ATOM      8  C   UNL     1       1.389   5.620   3.716  1.00  0.00     0.060 A 
ATOM      9  C   UNL     1       1.818   4.634   1.117  1.00  0.00    -0.029 A 
ATOM     10  C   UNL     1       0.623   5.295   1.439  1.00  0.00     0.006 A 
ATOM     11  C   UNL     1       2.812   4.521   2.108  1.00  0.00     0.006 A 
ATOM     12  C   UNL     1       0.403   5.772   2.734  1.00  0.00     0.016 A 
ATOM     13  C   UNL     1       2.600   5.006   3.401  1.00  0.00     0.016 A 
BRANCH   9  14
ATOM     14  C   UNL     1       2.025   4.108  -0.288  1.00  0.00     0.152 C 
BRANCH  14  15
ATOM     15  N   UNL     1       2.993   3.030  -0.331  1.00  0.00    -0.348 N 
ATOM     16  C   UNL     1       2.935   1.692  -0.138  1.00  0.00     0.251 C 
ATOM     17  O   UNL     1       4.023   1.104  -0.118  1.00  0.00    -0.269 OA
ATOM     18  H   UNL     1       3.900   3.343  -0.552  1.00  0.00     0.164 HD
BRANCH  16  19
ATOM     19  C   UNL     1       1.669   0.888  -0.016  1.00  0.00     0.046 A 
ATOM     20  C   UNL     1      -1.665  -1.766   0.019  1.00  0.00     0.153 C 
ATOM     21  N   UNL     1      -0.532  -0.854   0.048  1.00  0.00    -0.319 N 
ATOM     22  C   UNL     1       0.731  -1.359  -0.175  1.00  0.00     0.089 A 
ATOM     23  C   UNL     1      -0.748   0.494   0.310  1.00  0.00     0.251 A 
ATOM     24  C   UNL     1       1.796  -0.554  -0.211  1.00  0.00     0.032 A 
ATOM     25  C   UNL     1       0.458   1.372   0.298  1.00  0.00     0.085 A 
ATOM     26  O   UNL     1      -1.844   0.999   0.532  1.00  0.00    -0.269 OA
ENDBRANCH  16  19
ENDBRANCH  14  15
ENDBRANCH   9  14
ENDBRANCH   6   8
ENDBRANCH   5   6
ENDBRANCH   4   5
ENDBRANCH   3   4
ENDBRANCH   2   3
ENDBRANCH   1   2
BRANCH   1  27
ATOM     27  C   UNL     1       3.010   8.887   3.511  1.00  0.00     0.188 C 
BRANCH  27  28
ATOM     28  O   UNL     1       4.239   8.944   4.203  1.00  0.00    -0.376 OA
BRANCH  28  29
ATOM     29  C   UNL     1       4.736  10.182   4.680  1.00  0.00     0.202 C 
BRANCH  29  30
ATOM     30  C   UNL     1       4.494  11.541   4.000  1.00  0.00     0.261 C 
BRANCH  30  31
ATOM     31  O   UNL     1       3.244  11.728   3.332  1.00  0.00    -0.460 OA
BRANCH  31  32
ATOM     32  C   UNL     1       3.317  11.775   1.978  1.00  0.00     0.338 C 
ATOM     33  O   UNL     1       4.313  11.649   1.287  1.00  0.00    -0.246 OA
BRANCH  32  34
ATOM     34  C   UNL     1       1.953  11.835   1.424  1.00  0.00     0.060 A 
ATOM     35  C   UNL     1       1.479  10.741   0.688  1.00  0.00     0.016 A 
ATOM     36  C   UNL     1       1.169  12.977   1.586  1.00  0.00     0.016 A 
ATOM     37  C   UNL     1       0.217  10.791   0.099  1.00  0.00     0.010 A 
ATOM     38  C   UNL     1      -0.086  13.035   0.974  1.00  0.00     0.010 A 
ATOM     39  C   UNL     1      -0.558  11.953   0.208  1.00  0.00    -0.014 A 
BRANCH  39  40
ATOM     40  C   UNL     1      -1.792  12.098  -0.602  1.00  0.00     0.031 A 
ATOM     41  C   UNL     1      -1.722  12.883  -1.884  1.00  0.00     0.074 A 
ATOM     42  C   UNL     1      -2.952  11.546  -0.204  1.00  0.00     0.049 A 
ATOM     43  N   UNL     1      -2.683  13.210  -2.707  1.00  0.00    -0.248 NA
ATOM     44  C   UNL     1      -0.392  13.367  -2.289  1.00  0.00     0.031 C 
ATOM     45  C   UNL     1      -3.136  10.739   1.001  1.00  0.00     0.029 A 
ATOM     46  N   UNL     1      -4.204  11.601  -0.766  1.00  0.00    -0.354 N 
ATOM     47  C   UNL     1      -2.080  13.952  -3.716  1.00  0.00     0.074 A 
ATOM     48  C   UNL     1      -0.672  14.039  -3.397  1.00  0.00     0.031 C 
ATOM     49  C   UNL     1      -4.433  10.398   1.104  1.00  0.00     0.029 A 
ATOM     50  C   UNL     1      -5.176  10.991  -0.007  1.00  0.00     0.049 A 
ATOM     51  H   UNL     1      -4.389  12.036  -1.630  1.00  0.00     0.167 HD
ATOM     52  C   UNL     1      -2.651  14.508  -4.810  1.00  0.00     0.037 A 
ATOM     53  C   UNL     1      -6.514  10.949  -0.173  1.00  0.00     0.037 A 
ATOM     54  C   UNL     1      -4.051  14.409  -5.128  1.00  0.00     0.049 A 
ATOM     55  C   UNL     1      -7.131  11.622  -1.375  1.00  0.00     0.074 A 
ATOM     56  C   UNL     1      -4.716  14.903  -6.237  1.00  0.00     0.029 A 
ATOM     57  N   UNL     1      -5.003  13.785  -4.336  1.00  0.00    -0.354 N 
ATOM     58  N   UNL     1      -6.544  12.282  -2.345  1.00  0.00    -0.248 NA
ATOM     59  C   UNL     1      -8.594  11.542  -1.507  1.00  0.00     0.031 C 
ATOM     60  C   UNL     1      -6.079  14.630  -6.087  1.00  0.00     0.029 A 
ATOM     61  C   UNL     1      -6.255  13.909  -4.917  1.00  0.00     0.049 A 
ATOM     62  H   UNL     1      -4.818  13.322  -3.487  1.00  0.00     0.167 HD
ATOM     63  C   UNL     1      -7.560  12.668  -3.215  1.00  0.00     0.074 A 
ATOM     64  C   UNL     1      -8.797  12.157  -2.664  1.00  0.00     0.031 C 
ATOM     65  C   UNL     1      -7.477  13.381  -4.366  1.00  0.00     0.037 A 
BRANCH  52  66
ATOM     66  C   UNL     1      -1.775  15.300  -5.739  1.00  0.00     0.058 A 
ATOM     67  C   UNL     1      -0.851  14.681  -6.595  1.00  0.00     0.135 A 
ATOM     68  C   UNL     1      -1.921  16.694  -5.829  1.00  0.00     0.135 A 
ATOM     69  F   UNL     1      -0.656  13.354  -6.535  1.00  0.00    -0.206 F 
ATOM     70  C   UNL     1      -0.098  15.418  -7.504  1.00  0.00     0.059 A 
ATOM     71  C   UNL     1      -1.198  17.447  -6.748  1.00  0.00     0.059 A 
ATOM     72  F   UNL     1      -2.786  17.336  -5.027  1.00  0.00    -0.206 F 
ATOM     73  C   UNL     1      -0.285  16.800  -7.579  1.00  0.00     0.060 A 
BRANCH  73  74
ATOM     74  S   UNL     1       0.665  17.733  -8.797  1.00  0.00     0.124 S 
ATOM     75  O   UNL     1       2.007  17.677  -8.225  1.00  0.00    -0.237 OA
ATOM     76  O   UNL     1       0.462  16.952 -10.013  1.00  0.00    -0.237 OA
ATOM     77  O   UNL     1       0.034  19.049  -8.788  1.00  0.00    -0.744 OA
ENDBRANCH  73  74
ENDBRANCH  52  66
BRANCH  53  78
ATOM     78  C   UNL     1      -7.376  10.281   0.841  1.00  0.00     0.058 A 
ATOM     79  C   UNL     1      -8.099   9.119   0.534  1.00  0.00     0.135 A 
ATOM     80  C   UNL     1      -7.523  10.817   2.131  1.00  0.00     0.135 A 
ATOM     81  F   UNL     1      -8.003   8.573  -0.688  1.00  0.00    -0.206 F 
ATOM     82  C   UNL     1      -8.961   8.530   1.455  1.00  0.00     0.059 A 
ATOM     83  C   UNL     1      -8.354  10.230   3.079  1.00  0.00     0.059 A 
ATOM     84  F   UNL     1      -6.847  11.922   2.481  1.00  0.00    -0.206 F 
ATOM     85  C   UNL     1      -9.084   9.096   2.725  1.00  0.00     0.060 A 
BRANCH  85  86
ATOM     86  S   UNL     1     -10.196   8.320   3.918  1.00  0.00     0.124 S 
ATOM     87  O   UNL     1     -11.502   8.689   3.383  1.00  0.00    -0.237 OA
ATOM     88  O   UNL     1      -9.834   6.911   3.804  1.00  0.00    -0.237 OA
ATOM     89  O   UNL     1      -9.829   8.954   5.181  1.00  0.00    -0.744 OA
ENDBRANCH  85  86
ENDBRANCH  53  78
BRANCH  65  90
ATOM     90  C   UNL     1      -8.747  13.614  -5.140  1.00  0.00     0.058 A 
ATOM     91  C   UNL     1      -9.736  14.505  -4.694  1.00  0.00     0.135 A 
ATOM     92  C   UNL     1      -8.946  12.986  -6.381  1.00  0.00     0.135 A 
ATOM     93  F   UNL     1      -9.599  15.130  -3.513  1.00  0.00    -0.206 F 
ATOM     94  C   UNL     1     -10.886  14.748  -5.439  1.00  0.00     0.059 A 
ATOM     95  C   UNL     1     -10.074  13.236  -7.157  1.00  0.00     0.059 A 
ATOM     96  F   UNL     1      -8.027  12.134  -6.862  1.00  0.00    -0.206 F 
ATOM     97  C   UNL     1     -11.044  14.111  -6.671  1.00  0.00     0.060 A 
BRANCH  97  98
ATOM     98  S   UNL     1     -12.523  14.464  -7.645  1.00  0.00     0.124 S 
ATOM     99  O   UNL     1     -13.549  13.750  -6.892  1.00  0.00    -0.237 OA
ATOM    100  O   UNL     1     -12.593  15.921  -7.590  1.00  0.00    -0.237 OA
ATOM    101  O   UNL     1     -12.208  13.907  -8.957  1.00  0.00    -0.744 OA
ENDBRANCH  97  98
ENDBRANCH  65  90
ENDBRANCH  39  40
ENDBRANCH  32  34
ENDBRANCH  31  32
ENDBRANCH  30  31
ENDBRANCH  29  30
ENDBRANCH  28  29
ENDBRANCH  27  28
ENDBRANCH   1  27
TORSDOF 23
