REMARK SMILES Cc1nn(Cc2ccc(Cl)cc2Cl)c(C)c1NC(=O)c1c(C(=O)OCCOCCOCCOC(=O)c2ccc(-c3c4nc(c(-c5c(F)cc(S(=O)(=O)[O-])cc5F)c5ccc([nH]5)c(-c5c(F)cc(S(=O)(=O)[O-])cc5F)c5nc(c(-c6c(F)cc(S(=O)(=O)[O-])cc6F)c6ccc3[nH]6)C=C5)C=C4)cc2)cnn1C
REMARK SMILES IDX 28 1 27 2 26 3 25 4 24 5 22 6 23 7 21 8 20 9 104 10 102 11
REMARK SMILES IDX 103 12 105 13 18 14 17 15 19 17 16 18 1 19 2 20 3 21 4 22
REMARK SMILES IDX 14 23 15 24 5 25 6 26 7 27 12 28 8 29 11 30 13 31 9 32 10 33
REMARK SMILES IDX 29 34 30 35 31 36 32 37 33 38 34 39 35 40 36 41 37 42 101 43
REMARK SMILES IDX 38 44 100 45 39 46 40 47 41 48 94 49 42 50 99 51 93 52 95 53
REMARK SMILES IDX 43 54 98 55 92 56 91 57 44 59 78 60 57 61 77 62 58 63 61 64
REMARK SMILES IDX 76 65 96 66 59 67 60 68 75 70 97 71 62 72 45 73 46 74 55 75
REMARK SMILES IDX 47 76 48 77 54 78 56 79 49 80 50 81 51 82 52 83 53 84 79 85
REMARK SMILES IDX 80 86 89 87 81 88 82 89 88 90 90 91 83 92 84 93 85 94 86 95
REMARK SMILES IDX 87 96 63 97 64 98 73 99 65 100 66 101 72 102 74 103 67 104
REMARK SMILES IDX 68 105 69 106 70 107 71 108
REMARK H PARENT 17 16 95 58 61 69
REMARK Flexibility Score: inf
ROOT
ATOM      1  C   UNL     1      -2.411  -1.929  -0.322  1.00  0.00     0.188 C 
ENDROOT
BRANCH   1   2
ATOM      2  O   UNL     1      -3.799  -2.064  -0.021  1.00  0.00    -0.376 OA
BRANCH   2   3
ATOM      3  C   UNL     1      -4.471  -3.238  -0.441  1.00  0.00     0.202 C 
BRANCH   3   4
ATOM      4  C   UNL     1      -5.009  -3.216  -1.872  1.00  0.00     0.261 C 
BRANCH   4   5
ATOM      5  O   UNL     1      -4.033  -3.012  -2.908  1.00  0.00    -0.460 OA
BRANCH   5   6
ATOM      6  C   UNL     1      -3.884  -1.716  -3.318  1.00  0.00     0.342 C 
ATOM      7  O   UNL     1      -4.337  -0.744  -2.734  1.00  0.00    -0.246 OA
BRANCH   6   8
ATOM      8  C   UNL     1      -3.206  -1.605  -4.593  1.00  0.00     0.111 A 
ATOM      9  C   UNL     1      -2.381  -0.572  -5.022  1.00  0.00     0.140 A 
ATOM     10  N   UNL     1      -2.260  -0.744  -6.374  1.00  0.00    -0.262 N 
ATOM     11  C   UNL     1      -3.313  -2.449  -5.717  1.00  0.00     0.151 A 
ATOM     12  N   UNL     1      -2.732  -1.934  -6.804  1.00  0.00    -0.180 NA
ATOM     13  C   UNL     1      -1.619   0.149  -7.314  1.00  0.00     0.174 C 
BRANCH   9  14
ATOM     14  C   UNL     1      -1.838   0.546  -4.308  1.00  0.00     0.274 C 
ATOM     15  N   UNL     1      -0.752   0.364  -3.483  1.00  0.00    -0.317 N 
ATOM     16  H   UNL     1      -0.517   1.155  -2.945  1.00  0.00     0.170 HD
ATOM     17  O   UNL     1      -2.326   1.671  -4.402  1.00  0.00    -0.267 OA
BRANCH  15  18
ATOM     18  C   UNL     1       0.071  -0.730  -3.271  1.00  0.00     0.085 A 
ATOM     19  C   UNL     1       0.881  -0.116  -0.860  1.00  0.00     0.071 C 
ATOM     20  C   UNL     1       0.804  -0.972  -2.076  1.00  0.00     0.083 A 
ATOM     21  N   UNL     1       1.382  -2.183  -2.090  1.00  0.00    -0.175 NA
ATOM     22  N   UNL     1       1.039  -2.707  -3.282  1.00  0.00    -0.263 N 
ATOM     23  C   UNL     1       0.482  -1.752  -4.107  1.00  0.00     0.060 A 
ATOM     24  C   UNL     1       0.528  -1.927  -5.570  1.00  0.00     0.069 C 
BRANCH  22  25
ATOM     25  C   UNL     1       0.849  -4.161  -3.421  1.00  0.00     0.181 C 
BRANCH  25  26
ATOM     26  C   UNL     1       2.095  -4.986  -3.618  1.00  0.00    -0.008 A 
ATOM     27  C   UNL     1       2.732  -5.507  -2.482  1.00  0.00     0.009 A 
ATOM     28  C   UNL     1       2.625  -5.346  -4.862  1.00  0.00     0.047 A 
ATOM     29  C   UNL     1       3.907  -6.257  -2.558  1.00  0.00     0.021 A 
ATOM     30  C   UNL     1       3.803  -6.101  -4.954  1.00  0.00     0.041 A 
ATOM     31  Cl  UNL     1       1.804  -5.010  -6.341  1.00  0.00    -0.084 Cl
ATOM     32  C   UNL     1       4.449  -6.536  -3.802  1.00  0.00     0.042 A 
ATOM     33  Cl  UNL     1       5.886  -7.472  -3.924  1.00  0.00    -0.084 Cl
ENDBRANCH  25  26
ENDBRANCH  22  25
ENDBRANCH  15  18
ENDBRANCH   9  14
ENDBRANCH   6   8
ENDBRANCH   5   6
ENDBRANCH   4   5
ENDBRANCH   3   4
ENDBRANCH   2   3
ENDBRANCH   1   2
BRANCH   1  34
ATOM     34  C   UNL     1      -1.599  -3.195  -0.600  1.00  0.00     0.188 C 
BRANCH  34  35
ATOM     35  O   UNL     1      -1.722  -4.141   0.464  1.00  0.00    -0.376 OA
BRANCH  35  36
ATOM     36  C   UNL     1      -0.774  -5.209   0.377  1.00  0.00     0.202 C 
BRANCH  36  37
ATOM     37  C   UNL     1       0.455  -4.886   1.205  1.00  0.00     0.261 C 
BRANCH  37  38
ATOM     38  O   UNL     1       1.136  -3.796   0.595  1.00  0.00    -0.460 OA
BRANCH  38  39
ATOM     39  C   UNL     1       2.473  -3.906   0.507  1.00  0.00     0.338 C 
ATOM     40  O   UNL     1       3.152  -4.913   0.548  1.00  0.00    -0.246 OA
BRANCH  39  41
ATOM     41  C   UNL     1       2.997  -2.557   0.639  1.00  0.00     0.060 A 
ATOM     42  C   UNL     1       4.043  -2.110  -0.171  1.00  0.00     0.016 A 
ATOM     43  C   UNL     1       2.569  -1.882   1.789  1.00  0.00     0.016 A 
ATOM     44  C   UNL     1       4.783  -1.034   0.274  1.00  0.00     0.010 A 
ATOM     45  C   UNL     1       3.311  -0.830   2.237  1.00  0.00     0.010 A 
ATOM     46  C   UNL     1       4.462  -0.493   1.523  1.00  0.00    -0.014 A 
BRANCH  46  47
ATOM     47  C   UNL     1       5.490   0.212   2.258  1.00  0.00     0.031 A 
ATOM     48  C   UNL     1       5.437   1.683   2.185  1.00  0.00     0.074 A 
ATOM     49  C   UNL     1       6.239  -0.509   3.121  1.00  0.00     0.049 A 
ATOM     50  N   UNL     1       6.322   2.488   1.700  1.00  0.00    -0.248 NA
ATOM     51  C   UNL     1       4.184   2.347   2.587  1.00  0.00     0.031 C 
ATOM     52  C   UNL     1       6.051  -1.931   3.463  1.00  0.00     0.029 A 
ATOM     53  N   UNL     1       7.219  -0.120   3.979  1.00  0.00    -0.354 N 
ATOM     54  C   UNL     1       5.846   3.763   1.991  1.00  0.00     0.074 A 
ATOM     55  C   UNL     1       4.450   3.620   2.297  1.00  0.00     0.031 C 
ATOM     56  C   UNL     1       6.728  -2.215   4.594  1.00  0.00     0.029 A 
ATOM     57  C   UNL     1       7.494  -1.046   4.980  1.00  0.00     0.049 A 
ATOM     58  H   UNL     1       7.691   0.740   3.899  1.00  0.00     0.167 HD
ATOM     59  C   UNL     1       6.704   4.771   2.299  1.00  0.00     0.037 A 
ATOM     60  C   UNL     1       8.249  -0.845   6.086  1.00  0.00     0.037 A 
ATOM     61  C   UNL     1       8.052   4.444   1.910  1.00  0.00     0.049 A 
ATOM     62  C   UNL     1       9.110   0.335   5.820  1.00  0.00     0.074 A 
ATOM     63  C   UNL     1       8.707   4.234   0.716  1.00  0.00     0.029 A 
ATOM     64  N   UNL     1       8.838   3.916   2.905  1.00  0.00    -0.354 N 
ATOM     65  N   UNL     1      10.040   0.364   4.903  1.00  0.00    -0.248 NA
ATOM     66  C   UNL     1       8.706   1.640   6.330  1.00  0.00     0.031 C 
ATOM     67  C   UNL     1       9.771   3.332   1.007  1.00  0.00     0.029 A 
ATOM     68  C   UNL     1       9.747   3.038   2.370  1.00  0.00     0.049 A 
ATOM     69  H   UNL     1       8.761   4.135   3.861  1.00  0.00     0.167 HD
ATOM     70  C   UNL     1      10.030   1.666   4.433  1.00  0.00     0.074 A 
ATOM     71  C   UNL     1       9.328   2.433   5.452  1.00  0.00     0.031 C 
ATOM     72  C   UNL     1      10.311   1.936   3.126  1.00  0.00     0.037 A 
BRANCH  59  73
ATOM     73  C   UNL     1       6.422   5.832   3.343  1.00  0.00     0.058 A 
ATOM     74  C   UNL     1       7.298   6.931   3.451  1.00  0.00     0.135 A 
ATOM     75  C   UNL     1       5.519   5.667   4.420  1.00  0.00     0.135 A 
ATOM     76  F   UNL     1       8.203   7.177   2.490  1.00  0.00    -0.206 F 
ATOM     77  C   UNL     1       7.325   7.756   4.576  1.00  0.00     0.059 A 
ATOM     78  C   UNL     1       5.489   6.513   5.521  1.00  0.00     0.059 A 
ATOM     79  F   UNL     1       4.693   4.619   4.515  1.00  0.00    -0.206 F 
ATOM     80  C   UNL     1       6.428   7.525   5.615  1.00  0.00     0.060 A 
BRANCH  80  81
ATOM     81  S   UNL     1       6.539   8.501   7.123  1.00  0.00     0.124 S 
ATOM     82  O   UNL     1       7.766   7.978   7.713  1.00  0.00    -0.237 OA
ATOM     83  O   UNL     1       6.606   9.861   6.601  1.00  0.00    -0.237 OA
ATOM     84  O   UNL     1       5.305   8.166   7.829  1.00  0.00    -0.744 OA
ENDBRANCH  80  81
ENDBRANCH  59  73
BRANCH  60  85
ATOM     85  C   UNL     1       8.063  -1.431   7.438  1.00  0.00     0.058 A 
ATOM     86  C   UNL     1       9.078  -1.353   8.406  1.00  0.00     0.135 A 
ATOM     87  C   UNL     1       6.795  -1.845   7.898  1.00  0.00     0.135 A 
ATOM     88  F   UNL     1      10.312  -0.957   8.059  1.00  0.00    -0.206 F 
ATOM     89  C   UNL     1       8.837  -1.609   9.760  1.00  0.00     0.059 A 
ATOM     90  C   UNL     1       6.535  -2.122   9.239  1.00  0.00     0.059 A 
ATOM     91  F   UNL     1       5.740  -1.902   7.072  1.00  0.00    -0.206 F 
ATOM     92  C   UNL     1       7.554  -1.970  10.170  1.00  0.00     0.060 A 
BRANCH  92  93
ATOM     93  S   UNL     1       7.191  -2.106  11.936  1.00  0.00     0.124 S 
ATOM     94  O   UNL     1       7.919  -3.316  12.301  1.00  0.00    -0.237 OA
ATOM     95  O   UNL     1       7.731  -0.855  12.457  1.00  0.00    -0.237 OA
ATOM     96  O   UNL     1       5.735  -2.217  11.975  1.00  0.00    -0.744 OA
ENDBRANCH  92  93
ENDBRANCH  60  85
BRANCH  72  97
ATOM     97  C   UNL     1      11.101   0.908   2.363  1.00  0.00     0.058 A 
ATOM     98  C   UNL     1      10.612  -0.354   1.986  1.00  0.00     0.135 A 
ATOM     99  C   UNL     1      12.375   1.268   1.901  1.00  0.00     0.135 A 
ATOM    100  F   UNL     1       9.370  -0.735   2.309  1.00  0.00    -0.206 F 
ATOM    101  C   UNL     1      11.373  -1.235   1.216  1.00  0.00     0.059 A 
ATOM    102  C   UNL     1      13.139   0.419   1.106  1.00  0.00     0.059 A 
ATOM    103  F   UNL     1      12.873   2.484   2.181  1.00  0.00    -0.206 F 
ATOM    104  C   UNL     1      12.636  -0.838   0.778  1.00  0.00     0.060 A 
BRANCH 104 105
ATOM    105  S   UNL     1      13.584  -1.942  -0.291  1.00  0.00     0.124 S 
ATOM    106  O   UNL     1      14.021  -2.974   0.643  1.00  0.00    -0.237 OA
ATOM    107  O   UNL     1      12.591  -2.359  -1.278  1.00  0.00    -0.237 OA
ATOM    108  O   UNL     1      14.644  -1.084  -0.814  1.00  0.00    -0.744 OA
ENDBRANCH 104 105
ENDBRANCH  72  97
ENDBRANCH  46  47
ENDBRANCH  39  41
ENDBRANCH  38  39
ENDBRANCH  37  38
ENDBRANCH  36  37
ENDBRANCH  35  36
ENDBRANCH  34  35
ENDBRANCH   1  34
TORSDOF 24
