REMARK SMILES COc1ccc(OC)c(NC(=O)[C@@H]2[C@@H](C(=O)OCCOCCOCCOC(=O)c3ccc(-c4c5nc(c(-c6c(F)cc(S(=O)(=O)[O-])cc6F)c6ccc([nH]6)c(-c6c(F)cc(S(=O)(=O)[O-])cc6F)c6nc(c(-c7c(F)cc(S(=O)(=O)[O-])cc7F)c7ccc4[nH]7)C=C6)C=C5)cc3)[C@H]3C=C[C@@H]2C3)c1
REMARK SMILES IDX 21 1 20 2 19 3 18 4 17 5 15 6 16 7 14 8 13 9 98 10 95 11
REMARK SMILES IDX 97 12 99 13 96 14 11 15 10 16 12 18 9 19 3 20 4 21 100 22
REMARK SMILES IDX 5 23 6 24 2 25 1 26 7 27 8 28 22 29 23 30 24 31 25 32 26 33
REMARK SMILES IDX 27 34 28 35 29 36 30 37 94 38 31 39 93 40 32 41 33 42 34 43
REMARK SMILES IDX 87 44 35 45 92 46 86 47 88 48 36 49 91 50 85 51 84 52 37 54
REMARK SMILES IDX 71 55 50 56 70 57 51 58 54 59 69 60 89 61 52 62 53 63 68 65
REMARK SMILES IDX 90 66 55 67 38 68 39 69 48 70 40 71 41 72 47 73 49 74 42 75
REMARK SMILES IDX 43 76 44 77 45 78 46 79 72 80 73 81 82 82 74 83 75 84 81 85
REMARK SMILES IDX 83 86 76 87 77 88 78 89 79 90 80 91 56 92 57 93 66 94 58 95
REMARK SMILES IDX 59 96 65 97 67 98 60 99 61 100 62 101 63 102 64 103
REMARK H PARENT 10 17 88 53 54 64
REMARK Flexibility Score: inf
ROOT
ATOM      1  C   UNL     1       1.602   6.087   3.357  1.00  0.00     0.188 C 
ENDROOT
BRANCH   1   2
ATOM      2  O   UNL     1       0.336   6.708   3.539  1.00  0.00    -0.376 OA
BRANCH   2   3
ATOM      3  C   UNL     1      -0.340   6.359   4.747  1.00  0.00     0.202 C 
BRANCH   3   4
ATOM      4  C   UNL     1       0.255   7.024   5.993  1.00  0.00     0.261 C 
BRANCH   4   5
ATOM      5  O   UNL     1       1.608   6.609   6.245  1.00  0.00    -0.463 OA
BRANCH   5   6
ATOM      6  C   UNL     1       1.765   5.365   6.778  1.00  0.00     0.310 C 
ATOM      7  O   UNL     1       0.847   4.668   7.175  1.00  0.00    -0.252 OA
BRANCH   6   8
ATOM      8  C   UNL     1       3.234   4.997   6.746  1.00  0.00     0.119 C 
ATOM      9  C   UNL     1       3.524   3.474   6.858  1.00  0.00     0.100 C 
ATOM     10  C   UNL     1       4.564   3.433   8.011  1.00  0.00     0.025 C 
ATOM     11  C   UNL     1       4.006   5.594   7.947  1.00  0.00     0.027 C 
ATOM     12  C   UNL     1       3.798   3.730   9.280  1.00  0.00    -0.027 C 
ATOM     13  C   UNL     1       5.295   4.775   7.870  1.00  0.00     0.017 C 
ATOM     14  C   UNL     1       3.459   5.028   9.240  1.00  0.00    -0.027 C 
BRANCH   9  15
ATOM     15  C   UNL     1       4.115   2.894   5.587  1.00  0.00     0.229 C 
ATOM     16  N   UNL     1       3.372   2.406   4.560  1.00  0.00    -0.323 N 
ATOM     17  H   UNL     1       3.929   2.131   3.796  1.00  0.00     0.170 HD
ATOM     18  O   UNL     1       5.335   2.945   5.386  1.00  0.00    -0.274 OA
BRANCH  16  19
ATOM     19  C   UNL     1       2.000   2.196   4.321  1.00  0.00     0.087 A 
ATOM     20  C   UNL     1       0.320   2.152   2.546  1.00  0.00     0.121 A 
ATOM     21  C   UNL     1      -0.698   2.081   3.479  1.00  0.00     0.050 A 
ATOM     22  C   UNL     1       1.641   2.265   2.969  1.00  0.00     0.076 A 
ATOM     23  C   UNL     1      -0.362   1.967   4.828  1.00  0.00     0.052 A 
ATOM     24  C   UNL     1       0.982   1.931   5.237  1.00  0.00     0.142 A 
BRANCH  20  25
ATOM     25  O   UNL     1       0.052   2.201   1.208  1.00  0.00    -0.497 OA
ATOM     26  C   UNL     1      -0.133   0.881   0.677  1.00  0.00     0.278 C 
ENDBRANCH  20  25
BRANCH  24  27
ATOM     27  O   UNL     1       1.162   1.549   6.537  1.00  0.00    -0.495 OA
ATOM     28  C   UNL     1       1.916   0.339   6.646  1.00  0.00     0.278 C 
ENDBRANCH  24  27
ENDBRANCH  16  19
ENDBRANCH   9  15
ENDBRANCH   6   8
ENDBRANCH   5   6
ENDBRANCH   4   5
ENDBRANCH   3   4
ENDBRANCH   2   3
ENDBRANCH   1   2
BRANCH   1  29
ATOM     29  C   UNL     1       2.820   7.029   3.475  1.00  0.00     0.188 C 
BRANCH  29  30
ATOM     30  O   UNL     1       2.634   8.405   3.770  1.00  0.00    -0.376 OA
BRANCH  30  31
ATOM     31  C   UNL     1       1.704   9.142   2.988  1.00  0.00     0.202 C 
BRANCH  31  32
ATOM     32  C   UNL     1       1.887   9.166   1.463  1.00  0.00     0.261 C 
BRANCH  32  33
ATOM     33  O   UNL     1       1.979   7.868   0.849  1.00  0.00    -0.460 OA
BRANCH  33  34
ATOM     34  C   UNL     1       3.152   7.622   0.207  1.00  0.00     0.338 C 
ATOM     35  O   UNL     1       4.081   8.399   0.060  1.00  0.00    -0.246 OA
BRANCH  34  36
ATOM     36  C   UNL     1       3.263   6.197  -0.170  1.00  0.00     0.060 A 
ATOM     37  C   UNL     1       4.351   5.468   0.333  1.00  0.00     0.016 A 
ATOM     38  C   UNL     1       2.403   5.619  -1.100  1.00  0.00     0.016 A 
ATOM     39  C   UNL     1       4.613   4.176  -0.128  1.00  0.00     0.010 A 
ATOM     40  C   UNL     1       2.675   4.327  -1.574  1.00  0.00     0.010 A 
ATOM     41  C   UNL     1       3.802   3.612  -1.120  1.00  0.00    -0.014 A 
BRANCH  41  42
ATOM     42  C   UNL     1       4.204   2.355  -1.807  1.00  0.00     0.031 A 
ATOM     43  C   UNL     1       4.898   2.439  -3.131  1.00  0.00     0.074 A 
ATOM     44  C   UNL     1       3.966   1.142  -1.275  1.00  0.00     0.049 A 
ATOM     45  N   UNL     1       5.237   1.470  -3.938  1.00  0.00    -0.248 NA
ATOM     46  C   UNL     1       5.301   3.780  -3.583  1.00  0.00     0.031 C 
ATOM     47  C   UNL     1       3.457   0.916   0.065  1.00  0.00     0.029 A 
ATOM     48  N   UNL     1       4.073  -0.122  -1.798  1.00  0.00    -0.354 N 
ATOM     49  C   UNL     1       5.942   2.073  -4.968  1.00  0.00     0.074 A 
ATOM     50  C   UNL     1       5.923   3.500  -4.720  1.00  0.00     0.031 C 
ATOM     51  C   UNL     1       3.149  -0.380   0.222  1.00  0.00     0.029 A 
ATOM     52  C   UNL     1       3.463  -1.078  -1.016  1.00  0.00     0.049 A 
ATOM     53  H   UNL     1       4.537  -0.324  -2.642  1.00  0.00     0.167 HD
ATOM     54  C   UNL     1       6.583   1.479  -6.000  1.00  0.00     0.037 A 
ATOM     55  C   UNL     1       3.154  -2.360  -1.286  1.00  0.00     0.037 A 
ATOM     56  C   UNL     1       6.582   0.062  -6.246  1.00  0.00     0.049 A 
ATOM     57  C   UNL     1       3.659  -2.967  -2.560  1.00  0.00     0.074 A 
ATOM     58  C   UNL     1       7.236  -0.641  -7.242  1.00  0.00     0.029 A 
ATOM     59  N   UNL     1       5.872  -0.869  -5.501  1.00  0.00    -0.354 N 
ATOM     60  N   UNL     1       4.347  -2.394  -3.516  1.00  0.00    -0.248 NA
ATOM     61  C   UNL     1       3.395  -4.396  -2.771  1.00  0.00     0.031 C 
ATOM     62  C   UNL     1       6.881  -1.991  -7.130  1.00  0.00     0.029 A 
ATOM     63  C   UNL     1       6.039  -2.135  -6.038  1.00  0.00     0.049 A 
ATOM     64  H   UNL     1       5.329  -0.660  -4.707  1.00  0.00     0.167 HD
ATOM     65  C   UNL     1       4.661  -3.406  -4.412  1.00  0.00     0.074 A 
ATOM     66  C   UNL     1       4.052  -4.619  -3.903  1.00  0.00     0.031 C 
ATOM     67  C   UNL     1       5.423  -3.336  -5.530  1.00  0.00     0.037 A 
BRANCH  54  68
ATOM     68  C   UNL     1       7.333   2.376  -6.936  1.00  0.00     0.058 A 
ATOM     69  C   UNL     1       8.556   2.959  -6.566  1.00  0.00     0.135 A 
ATOM     70  C   UNL     1       6.828   2.656  -8.213  1.00  0.00     0.135 A 
ATOM     71  F   UNL     1       9.068   2.739  -5.344  1.00  0.00    -0.206 F 
ATOM     72  C   UNL     1       9.243   3.808  -7.426  1.00  0.00     0.059 A 
ATOM     73  C   UNL     1       7.508   3.488  -9.097  1.00  0.00     0.059 A 
ATOM     74  F   UNL     1       5.657   2.132  -8.606  1.00  0.00    -0.206 F 
ATOM     75  C   UNL     1       8.708   4.069  -8.688  1.00  0.00     0.060 A 
BRANCH  75  76
ATOM     76  S   UNL     1       9.608   5.174  -9.795  1.00  0.00     0.124 S 
ATOM     77  O   UNL     1       9.335   6.475  -9.192  1.00  0.00    -0.237 OA
ATOM     78  O   UNL     1      10.980   4.694  -9.670  1.00  0.00    -0.237 OA
ATOM     79  O   UNL     1       8.981   4.939 -11.092  1.00  0.00    -0.744 OA
ENDBRANCH  75  76
ENDBRANCH  54  68
BRANCH  55  80
ATOM     80  C   UNL     1       2.290  -3.134  -0.361  1.00  0.00     0.058 A 
ATOM     81  C   UNL     1       2.809  -4.105   0.504  1.00  0.00     0.135 A 
ATOM     82  C   UNL     1       0.902  -2.919  -0.350  1.00  0.00     0.135 A 
ATOM     83  F   UNL     1       4.129  -4.343   0.527  1.00  0.00    -0.206 F 
ATOM     84  C   UNL     1       1.981  -4.854   1.334  1.00  0.00     0.059 A 
ATOM     85  C   UNL     1       0.055  -3.649   0.475  1.00  0.00     0.059 A 
ATOM     86  F   UNL     1       0.360  -1.984  -1.147  1.00  0.00    -0.206 F 
ATOM     87  C   UNL     1       0.603  -4.624   1.307  1.00  0.00     0.060 A 
BRANCH  87  88
ATOM     88  S   UNL     1      -0.465  -5.585   2.403  1.00  0.00     0.124 S 
ATOM     89  O   UNL     1      -0.505  -6.871   1.718  1.00  0.00    -0.237 OA
ATOM     90  O   UNL     1       0.276  -5.551   3.660  1.00  0.00    -0.237 OA
ATOM     91  O   UNL     1      -1.712  -4.825   2.400  1.00  0.00    -0.744 OA
ENDBRANCH  87  88
ENDBRANCH  55  80
BRANCH  67  92
ATOM     92  C   UNL     1       5.692  -4.624  -6.250  1.00  0.00     0.058 A 
ATOM     93  C   UNL     1       4.719  -5.247  -7.043  1.00  0.00     0.135 A 
ATOM     94  C   UNL     1       6.958  -5.227  -6.160  1.00  0.00     0.135 A 
ATOM     95  F   UNL     1       3.489  -4.718  -7.144  1.00  0.00    -0.206 F 
ATOM     96  C   UNL     1       4.985  -6.437  -7.712  1.00  0.00     0.059 A 
ATOM     97  C   UNL     1       7.253  -6.403  -6.840  1.00  0.00     0.059 A 
ATOM     98  F   UNL     1       7.923  -4.667  -5.414  1.00  0.00    -0.206 F 
ATOM     99  C   UNL     1       6.256  -7.007  -7.604  1.00  0.00     0.060 A 
BRANCH  99 100
ATOM    100  S   UNL     1       6.604  -8.533  -8.502  1.00  0.00     0.124 S 
ATOM    101  O   UNL     1       5.949  -9.526  -7.657  1.00  0.00    -0.237 OA
ATOM    102  O   UNL     1       5.974  -8.287  -9.796  1.00  0.00    -0.237 OA
ATOM    103  O   UNL     1       8.062  -8.588  -8.523  1.00  0.00    -0.744 OA
ENDBRANCH  99 100
ENDBRANCH  67  92
ENDBRANCH  41  42
ENDBRANCH  34  36
ENDBRANCH  33  34
ENDBRANCH  32  33
ENDBRANCH  31  32
ENDBRANCH  30  31
ENDBRANCH  29  30
ENDBRANCH   1  29
TORSDOF 24
