REMARK SMILES CCOc1cc(OCC)cc(-c2ccc([C@@H](C)C(=O)OCCOCCOCCOC(=O)c3ccc(-c4c5nc(c(-c6c(F)cc(S(=O)(=O)[O-])cc6F)c6ccc([nH]6)c(-c6c(F)cc(S(=O)(=O)[O-])cc6F)c6nc(c(-c7c(F)cc(S(=O)(=O)[O-])cc7F)c7ccc4[nH]7)C=C6)C=C5)cc3)cc2)c1
REMARK SMILES IDX 24 1 23 2 22 3 21 4 20 5 18 6 19 7 16 8 17 9 15 10 12 11
REMARK SMILES IDX 13 12 99 13 14 14 98 15 11 16 4 17 5 18 100 19 6 20 10 21
REMARK SMILES IDX 3 22 2 23 1 24 7 25 8 26 9 27 25 28 26 29 27 30 28 31 29 32
REMARK SMILES IDX 30 33 31 34 32 35 33 36 97 37 34 38 96 39 35 40 36 41 37 42
REMARK SMILES IDX 90 43 38 44 95 45 89 46 91 47 39 48 94 49 88 50 87 51 40 53
REMARK SMILES IDX 74 54 53 55 73 56 54 57 57 58 72 59 92 60 55 61 56 62 71 64
REMARK SMILES IDX 93 65 58 66 41 67 42 68 51 69 43 70 44 71 50 72 52 73 45 74
REMARK SMILES IDX 46 75 47 76 48 77 49 78 75 79 76 80 85 81 77 82 78 83 84 84
REMARK SMILES IDX 86 85 79 86 80 87 81 88 82 89 83 90 59 91 60 92 69 93 61 94
REMARK SMILES IDX 62 95 68 96 70 97 63 98 64 99 65 100 66 101 67 102
REMARK H PARENT 91 52 57 63
REMARK Flexibility Score: inf
ROOT
ATOM      1  C   UNL     1       5.955   4.072  -2.828  1.00  0.00     0.188 C 
ENDROOT
BRANCH   1   2
ATOM      2  O   UNL     1       6.622   4.172  -4.081  1.00  0.00    -0.376 OA
BRANCH   2   3
ATOM      3  C   UNL     1       7.710   3.300  -4.357  1.00  0.00     0.202 C 
BRANCH   3   4
ATOM      4  C   UNL     1       8.882   3.238  -3.362  1.00  0.00     0.261 C 
BRANCH   4   5
ATOM      5  O   UNL     1       8.525   2.977  -1.984  1.00  0.00    -0.463 OA
BRANCH   5   6
ATOM      6  C   UNL     1       8.907   3.910  -1.074  1.00  0.00     0.313 C 
ATOM      7  O   UNL     1       9.587   4.891  -1.369  1.00  0.00    -0.252 OA
BRANCH   6   8
ATOM      8  C   UNL     1       8.436   3.694   0.369  1.00  0.00     0.126 C 
ATOM      9  C   UNL     1       9.664   3.645   1.276  1.00  0.00     0.025 C 
BRANCH   8  10
ATOM     10  C   UNL     1       7.468   2.570   0.736  1.00  0.00    -0.034 A 
ATOM     11  C   UNL     1       5.571   0.553   1.460  1.00  0.00    -0.018 A 
ATOM     12  C   UNL     1       6.750   0.241   0.757  1.00  0.00     0.009 A 
ATOM     13  C   UNL     1       5.360   1.893   1.802  1.00  0.00     0.009 A 
ATOM     14  C   UNL     1       7.692   1.226   0.413  1.00  0.00     0.005 A 
ATOM     15  C   UNL     1       6.294   2.881   1.453  1.00  0.00     0.005 A 
BRANCH  11  16
ATOM     16  C   UNL     1       4.641  -0.508   1.896  1.00  0.00    -0.011 A 
ATOM     17  C   UNL     1       2.433  -1.529   2.035  1.00  0.00     0.123 A 
ATOM     18  C   UNL     1       2.947  -2.566   2.812  1.00  0.00     0.092 A 
ATOM     19  C   UNL     1       3.271  -0.499   1.588  1.00  0.00     0.055 A 
ATOM     20  C   UNL     1       4.298  -2.580   3.157  1.00  0.00     0.123 A 
ATOM     21  C   UNL     1       5.127  -1.555   2.698  1.00  0.00     0.055 A 
BRANCH  17  22
ATOM     22  O   UNL     1       1.071  -1.472   1.903  1.00  0.00    -0.494 OA
BRANCH  22  23
ATOM     23  C   UNL     1       0.578  -1.647   0.571  1.00  0.00     0.226 C 
ATOM     24  C   UNL     1       0.514  -0.334  -0.179  1.00  0.00     0.049 C 
ENDBRANCH  22  23
ENDBRANCH  17  22
BRANCH  20  25
ATOM     25  O   UNL     1       4.702  -3.633   3.934  1.00  0.00    -0.494 OA
BRANCH  25  26
ATOM     26  C   UNL     1       5.947  -3.501   4.625  1.00  0.00     0.226 C 
ATOM     27  C   UNL     1       7.103  -4.012   3.779  1.00  0.00     0.049 C 
ENDBRANCH  25  26
ENDBRANCH  20  25
ENDBRANCH  11  16
ENDBRANCH   8  10
ENDBRANCH   6   8
ENDBRANCH   5   6
ENDBRANCH   4   5
ENDBRANCH   3   4
ENDBRANCH   2   3
ENDBRANCH   1   2
BRANCH   1  28
ATOM     28  C   UNL     1       5.717   2.682  -2.218  1.00  0.00     0.188 C 
BRANCH  28  29
ATOM     29  O   UNL     1       6.056   1.600  -3.058  1.00  0.00    -0.376 OA
BRANCH  29  30
ATOM     30  C   UNL     1       5.004   0.724  -3.409  1.00  0.00     0.202 C 
BRANCH  30  31
ATOM     31  C   UNL     1       3.847   1.340  -4.214  1.00  0.00     0.261 C 
BRANCH  31  32
ATOM     32  O   UNL     1       3.301   2.576  -3.711  1.00  0.00    -0.460 OA
BRANCH  32  33
ATOM     33  C   UNL     1       2.537   2.485  -2.601  1.00  0.00     0.338 C 
ATOM     34  O   UNL     1       2.262   1.453  -2.007  1.00  0.00    -0.246 OA
BRANCH  33  35
ATOM     35  C   UNL     1       2.249   3.835  -2.074  1.00  0.00     0.060 A 
ATOM     36  C   UNL     1       2.719   4.186  -0.799  1.00  0.00     0.016 A 
ATOM     37  C   UNL     1       1.496   4.741  -2.820  1.00  0.00     0.016 A 
ATOM     38  C   UNL     1       2.426   5.443  -0.265  1.00  0.00     0.010 A 
ATOM     39  C   UNL     1       1.187   5.992  -2.274  1.00  0.00     0.010 A 
ATOM     40  C   UNL     1       1.631   6.344  -0.986  1.00  0.00    -0.014 A 
BRANCH  40  41
ATOM     41  C   UNL     1       1.163   7.603  -0.351  1.00  0.00     0.031 A 
ATOM     42  C   UNL     1      -0.246   7.679   0.173  1.00  0.00     0.074 A 
ATOM     43  C   UNL     1       1.981   8.665  -0.236  1.00  0.00     0.049 A 
ATOM     44  N   UNL     1      -0.879   8.689   0.713  1.00  0.00    -0.248 NA
ATOM     45  C   UNL     1      -1.051   6.451   0.070  1.00  0.00     0.031 C 
ATOM     46  C   UNL     1       3.374   8.710  -0.678  1.00  0.00     0.029 A 
ATOM     47  N   UNL     1       1.752   9.918   0.278  1.00  0.00    -0.354 N 
ATOM     48  C   UNL     1      -2.156   8.225   1.006  1.00  0.00     0.074 A 
ATOM     49  C   UNL     1      -2.217   6.851   0.555  1.00  0.00     0.031 C 
ATOM     50  C   UNL     1       3.873   9.933  -0.427  1.00  0.00     0.029 A 
ATOM     51  C   UNL     1       2.826  10.769   0.160  1.00  0.00     0.049 A 
ATOM     52  H   UNL     1       0.898  10.183   0.692  1.00  0.00     0.167 HD
ATOM     53  C   UNL     1      -3.181   8.881   1.602  1.00  0.00     0.037 A 
ATOM     54  C   UNL     1       2.944  12.076   0.467  1.00  0.00     0.037 A 
ATOM     55  C   UNL     1      -3.117  10.252   2.044  1.00  0.00     0.049 A 
ATOM     56  C   UNL     1       1.769  12.803   1.072  1.00  0.00     0.074 A 
ATOM     57  C   UNL     1      -4.094  10.998   2.680  1.00  0.00     0.029 A 
ATOM     58  N   UNL     1      -2.020  11.088   1.887  1.00  0.00    -0.354 N 
ATOM     59  N   UNL     1       0.576  12.344   1.371  1.00  0.00    -0.248 NA
ATOM     60  C   UNL     1       1.960  14.226   1.388  1.00  0.00     0.031 C 
ATOM     61  C   UNL     1      -3.612  12.300   2.851  1.00  0.00     0.029 A 
ATOM     62  C   UNL     1      -2.308  12.349   2.385  1.00  0.00     0.049 A 
ATOM     63  H   UNL     1      -1.163  10.823   1.480  1.00  0.00     0.167 HD
ATOM     64  C   UNL     1      -0.115  13.414   1.934  1.00  0.00     0.074 A 
ATOM     65  C   UNL     1       0.801  14.535   1.953  1.00  0.00     0.031 C 
ATOM     66  C   UNL     1      -1.392  13.464   2.392  1.00  0.00     0.037 A 
BRANCH  53  67
ATOM     67  C   UNL     1      -4.476   8.134   1.786  1.00  0.00     0.058 A 
ATOM     68  C   UNL     1      -4.601   7.076   2.702  1.00  0.00     0.135 A 
ATOM     69  C   UNL     1      -5.620   8.507   1.061  1.00  0.00     0.135 A 
ATOM     70  F   UNL     1      -3.537   6.665   3.409  1.00  0.00    -0.206 F 
ATOM     71  C   UNL     1      -5.806   6.399   2.873  1.00  0.00     0.059 A 
ATOM     72  C   UNL     1      -6.842   7.865   1.238  1.00  0.00     0.059 A 
ATOM     73  F   UNL     1      -5.559   9.509   0.170  1.00  0.00    -0.206 F 
ATOM     74  C   UNL     1      -6.921   6.803   2.137  1.00  0.00     0.060 A 
BRANCH  74  75
ATOM     75  S   UNL     1      -8.477   5.919   2.377  1.00  0.00     0.124 S 
ATOM     76  O   UNL     1      -8.183   4.634   1.751  1.00  0.00    -0.237 OA
ATOM     77  O   UNL     1      -8.604   5.902   3.831  1.00  0.00    -0.237 OA
ATOM     78  O   UNL     1      -9.453   6.748   1.675  1.00  0.00    -0.744 OA
ENDBRANCH  74  75
ENDBRANCH  53  67
BRANCH  54  79
ATOM     79  C   UNL     1       4.221  12.793   0.198  1.00  0.00     0.058 A 
ATOM     80  C   UNL     1       5.027  13.262   1.246  1.00  0.00     0.135 A 
ATOM     81  C   UNL     1       4.658  13.032  -1.115  1.00  0.00     0.135 A 
ATOM     82  F   UNL     1       4.646  13.073   2.519  1.00  0.00    -0.206 F 
ATOM     83  C   UNL     1       6.210  13.953   1.006  1.00  0.00     0.059 A 
ATOM     84  C   UNL     1       5.853  13.693  -1.382  1.00  0.00     0.059 A 
ATOM     85  F   UNL     1       3.928  12.601  -2.156  1.00  0.00    -0.206 F 
ATOM     86  C   UNL     1       6.617  14.159  -0.314  1.00  0.00     0.060 A 
BRANCH  86  87
ATOM     87  S   UNL     1       8.181  15.012  -0.612  1.00  0.00     0.124 S 
ATOM     88  O   UNL     1       7.849  16.379  -0.231  1.00  0.00    -0.237 OA
ATOM     89  O   UNL     1       9.090  14.302   0.282  1.00  0.00    -0.237 OA
ATOM     90  O   UNL     1       8.417  14.793  -2.036  1.00  0.00    -0.744 OA
ENDBRANCH  86  87
ENDBRANCH  54  79
BRANCH  66  91
ATOM     91  C   UNL     1      -1.864  14.768   2.984  1.00  0.00     0.058 A 
ATOM     92  C   UNL     1      -2.064  15.913   2.195  1.00  0.00     0.135 A 
ATOM     93  C   UNL     1      -2.131  14.872   4.359  1.00  0.00     0.135 A 
ATOM     94  F   UNL     1      -1.824  15.874   0.874  1.00  0.00    -0.206 F 
ATOM     95  C   UNL     1      -2.464  17.123   2.754  1.00  0.00     0.059 A 
ATOM     96  C   UNL     1      -2.567  16.063   4.934  1.00  0.00     0.059 A 
ATOM     97  F   UNL     1      -1.974  13.807   5.162  1.00  0.00    -0.206 F 
ATOM     98  C   UNL     1      -2.708  17.189   4.126  1.00  0.00     0.060 A 
BRANCH  98  99
ATOM     99  S   UNL     1      -3.217  18.767   4.841  1.00  0.00     0.124 S 
ATOM    100  O   UNL     1      -1.973  19.528   4.790  1.00  0.00    -0.237 OA
ATOM    101  O   UNL     1      -4.265  19.203   3.923  1.00  0.00    -0.237 OA
ATOM    102  O   UNL     1      -3.676  18.403   6.178  1.00  0.00    -0.744 OA
ENDBRANCH  98  99
ENDBRANCH  66  91
ENDBRANCH  40  41
ENDBRANCH  33  35
ENDBRANCH  32  33
ENDBRANCH  31  32
ENDBRANCH  30  31
ENDBRANCH  29  30
ENDBRANCH  28  29
ENDBRANCH   1  28
TORSDOF 26
