REMARK SMILES CCN(CC)S(=O)(=O)c1cccc(C(=O)N2C[C@H](O)C[C@H]2C(=O)OCCOCCOCCOC(=O)c2ccc(-c3c4nc(c(-c5c(F)cc(S(=O)(=O)[O-])cc5F)c5ccc([nH]5)c(-c5c(F)cc(S(=O)(=O)[O-])cc5F)c5nc(c(-c6c(F)cc(S(=O)(=O)[O-])cc6F)c6ccc3[nH]6)C=C5)C=C4)cc2)c1
REMARK SMILES IDX 28 1 27 2 26 3 25 4 24 5 22 6 23 7 21 8 16 9 17 10 18 11
REMARK SMILES IDX 20 12 14 13 15 14 13 15 9 16 10 17 102 18 11 19 12 20 6 21
REMARK SMILES IDX 7 22 8 23 3 24 2 25 1 26 4 27 5 28 19 29 29 31 30 32 31 33
REMARK SMILES IDX 32 34 33 35 34 36 35 37 36 38 37 39 101 40 38 41 100 42
REMARK SMILES IDX 39 43 40 44 41 45 94 46 42 47 99 48 93 49 95 50 43 51 98 52
REMARK SMILES IDX 92 53 91 54 44 56 78 57 57 58 77 59 58 60 61 61 76 62 96 63
REMARK SMILES IDX 59 64 60 65 75 67 97 68 62 69 45 70 46 71 55 72 47 73 48 74
REMARK SMILES IDX 54 75 56 76 49 77 50 78 51 79 52 80 53 81 79 82 80 83 89 84
REMARK SMILES IDX 81 85 82 86 88 87 90 88 83 89 84 90 85 91 86 92 87 93 63 94
REMARK SMILES IDX 64 95 73 96 65 97 66 98 72 99 74 100 67 101 68 102 69 103
REMARK SMILES IDX 70 104 71 105
REMARK H PARENT 19 30 95 55 61 66
REMARK Flexibility Score: inf
ROOT
ATOM      1  C   UNL     1       7.042  -4.509   7.840  1.00  0.00     0.188 C 
ENDROOT
BRANCH   1   2
ATOM      2  O   UNL     1       7.361  -4.505   9.224  1.00  0.00    -0.376 OA
BRANCH   2   3
ATOM      3  C   UNL     1       6.387  -4.088  10.173  1.00  0.00     0.202 C 
BRANCH   3   4
ATOM      4  C   UNL     1       5.779  -2.679  10.035  1.00  0.00     0.261 C 
BRANCH   4   5
ATOM      5  O   UNL     1       5.056  -2.388   8.809  1.00  0.00    -0.462 OA
BRANCH   5   6
ATOM      6  C   UNL     1       5.654  -1.506   7.971  1.00  0.00     0.329 C 
ATOM      7  O   UNL     1       6.719  -0.947   8.234  1.00  0.00    -0.250 OA
BRANCH   6   8
ATOM      8  C   UNL     1       4.961  -1.239   6.596  1.00  0.00     0.198 C 
ATOM      9  N   UNL     1       3.655  -1.690   6.037  1.00  0.00    -0.322 N 
ATOM     10  C   UNL     1       2.790  -0.571   5.715  1.00  0.00     0.152 C 
ATOM     11  C   UNL     1       3.743   0.603   5.562  1.00  0.00     0.136 C 
ATOM     12  C   UNL     1       4.815   0.305   6.590  1.00  0.00     0.071 C 
BRANCH   9  13
ATOM     13  C   UNL     1       3.264  -2.980   5.737  1.00  0.00     0.254 C 
ATOM     14  O   UNL     1       2.797  -3.707   6.611  1.00  0.00    -0.269 OA
BRANCH  13  15
ATOM     15  C   UNL     1       3.335  -3.511   4.325  1.00  0.00     0.041 A 
ATOM     16  C   UNL     1       3.333  -3.341   1.903  1.00  0.00     0.083 A 
ATOM     17  C   UNL     1       3.406  -4.728   1.759  1.00  0.00     0.022 A 
ATOM     18  C   UNL     1       3.373  -2.725   3.171  1.00  0.00     0.035 A 
ATOM     19  C   UNL     1       3.358  -5.516   2.898  1.00  0.00     0.002 A 
ATOM     20  C   UNL     1       3.282  -4.910   4.160  1.00  0.00     0.014 A 
BRANCH  16  21
ATOM     21  S   UNL     1       3.051  -2.340   0.454  1.00  0.00     0.243 S 
ATOM     22  O   UNL     1       3.571  -3.042  -0.700  1.00  0.00    -0.207 OA
ATOM     23  O   UNL     1       3.513  -1.012   0.782  1.00  0.00    -0.207 OA
BRANCH  21  24
ATOM     24  N   UNL     1       1.331  -2.326   0.360  1.00  0.00    -0.198 NA
BRANCH  24  25
ATOM     25  C   UNL     1       0.733  -1.309  -0.553  1.00  0.00     0.099 C 
ATOM     26  C   UNL     1       0.888   0.108  -0.033  1.00  0.00     0.022 C 
ENDBRANCH  24  25
BRANCH  24  27
ATOM     27  C   UNL     1       0.625  -3.644   0.253  1.00  0.00     0.099 C 
ATOM     28  C   UNL     1       0.816  -4.359  -1.075  1.00  0.00     0.022 C 
ENDBRANCH  24  27
ENDBRANCH  21  24
ENDBRANCH  16  21
ENDBRANCH  13  15
ENDBRANCH   9  13
BRANCH  11  29
ATOM     29  O   UNL     1       4.303   0.662   4.256  1.00  0.00    -0.391 OA
ATOM     30  H   UNL     1       4.760  -0.171   4.063  1.00  0.00     0.211 HD
ENDBRANCH  11  29
ENDBRANCH   6   8
ENDBRANCH   5   6
ENDBRANCH   4   5
ENDBRANCH   3   4
ENDBRANCH   2   3
ENDBRANCH   1   2
BRANCH   1  31
ATOM     31  C   UNL     1       5.601  -4.774   7.398  1.00  0.00     0.188 C 
BRANCH  31  32
ATOM     32  O   UNL     1       4.771  -5.300   8.411  1.00  0.00    -0.376 OA
BRANCH  32  33
ATOM     33  C   UNL     1       4.010  -6.442   8.067  1.00  0.00     0.202 C 
BRANCH  33  34
ATOM     34  C   UNL     1       4.874  -7.704   7.965  1.00  0.00     0.261 C 
BRANCH  34  35
ATOM     35  O   UNL     1       5.952  -7.614   7.009  1.00  0.00    -0.460 OA
BRANCH  35  36
ATOM     36  C   UNL     1       5.604  -7.630   5.700  1.00  0.00     0.338 C 
ATOM     37  O   UNL     1       4.488  -7.798   5.244  1.00  0.00    -0.246 OA
BRANCH  36  38
ATOM     38  C   UNL     1       6.778  -7.206   4.901  1.00  0.00     0.060 A 
ATOM     39  C   UNL     1       6.750  -5.982   4.216  1.00  0.00     0.016 A 
ATOM     40  C   UNL     1       7.896  -8.030   4.807  1.00  0.00     0.016 A 
ATOM     41  C   UNL     1       7.815  -5.592   3.405  1.00  0.00     0.010 A 
ATOM     42  C   UNL     1       8.961  -7.646   3.984  1.00  0.00     0.010 A 
ATOM     43  C   UNL     1       8.914  -6.442   3.255  1.00  0.00    -0.014 A 
BRANCH  43  44
ATOM     44  C   UNL     1       9.944  -6.164   2.224  1.00  0.00     0.031 A 
ATOM     45  C   UNL     1       9.909  -6.962   0.949  1.00  0.00     0.074 A 
ATOM     46  C   UNL     1      10.904  -5.243   2.425  1.00  0.00     0.049 A 
ATOM     47  N   UNL     1      10.787  -7.020  -0.016  1.00  0.00    -0.248 NA
ATOM     48  C   UNL     1       8.728  -7.818   0.741  1.00  0.00     0.031 C 
ATOM     49  C   UNL     1      11.014  -4.374   3.595  1.00  0.00     0.029 A 
ATOM     50  N   UNL     1      11.993  -4.910   1.656  1.00  0.00    -0.354 N 
ATOM     51  C   UNL     1      10.288  -7.945  -0.926  1.00  0.00     0.074 A 
ATOM     52  C   UNL     1       9.030  -8.425  -0.398  1.00  0.00     0.031 C 
ATOM     53  C   UNL     1      12.132  -3.634   3.486  1.00  0.00     0.029 A 
ATOM     54  C   UNL     1      12.839  -4.011   2.262  1.00  0.00     0.049 A 
ATOM     55  H   UNL     1      12.153  -5.280   0.757  1.00  0.00     0.167 HD
ATOM     56  C   UNL     1      10.835  -8.358  -2.092  1.00  0.00     0.037 A 
ATOM     57  C   UNL     1      14.064  -3.580   1.896  1.00  0.00     0.037 A 
ATOM     58  C   UNL     1      12.075  -7.853  -2.622  1.00  0.00     0.049 A 
ATOM     59  C   UNL     1      14.672  -4.091   0.612  1.00  0.00     0.074 A 
ATOM     60  C   UNL     1      12.687  -8.172  -3.822  1.00  0.00     0.029 A 
ATOM     61  N   UNL     1      12.896  -6.934  -1.986  1.00  0.00    -0.354 N 
ATOM     62  N   UNL     1      14.178  -4.943  -0.256  1.00  0.00    -0.248 NA
ATOM     63  C   UNL     1      16.005  -3.582   0.255  1.00  0.00     0.031 C 
ATOM     64  C   UNL     1      13.909  -7.497  -3.881  1.00  0.00     0.029 A 
ATOM     65  C   UNL     1      14.025  -6.701  -2.753  1.00  0.00     0.049 A 
ATOM     66  H   UNL     1      12.704  -6.509  -1.119  1.00  0.00     0.167 HD
ATOM     67  C   UNL     1      15.123  -5.043  -1.274  1.00  0.00     0.074 A 
ATOM     68  C   UNL     1      16.211  -4.157  -0.921  1.00  0.00     0.031 C 
ATOM     69  C   UNL     1      15.093  -5.800  -2.399  1.00  0.00     0.037 A 
BRANCH  56  70
ATOM     70  C   UNL     1      10.129  -9.433  -2.869  1.00  0.00     0.058 A 
ATOM     71  C   UNL     1       8.941  -9.188  -3.574  1.00  0.00     0.135 A 
ATOM     72  C   UNL     1      10.706 -10.710  -2.980  1.00  0.00     0.135 A 
ATOM     73  F   UNL     1       8.335  -7.994  -3.484  1.00  0.00    -0.206 F 
ATOM     74  C   UNL     1       8.350 -10.171  -4.362  1.00  0.00     0.059 A 
ATOM     75  C   UNL     1      10.148 -11.698  -3.784  1.00  0.00     0.059 A 
ATOM     76  F   UNL     1      11.838 -10.999  -2.319  1.00  0.00    -0.206 F 
ATOM     77  C   UNL     1       8.967 -11.419  -4.469  1.00  0.00     0.060 A 
BRANCH  77  78
ATOM     78  S   UNL     1       8.215 -12.663  -5.539  1.00  0.00     0.124 S 
ATOM     79  O   UNL     1       7.012 -13.008  -4.787  1.00  0.00    -0.237 OA
ATOM     80  O   UNL     1       7.997 -11.918  -6.775  1.00  0.00    -0.237 OA
ATOM     81  O   UNL     1       9.229 -13.710  -5.611  1.00  0.00    -0.744 OA
ENDBRANCH  77  78
ENDBRANCH  56  70
BRANCH  57  82
ATOM     82  C   UNL     1      14.831  -2.653   2.776  1.00  0.00     0.058 A 
ATOM     83  C   UNL     1      15.144  -1.348   2.366  1.00  0.00     0.135 A 
ATOM     84  C   UNL     1      15.307  -3.071   4.029  1.00  0.00     0.135 A 
ATOM     85  F   UNL     1      14.725  -0.902   1.172  1.00  0.00    -0.206 F 
ATOM     86  C   UNL     1      15.929  -0.505   3.147  1.00  0.00     0.059 A 
ATOM     87  C   UNL     1      16.064  -2.236   4.844  1.00  0.00     0.059 A 
ATOM     88  F   UNL     1      15.030  -4.306   4.477  1.00  0.00    -0.206 F 
ATOM     89  C   UNL     1      16.387  -0.960   4.385  1.00  0.00     0.060 A 
BRANCH  89  90
ATOM     90  S   UNL     1      17.398   0.144   5.395  1.00  0.00     0.124 S 
ATOM     91  O   UNL     1      18.657   0.144   4.659  1.00  0.00    -0.237 OA
ATOM     92  O   UNL     1      16.633   1.386   5.351  1.00  0.00    -0.237 OA
ATOM     93  O   UNL     1      17.427  -0.521   6.694  1.00  0.00    -0.744 OA
ENDBRANCH  89  90
ENDBRANCH  57  82
BRANCH  69  94
ATOM     94  C   UNL     1      16.241  -5.668  -3.365  1.00  0.00     0.058 A 
ATOM     95  C   UNL     1      17.518  -6.173  -3.079  1.00  0.00     0.135 A 
ATOM     96  C   UNL     1      16.038  -5.079  -4.625  1.00  0.00     0.135 A 
ATOM     97  F   UNL     1      17.769  -6.742  -1.889  1.00  0.00    -0.206 F 
ATOM     98  C   UNL     1      18.561  -6.075  -3.996  1.00  0.00     0.059 A 
ATOM     99  C   UNL     1      17.057  -5.001  -5.570  1.00  0.00     0.059 A 
ATOM    100  F   UNL     1      14.832  -4.591  -4.958  1.00  0.00    -0.206 F 
ATOM    101  C   UNL     1      18.319  -5.491  -5.241  1.00  0.00     0.060 A 
BRANCH 101 102
ATOM    102  S   UNL     1      19.672  -5.403  -6.433  1.00  0.00     0.124 S 
ATOM    103  O   UNL     1      20.518  -4.371  -5.843  1.00  0.00    -0.237 OA
ATOM    104  O   UNL     1      20.208  -6.760  -6.398  1.00  0.00    -0.237 OA
ATOM    105  O   UNL     1      19.005  -5.031  -7.678  1.00  0.00    -0.744 OA
ENDBRANCH 101 102
ENDBRANCH  69  94
ENDBRANCH  43  44
ENDBRANCH  36  38
ENDBRANCH  35  36
ENDBRANCH  34  35
ENDBRANCH  33  34
ENDBRANCH  32  33
ENDBRANCH  31  32
ENDBRANCH   1  31
TORSDOF 27
