REMARK SMILES O=C(N[C@]1(C(=O)OCCOCCOCCOC(=O)c2ccc(-c3c4nc(c(-c5c(F)cc(S(=O)(=O)[O-])cc5F)c5ccc([nH]5)c(-c5c(F)cc(S(=O)(=O)[O-])cc5F)c5nc(c(-c6c(F)cc(S(=O)(=O)[O-])cc6F)c6ccc3[nH]6)C=C5)C=C4)cc2)CC[C@H](c2ccccc2)CC1)OCC1c2ccccc2-c2ccccc21
REMARK SMILES IDX 11 1 10 2 9 3 8 4 7 5 5 6 6 7 4 8 85 9 95 10 86 11 94 12
REMARK SMILES IDX 87 13 3 14 1 15 2 16 96 18 97 19 98 20 99 21 110 22 100 23
REMARK SMILES IDX 104 24 105 25 109 26 101 27 103 28 106 29 108 30 102 31
REMARK SMILES IDX 107 32 88 33 89 34 93 35 90 36 92 37 91 38 12 39 13 40 14 41
REMARK SMILES IDX 15 42 16 43 17 44 18 45 19 46 20 47 84 48 21 49 83 50 22 51
REMARK SMILES IDX 23 52 24 53 77 54 25 55 82 56 76 57 78 58 26 59 81 60 75 61
REMARK SMILES IDX 74 62 27 64 61 65 40 66 60 67 41 68 44 69 59 70 79 71 42 72
REMARK SMILES IDX 43 73 58 75 80 76 45 77 28 78 29 79 38 80 30 81 31 82 37 83
REMARK SMILES IDX 39 84 32 85 33 86 34 87 35 88 36 89 62 90 63 91 72 92 64 93
REMARK SMILES IDX 65 94 71 95 73 96 66 97 67 98 68 99 69 100 70 101 46 102
REMARK SMILES IDX 47 103 56 104 48 105 49 106 55 107 57 108 50 109 51 110
REMARK SMILES IDX 52 111 53 112 54 113
REMARK H PARENT 3 17 78 63 44 74
REMARK Flexibility Score: inf
ROOT
ATOM      1  C   UNL     1       4.046  -2.607  -1.899  1.00  0.00     0.188 C 
ENDROOT
BRANCH   1   2
ATOM      2  O   UNL     1       4.961  -2.633  -2.979  1.00  0.00    -0.376 OA
BRANCH   2   3
ATOM      3  C   UNL     1       5.513  -1.358  -3.221  1.00  0.00     0.202 C 
BRANCH   3   4
ATOM      4  C   UNL     1       6.094  -0.657  -1.990  1.00  0.00     0.261 C 
BRANCH   4   5
ATOM      5  O   UNL     1       5.206  -0.420  -0.846  1.00  0.00    -0.461 OA
BRANCH   5   6
ATOM      6  C   UNL     1       5.540   0.479   0.117  1.00  0.00     0.332 C 
ATOM      7  O   UNL     1       6.501   1.210   0.028  1.00  0.00    -0.249 OA
BRANCH   6   8
ATOM      8  C   UNL     1       4.645   0.651   1.351  1.00  0.00     0.141 C 
ATOM      9  C   UNL     1       4.893   2.018   2.062  1.00  0.00     0.041 C 
ATOM     10  C   UNL     1       5.060  -0.431   2.369  1.00  0.00     0.041 C 
ATOM     11  C   UNL     1       6.358   2.256   2.471  1.00  0.00     0.011 C 
ATOM     12  C   UNL     1       6.541  -0.260   2.787  1.00  0.00     0.011 C 
ATOM     13  C   UNL     1       6.898   1.138   3.375  1.00  0.00     0.019 C 
BRANCH   8  14
ATOM     14  N   UNL     1       3.282   0.589   0.836  1.00  0.00    -0.305 N 
ATOM     15  O   UNL     1       1.799   1.268  -0.764  1.00  0.00    -0.225 OA
ATOM     16  C   UNL     1       2.895   1.383  -0.235  1.00  0.00     0.408 C 
ATOM     17  H   UNL     1       2.631  -0.022   1.251  1.00  0.00     0.168 HD
BRANCH  16  18
ATOM     18  O   UNL     1       3.892   2.230  -0.665  1.00  0.00    -0.449 OA
BRANCH  18  19
ATOM     19  C   UNL     1       4.343   2.096  -2.033  1.00  0.00     0.248 C 
BRANCH  19  20
ATOM     20  C   UNL     1       5.790   2.717  -2.411  1.00  0.00     0.088 C 
ATOM     21  C   UNL     1       7.354   2.518  -2.095  1.00  0.00    -0.029 A 
ATOM     22  C   UNL     1       5.727   4.243  -2.409  1.00  0.00    -0.029 A 
ATOM     23  C   UNL     1       8.207   1.497  -1.623  1.00  0.00     0.005 A 
ATOM     24  C   UNL     1       8.008   3.733  -2.354  1.00  0.00    -0.014 A 
ATOM     25  C   UNL     1       7.024   4.767  -2.570  1.00  0.00    -0.014 A 
ATOM     26  C   UNL     1       4.638   5.085  -2.245  1.00  0.00     0.005 A 
ATOM     27  C   UNL     1       9.565   1.666  -1.340  1.00  0.00     0.000 A 
ATOM     28  C   UNL     1       9.395   3.889  -2.185  1.00  0.00     0.009 A 
ATOM     29  C   UNL     1       7.226   6.124  -2.719  1.00  0.00     0.009 A 
ATOM     30  C   UNL     1       4.851   6.458  -2.329  1.00  0.00     0.000 A 
ATOM     31  C   UNL     1      10.170   2.858  -1.657  1.00  0.00     0.001 A 
ATOM     32  C   UNL     1       6.127   6.970  -2.604  1.00  0.00     0.001 A 
ENDBRANCH  19  20
ENDBRANCH  18  19
ENDBRANCH  16  18
ENDBRANCH   8  14
BRANCH  13  33
ATOM     33  C   UNL     1       6.517   1.332   4.838  1.00  0.00    -0.045 A 
ATOM     34  C   UNL     1       5.954   2.531   5.316  1.00  0.00     0.004 A 
ATOM     35  C   UNL     1       6.805   0.337   5.780  1.00  0.00     0.004 A 
ATOM     36  C   UNL     1       5.631   2.707   6.658  1.00  0.00     0.000 A 
ATOM     37  C   UNL     1       6.473   0.506   7.126  1.00  0.00     0.000 A 
ATOM     38  C   UNL     1       5.877   1.685   7.562  1.00  0.00     0.000 A 
ENDBRANCH  13  33
ENDBRANCH   6   8
ENDBRANCH   5   6
ENDBRANCH   4   5
ENDBRANCH   3   4
ENDBRANCH   2   3
ENDBRANCH   1   2
BRANCH   1  39
ATOM     39  C   UNL     1       4.700  -2.928  -0.530  1.00  0.00     0.188 C 
BRANCH  39  40
ATOM     40  O   UNL     1       6.098  -3.160  -0.436  1.00  0.00    -0.376 OA
BRANCH  40  41
ATOM     41  C   UNL     1       6.651  -4.141  -1.309  1.00  0.00     0.202 C 
BRANCH  41  42
ATOM     42  C   UNL     1       5.935  -5.498  -1.515  1.00  0.00     0.261 C 
BRANCH  42  43
ATOM     43  O   UNL     1       4.502  -5.453  -1.693  1.00  0.00    -0.460 OA
BRANCH  43  44
ATOM     44  C   UNL     1       3.739  -5.822  -0.609  1.00  0.00     0.338 C 
ATOM     45  O   UNL     1       4.140  -6.294   0.416  1.00  0.00    -0.246 OA
BRANCH  44  46
ATOM     46  C   UNL     1       2.375  -5.200  -0.759  1.00  0.00     0.060 A 
ATOM     47  C   UNL     1       1.919  -4.328   0.256  1.00  0.00     0.016 A 
ATOM     48  C   UNL     1       1.628  -5.344  -1.927  1.00  0.00     0.016 A 
ATOM     49  C   UNL     1       0.726  -3.614   0.111  1.00  0.00     0.010 A 
ATOM     50  C   UNL     1       0.399  -4.681  -2.044  1.00  0.00     0.010 A 
ATOM     51  C   UNL     1      -0.077  -3.850  -1.008  1.00  0.00    -0.014 A 
BRANCH  51  52
ATOM     52  C   UNL     1      -1.538  -3.589  -0.912  1.00  0.00     0.031 A 
ATOM     53  C   UNL     1      -2.375  -4.724  -0.376  1.00  0.00     0.074 A 
ATOM     54  C   UNL     1      -2.120  -2.429  -1.265  1.00  0.00     0.049 A 
ATOM     55  N   UNL     1      -3.673  -4.847  -0.305  1.00  0.00    -0.248 NA
ATOM     56  C   UNL     1      -1.633  -5.888   0.143  1.00  0.00     0.031 C 
ATOM     57  C   UNL     1      -1.429  -1.224  -1.717  1.00  0.00     0.029 A 
ATOM     58  N   UNL     1      -3.453  -2.091  -1.312  1.00  0.00    -0.354 N 
ATOM     59  C   UNL     1      -3.898  -6.103   0.248  1.00  0.00     0.074 A 
ATOM     60  C   UNL     1      -2.610  -6.716   0.468  1.00  0.00     0.031 C 
ATOM     61  C   UNL     1      -2.348  -0.291  -2.033  1.00  0.00     0.029 A 
ATOM     62  C   UNL     1      -3.689  -0.843  -1.838  1.00  0.00     0.049 A 
ATOM     63  H   UNL     1      -4.170  -2.688  -0.998  1.00  0.00     0.167 HD
ATOM     64  C   UNL     1      -5.073  -6.698   0.553  1.00  0.00     0.037 A 
ATOM     65  C   UNL     1      -4.854  -0.236  -2.154  1.00  0.00     0.037 A 
ATOM     66  C   UNL     1      -6.356  -6.094   0.326  1.00  0.00     0.049 A 
ATOM     67  C   UNL     1      -6.160  -0.952  -1.893  1.00  0.00     0.074 A 
ATOM     68  C   UNL     1      -7.608  -6.614   0.595  1.00  0.00     0.029 A 
ATOM     69  N   UNL     1      -6.550  -4.840  -0.232  1.00  0.00    -0.354 N 
ATOM     70  N   UNL     1      -6.365  -2.140  -1.371  1.00  0.00    -0.248 NA
ATOM     71  C   UNL     1      -7.396  -0.244  -2.261  1.00  0.00     0.031 C 
ATOM     72  C   UNL     1      -8.563  -5.695   0.150  1.00  0.00     0.029 A 
ATOM     73  C   UNL     1      -7.904  -4.577  -0.337  1.00  0.00     0.049 A 
ATOM     74  H   UNL     1      -5.832  -4.228  -0.511  1.00  0.00     0.167 HD
ATOM     75  C   UNL     1      -7.748  -2.304  -1.318  1.00  0.00     0.074 A 
ATOM     76  C   UNL     1      -8.331  -1.092  -1.854  1.00  0.00     0.031 C 
ATOM     77  C   UNL     1      -8.470  -3.359  -0.862  1.00  0.00     0.037 A 
BRANCH  64  78
ATOM     78  C   UNL     1      -5.014  -8.085   1.128  1.00  0.00     0.058 A 
ATOM     79  C   UNL     1      -4.533  -8.331   2.424  1.00  0.00     0.135 A 
ATOM     80  C   UNL     1      -5.448  -9.184   0.370  1.00  0.00     0.135 A 
ATOM     81  F   UNL     1      -4.074  -7.320   3.179  1.00  0.00    -0.206 F 
ATOM     82  C   UNL     1      -4.460  -9.620   2.939  1.00  0.00     0.059 A 
ATOM     83  C   UNL     1      -5.415 -10.479   0.876  1.00  0.00     0.059 A 
ATOM     84  F   UNL     1      -5.904  -9.006  -0.880  1.00  0.00    -0.206 F 
ATOM     85  C   UNL     1      -4.907 -10.688   2.157  1.00  0.00     0.060 A 
BRANCH  85  86
ATOM     86  S   UNL     1      -4.815 -12.354   2.844  1.00  0.00     0.124 S 
ATOM     87  O   UNL     1      -3.377 -12.600   2.822  1.00  0.00    -0.237 OA
ATOM     88  O   UNL     1      -5.407 -12.177   4.167  1.00  0.00    -0.237 OA
ATOM     89  O   UNL     1      -5.602 -13.152   1.909  1.00  0.00    -0.744 OA
ENDBRANCH  85  86
ENDBRANCH  64  78
BRANCH  65  90
ATOM     90  C   UNL     1      -4.849   1.116  -2.781  1.00  0.00     0.058 A 
ATOM     91  C   UNL     1      -5.343   2.239  -2.100  1.00  0.00     0.135 A 
ATOM     92  C   UNL     1      -4.369   1.309  -4.087  1.00  0.00     0.135 A 
ATOM     93  F   UNL     1      -5.835   2.107  -0.859  1.00  0.00    -0.206 F 
ATOM     94  C   UNL     1      -5.373   3.500  -2.692  1.00  0.00     0.059 A 
ATOM     95  C   UNL     1      -4.363   2.564  -4.690  1.00  0.00     0.059 A 
ATOM     96  F   UNL     1      -3.889   0.270  -4.788  1.00  0.00    -0.206 F 
ATOM     97  C   UNL     1      -4.876   3.653  -3.987  1.00  0.00     0.060 A 
BRANCH  97  98
ATOM     98  S   UNL     1      -4.876   5.302  -4.727  1.00  0.00     0.124 S 
ATOM     99  O   UNL     1      -6.296   5.513  -4.978  1.00  0.00    -0.237 OA
ATOM    100  O   UNL     1      -4.287   6.114  -3.666  1.00  0.00    -0.237 OA
ATOM    101  O   UNL     1      -4.043   5.138  -5.915  1.00  0.00    -0.744 OA
ENDBRANCH  97  98
ENDBRANCH  65  90
BRANCH  77 102
ATOM    102  C   UNL     1      -9.972  -3.244  -0.873  1.00  0.00     0.058 A 
ATOM    103  C   UNL     1     -10.713  -3.290  -2.063  1.00  0.00     0.135 A 
ATOM    104  C   UNL     1     -10.683  -3.162   0.337  1.00  0.00     0.135 A 
ATOM    105  F   UNL     1     -10.086  -3.368  -3.247  1.00  0.00    -0.206 F 
ATOM    106  C   UNL     1     -12.104  -3.234  -2.056  1.00  0.00     0.059 A 
ATOM    107  C   UNL     1     -12.074  -3.136   0.369  1.00  0.00     0.059 A 
ATOM    108  F   UNL     1     -10.025  -3.132   1.508  1.00  0.00    -0.206 F 
ATOM    109  C   UNL     1     -12.776  -3.160  -0.834  1.00  0.00     0.060 A 
BRANCH 109 110
ATOM    110  S   UNL     1     -14.581  -3.125  -0.838  1.00  0.00     0.124 S 
ATOM    111  O   UNL     1     -14.848  -1.779  -1.335  1.00  0.00    -0.237 OA
ATOM    112  O   UNL     1     -14.913  -4.215  -1.750  1.00  0.00    -0.237 OA
ATOM    113  O   UNL     1     -14.930  -3.358   0.560  1.00  0.00    -0.744 OA
ENDBRANCH 109 110
ENDBRANCH  77 102
ENDBRANCH  51  52
ENDBRANCH  44  46
ENDBRANCH  43  44
ENDBRANCH  42  43
ENDBRANCH  41  42
ENDBRANCH  40  41
ENDBRANCH  39  40
ENDBRANCH   1  39
TORSDOF 25
