REMARK SMILES CCOc1cc(/C=C2/SC(=S)N([C@H](CC)C(=O)OCCOCCOCCOC(=O)c3ccc(-c4c5nc(c(-c6c(F)cc(S(=O)(=O)[O-])cc6F)c6ccc([nH]6)c(-c6c(F)cc(S(=O)(=O)[O-])cc6F)c6nc(c(-c7c(F)cc(S(=O)(=O)[O-])cc7F)c7ccc4[nH]7)C=C6)C=C5)cc3)C2=O)ccc1O
REMARK SMILES IDX 22 1 21 2 20 3 19 4 18 5 16 6 17 7 13 8 12 9 7 10 8 11 9 12
REMARK SMILES IDX 96 13 10 14 97 15 11 16 6 17 4 18 5 19 100 20 99 21 98 22
REMARK SMILES IDX 3 23 2 24 1 25 101 26 14 28 15 29 23 30 24 31 25 32 26 33
REMARK SMILES IDX 27 34 28 35 29 36 30 37 31 38 95 39 32 40 94 41 33 42 34 43
REMARK SMILES IDX 35 44 88 45 36 46 93 47 87 48 89 49 37 50 92 51 86 52 85 53
REMARK SMILES IDX 38 55 72 56 51 57 71 58 52 59 55 60 70 61 90 62 53 63 54 64
REMARK SMILES IDX 69 66 91 67 56 68 39 69 40 70 49 71 41 72 42 73 48 74 50 75
REMARK SMILES IDX 43 76 44 77 45 78 46 79 47 80 73 81 74 82 83 83 75 84 76 85
REMARK SMILES IDX 82 86 84 87 77 88 78 89 79 90 80 91 81 92 57 93 58 94 67 95
REMARK SMILES IDX 59 96 60 97 66 98 68 99 61 100 62 101 63 102 64 103 65 104
REMARK H PARENT 101 27 89 54 55 65
REMARK Flexibility Score: inf
ROOT
ATOM      1  C   UNL     1       5.196  -5.718   4.678  1.00  0.00     0.188 C 
ENDROOT
BRANCH   1   2
ATOM      2  O   UNL     1       4.329  -4.886   5.436  1.00  0.00    -0.376 OA
BRANCH   2   3
ATOM      3  C   UNL     1       3.941  -3.621   4.901  1.00  0.00     0.202 C 
BRANCH   3   4
ATOM      4  C   UNL     1       4.991  -2.720   4.226  1.00  0.00     0.261 C 
BRANCH   4   5
ATOM      5  O   UNL     1       5.645  -3.316   3.086  1.00  0.00    -0.462 OA
BRANCH   5   6
ATOM      6  C   UNL     1       6.998  -3.299   3.106  1.00  0.00     0.329 C 
ATOM      7  O   UNL     1       7.663  -2.755   3.985  1.00  0.00    -0.250 OA
BRANCH   6   8
ATOM      8  C   UNL     1       7.666  -4.089   1.969  1.00  0.00     0.201 C 
BRANCH   8   9
ATOM      9  N   UNL     1       8.837  -3.307   1.553  1.00  0.00    -0.278 N 
ATOM     10  C   UNL     1      12.309  -3.401   0.620  1.00  0.00     0.029 C 
ATOM     11  C   UNL     1      11.105  -3.021   1.061  1.00  0.00     0.081 C 
ATOM     12  S   UNL     1      10.449  -1.454   0.786  1.00  0.00    -0.054 SA
ATOM     13  C   UNL     1      10.076  -3.902   1.667  1.00  0.00     0.266 C 
ATOM     14  C   UNL     1       8.803  -2.029   1.032  1.00  0.00     0.149 C 
ATOM     15  O   UNL     1      10.287  -5.005   2.147  1.00  0.00    -0.268 OA
ATOM     16  S   UNL     1       7.476  -1.089   0.647  1.00  0.00    -0.052 S 
BRANCH  10  17
ATOM     17  C   UNL     1      12.736  -4.798   0.575  1.00  0.00    -0.020 A 
ATOM     18  C   UNL     1      14.111  -6.626   1.442  1.00  0.00     0.161 A 
ATOM     19  C   UNL     1      13.693  -5.283   1.467  1.00  0.00     0.058 A 
ATOM     20  C   UNL     1      13.550  -7.473   0.480  1.00  0.00     0.157 A 
ATOM     21  C   UNL     1      12.572  -6.996  -0.401  1.00  0.00     0.051 A 
ATOM     22  C   UNL     1      12.165  -5.667  -0.357  1.00  0.00     0.012 A 
BRANCH  18  23
ATOM     23  O   UNL     1      15.046  -6.858   2.405  1.00  0.00    -0.490 OA
BRANCH  23  24
ATOM     24  C   UNL     1      15.615  -8.132   2.652  1.00  0.00     0.226 C 
ATOM     25  C   UNL     1      14.694  -9.003   3.492  1.00  0.00     0.049 C 
ENDBRANCH  23  24
ENDBRANCH  18  23
BRANCH  20  26
ATOM     26  O   UNL     1      13.867  -8.781   0.259  1.00  0.00    -0.504 OA
ATOM     27  H   UNL     1      14.511  -9.203   0.792  1.00  0.00     0.293 HD
ENDBRANCH  20  26
ENDBRANCH  10  17
ENDBRANCH   8   9
BRANCH   8  28
ATOM     28  C   UNL     1       6.928  -4.666   0.745  1.00  0.00     0.034 C 
ATOM     29  C   UNL     1       7.512  -6.037   0.356  1.00  0.00     0.007 C 
ENDBRANCH   8  28
ENDBRANCH   6   8
ENDBRANCH   5   6
ENDBRANCH   4   5
ENDBRANCH   3   4
ENDBRANCH   2   3
ENDBRANCH   1   2
BRANCH   1  30
ATOM     30  C   UNL     1       4.819  -6.026   3.224  1.00  0.00     0.188 C 
BRANCH  30  31
ATOM     31  O   UNL     1       3.792  -5.221   2.691  1.00  0.00    -0.376 OA
BRANCH  31  32
ATOM     32  C   UNL     1       2.532  -5.816   2.419  1.00  0.00     0.202 C 
BRANCH  32  33
ATOM     33  C   UNL     1       1.880  -6.793   3.420  1.00  0.00     0.261 C 
BRANCH  33  34
ATOM     34  O   UNL     1       2.728  -7.785   4.021  1.00  0.00    -0.460 OA
BRANCH  34  35
ATOM     35  C   UNL     1       3.142  -8.807   3.236  1.00  0.00     0.338 C 
ATOM     36  O   UNL     1       2.832  -8.998   2.068  1.00  0.00    -0.246 OA
BRANCH  35  37
ATOM     37  C   UNL     1       4.254  -9.494   3.939  1.00  0.00     0.060 A 
ATOM     38  C   UNL     1       5.519  -9.525   3.331  1.00  0.00     0.016 A 
ATOM     39  C   UNL     1       4.072 -10.058   5.204  1.00  0.00     0.016 A 
ATOM     40  C   UNL     1       6.595 -10.138   3.975  1.00  0.00     0.010 A 
ATOM     41  C   UNL     1       5.146 -10.698   5.834  1.00  0.00     0.010 A 
ATOM     42  C   UNL     1       6.406 -10.766   5.212  1.00  0.00    -0.014 A 
BRANCH  42  43
ATOM     43  C   UNL     1       7.477 -11.636   5.763  1.00  0.00     0.031 A 
ATOM     44  C   UNL     1       7.367 -13.125   5.560  1.00  0.00     0.074 A 
ATOM     45  C   UNL     1       8.542 -11.121   6.405  1.00  0.00     0.049 A 
ATOM     46  N   UNL     1       8.159 -14.080   5.970  1.00  0.00    -0.248 NA
ATOM     47  C   UNL     1       6.204 -13.598   4.791  1.00  0.00     0.031 C 
ATOM     48  C   UNL     1       8.783  -9.698   6.639  1.00  0.00     0.029 A 
ATOM     49  N   UNL     1       9.619 -11.744   6.990  1.00  0.00    -0.354 N 
ATOM     50  C   UNL     1       7.585 -15.266   5.526  1.00  0.00     0.074 A 
ATOM     51  C   UNL     1       6.367 -14.912   4.830  1.00  0.00     0.031 C 
ATOM     52  C   UNL     1       9.925  -9.557   7.335  1.00  0.00     0.029 A 
ATOM     53  C   UNL     1      10.480 -10.879   7.624  1.00  0.00     0.049 A 
ATOM     54  H   UNL     1       9.761 -12.717   6.957  1.00  0.00     0.167 HD
ATOM     55  C   UNL     1       8.035 -16.533   5.680  1.00  0.00     0.037 A 
ATOM     56  C   UNL     1      11.573 -11.127   8.375  1.00  0.00     0.037 A 
ATOM     57  C   UNL     1       9.255 -16.880   6.363  1.00  0.00     0.049 A 
ATOM     58  C   UNL     1      12.028 -12.553   8.572  1.00  0.00     0.074 A 
ATOM     59  C   UNL     1       9.818 -18.134   6.528  1.00  0.00     0.029 A 
ATOM     60  N   UNL     1      10.090 -15.980   7.006  1.00  0.00    -0.354 N 
ATOM     61  N   UNL     1      11.504 -13.661   8.102  1.00  0.00    -0.248 NA
ATOM     62  C   UNL     1      13.227 -12.763   9.397  1.00  0.00     0.031 C 
ATOM     63  C   UNL     1      10.957 -18.000   7.328  1.00  0.00     0.029 A 
ATOM     64  C   UNL     1      11.143 -16.654   7.603  1.00  0.00     0.049 A 
ATOM     65  H   UNL     1       9.955 -15.005   7.036  1.00  0.00     0.167 HD
ATOM     66  C   UNL     1      12.322 -14.694   8.554  1.00  0.00     0.074 A 
ATOM     67  C   UNL     1      13.388 -14.077   9.314  1.00  0.00     0.031 C 
ATOM     68  C   UNL     1      12.202 -16.031   8.358  1.00  0.00     0.037 A 
BRANCH  55  69
ATOM     69  C   UNL     1       7.192 -17.653   5.133  1.00  0.00     0.058 A 
ATOM     70  C   UNL     1       7.071 -17.892   3.755  1.00  0.00     0.135 A 
ATOM     71  C   UNL     1       6.550 -18.542   6.010  1.00  0.00     0.135 A 
ATOM     72  F   UNL     1       7.647 -17.061   2.871  1.00  0.00    -0.206 F 
ATOM     73  C   UNL     1       6.335 -18.966   3.266  1.00  0.00     0.059 A 
ATOM     74  C   UNL     1       5.833 -19.640   5.544  1.00  0.00     0.059 A 
ATOM     75  F   UNL     1       6.627 -18.356   7.337  1.00  0.00    -0.206 F 
ATOM     76  C   UNL     1       5.726 -19.840   4.170  1.00  0.00     0.060 A 
BRANCH  76  77
ATOM     77  S   UNL     1       4.807 -21.251   3.519  1.00  0.00     0.124 S 
ATOM     78  O   UNL     1       3.642 -20.596   2.933  1.00  0.00    -0.237 OA
ATOM     79  O   UNL     1       5.755 -21.826   2.569  1.00  0.00    -0.237 OA
ATOM     80  O   UNL     1       4.541 -22.061   4.704  1.00  0.00    -0.744 OA
ENDBRANCH  76  77
ENDBRANCH  55  69
BRANCH  56  81
ATOM     81  C   UNL     1      12.301 -10.005   9.032  1.00  0.00     0.058 A 
ATOM     82  C   UNL     1      13.612  -9.665   8.665  1.00  0.00     0.135 A 
ATOM     83  C   UNL     1      11.704  -9.269  10.069  1.00  0.00     0.135 A 
ATOM     84  F   UNL     1      14.235 -10.346   7.691  1.00  0.00    -0.206 F 
ATOM     85  C   UNL     1      14.314  -8.655   9.317  1.00  0.00     0.059 A 
ATOM     86  C   UNL     1      12.373  -8.233  10.713  1.00  0.00     0.059 A 
ATOM     87  F   UNL     1      10.450  -9.548  10.457  1.00  0.00    -0.206 F 
ATOM     88  C   UNL     1      13.684  -7.943  10.340  1.00  0.00     0.060 A 
BRANCH  88  89
ATOM     89  S   UNL     1      14.593  -6.616  11.161  1.00  0.00     0.124 S 
ATOM     90  O   UNL     1      15.562  -7.368  11.950  1.00  0.00    -0.237 OA
ATOM     91  O   UNL     1      15.134  -5.870  10.028  1.00  0.00    -0.237 OA
ATOM     92  O   UNL     1      13.560  -5.922  11.924  1.00  0.00    -0.744 OA
ENDBRANCH  88  89
ENDBRANCH  56  81
BRANCH  68  93
ATOM     93  C   UNL     1      13.267 -16.921   8.945  1.00  0.00     0.058 A 
ATOM     94  C   UNL     1      13.388 -17.121  10.330  1.00  0.00     0.135 A 
ATOM     95  C   UNL     1      14.155 -17.616   8.107  1.00  0.00     0.135 A 
ATOM     96  F   UNL     1      12.567 -16.481  11.179  1.00  0.00    -0.206 F 
ATOM     97  C   UNL     1      14.374 -17.945  10.864  1.00  0.00     0.059 A 
ATOM     98  C   UNL     1      15.126 -18.473   8.617  1.00  0.00     0.059 A 
ATOM     99  F   UNL     1      14.077 -17.477   6.774  1.00  0.00    -0.206 F 
ATOM    100  C   UNL     1      15.240 -18.616   9.999  1.00  0.00     0.060 A 
BRANCH 100 101
ATOM    101  S   UNL     1      16.509 -19.689  10.704  1.00  0.00     0.124 S 
ATOM    102  O   UNL     1      17.439 -18.715  11.265  1.00  0.00    -0.237 OA
ATOM    103  O   UNL     1      15.751 -20.475  11.673  1.00  0.00    -0.237 OA
ATOM    104  O   UNL     1      17.003 -20.436   9.550  1.00  0.00    -0.744 OA
ENDBRANCH 100 101
ENDBRANCH  68  93
ENDBRANCH  42  43
ENDBRANCH  35  37
ENDBRANCH  34  35
ENDBRANCH  33  34
ENDBRANCH  32  33
ENDBRANCH  31  32
ENDBRANCH  30  31
ENDBRANCH   1  30
TORSDOF 26
