REMARK SMILES CN1CC(=O)N(CC(=O)N2CCCC[C@H]2C(=O)OCCOCCOCCOC(=O)c2ccc(-c3c4nc(c(-c5c(F)cc(S(=O)(=O)[O-])cc5F)c5ccc([nH]5)c(-c5c(F)cc(S(=O)(=O)[O-])cc5F)c5nc(c(-c6c(F)cc(S(=O)(=O)[O-])cc6F)c6ccc3[nH]6)C=C5)C=C4)cc2)C1=O
REMARK SMILES IDX 22 1 21 2 20 3 19 4 18 5 16 6 17 7 15 8 10 9 11 10 12 11
REMARK SMILES IDX 14 12 13 13 8 14 9 15 7 16 6 17 1 18 2 19 3 20 96 21 4 22
REMARK SMILES IDX 97 23 5 24 23 25 24 26 25 27 26 28 27 29 28 30 29 31 30 32
REMARK SMILES IDX 31 33 95 34 32 35 94 36 33 37 34 38 35 39 88 40 36 41 93 42
REMARK SMILES IDX 87 43 89 44 37 45 92 46 86 47 85 48 38 50 72 51 51 52 71 53
REMARK SMILES IDX 52 54 55 55 70 56 90 57 53 58 54 59 69 61 91 62 56 63 39 64
REMARK SMILES IDX 40 65 49 66 41 67 42 68 48 69 50 70 43 71 44 72 45 73 46 74
REMARK SMILES IDX 47 75 73 76 74 77 83 78 75 79 76 80 82 81 84 82 77 83 78 84
REMARK SMILES IDX 79 85 80 86 81 87 57 88 58 89 67 90 59 91 60 92 66 93 68 94
REMARK SMILES IDX 61 95 62 96 63 97 64 98 65 99
REMARK H PARENT 89 49 55 60
REMARK Flexibility Score: inf
ROOT
ATOM      1  C   UNL     1       5.825   0.176  -5.523  1.00  0.00     0.188 C 
ENDROOT
BRANCH   1   2
ATOM      2  O   UNL     1       5.481   1.481  -5.059  1.00  0.00    -0.376 OA
BRANCH   2   3
ATOM      3  C   UNL     1       5.613   1.802  -3.682  1.00  0.00     0.202 C 
BRANCH   3   4
ATOM      4  C   UNL     1       4.461   1.358  -2.775  1.00  0.00     0.261 C 
BRANCH   4   5
ATOM      5  O   UNL     1       4.454  -0.045  -2.436  1.00  0.00    -0.462 OA
BRANCH   5   6
ATOM      6  C   UNL     1       3.654  -0.827  -3.209  1.00  0.00     0.328 C 
ATOM      7  O   UNL     1       3.073  -0.435  -4.213  1.00  0.00    -0.250 OA
BRANCH   6   8
ATOM      8  C   UNL     1       3.446  -2.244  -2.635  1.00  0.00     0.195 C 
ATOM      9  N   UNL     1       3.108  -3.174  -3.734  1.00  0.00    -0.327 N 
ATOM     10  C   UNL     1       4.255  -3.767  -4.415  1.00  0.00     0.120 C 
ATOM     11  C   UNL     1       5.204  -4.477  -3.468  1.00  0.00     0.022 C 
ATOM     12  C   UNL     1       4.537  -2.808  -1.702  1.00  0.00     0.037 C 
ATOM     13  C   UNL     1       5.692  -3.536  -2.381  1.00  0.00     0.005 C 
BRANCH   9  14
ATOM     14  C   UNL     1       1.873  -3.309  -4.375  1.00  0.00     0.243 C 
ATOM     15  O   UNL     1       1.789  -4.027  -5.383  1.00  0.00    -0.273 OA
BRANCH  14  16
ATOM     16  C   UNL     1       0.624  -2.468  -4.030  1.00  0.00     0.230 C 
BRANCH  16  17
ATOM     17  N   UNL     1       0.382  -2.125  -2.651  1.00  0.00    -0.253 N 
ATOM     18  C   UNL     1       0.490   0.128   0.141  1.00  0.00     0.149 C 
ATOM     19  N   UNL     1       0.223  -0.953  -0.773  1.00  0.00    -0.318 N 
ATOM     20  C   UNL     1       0.011  -2.313  -0.347  1.00  0.00     0.221 C 
ATOM     21  C   UNL     1       0.397  -0.859  -2.143  1.00  0.00     0.327 C 
ATOM     22  C   UNL     1       0.092  -3.039  -1.678  1.00  0.00     0.250 C 
ATOM     23  O   UNL     1       0.607   0.184  -2.741  1.00  0.00    -0.248 OA
ATOM     24  O   UNL     1      -0.015  -4.248  -1.815  1.00  0.00    -0.272 OA
ENDBRANCH  16  17
ENDBRANCH  14  16
ENDBRANCH   9  14
ENDBRANCH   6   8
ENDBRANCH   5   6
ENDBRANCH   4   5
ENDBRANCH   3   4
ENDBRANCH   2   3
ENDBRANCH   1   2
BRANCH   1  25
ATOM     25  C   UNL     1       6.729  -0.683  -4.641  1.00  0.00     0.188 C 
BRANCH  25  26
ATOM     26  O   UNL     1       7.931   0.010  -4.322  1.00  0.00    -0.376 OA
BRANCH  26  27
ATOM     27  C   UNL     1       9.115  -0.738  -4.553  1.00  0.00     0.202 C 
BRANCH  27  28
ATOM     28  C   UNL     1       9.567  -0.642  -6.014  1.00  0.00     0.261 C 
BRANCH  28  29
ATOM     29  O   UNL     1       8.593  -1.066  -6.987  1.00  0.00    -0.460 OA
BRANCH  29  30
ATOM     30  C   UNL     1       8.372  -2.397  -7.079  1.00  0.00     0.338 C 
ATOM     31  O   UNL     1       8.864  -3.264  -6.379  1.00  0.00    -0.246 OA
BRANCH  30  32
ATOM     32  C   UNL     1       7.298  -2.629  -8.066  1.00  0.00     0.060 A 
ATOM     33  C   UNL     1       6.091  -3.180  -7.627  1.00  0.00     0.016 A 
ATOM     34  C   UNL     1       7.496  -2.368  -9.421  1.00  0.00     0.016 A 
ATOM     35  C   UNL     1       5.074  -3.485  -8.533  1.00  0.00     0.010 A 
ATOM     36  C   UNL     1       6.487  -2.696 -10.335  1.00  0.00     0.010 A 
ATOM     37  C   UNL     1       5.280  -3.279  -9.902  1.00  0.00    -0.014 A 
BRANCH  37  38
ATOM     38  C   UNL     1       4.335  -3.836 -10.906  1.00  0.00     0.031 A 
ATOM     39  C   UNL     1       4.758  -5.055 -11.680  1.00  0.00     0.074 A 
ATOM     40  C   UNL     1       3.127  -3.286 -11.133  1.00  0.00     0.049 A 
ATOM     41  N   UNL     1       4.246  -5.579 -12.761  1.00  0.00    -0.248 NA
ATOM     42  C   UNL     1       5.933  -5.775 -11.160  1.00  0.00     0.031 C 
ATOM     43  C   UNL     1       2.545  -2.175 -10.383  1.00  0.00     0.029 A 
ATOM     44  N   UNL     1       2.178  -3.585 -12.081  1.00  0.00    -0.354 N 
ATOM     45  C   UNL     1       5.062  -6.658 -13.081  1.00  0.00     0.074 A 
ATOM     46  C   UNL     1       6.102  -6.716 -12.077  1.00  0.00     0.031 C 
ATOM     47  C   UNL     1       1.345  -1.875 -10.909  1.00  0.00     0.029 A 
ATOM     48  C   UNL     1       1.104  -2.725 -12.073  1.00  0.00     0.049 A 
ATOM     49  H   UNL     1       2.259  -4.342 -12.705  1.00  0.00     0.167 HD
ATOM     50  C   UNL     1       4.957  -7.515 -14.125  1.00  0.00     0.037 A 
ATOM     51  C   UNL     1       0.075  -2.607 -12.937  1.00  0.00     0.037 A 
ATOM     52  C   UNL     1       3.896  -7.465 -15.097  1.00  0.00     0.049 A 
ATOM     53  C   UNL     1       0.010  -3.524 -14.133  1.00  0.00     0.074 A 
ATOM     54  C   UNL     1       3.703  -8.269 -16.206  1.00  0.00     0.029 A 
ATOM     55  N   UNL     1       2.840  -6.566 -15.065  1.00  0.00    -0.354 N 
ATOM     56  N   UNL     1       0.829  -4.491 -14.479  1.00  0.00    -0.248 NA
ATOM     57  C   UNL     1      -1.107  -3.325 -15.068  1.00  0.00     0.031 C 
ATOM     58  C   UNL     1       2.548  -7.833 -16.865  1.00  0.00     0.029 A 
ATOM     59  C   UNL     1       1.996  -6.788 -16.140  1.00  0.00     0.049 A 
ATOM     60  H   UNL     1       2.709  -5.872 -14.379  1.00  0.00     0.167 HD
ATOM     61  C   UNL     1       0.311  -5.030 -15.653  1.00  0.00     0.074 A 
ATOM     62  C   UNL     1      -0.895  -4.287 -15.956  1.00  0.00     0.031 C 
ATOM     63  C   UNL     1       0.788  -6.048 -16.412  1.00  0.00     0.037 A 
BRANCH  50  64
ATOM     64  C   UNL     1       6.045  -8.538 -14.297  1.00  0.00     0.058 A 
ATOM     65  C   UNL     1       6.176  -9.643 -13.443  1.00  0.00     0.135 A 
ATOM     66  C   UNL     1       6.973  -8.408 -15.344  1.00  0.00     0.135 A 
ATOM     67  F   UNL     1       5.331  -9.805 -12.412  1.00  0.00    -0.206 F 
ATOM     68  C   UNL     1       7.206 -10.566 -13.600  1.00  0.00     0.059 A 
ATOM     69  C   UNL     1       7.995  -9.333 -15.537  1.00  0.00     0.059 A 
ATOM     70  F   UNL     1       6.898  -7.367 -16.189  1.00  0.00    -0.206 F 
ATOM     71  C   UNL     1       8.114 -10.400 -14.649  1.00  0.00     0.060 A 
BRANCH  71  72
ATOM     72  S   UNL     1       9.453 -11.596 -14.834  1.00  0.00     0.124 S 
ATOM     73  O   UNL     1      10.333 -11.222 -13.731  1.00  0.00    -0.237 OA
ATOM     74  O   UNL     1       8.758 -12.871 -14.685  1.00  0.00    -0.237 OA
ATOM     75  O   UNL     1       9.972 -11.322 -16.171  1.00  0.00    -0.744 OA
ENDBRANCH  71  72
ENDBRANCH  50  64
BRANCH  51  76
ATOM     76  C   UNL     1      -0.952  -1.546 -12.738  1.00  0.00     0.058 A 
ATOM     77  C   UNL     1      -2.277  -1.868 -12.408  1.00  0.00     0.135 A 
ATOM     78  C   UNL     1      -0.631  -0.186 -12.883  1.00  0.00     0.135 A 
ATOM     79  F   UNL     1      -2.642  -3.152 -12.278  1.00  0.00    -0.206 F 
ATOM     80  C   UNL     1      -3.248  -0.884 -12.239  1.00  0.00     0.059 A 
ATOM     81  C   UNL     1      -1.577   0.817 -12.692  1.00  0.00     0.059 A 
ATOM     82  F   UNL     1       0.622   0.179 -13.198  1.00  0.00    -0.206 F 
ATOM     83  C   UNL     1      -2.887   0.457 -12.381  1.00  0.00     0.060 A 
BRANCH  83  84
ATOM     84  S   UNL     1      -4.144   1.728 -12.120  1.00  0.00     0.124 S 
ATOM     85  O   UNL     1      -4.945   1.603 -13.332  1.00  0.00    -0.237 OA
ATOM     86  O   UNL     1      -4.782   1.283 -10.885  1.00  0.00    -0.237 OA
ATOM     87  O   UNL     1      -3.362   2.956 -12.005  1.00  0.00    -0.744 OA
ENDBRANCH  83  84
ENDBRANCH  51  76
BRANCH  63  88
ATOM     88  C   UNL     1      -0.016  -6.458 -17.614  1.00  0.00     0.058 A 
ATOM     89  C   UNL     1      -0.039  -5.690 -18.787  1.00  0.00     0.135 A 
ATOM     90  C   UNL     1      -0.717  -7.676 -17.612  1.00  0.00     0.135 A 
ATOM     91  F   UNL     1       0.610  -4.516 -18.839  1.00  0.00    -0.206 F 
ATOM     92  C   UNL     1      -0.743  -6.106 -19.913  1.00  0.00     0.059 A 
ATOM     93  C   UNL     1      -1.407  -8.123 -18.735  1.00  0.00     0.059 A 
ATOM     94  F   UNL     1      -0.717  -8.454 -16.519  1.00  0.00    -0.206 F 
ATOM     95  C   UNL     1      -1.421  -7.326 -19.878  1.00  0.00     0.060 A 
BRANCH  95  96
ATOM     96  S   UNL     1      -2.291  -7.878 -21.361  1.00  0.00     0.124 S 
ATOM     97  O   UNL     1      -3.467  -7.015 -21.352  1.00  0.00    -0.237 OA
ATOM     98  O   UNL     1      -1.317  -7.611 -22.415  1.00  0.00    -0.237 OA
ATOM     99  O   UNL     1      -2.547  -9.292 -21.099  1.00  0.00    -0.744 OA
ENDBRANCH  95  96
ENDBRANCH  63  88
ENDBRANCH  37  38
ENDBRANCH  30  32
ENDBRANCH  29  30
ENDBRANCH  28  29
ENDBRANCH  27  28
ENDBRANCH  26  27
ENDBRANCH  25  26
ENDBRANCH   1  25
TORSDOF 23
