REMARK SMILES CC(C)[C@H](C)CNC(=O)N1CC(n2cc(C(=O)OCCOCCOCCOC(=O)c3ccc(-c4c5nc(c(-c6c(F)cc(S(=O)(=O)[O-])cc6F)c6ccc([nH]6)c(-c6c(F)cc(S(=O)(=O)[O-])cc6F)c6nc(c(-c7c(F)cc(S(=O)(=O)[O-])cc7F)c7ccc4[nH]7)C=C6)C=C5)cc3)nn2)C1
REMARK SMILES IDX 22 1 21 2 20 3 19 4 18 5 16 6 17 7 15 8 13 9 14 10 97 11
REMARK SMILES IDX 96 12 12 13 7 14 8 15 9 17 10 18 11 19 98 20 6 21 4 22 5 23
REMARK SMILES IDX 2 24 1 25 3 26 23 27 24 28 25 29 26 30 27 31 28 32 29 33
REMARK SMILES IDX 30 34 31 35 95 36 32 37 94 38 33 39 34 40 35 41 88 42 36 43
REMARK SMILES IDX 93 44 87 45 89 46 37 47 92 48 86 49 85 50 38 52 72 53 51 54
REMARK SMILES IDX 71 55 52 56 55 57 70 58 90 59 53 60 54 61 69 63 91 64 56 65
REMARK SMILES IDX 39 66 40 67 49 68 41 69 42 70 48 71 50 72 43 73 44 74 45 75
REMARK SMILES IDX 46 76 47 77 73 78 74 79 83 80 75 81 76 82 82 83 84 84 77 85
REMARK SMILES IDX 78 86 79 87 80 88 81 89 57 90 58 91 67 92 59 93 60 94 66 95
REMARK SMILES IDX 68 96 61 97 62 98 63 99 64 100 65 101
REMARK H PARENT 7 16 89 51 55 62
REMARK Flexibility Score: inf
ROOT
ATOM      1  C   UNL     1     -11.670  -3.702  -3.314  1.00  0.00     0.188 C 
ENDROOT
BRANCH   1   2
ATOM      2  O   UNL     1     -12.685  -2.954  -3.958  1.00  0.00    -0.376 OA
BRANCH   2   3
ATOM      3  C   UNL     1     -12.385  -2.115  -5.059  1.00  0.00     0.202 C 
BRANCH   3   4
ATOM      4  C   UNL     1     -11.145  -1.197  -5.089  1.00  0.00     0.261 C 
BRANCH   4   5
ATOM      5  O   UNL     1      -9.923  -1.760  -4.590  1.00  0.00    -0.458 OA
BRANCH   5   6
ATOM      6  C   UNL     1      -9.499  -1.301  -3.382  1.00  0.00     0.360 C 
ATOM      7  O   UNL     1      -9.998  -0.333  -2.800  1.00  0.00    -0.244 OA
BRANCH   6   8
ATOM      8  C   UNL     1      -8.461  -2.124  -2.781  1.00  0.00     0.190 A 
ATOM      9  N   UNL     1      -6.814  -3.461  -2.317  1.00  0.00    -0.245 N 
ATOM     10  C   UNL     1      -7.540  -2.973  -3.373  1.00  0.00     0.147 A 
ATOM     11  N   UNL     1      -7.290  -3.004  -1.151  1.00  0.00    -0.066 NA
ATOM     12  N   UNL     1      -8.294  -2.185  -1.418  1.00  0.00    -0.123 NA
BRANCH   9  13
ATOM     13  C   UNL     1      -5.569  -4.156  -2.453  1.00  0.00     0.148 C 
ATOM     14  N   UNL     1      -1.464  -3.178  -2.039  1.00  0.00    -0.338 N 
ATOM     15  C   UNL     1      -2.372  -4.062  -1.553  1.00  0.00     0.317 C 
ATOM     16  H   UNL     1      -0.571  -3.551  -2.216  1.00  0.00     0.165 HD
ATOM     17  O   UNL     1      -1.957  -5.088  -1.016  1.00  0.00    -0.249 OA
ATOM     18  N   UNL     1      -3.692  -3.788  -1.679  1.00  0.00    -0.320 N 
ATOM     19  C   UNL     1      -4.838  -4.519  -1.150  1.00  0.00     0.150 C 
ATOM     20  C   UNL     1      -4.453  -3.129  -2.719  1.00  0.00     0.150 C 
BRANCH  14  21
ATOM     21  C   UNL     1      -1.611  -1.764  -2.338  1.00  0.00     0.121 C 
BRANCH  21  22
ATOM     22  C   UNL     1      -1.025  -0.861  -1.223  1.00  0.00     0.008 C 
ATOM     23  C   UNL     1       0.504  -1.027  -1.206  1.00  0.00     0.010 C 
BRANCH  22  24
ATOM     24  C   UNL     1      -1.520   0.609  -1.402  1.00  0.00    -0.013 C 
ATOM     25  C   UNL     1      -2.989   0.744  -0.962  1.00  0.00     0.008 C 
ATOM     26  C   UNL     1      -0.706   1.649  -0.624  1.00  0.00     0.008 C 
ENDBRANCH  22  24
ENDBRANCH  21  22
ENDBRANCH  14  21
ENDBRANCH   9  13
ENDBRANCH   6   8
ENDBRANCH   5   6
ENDBRANCH   4   5
ENDBRANCH   3   4
ENDBRANCH   2   3
ENDBRANCH   1   2
BRANCH   1  27
ATOM     27  C   UNL     1     -10.671  -4.569  -4.117  1.00  0.00     0.188 C 
BRANCH  27  28
ATOM     28  O   UNL     1     -10.439  -4.219  -5.464  1.00  0.00    -0.376 OA
BRANCH  28  29
ATOM     29  C   UNL     1     -11.101  -4.831  -6.565  1.00  0.00     0.202 C 
BRANCH  29  30
ATOM     30  C   UNL     1     -12.393  -5.647  -6.499  1.00  0.00     0.261 C 
BRANCH  30  31
ATOM     31  O   UNL     1     -12.982  -5.727  -5.226  1.00  0.00    -0.460 OA
BRANCH  31  32
ATOM     32  C   UNL     1     -12.579  -6.804  -4.524  1.00  0.00     0.338 C 
ATOM     33  O   UNL     1     -11.701  -7.598  -4.838  1.00  0.00    -0.246 OA
BRANCH  32  34
ATOM     34  C   UNL     1     -13.369  -6.889  -3.298  1.00  0.00     0.060 A 
ATOM     35  C   UNL     1     -12.988  -7.904  -2.421  1.00  0.00     0.016 A 
ATOM     36  C   UNL     1     -14.656  -6.335  -3.317  1.00  0.00     0.016 A 
ATOM     37  C   UNL     1     -13.994  -8.645  -1.865  1.00  0.00     0.010 A 
ATOM     38  C   UNL     1     -15.658  -7.078  -2.765  1.00  0.00     0.010 A 
ATOM     39  C   UNL     1     -15.306  -8.294  -2.187  1.00  0.00    -0.014 A 
BRANCH  39  40
ATOM     40  C   UNL     1     -16.335  -9.274  -1.960  1.00  0.00     0.031 A 
ATOM     41  C   UNL     1     -16.748  -9.325  -0.550  1.00  0.00     0.074 A 
ATOM     42  C   UNL     1     -16.881  -9.956  -2.983  1.00  0.00     0.049 A 
ATOM     43  N   UNL     1     -16.488 -10.246   0.315  1.00  0.00    -0.248 NA
ATOM     44  C   UNL     1     -17.306  -8.089   0.023  1.00  0.00     0.031 C 
ATOM     45  C   UNL     1     -16.692  -9.767  -4.426  1.00  0.00     0.029 A 
ATOM     46  N   UNL     1     -17.835 -10.919  -2.927  1.00  0.00    -0.354 N 
ATOM     47  C   UNL     1     -17.089  -9.806   1.485  1.00  0.00     0.074 A 
ATOM     48  C   UNL     1     -17.335  -8.398   1.318  1.00  0.00     0.031 C 
ATOM     49  C   UNL     1     -17.676 -10.414  -5.093  1.00  0.00     0.029 A 
ATOM     50  C   UNL     1     -18.476 -11.159  -4.138  1.00  0.00     0.049 A 
ATOM     51  H   UNL     1     -18.054 -11.406  -2.100  1.00  0.00     0.167 HD
ATOM     52  C   UNL     1     -17.629 -10.683   2.371  1.00  0.00     0.037 A 
ATOM     53  C   UNL     1     -19.658 -11.818  -4.261  1.00  0.00     0.037 A 
ATOM     54  C   UNL     1     -17.137 -12.021   2.165  1.00  0.00     0.049 A 
ATOM     55  C   UNL     1     -19.811 -12.639  -3.020  1.00  0.00     0.074 A 
ATOM     56  C   UNL     1     -15.880 -12.597   2.182  1.00  0.00     0.029 A 
ATOM     57  N   UNL     1     -17.942 -12.906   1.485  1.00  0.00    -0.354 N 
ATOM     58  N   UNL     1     -19.011 -13.627  -2.709  1.00  0.00    -0.248 NA
ATOM     59  C   UNL     1     -20.509 -12.031  -1.893  1.00  0.00     0.031 C 
ATOM     60  C   UNL     1     -15.887 -13.538   1.109  1.00  0.00     0.029 A 
ATOM     61  C   UNL     1     -17.162 -13.530   0.541  1.00  0.00     0.049 A 
ATOM     62  H   UNL     1     -18.901 -13.062   1.645  1.00  0.00     0.167 HD
ATOM     63  C   UNL     1     -18.793 -13.504  -1.341  1.00  0.00     0.074 A 
ATOM     64  C   UNL     1     -19.784 -12.529  -0.887  1.00  0.00     0.031 C 
ATOM     65  C   UNL     1     -17.650 -13.968  -0.751  1.00  0.00     0.037 A 
BRANCH  52  66
ATOM     66  C   UNL     1     -18.879 -10.375   3.147  1.00  0.00     0.058 A 
ATOM     67  C   UNL     1     -19.229 -11.182   4.242  1.00  0.00     0.135 A 
ATOM     68  C   UNL     1     -19.877  -9.476   2.700  1.00  0.00     0.135 A 
ATOM     69  F   UNL     1     -18.362 -12.085   4.727  1.00  0.00    -0.206 F 
ATOM     70  C   UNL     1     -20.497 -11.134   4.819  1.00  0.00     0.059 A 
ATOM     71  C   UNL     1     -21.120  -9.365   3.301  1.00  0.00     0.059 A 
ATOM     72  F   UNL     1     -19.736  -8.735   1.594  1.00  0.00    -0.206 F 
ATOM     73  C   UNL     1     -21.438 -10.229   4.332  1.00  0.00     0.060 A 
BRANCH  73  74
ATOM     74  S   UNL     1     -23.110 -10.243   4.995  1.00  0.00     0.124 S 
ATOM     75  O   UNL     1     -23.606 -11.522   4.498  1.00  0.00    -0.237 OA
ATOM     76  O   UNL     1     -22.866 -10.163   6.431  1.00  0.00    -0.237 OA
ATOM     77  O   UNL     1     -23.718  -9.056   4.400  1.00  0.00    -0.744 OA
ENDBRANCH  73  74
ENDBRANCH  52  66
BRANCH  53  78
ATOM     78  C   UNL     1     -20.807 -11.401  -5.114  1.00  0.00     0.058 A 
ATOM     79  C   UNL     1     -21.902 -12.253  -5.347  1.00  0.00     0.135 A 
ATOM     80  C   UNL     1     -20.979 -10.057  -5.510  1.00  0.00     0.135 A 
ATOM     81  F   UNL     1     -21.842 -13.541  -4.975  1.00  0.00    -0.206 F 
ATOM     82  C   UNL     1     -23.102 -11.794  -5.909  1.00  0.00     0.059 A 
ATOM     83  C   UNL     1     -22.158  -9.580  -6.080  1.00  0.00     0.059 A 
ATOM     84  F   UNL     1     -20.033  -9.137  -5.274  1.00  0.00    -0.206 F 
ATOM     85  C   UNL     1     -23.225 -10.449  -6.259  1.00  0.00     0.060 A 
BRANCH  85  86
ATOM     86  S   UNL     1     -24.814  -9.811  -6.845  1.00  0.00     0.124 S 
ATOM     87  O   UNL     1     -24.933 -10.450  -8.151  1.00  0.00    -0.237 OA
ATOM     88  O   UNL     1     -25.735 -10.283  -5.817  1.00  0.00    -0.237 OA
ATOM     89  O   UNL     1     -24.608  -8.365  -6.876  1.00  0.00    -0.744 OA
ENDBRANCH  85  86
ENDBRANCH  53  78
BRANCH  65  90
ATOM     90  C   UNL     1     -16.709 -14.812  -1.578  1.00  0.00     0.058 A 
ATOM     91  C   UNL     1     -15.998 -14.336  -2.696  1.00  0.00     0.135 A 
ATOM     92  C   UNL     1     -16.383 -16.097  -1.121  1.00  0.00     0.135 A 
ATOM     93  F   UNL     1     -16.166 -13.080  -3.130  1.00  0.00    -0.206 F 
ATOM     94  C   UNL     1     -15.042 -15.115  -3.353  1.00  0.00     0.059 A 
ATOM     95  C   UNL     1     -15.413 -16.881  -1.742  1.00  0.00     0.059 A 
ATOM     96  F   UNL     1     -16.973 -16.586  -0.018  1.00  0.00    -0.206 F 
ATOM     97  C   UNL     1     -14.755 -16.389  -2.868  1.00  0.00     0.060 A 
BRANCH  97  98
ATOM     98  S   UNL     1     -13.471 -17.372  -3.675  1.00  0.00     0.124 S 
ATOM     99  O   UNL     1     -14.101 -17.715  -4.946  1.00  0.00    -0.237 OA
ATOM    100  O   UNL     1     -12.355 -16.434  -3.755  1.00  0.00    -0.237 OA
ATOM    101  O   UNL     1     -13.269 -18.490  -2.757  1.00  0.00    -0.744 OA
ENDBRANCH  97  98
ENDBRANCH  65  90
ENDBRANCH  39  40
ENDBRANCH  32  34
ENDBRANCH  31  32
ENDBRANCH  30  31
ENDBRANCH  29  30
ENDBRANCH  28  29
ENDBRANCH  27  28
ENDBRANCH   1  27
TORSDOF 24
