REMARK SMILES C/C(=N\Nc1ccccc1C(=O)OCCOCCOCCOC(=O)c1ccc(-c2c3nc(c(-c4c(F)cc(S(=O)(=O)[O-])cc4F)c4ccc([nH]4)c(-c4c(F)cc(S(=O)(=O)[O-])cc4F)c4nc(c(-c5c(F)cc(S(=O)(=O)[O-])cc5F)c5ccc2[nH]5)C=C4)C=C3)cc1)c1ccc(S(C)(=O)=O)cc1
REMARK SMILES IDX 17 1 16 2 15 3 14 4 13 5 11 6 12 7 10 8 5 9 6 10 7 11 9 12
REMARK SMILES IDX 8 13 4 14 3 16 1 17 2 18 91 19 92 20 100 21 93 22 99 23
REMARK SMILES IDX 94 24 95 25 96 26 97 27 98 28 18 29 19 30 20 31 21 32 22 33
REMARK SMILES IDX 23 34 24 35 25 36 26 37 90 38 27 39 89 40 28 41 29 42 30 43
REMARK SMILES IDX 83 44 31 45 88 46 82 47 84 48 32 49 87 50 81 51 80 52 33 54
REMARK SMILES IDX 67 55 46 56 66 57 47 58 50 59 65 60 85 61 48 62 49 63 64 65
REMARK SMILES IDX 86 66 51 67 34 68 35 69 44 70 36 71 37 72 43 73 45 74 38 75
REMARK SMILES IDX 39 76 40 77 41 78 42 79 68 80 69 81 78 82 70 83 71 84 77 85
REMARK SMILES IDX 79 86 72 87 73 88 74 89 75 90 76 91 52 92 53 93 62 94 54 95
REMARK SMILES IDX 55 96 61 97 63 98 56 99 57 100 58 101 59 102 60 103
REMARK H PARENT 4 15 84 53 50 64
REMARK Flexibility Score: inf
ROOT
ATOM      1  C   UNL     1      -2.668   1.798  -1.238  1.00  0.00     0.188 C 
ENDROOT
BRANCH   1   2
ATOM      2  O   UNL     1      -2.855   1.388  -2.575  1.00  0.00    -0.376 OA
BRANCH   2   3
ATOM      3  C   UNL     1      -2.050   0.343  -3.086  1.00  0.00     0.202 C 
BRANCH   3   4
ATOM      4  C   UNL     1      -0.750  -0.127  -2.424  1.00  0.00     0.261 C 
BRANCH   4   5
ATOM      5  O   UNL     1      -0.667  -0.042  -0.999  1.00  0.00    -0.460 OA
BRANCH   5   6
ATOM      6  C   UNL     1       0.333   0.720  -0.493  1.00  0.00     0.340 C 
ATOM      7  O   UNL     1       1.114   1.400  -1.141  1.00  0.00    -0.246 OA
BRANCH   6   8
ATOM      8  C   UNL     1       0.279   0.776   0.990  1.00  0.00     0.085 A 
ATOM      9  C   UNL     1       0.200  -0.340   1.845  1.00  0.00     0.071 A 
ATOM     10  C   UNL     1       0.164  -0.086   3.238  1.00  0.00     0.028 A 
ATOM     11  C   UNL     1       0.204   1.208   3.764  1.00  0.00     0.002 A 
ATOM     12  C   UNL     1       0.314   2.082   1.530  1.00  0.00     0.018 A 
ATOM     13  C   UNL     1       0.279   2.296   2.907  1.00  0.00     0.001 A 
BRANCH   9  14
ATOM     14  N   UNL     1       0.313  -1.711   1.493  1.00  0.00    -0.277 N 
ATOM     15  H   UNL     1       0.227  -2.370   2.220  1.00  0.00     0.190 HD
BRANCH  14  16
ATOM     16  N   UNL     1       0.527  -2.190   0.251  1.00  0.00    -0.180 NA
ATOM     17  C   UNL     1       2.841  -1.239   0.254  1.00  0.00     0.069 C 
ATOM     18  C   UNL     1       1.665  -1.984  -0.351  1.00  0.00     0.065 C 
BRANCH  18  19
ATOM     19  C   UNL     1       1.795  -2.455  -1.776  1.00  0.00    -0.002 A 
ATOM     20  C   UNL     1       0.754  -3.199  -2.360  1.00  0.00     0.011 A 
ATOM     21  C   UNL     1       2.872  -2.051  -2.575  1.00  0.00     0.011 A 
ATOM     22  C   UNL     1       0.751  -3.469  -3.734  1.00  0.00     0.021 A 
ATOM     23  C   UNL     1       2.890  -2.347  -3.940  1.00  0.00     0.021 A 
ATOM     24  C   UNL     1       1.822  -3.036  -4.516  1.00  0.00     0.067 A 
BRANCH  24  25
ATOM     25  S   UNL     1       1.819  -3.323  -6.269  1.00  0.00     0.175 S 
ATOM     26  C   UNL     1       1.488  -5.054  -6.437  1.00  0.00     0.163 C 
ATOM     27  O   UNL     1       0.694  -2.591  -6.816  1.00  0.00    -0.224 OA
ATOM     28  O   UNL     1       3.169  -3.104  -6.750  1.00  0.00    -0.224 OA
ENDBRANCH  24  25
ENDBRANCH  18  19
ENDBRANCH  14  16
ENDBRANCH   9  14
ENDBRANCH   6   8
ENDBRANCH   5   6
ENDBRANCH   4   5
ENDBRANCH   3   4
ENDBRANCH   2   3
ENDBRANCH   1   2
BRANCH   1  29
ATOM     29  C   UNL     1      -3.144   0.848  -0.115  1.00  0.00     0.188 C 
BRANCH  29  30
ATOM     30  O   UNL     1      -3.495  -0.475  -0.451  1.00  0.00    -0.376 OA
BRANCH  30  31
ATOM     31  C   UNL     1      -4.691  -0.743  -1.160  1.00  0.00     0.202 C 
BRANCH  31  32
ATOM     32  C   UNL     1      -5.850   0.251  -1.395  1.00  0.00     0.261 C 
BRANCH  32  33
ATOM     33  O   UNL     1      -5.585   1.650  -1.268  1.00  0.00    -0.460 OA
BRANCH  33  34
ATOM     34  C   UNL     1      -5.992   2.235  -0.109  1.00  0.00     0.338 C 
ATOM     35  O   UNL     1      -6.570   1.701   0.816  1.00  0.00    -0.246 OA
BRANCH  34  36
ATOM     36  C   UNL     1      -5.384   3.585  -0.040  1.00  0.00     0.060 A 
ATOM     37  C   UNL     1      -4.496   3.871   1.011  1.00  0.00     0.016 A 
ATOM     38  C   UNL     1      -5.628   4.535  -1.033  1.00  0.00     0.016 A 
ATOM     39  C   UNL     1      -3.868   5.115   1.083  1.00  0.00     0.010 A 
ATOM     40  C   UNL     1      -5.029   5.795  -0.938  1.00  0.00     0.010 A 
ATOM     41  C   UNL     1      -4.174   6.102   0.138  1.00  0.00    -0.014 A 
BRANCH  41  42
ATOM     42  C   UNL     1      -3.837   7.518   0.428  1.00  0.00     0.031 A 
ATOM     43  C   UNL     1      -4.899   8.357   1.090  1.00  0.00     0.074 A 
ATOM     44  C   UNL     1      -2.636   8.051   0.139  1.00  0.00     0.049 A 
ATOM     45  N   UNL     1      -4.889   9.628   1.394  1.00  0.00    -0.248 NA
ATOM     46  C   UNL     1      -6.147   7.662   1.451  1.00  0.00     0.031 C 
ATOM     47  C   UNL     1      -1.510   7.337  -0.457  1.00  0.00     0.029 A 
ATOM     48  N   UNL     1      -2.173   9.334   0.303  1.00  0.00    -0.354 N 
ATOM     49  C   UNL     1      -6.128   9.885   1.970  1.00  0.00     0.074 A 
ATOM     50  C   UNL     1      -6.877   8.649   1.944  1.00  0.00     0.031 C 
ATOM     51  C   UNL     1      -0.489   8.198  -0.627  1.00  0.00     0.029 A 
ATOM     52  C   UNL     1      -0.901   9.530  -0.181  1.00  0.00     0.049 A 
ATOM     53  H   UNL     1      -2.702  10.047   0.728  1.00  0.00     0.167 HD
ATOM     54  C   UNL     1      -6.600  11.045   2.482  1.00  0.00     0.037 A 
ATOM     55  C   UNL     1      -0.168  10.660  -0.275  1.00  0.00     0.037 A 
ATOM     56  C   UNL     1      -5.856  12.276   2.500  1.00  0.00     0.049 A 
ATOM     57  C   UNL     1      -0.743  11.961   0.234  1.00  0.00     0.074 A 
ATOM     58  C   UNL     1      -6.241  13.504   3.008  1.00  0.00     0.029 A 
ATOM     59  N   UNL     1      -4.582  12.440   1.978  1.00  0.00    -0.354 N 
ATOM     60  N   UNL     1      -1.906  12.188   0.800  1.00  0.00    -0.248 NA
ATOM     61  C   UNL     1       0.098  13.160   0.098  1.00  0.00     0.031 C 
ATOM     62  C   UNL     1      -5.223  14.425   2.740  1.00  0.00     0.029 A 
ATOM     63  C   UNL     1      -4.175  13.755   2.127  1.00  0.00     0.049 A 
ATOM     64  H   UNL     1      -4.046  11.726   1.562  1.00  0.00     0.167 HD
ATOM     65  C   UNL     1      -1.921  13.545   1.115  1.00  0.00     0.074 A 
ATOM     66  C   UNL     1      -0.647  14.084   0.689  1.00  0.00     0.031 C 
ATOM     67  C   UNL     1      -2.898  14.278   1.707  1.00  0.00     0.037 A 
BRANCH  54  68
ATOM     68  C   UNL     1      -7.999  11.041   3.035  1.00  0.00     0.058 A 
ATOM     69  C   UNL     1      -8.328  10.359   4.218  1.00  0.00     0.135 A 
ATOM     70  C   UNL     1      -9.022  11.746   2.380  1.00  0.00     0.135 A 
ATOM     71  F   UNL     1      -7.394   9.649   4.872  1.00  0.00    -0.206 F 
ATOM     72  C   UNL     1      -9.626  10.355   4.718  1.00  0.00     0.059 A 
ATOM     73  C   UNL     1     -10.320  11.782   2.880  1.00  0.00     0.059 A 
ATOM     74  F   UNL     1      -8.765  12.408   1.242  1.00  0.00    -0.206 F 
ATOM     75  C   UNL     1     -10.615  11.072   4.042  1.00  0.00     0.060 A 
BRANCH  75  76
ATOM     76  S   UNL     1     -12.291  11.066   4.712  1.00  0.00     0.124 S 
ATOM     77  O   UNL     1     -12.710   9.695   4.435  1.00  0.00    -0.237 OA
ATOM     78  O   UNL     1     -12.065  11.387   6.117  1.00  0.00    -0.237 OA
ATOM     79  O   UNL     1     -12.972  12.098   3.936  1.00  0.00    -0.744 OA
ENDBRANCH  75  76
ENDBRANCH  54  68
BRANCH  55  80
ATOM     80  C   UNL     1       1.190  10.625  -0.888  1.00  0.00     0.058 A 
ATOM     81  C   UNL     1       2.341  10.868  -0.121  1.00  0.00     0.135 A 
ATOM     82  C   UNL     1       1.365  10.370  -2.258  1.00  0.00     0.135 A 
ATOM     83  F   UNL     1       2.228  11.136   1.189  1.00  0.00    -0.206 F 
ATOM     84  C   UNL     1       3.611  10.877  -0.690  1.00  0.00     0.059 A 
ATOM     85  C   UNL     1       2.628  10.343  -2.844  1.00  0.00     0.059 A 
ATOM     86  F   UNL     1       0.300  10.130  -3.038  1.00  0.00    -0.206 F 
ATOM     87  C   UNL     1       3.745  10.608  -2.053  1.00  0.00     0.060 A 
BRANCH  87  88
ATOM     88  S   UNL     1       5.403  10.574  -2.769  1.00  0.00     0.124 S 
ATOM     89  O   UNL     1       5.766  11.986  -2.740  1.00  0.00    -0.237 OA
ATOM     90  O   UNL     1       6.120   9.711  -1.835  1.00  0.00    -0.237 OA
ATOM     91  O   UNL     1       5.185  10.006  -4.096  1.00  0.00    -0.744 OA
ENDBRANCH  87  88
ENDBRANCH  55  80
BRANCH  67  92
ATOM     92  C   UNL     1      -2.618  15.734   1.978  1.00  0.00     0.058 A 
ATOM     93  C   UNL     1      -2.535  16.682   0.947  1.00  0.00     0.135 A 
ATOM     94  C   UNL     1      -2.484  16.195   3.299  1.00  0.00     0.135 A 
ATOM     95  F   UNL     1      -2.655  16.300  -0.335  1.00  0.00    -0.206 F 
ATOM     96  C   UNL     1      -2.297  18.028   1.212  1.00  0.00     0.059 A 
ATOM     97  C   UNL     1      -2.280  17.540   3.590  1.00  0.00     0.059 A 
ATOM     98  F   UNL     1      -2.569  15.335   4.327  1.00  0.00    -0.206 F 
ATOM     99  C   UNL     1      -2.172  18.448   2.538  1.00  0.00     0.060 A 
BRANCH  99 100
ATOM    100  S   UNL     1      -1.886  20.199   2.869  1.00  0.00     0.124 S 
ATOM    101  O   UNL     1      -0.503  20.359   2.432  1.00  0.00    -0.237 OA
ATOM    102  O   UNL     1      -2.894  20.844   2.033  1.00  0.00    -0.237 OA
ATOM    103  O   UNL     1      -2.106  20.315   4.308  1.00  0.00    -0.744 OA
ENDBRANCH  99 100
ENDBRANCH  67  92
ENDBRANCH  41  42
ENDBRANCH  34  36
ENDBRANCH  33  34
ENDBRANCH  32  33
ENDBRANCH  31  32
ENDBRANCH  30  31
ENDBRANCH  29  30
ENDBRANCH   1  29
TORSDOF 24
