REMARK SMILES CC(=O)c1ccc(N2/C(=[NH+]/C(=O)CCC(=O)OCCOCCOCCOC(=O)c3ccc(-c4c5nc(c(-c6c(F)cc(S(=O)(=O)[O-])cc6F)c6ccc([nH]6)c(-c6c(F)cc(S(=O)(=O)[O-])cc6F)c6nc(c(-c7c(F)cc(S(=O)(=O)[O-])cc7F)c7ccc4[nH]7)C=C6)C=C5)cc3)S[C@H]3CS(=O)(=O)C[C@@H]32)cc1
REMARK SMILES IDX 21 1 20 2 19 3 18 4 17 5 15 6 16 7 14 8 13 9 11 10 8 11 9 12
REMARK SMILES IDX 102 13 10 14 95 15 96 16 101 17 97 19 98 20 12 21 99 22
REMARK SMILES IDX 100 23 7 24 4 25 5 26 104 27 6 28 103 29 2 30 1 31 3 32
REMARK SMILES IDX 22 33 23 34 24 35 25 36 26 37 27 38 28 39 29 40 30 41 94 42
REMARK SMILES IDX 31 43 93 44 32 45 33 46 34 47 87 48 35 49 92 50 86 51 88 52
REMARK SMILES IDX 36 53 91 54 85 55 84 56 37 58 71 59 50 60 70 61 51 62 54 63
REMARK SMILES IDX 69 64 89 65 52 66 53 67 68 69 90 70 55 71 38 72 39 73 48 74
REMARK SMILES IDX 40 75 41 76 47 77 49 78 42 79 43 80 44 81 45 82 46 83 72 84
REMARK SMILES IDX 73 85 82 86 74 87 75 88 81 89 83 90 76 91 77 92 78 93 79 94
REMARK SMILES IDX 80 95 56 96 57 97 66 98 58 99 59 100 65 101 67 102 60 103
REMARK SMILES IDX 61 104 62 105 63 106 64 107
REMARK H PARENT 10 18 88 57 54 68
REMARK Flexibility Score: inf
ROOT
ATOM      1  C   UNL     1       4.728  -0.490   6.719  1.00  0.00     0.188 C 
ENDROOT
BRANCH   1   2
ATOM      2  O   UNL     1       4.292   0.167   5.529  1.00  0.00    -0.376 OA
BRANCH   2   3
ATOM      3  C   UNL     1       3.855  -0.684   4.465  1.00  0.00     0.202 C 
BRANCH   3   4
ATOM      4  C   UNL     1       4.947  -1.611   3.927  1.00  0.00     0.261 C 
BRANCH   4   5
ATOM      5  O   UNL     1       5.335  -2.582   4.910  1.00  0.00    -0.463 OA
BRANCH   5   6
ATOM      6  C   UNL     1       6.651  -2.883   4.986  1.00  0.00     0.306 C 
ATOM      7  O   UNL     1       7.501  -2.486   4.198  1.00  0.00    -0.252 OA
BRANCH   6   8
ATOM      8  C   UNL     1       7.000  -3.680   6.226  1.00  0.00     0.135 C 
BRANCH   8   9
ATOM      9  C   UNL     1       5.847  -4.389   6.926  1.00  0.00     0.139 C 
BRANCH   9  10
ATOM     10  C   UNL     1       5.247  -5.440   6.021  1.00  0.00     0.308 C 
ATOM     11  N   UNL     1       2.169  -5.607   4.030  1.00  0.00    -0.217 N 
ATOM     12  C   UNL     1       3.258  -5.852   4.879  1.00  0.00     0.319 C 
ATOM     13  C   UNL     1       1.398  -6.806   3.694  1.00  0.00     0.212 C 
ATOM     14  N   UNL     1       4.148  -5.025   5.303  1.00  0.00    -0.204 N 
ATOM     15  S   UNL     1       3.242  -7.612   5.285  1.00  0.00    -0.029 SA
ATOM     16  C   UNL     1       2.448  -7.920   3.709  1.00  0.00     0.120 C 
ATOM     17  C   UNL     1       0.769  -6.922   2.321  1.00  0.00     0.188 C 
ATOM     18  H   UNL     1       4.040  -4.066   5.109  1.00  0.00     0.316 HD
ATOM     19  C   UNL     1       1.727  -9.205   3.429  1.00  0.00     0.156 C 
ATOM     20  S   UNL     1       0.614  -8.700   2.111  1.00  0.00     0.155 S 
ATOM     21  O   UNL     1       5.846  -6.504   5.870  1.00  0.00    -0.247 OA
ATOM     22  O   UNL     1       1.212  -9.056   0.838  1.00  0.00    -0.229 OA
ATOM     23  O   UNL     1      -0.727  -9.092   2.471  1.00  0.00    -0.229 OA
BRANCH  11  24
ATOM     24  C   UNL     1       1.783  -4.399   3.438  1.00  0.00     0.128 A 
ATOM     25  C   UNL     1       0.872  -2.077   2.066  1.00  0.00     0.018 A 
ATOM     26  C   UNL     1       0.094  -2.671   3.066  1.00  0.00     0.016 A 
ATOM     27  C   UNL     1       2.095  -2.665   1.734  1.00  0.00     0.016 A 
ATOM     28  C   UNL     1       0.537  -3.825   3.727  1.00  0.00     0.052 A 
ATOM     29  C   UNL     1       2.548  -3.805   2.427  1.00  0.00     0.052 A 
BRANCH  25  30
ATOM     30  C   UNL     1       0.349  -0.838   1.409  1.00  0.00     0.159 C 
ATOM     31  C   UNL     1       1.009  -0.320   0.157  1.00  0.00     0.093 C 
ATOM     32  O   UNL     1      -0.640  -0.277   1.877  1.00  0.00    -0.295 OA
ENDBRANCH  25  30
ENDBRANCH  11  24
ENDBRANCH   9  10
ENDBRANCH   8   9
ENDBRANCH   6   8
ENDBRANCH   5   6
ENDBRANCH   4   5
ENDBRANCH   3   4
ENDBRANCH   2   3
ENDBRANCH   1   2
BRANCH   1  33
ATOM     33  C   UNL     1       3.622  -1.247   7.450  1.00  0.00     0.188 C 
BRANCH  33  34
ATOM     34  O   UNL     1       2.861  -2.140   6.657  1.00  0.00    -0.376 OA
BRANCH  34  35
ATOM     35  C   UNL     1       1.651  -2.652   7.214  1.00  0.00     0.202 C 
BRANCH  35  36
ATOM     36  C   UNL     1       0.650  -1.693   7.902  1.00  0.00     0.261 C 
BRANCH  36  37
ATOM     37  O   UNL     1       1.167  -0.805   8.910  1.00  0.00    -0.460 OA
BRANCH  37  38
ATOM     38  C   UNL     1       1.870  -1.356   9.927  1.00  0.00     0.338 C 
ATOM     39  O   UNL     1       1.899  -2.540  10.215  1.00  0.00    -0.246 OA
BRANCH  38  40
ATOM     40  C   UNL     1       2.833  -0.335  10.441  1.00  0.00     0.060 A 
ATOM     41  C   UNL     1       4.110  -0.779  10.817  1.00  0.00     0.016 A 
ATOM     42  C   UNL     1       2.547   1.036  10.460  1.00  0.00     0.016 A 
ATOM     43  C   UNL     1       5.069   0.124  11.280  1.00  0.00     0.010 A 
ATOM     44  C   UNL     1       3.502   1.942  10.941  1.00  0.00     0.010 A 
ATOM     45  C   UNL     1       4.747   1.481  11.409  1.00  0.00    -0.014 A 
BRANCH  45  46
ATOM     46  C   UNL     1       5.571   2.325  12.315  1.00  0.00     0.031 A 
ATOM     47  C   UNL     1       5.092   2.475  13.738  1.00  0.00     0.074 A 
ATOM     48  C   UNL     1       6.735   2.883  11.934  1.00  0.00     0.049 A 
ATOM     49  N   UNL     1       5.620   3.138  14.733  1.00  0.00    -0.248 NA
ATOM     50  C   UNL     1       3.841   1.776  14.081  1.00  0.00     0.031 C 
ATOM     51  C   UNL     1       7.336   2.777  10.607  1.00  0.00     0.029 A 
ATOM     52  N   UNL     1       7.624   3.654  12.645  1.00  0.00    -0.354 N 
ATOM     53  C   UNL     1       4.763   2.944  15.811  1.00  0.00     0.074 A 
ATOM     54  C   UNL     1       3.661   2.137  15.340  1.00  0.00     0.031 C 
ATOM     55  C   UNL     1       8.492   3.466  10.596  1.00  0.00     0.029 A 
ATOM     56  C   UNL     1       8.702   4.082  11.907  1.00  0.00     0.049 A 
ATOM     57  H   UNL     1       7.499   3.880  13.595  1.00  0.00     0.167 HD
ATOM     58  C   UNL     1       4.885   3.383  17.086  1.00  0.00     0.037 A 
ATOM     59  C   UNL     1       9.729   4.888  12.248  1.00  0.00     0.037 A 
ATOM     60  C   UNL     1       5.981   4.187  17.555  1.00  0.00     0.049 A 
ATOM     61  C   UNL     1       9.816   5.421  13.660  1.00  0.00     0.074 A 
ATOM     62  C   UNL     1       6.201   4.681  18.828  1.00  0.00     0.029 A 
ATOM     63  N   UNL     1       7.037   4.622  16.767  1.00  0.00    -0.354 N 
ATOM     64  N   UNL     1       9.006   5.219  14.673  1.00  0.00    -0.248 NA
ATOM     65  C   UNL     1      10.965   6.281  13.977  1.00  0.00     0.031 C 
ATOM     66  C   UNL     1       7.360   5.463  18.797  1.00  0.00     0.029 A 
ATOM     67  C   UNL     1       7.902   5.396  17.523  1.00  0.00     0.049 A 
ATOM     68  H   UNL     1       7.154   4.412  15.813  1.00  0.00     0.167 HD
ATOM     69  C   UNL     1       9.570   5.890  15.756  1.00  0.00     0.074 A 
ATOM     70  C   UNL     1      10.792   6.499  15.274  1.00  0.00     0.031 C 
ATOM     71  C   UNL     1       9.123   5.987  17.034  1.00  0.00     0.037 A 
BRANCH  58  72
ATOM     72  C   UNL     1       3.782   3.031  18.048  1.00  0.00     0.058 A 
ATOM     73  C   UNL     1       3.569   1.714  18.488  1.00  0.00     0.135 A 
ATOM     74  C   UNL     1       2.928   4.030  18.540  1.00  0.00     0.135 A 
ATOM     75  F   UNL     1       4.339   0.714  18.030  1.00  0.00    -0.206 F 
ATOM     76  C   UNL     1       2.529   1.396  19.356  1.00  0.00     0.059 A 
ATOM     77  C   UNL     1       1.902   3.741  19.435  1.00  0.00     0.059 A 
ATOM     78  F   UNL     1       3.080   5.305  18.147  1.00  0.00    -0.206 F 
ATOM     79  C   UNL     1       1.701   2.418  19.824  1.00  0.00     0.060 A 
BRANCH  79  80
ATOM     80  S   UNL     1       0.356   1.990  20.948  1.00  0.00     0.124 S 
ATOM     81  O   UNL     1      -0.562   1.293  20.052  1.00  0.00    -0.237 OA
ATOM     82  O   UNL     1       1.031   1.155  21.937  1.00  0.00    -0.237 OA
ATOM     83  O   UNL     1      -0.107   3.285  21.435  1.00  0.00    -0.744 OA
ENDBRANCH  79  80
ENDBRANCH  58  72
BRANCH  59  84
ATOM     84  C   UNL     1      10.766   5.249  11.240  1.00  0.00     0.058 A 
ATOM     85  C   UNL     1      12.089   4.795  11.356  1.00  0.00     0.135 A 
ATOM     86  C   UNL     1      10.455   6.068  10.143  1.00  0.00     0.135 A 
ATOM     87  F   UNL     1      12.445   4.024  12.395  1.00  0.00    -0.206 F 
ATOM     88  C   UNL     1      13.068   5.150  10.431  1.00  0.00     0.059 A 
ATOM     89  C   UNL     1      11.409   6.413   9.189  1.00  0.00     0.059 A 
ATOM     90  F   UNL     1       9.204   6.529   9.981  1.00  0.00    -0.206 F 
ATOM     91  C   UNL     1      12.716   5.955   9.347  1.00  0.00     0.060 A 
BRANCH  91  92
ATOM     92  S   UNL     1      13.981   6.362   8.123  1.00  0.00     0.124 S 
ATOM     93  O   UNL     1      14.829   7.283   8.870  1.00  0.00    -0.237 OA
ATOM     94  O   UNL     1      14.558   5.053   7.835  1.00  0.00    -0.237 OA
ATOM     95  O   UNL     1      13.214   6.954   7.031  1.00  0.00    -0.744 OA
ENDBRANCH  91  92
ENDBRANCH  59  84
BRANCH  71  96
ATOM     96  C   UNL     1       9.990   6.721  18.026  1.00  0.00     0.058 A 
ATOM     97  C   UNL     1      10.175   8.111  17.976  1.00  0.00     0.135 A 
ATOM     98  C   UNL     1      10.616   6.017  19.069  1.00  0.00     0.135 A 
ATOM     99  F   UNL     1       9.599   8.836  17.004  1.00  0.00    -0.206 F 
ATOM    100  C   UNL     1      10.986   8.771  18.896  1.00  0.00     0.059 A 
ATOM    101  C   UNL     1      11.402   6.660  20.020  1.00  0.00     0.059 A 
ATOM    102  F   UNL     1      10.459   4.688  19.178  1.00  0.00    -0.206 F 
ATOM    103  C   UNL     1      11.598   8.035  19.913  1.00  0.00     0.060 A 
BRANCH 103 104
ATOM    104  S   UNL     1      12.648   8.900  21.099  1.00  0.00     0.124 S 
ATOM    105  O   UNL     1      13.825   9.195  20.289  1.00  0.00    -0.237 OA
ATOM    106  O   UNL     1      11.826  10.048  21.466  1.00  0.00    -0.237 OA
ATOM    107  O   UNL     1      12.848   7.915  22.159  1.00  0.00    -0.744 OA
ENDBRANCH 103 104
ENDBRANCH  71  96
ENDBRANCH  45  46
ENDBRANCH  38  40
ENDBRANCH  37  38
ENDBRANCH  36  37
ENDBRANCH  35  36
ENDBRANCH  34  35
ENDBRANCH  33  34
ENDBRANCH   1  33
TORSDOF 24
