REMARK SMILES C=CCS(=O)(=O)N1CCc2ccccc2[C@@H]1C(=O)OCCOCCOCCOC(=O)c1ccc(-c2c3nc(c(-c4c(F)cc(S(=O)(=O)[O-])cc4F)c4ccc([nH]4)c(-c4c(F)cc(S(=O)(=O)[O-])cc4F)c4nc(c(-c5c(F)cc(S(=O)(=O)[O-])cc5F)c5ccc2[nH]5)C=C4)C=C3)cc1
REMARK SMILES IDX 23 1 22 2 21 3 20 4 19 5 17 6 18 7 16 8 7 9 8 10 9 11 15 12
REMARK SMILES IDX 10 13 14 14 11 15 13 16 12 17 4 18 5 19 6 20 3 21 2 22 1 23
REMARK SMILES IDX 24 24 25 25 26 26 27 27 28 28 29 29 30 30 31 31 32 32 96 33
REMARK SMILES IDX 33 34 95 35 34 36 35 37 36 38 89 39 37 40 94 41 88 42 90 43
REMARK SMILES IDX 38 44 93 45 87 46 86 47 39 49 73 50 52 51 72 52 53 53 56 54
REMARK SMILES IDX 71 55 91 56 54 57 55 58 70 60 92 61 57 62 40 63 41 64 50 65
REMARK SMILES IDX 42 66 43 67 49 68 51 69 44 70 45 71 46 72 47 73 48 74 74 75
REMARK SMILES IDX 75 76 84 77 76 78 77 79 83 80 85 81 78 82 79 83 80 84 81 85
REMARK SMILES IDX 82 86 58 87 59 88 68 89 60 90 61 91 67 92 69 93 62 94 63 95
REMARK SMILES IDX 64 96 65 97 66 98
REMARK H PARENT 90 48 56 59
REMARK Flexibility Score: inf
ROOT
ATOM      1  C   UNL     1      -4.771   1.274  -1.040  1.00  0.00     0.188 C 
ENDROOT
BRANCH   1   2
ATOM      2  O   UNL     1      -6.128   1.174  -1.455  1.00  0.00    -0.376 OA
BRANCH   2   3
ATOM      3  C   UNL     1      -6.439   0.276  -2.513  1.00  0.00     0.202 C 
BRANCH   3   4
ATOM      4  C   UNL     1      -5.676   0.457  -3.830  1.00  0.00     0.261 C 
BRANCH   4   5
ATOM      5  O   UNL     1      -4.237   0.521  -3.695  1.00  0.00    -0.462 OA
BRANCH   5   6
ATOM      6  C   UNL     1      -3.622   1.460  -4.465  1.00  0.00     0.329 C 
ATOM      7  O   UNL     1      -4.253   2.125  -5.288  1.00  0.00    -0.250 OA
BRANCH   6   8
ATOM      8  C   UNL     1      -2.081   1.636  -4.252  1.00  0.00     0.213 C 
ATOM      9  N   UNL     1      -1.432   0.901  -3.066  1.00  0.00    -0.183 NA
ATOM     10  C   UNL     1      -0.398   1.729  -2.374  1.00  0.00     0.108 C 
ATOM     11  C   UNL     1      -1.023   3.025  -1.885  1.00  0.00     0.052 C 
ATOM     12  C   UNL     1      -1.793   3.157  -4.259  1.00  0.00    -0.015 A 
ATOM     13  C   UNL     1      -1.400   3.828  -3.088  1.00  0.00    -0.041 A 
ATOM     14  C   UNL     1      -2.005   3.918  -5.421  1.00  0.00     0.006 A 
ATOM     15  C   UNL     1      -1.334   5.225  -3.052  1.00  0.00     0.004 A 
ATOM     16  C   UNL     1      -1.921   5.311  -5.386  1.00  0.00     0.000 A 
ATOM     17  C   UNL     1      -1.607   5.964  -4.198  1.00  0.00     0.000 A 
BRANCH   9  18
ATOM     18  S   UNL     1      -0.881  -0.676  -3.458  1.00  0.00     0.218 S 
ATOM     19  O   UNL     1       0.333  -0.527  -4.234  1.00  0.00    -0.212 OA
ATOM     20  O   UNL     1      -2.010  -1.382  -4.029  1.00  0.00    -0.212 OA
BRANCH  18  21
ATOM     21  C   UNL     1      -0.502  -1.432  -1.831  1.00  0.00     0.181 C 
BRANCH  21  22
ATOM     22  C   UNL     1       0.958  -1.297  -1.472  1.00  0.00    -0.017 C 
ATOM     23  C   UNL     1       1.441  -0.801  -0.323  1.00  0.00     0.005 C 
ENDBRANCH  21  22
ENDBRANCH  18  21
ENDBRANCH   9  18
ENDBRANCH   6   8
ENDBRANCH   5   6
ENDBRANCH   4   5
ENDBRANCH   3   4
ENDBRANCH   2   3
ENDBRANCH   1   2
BRANCH   1  24
ATOM     24  C   UNL     1      -3.940  -0.012  -0.948  1.00  0.00     0.188 C 
BRANCH  24  25
ATOM     25  O   UNL     1      -4.719  -1.191  -0.957  1.00  0.00    -0.376 OA
BRANCH  25  26
ATOM     26  C   UNL     1      -4.219  -2.282  -0.207  1.00  0.00     0.202 C 
BRANCH  26  27
ATOM     27  C   UNL     1      -4.611  -2.133   1.268  1.00  0.00     0.261 C 
BRANCH  27  28
ATOM     28  O   UNL     1      -4.053  -0.976   1.927  1.00  0.00    -0.460 OA
BRANCH  28  29
ATOM     29  C   UNL     1      -2.708  -0.935   2.033  1.00  0.00     0.338 C 
ATOM     30  O   UNL     1      -1.921  -1.810   1.688  1.00  0.00    -0.246 OA
BRANCH  29  31
ATOM     31  C   UNL     1      -2.298   0.446   2.369  1.00  0.00     0.060 A 
ATOM     32  C   UNL     1      -1.439   1.111   1.484  1.00  0.00     0.016 A 
ATOM     33  C   UNL     1      -2.738   1.086   3.525  1.00  0.00     0.016 A 
ATOM     34  C   UNL     1      -0.975   2.393   1.766  1.00  0.00     0.010 A 
ATOM     35  C   UNL     1      -2.270   2.375   3.812  1.00  0.00     0.010 A 
ATOM     36  C   UNL     1      -1.367   3.024   2.948  1.00  0.00    -0.014 A 
BRANCH  36  37
ATOM     37  C   UNL     1      -0.693   4.276   3.369  1.00  0.00     0.031 A 
ATOM     38  C   UNL     1       0.393   4.184   4.404  1.00  0.00     0.074 A 
ATOM     39  C   UNL     1      -0.996   5.466   2.818  1.00  0.00     0.049 A 
ATOM     40  N   UNL     1       1.032   5.136   5.030  1.00  0.00    -0.248 NA
ATOM     41  C   UNL     1       0.818   2.825   4.773  1.00  0.00     0.031 C 
ATOM     42  C   UNL     1      -1.937   5.680   1.720  1.00  0.00     0.029 A 
ATOM     43  N   UNL     1      -0.540   6.725   3.122  1.00  0.00    -0.354 N 
ATOM     44  C   UNL     1       1.915   4.494   5.889  1.00  0.00     0.074 A 
ATOM     45  C   UNL     1       1.718   3.071   5.712  1.00  0.00     0.031 C 
ATOM     46  C   UNL     1      -1.996   6.996   1.449  1.00  0.00     0.029 A 
ATOM     47  C   UNL     1      -1.145   7.721   2.393  1.00  0.00     0.049 A 
ATOM     48  H   UNL     1       0.155   6.898   3.797  1.00  0.00     0.167 HD
ATOM     49  C   UNL     1       2.806   5.040   6.752  1.00  0.00     0.037 A 
ATOM     50  C   UNL     1      -1.052   9.061   2.506  1.00  0.00     0.037 A 
ATOM     51  C   UNL     1       2.984   6.457   6.932  1.00  0.00     0.049 A 
ATOM     52  C   UNL     1      -0.164   9.653   3.574  1.00  0.00     0.074 A 
ATOM     53  C   UNL     1       3.834   7.116   7.802  1.00  0.00     0.029 A 
ATOM     54  N   UNL     1       2.291   7.437   6.234  1.00  0.00    -0.354 N 
ATOM     55  N   UNL     1       0.631   9.043   4.421  1.00  0.00    -0.248 NA
ATOM     56  C   UNL     1      -0.173  11.117   3.708  1.00  0.00     0.031 C 
ATOM     57  C   UNL     1       3.613   8.491   7.672  1.00  0.00     0.029 A 
ATOM     58  C   UNL     1       2.673   8.694   6.673  1.00  0.00     0.049 A 
ATOM     59  H   UNL     1       1.625   7.263   5.530  1.00  0.00     0.167 HD
ATOM     60  C   UNL     1       1.245  10.049   5.162  1.00  0.00     0.074 A 
ATOM     61  C   UNL     1       0.729  11.307   4.663  1.00  0.00     0.031 C 
ATOM     62  C   UNL     1       2.159   9.942   6.161  1.00  0.00     0.037 A 
BRANCH  49  63
ATOM     63  C   UNL     1       3.594   4.088   7.610  1.00  0.00     0.058 A 
ATOM     64  C   UNL     1       4.575   3.237   7.075  1.00  0.00     0.135 A 
ATOM     65  C   UNL     1       3.329   3.996   8.986  1.00  0.00     0.135 A 
ATOM     66  F   UNL     1       4.853   3.267   5.762  1.00  0.00    -0.206 F 
ATOM     67  C   UNL     1       5.221   2.289   7.862  1.00  0.00     0.059 A 
ATOM     68  C   UNL     1       3.989   3.080   9.799  1.00  0.00     0.059 A 
ATOM     69  F   UNL     1       2.402   4.785   9.552  1.00  0.00    -0.206 F 
ATOM     70  C   UNL     1       4.912   2.211   9.221  1.00  0.00     0.060 A 
BRANCH  70  71
ATOM     71  S   UNL     1       5.710   0.934  10.216  1.00  0.00     0.124 S 
ATOM     72  O   UNL     1       5.030  -0.268   9.743  1.00  0.00    -0.237 OA
ATOM     73  O   UNL     1       7.111   1.064   9.826  1.00  0.00    -0.237 OA
ATOM     74  O   UNL     1       5.404   1.330  11.587  1.00  0.00    -0.744 OA
ENDBRANCH  70  71
ENDBRANCH  49  63
BRANCH  50  75
ATOM     75  C   UNL     1      -1.833   9.945   1.598  1.00  0.00     0.058 A 
ATOM     76  C   UNL     1      -1.186  10.745   0.645  1.00  0.00     0.135 A 
ATOM     77  C   UNL     1      -3.234  10.012   1.663  1.00  0.00     0.135 A 
ATOM     78  F   UNL     1       0.153  10.732   0.556  1.00  0.00    -0.206 F 
ATOM     79  C   UNL     1      -1.897  11.580  -0.211  1.00  0.00     0.059 A 
ATOM     80  C   UNL     1      -3.970  10.819   0.799  1.00  0.00     0.059 A 
ATOM     81  F   UNL     1      -3.902   9.269   2.558  1.00  0.00    -0.206 F 
ATOM     82  C   UNL     1      -3.290  11.602  -0.133  1.00  0.00     0.060 A 
BRANCH  82  83
ATOM     83  S   UNL     1      -4.202  12.637  -1.299  1.00  0.00     0.124 S 
ATOM     84  O   UNL     1      -3.869  13.977  -0.828  1.00  0.00    -0.237 OA
ATOM     85  O   UNL     1      -3.613  12.243  -2.575  1.00  0.00    -0.237 OA
ATOM     86  O   UNL     1      -5.588  12.225  -1.101  1.00  0.00    -0.744 OA
ENDBRANCH  82  83
ENDBRANCH  50  75
BRANCH  62  87
ATOM     87  C   UNL     1       2.707  11.216   6.750  1.00  0.00     0.058 A 
ATOM     88  C   UNL     1       1.936  12.048   7.576  1.00  0.00     0.135 A 
ATOM     89  C   UNL     1       4.047  11.576   6.529  1.00  0.00     0.135 A 
ATOM     90  F   UNL     1       0.647  11.757   7.816  1.00  0.00    -0.206 F 
ATOM     91  C   UNL     1       2.467  13.203   8.144  1.00  0.00     0.059 A 
ATOM     92  C   UNL     1       4.607  12.709   7.111  1.00  0.00     0.059 A 
ATOM     93  F   UNL     1       4.834  10.811   5.756  1.00  0.00    -0.206 F 
ATOM     94  C   UNL     1       3.805  13.523   7.909  1.00  0.00     0.060 A 
BRANCH  94  95
ATOM     95  S   UNL     1       4.492  15.002   8.684  1.00  0.00     0.124 S 
ATOM     96  O   UNL     1       3.857  16.063   7.909  1.00  0.00    -0.237 OA
ATOM     97  O   UNL     1       4.041  14.868  10.065  1.00  0.00    -0.237 OA
ATOM     98  O   UNL     1       5.931  14.855   8.484  1.00  0.00    -0.744 OA
ENDBRANCH  94  95
ENDBRANCH  62  87
ENDBRANCH  36  37
ENDBRANCH  29  31
ENDBRANCH  28  29
ENDBRANCH  27  28
ENDBRANCH  26  27
ENDBRANCH  25  26
ENDBRANCH  24  25
ENDBRANCH   1  24
TORSDOF 23
