REMARK SMILES C[C@@H](CCCO)Nc1ccc(C(=O)OCCOCCOCCOC(=O)c2ccc(-c3c4nc(c(-c5c(F)cc(S(=O)(=O)[O-])cc5F)c5ccc([nH]5)c(-c5c(F)cc(S(=O)(=O)[O-])cc5F)c5nc(c(-c6c(F)cc(S(=O)(=O)[O-])cc6F)c6ccc3[nH]6)C=C5)C=C4)cc2)o1
REMARK SMILES IDX 17 1 16 2 15 3 14 4 12 5 13 6 11 7 8 8 9 9 92 10 10 11 7 12
REMARK SMILES IDX 2 14 1 15 3 16 4 17 5 18 6 19 18 21 19 22 20 23 21 24 22 25
REMARK SMILES IDX 23 26 24 27 25 28 26 29 27 30 91 31 28 32 90 33 29 34 30 35
REMARK SMILES IDX 31 36 84 37 32 38 89 39 83 40 85 41 33 42 88 43 82 44 81 45
REMARK SMILES IDX 34 47 68 48 47 49 67 50 48 51 51 52 66 53 86 54 49 55 50 56
REMARK SMILES IDX 65 58 87 59 52 60 35 61 36 62 45 63 37 64 38 65 44 66 46 67
REMARK SMILES IDX 39 68 40 69 41 70 42 71 43 72 69 73 70 74 79 75 71 76 72 77
REMARK SMILES IDX 78 78 80 79 73 80 74 81 75 82 76 83 77 84 53 85 54 86 63 87
REMARK SMILES IDX 55 88 56 89 62 90 64 91 57 92 58 93 59 94 60 95 61 96
REMARK H PARENT 7 13 6 20 85 46 51 57
REMARK Flexibility Score: inf
ROOT
ATOM      1  O   UNL     1      -6.635   0.192  -4.764  1.00  0.00    -0.376 OA
ENDROOT
BRANCH   1   2
ATOM      2  C   UNL     1      -6.262  -0.069  -6.109  1.00  0.00     0.202 C 
BRANCH   2   3
ATOM      3  C   UNL     1      -4.810   0.211  -6.500  1.00  0.00     0.261 C 
BRANCH   3   4
ATOM      4  O   UNL     1      -3.874  -0.619  -5.793  1.00  0.00    -0.457 OA
BRANCH   4   5
ATOM      5  C   UNL     1      -3.001   0.051  -4.982  1.00  0.00     0.374 C 
ATOM      6  O   UNL     1      -2.887   1.269  -4.939  1.00  0.00    -0.242 OA
BRANCH   5   7
ATOM      7  C   UNL     1      -2.306  -0.880  -4.128  1.00  0.00     0.214 A 
ATOM      8  C   UNL     1      -1.329  -1.442  -2.241  1.00  0.00     0.194 A 
ATOM      9  C   UNL     1      -1.227  -2.541  -3.060  1.00  0.00     0.070 A 
ATOM     10  O   UNL     1      -1.990  -0.447  -2.869  1.00  0.00    -0.434 OA
ATOM     11  C   UNL     1      -1.893  -2.194  -4.267  1.00  0.00     0.060 A 
BRANCH   8  12
ATOM     12  N   UNL     1      -0.909  -1.146  -0.998  1.00  0.00    -0.354 N 
ATOM     13  H   UNL     1      -1.558  -0.888  -0.304  1.00  0.00     0.163 HD
BRANCH  12  14
ATOM     14  C   UNL     1       0.519  -1.210  -0.687  1.00  0.00     0.079 C 
ATOM     15  C   UNL     1       0.974   0.145  -0.142  1.00  0.00     0.031 C 
BRANCH  14  16
ATOM     16  C   UNL     1       0.841  -2.375   0.259  1.00  0.00     0.027 C 
BRANCH  16  17
ATOM     17  C   UNL     1       0.353  -2.265   1.710  1.00  0.00     0.030 C 
BRANCH  17  18
ATOM     18  C   UNL     1      -1.158  -2.210   1.904  1.00  0.00     0.156 C 
BRANCH  18  19
ATOM     19  O   UNL     1      -1.810  -3.184   1.100  1.00  0.00    -0.396 OA
ATOM     20  H   UNL     1      -1.619  -3.011   0.165  1.00  0.00     0.210 HD
ENDBRANCH  18  19
ENDBRANCH  17  18
ENDBRANCH  16  17
ENDBRANCH  14  16
ENDBRANCH  12  14
ENDBRANCH   8  12
ENDBRANCH   5   7
ENDBRANCH   4   5
ENDBRANCH   3   4
ENDBRANCH   2   3
ENDBRANCH   1   2
BRANCH   1  21
ATOM     21  C   UNL     1      -6.053  -0.559  -3.704  1.00  0.00     0.188 C 
BRANCH  21  22
ATOM     22  C   UNL     1      -5.840  -2.076  -3.870  1.00  0.00     0.188 C 
BRANCH  22  23
ATOM     23  O   UNL     1      -6.613  -2.672  -4.903  1.00  0.00    -0.376 OA
BRANCH  23  24
ATOM     24  C   UNL     1      -7.634  -3.563  -4.475  1.00  0.00     0.202 C 
BRANCH  24  25
ATOM     25  C   UNL     1      -8.883  -2.846  -3.954  1.00  0.00     0.261 C 
BRANCH  25  26
ATOM     26  O   UNL     1      -8.673  -2.082  -2.756  1.00  0.00    -0.460 OA
BRANCH  26  27
ATOM     27  C   UNL     1      -8.334  -2.779  -1.648  1.00  0.00     0.338 C 
ATOM     28  O   UNL     1      -8.202  -3.986  -1.552  1.00  0.00    -0.246 OA
BRANCH  27  29
ATOM     29  C   UNL     1      -7.985  -1.810  -0.592  1.00  0.00     0.060 A 
ATOM     30  C   UNL     1      -6.734  -1.908   0.027  1.00  0.00     0.016 A 
ATOM     31  C   UNL     1      -8.892  -0.816  -0.212  1.00  0.00     0.016 A 
ATOM     32  C   UNL     1      -6.399  -1.024   1.054  1.00  0.00     0.010 A 
ATOM     33  C   UNL     1      -8.559   0.060   0.823  1.00  0.00     0.010 A 
ATOM     34  C   UNL     1      -7.322  -0.057   1.480  1.00  0.00    -0.014 A 
BRANCH  34  35
ATOM     35  C   UNL     1      -7.055   0.727   2.709  1.00  0.00     0.031 A 
ATOM     36  C   UNL     1      -7.607   0.233   4.017  1.00  0.00     0.074 A 
ATOM     37  C   UNL     1      -6.338   1.864   2.666  1.00  0.00     0.049 A 
ATOM     38  N   UNL     1      -7.479   0.740   5.216  1.00  0.00    -0.248 NA
ATOM     39  C   UNL     1      -8.418  -0.994   3.963  1.00  0.00     0.031 C 
ATOM     40  C   UNL     1      -5.765   2.458   1.460  1.00  0.00     0.029 A 
ATOM     41  N   UNL     1      -5.985   2.729   3.671  1.00  0.00    -0.354 N 
ATOM     42  C   UNL     1      -8.191  -0.104   6.060  1.00  0.00     0.074 A 
ATOM     43  C   UNL     1      -8.775  -1.137   5.230  1.00  0.00     0.031 C 
ATOM     44  C   UNL     1      -5.146   3.605   1.794  1.00  0.00     0.029 A 
ATOM     45  C   UNL     1      -5.286   3.827   3.233  1.00  0.00     0.049 A 
ATOM     46  H   UNL     1      -6.211   2.577   4.617  1.00  0.00     0.167 HD
ATOM     47  C   UNL     1      -8.338  -0.033   7.404  1.00  0.00     0.037 A 
ATOM     48  C   UNL     1      -4.821   4.893   3.914  1.00  0.00     0.037 A 
ATOM     49  C   UNL     1      -7.768   0.998   8.229  1.00  0.00     0.049 A 
ATOM     50  C   UNL     1      -5.003   4.961   5.407  1.00  0.00     0.074 A 
ATOM     51  C   UNL     1      -7.820   1.129   9.606  1.00  0.00     0.029 A 
ATOM     52  N   UNL     1      -7.054   2.088   7.751  1.00  0.00    -0.354 N 
ATOM     53  N   UNL     1      -5.611   4.114   6.204  1.00  0.00    -0.248 NA
ATOM     54  C   UNL     1      -4.422   6.122   6.096  1.00  0.00     0.031 C 
ATOM     55  C   UNL     1      -7.172   2.320   9.957  1.00  0.00     0.029 A 
ATOM     56  C   UNL     1      -6.681   2.909   8.803  1.00  0.00     0.049 A 
ATOM     57  H   UNL     1      -6.844   2.253   6.804  1.00  0.00     0.167 HD
ATOM     58  C   UNL     1      -5.471   4.630   7.489  1.00  0.00     0.074 A 
ATOM     59  C   UNL     1      -4.708   5.856   7.364  1.00  0.00     0.031 C 
ATOM     60  C   UNL     1      -5.929   4.132   8.665  1.00  0.00     0.037 A 
BRANCH  47  61
ATOM     61  C   UNL     1      -9.176  -1.097   8.055  1.00  0.00     0.058 A 
ATOM     62  C   UNL     1      -8.714  -2.416   8.192  1.00  0.00     0.135 A 
ATOM     63  C   UNL     1     -10.460  -0.797   8.535  1.00  0.00     0.135 A 
ATOM     64  F   UNL     1      -7.500  -2.759   7.733  1.00  0.00    -0.206 F 
ATOM     65  C   UNL     1      -9.513  -3.410   8.747  1.00  0.00     0.059 A 
ATOM     66  C   UNL     1     -11.267  -1.771   9.115  1.00  0.00     0.059 A 
ATOM     67  F   UNL     1     -10.949   0.448   8.426  1.00  0.00    -0.206 F 
ATOM     68  C   UNL     1     -10.792  -3.079   9.197  1.00  0.00     0.060 A 
BRANCH  68  69
ATOM     69  S   UNL     1     -11.832  -4.383   9.889  1.00  0.00     0.124 S 
ATOM     70  O   UNL     1     -12.275  -5.072   8.682  1.00  0.00    -0.237 OA
ATOM     71  O   UNL     1     -10.896  -5.120  10.732  1.00  0.00    -0.237 OA
ATOM     72  O   UNL     1     -12.867  -3.644  10.607  1.00  0.00    -0.744 OA
ENDBRANCH  68  69
ENDBRANCH  47  61
BRANCH  48  73
ATOM     73  C   UNL     1      -4.127   5.984   3.182  1.00  0.00     0.058 A 
ATOM     74  C   UNL     1      -2.737   6.145   3.265  1.00  0.00     0.135 A 
ATOM     75  C   UNL     1      -4.842   6.871   2.363  1.00  0.00     0.135 A 
ATOM     76  F   UNL     1      -2.012   5.327   4.045  1.00  0.00    -0.206 F 
ATOM     77  C   UNL     1      -2.078   7.150   2.565  1.00  0.00     0.059 A 
ATOM     78  C   UNL     1      -4.204   7.872   1.637  1.00  0.00     0.059 A 
ATOM     79  F   UNL     1      -6.174   6.752   2.246  1.00  0.00    -0.206 F 
ATOM     80  C   UNL     1      -2.820   8.006   1.748  1.00  0.00     0.060 A 
BRANCH  80  81
ATOM     81  S   UNL     1      -1.947   9.259   0.784  1.00  0.00     0.124 S 
ATOM     82  O   UNL     1      -1.642  10.255   1.804  1.00  0.00    -0.237 OA
ATOM     83  O   UNL     1      -0.808   8.509   0.263  1.00  0.00    -0.237 OA
ATOM     84  O   UNL     1      -2.934   9.659  -0.215  1.00  0.00    -0.744 OA
ENDBRANCH  80  81
ENDBRANCH  48  73
BRANCH  60  85
ATOM     85  C   UNL     1      -5.604   4.904   9.914  1.00  0.00     0.058 A 
ATOM     86  C   UNL     1      -6.248   6.112  10.223  1.00  0.00     0.135 A 
ATOM     87  C   UNL     1      -4.656   4.414  10.828  1.00  0.00     0.135 A 
ATOM     88  F   UNL     1      -7.159   6.626   9.382  1.00  0.00    -0.206 F 
ATOM     89  C   UNL     1      -5.941   6.825  11.379  1.00  0.00     0.059 A 
ATOM     90  C   UNL     1      -4.351   5.098  12.001  1.00  0.00     0.059 A 
ATOM     91  F   UNL     1      -4.020   3.257  10.588  1.00  0.00    -0.206 F 
ATOM     92  C   UNL     1      -4.987   6.312  12.259  1.00  0.00     0.060 A 
BRANCH  92  93
ATOM     93  S   UNL     1      -4.599   7.238  13.761  1.00  0.00     0.124 S 
ATOM     94  O   UNL     1      -3.718   8.279  13.243  1.00  0.00    -0.237 OA
ATOM     95  O   UNL     1      -5.915   7.685  14.207  1.00  0.00    -0.237 OA
ATOM     96  O   UNL     1      -3.960   6.242  14.616  1.00  0.00    -0.744 OA
ENDBRANCH  92  93
ENDBRANCH  60  85
ENDBRANCH  34  35
ENDBRANCH  27  29
ENDBRANCH  26  27
ENDBRANCH  25  26
ENDBRANCH  24  25
ENDBRANCH  23  24
ENDBRANCH  22  23
ENDBRANCH  21  22
ENDBRANCH   1  21
TORSDOF 26
