REMARK SMILES Cc1oc2ccc(OCc3ccc(Br)cc3)cc2c1C(=O)OCCOCCOCCOC(=O)c1ccc(-c2c3nc(c(-c4c(F)cc(S(=O)(=O)[O-])cc4F)c4ccc([nH]4)c(-c4c(F)cc(S(=O)(=O)[O-])cc4F)c4nc(c(-c5c(F)cc(S(=O)(=O)[O-])cc5F)c5ccc2[nH]5)C=C4)C=C3)cc1
REMARK SMILES IDX 26 1 25 2 24 3 23 4 22 5 20 6 21 7 19 8 1 9 2 10 3 11 4 12
REMARK SMILES IDX 18 13 5 14 17 15 6 16 7 17 8 18 9 19 10 20 11 21 16 22 12 23
REMARK SMILES IDX 15 24 13 25 14 26 27 27 28 28 29 29 30 30 31 31 32 32 33 33
REMARK SMILES IDX 34 34 35 35 99 36 36 37 98 38 37 39 38 40 39 41 92 42 40 43
REMARK SMILES IDX 97 44 91 45 93 46 41 47 96 48 90 49 89 50 42 52 76 53 55 54
REMARK SMILES IDX 75 55 56 56 59 57 74 58 94 59 57 60 58 61 73 63 95 64 60 65
REMARK SMILES IDX 43 66 44 67 53 68 45 69 46 70 52 71 54 72 47 73 48 74 49 75
REMARK SMILES IDX 50 76 51 77 77 78 78 79 87 80 79 81 80 82 86 83 88 84 81 85
REMARK SMILES IDX 82 86 83 87 84 88 85 89 61 90 62 91 71 92 63 93 64 94 70 95
REMARK SMILES IDX 72 96 65 97 66 98 67 99 68 100 69 101
REMARK H PARENT 93 51 59 62
REMARK Flexibility Score: inf
ROOT
ATOM      1  C   UNL     1       1.058  -4.138   1.442  1.00  0.00     0.188 C 
ENDROOT
BRANCH   1   2
ATOM      2  O   UNL     1       1.594  -5.321   0.855  1.00  0.00    -0.376 OA
BRANCH   2   3
ATOM      3  C   UNL     1       2.852  -5.291   0.199  1.00  0.00     0.202 C 
BRANCH   3   4
ATOM      4  C   UNL     1       2.965  -4.445  -1.069  1.00  0.00     0.261 C 
BRANCH   4   5
ATOM      5  O   UNL     1       2.730  -3.047  -0.839  1.00  0.00    -0.460 OA
BRANCH   5   6
ATOM      6  C   UNL     1       1.561  -2.560  -1.346  1.00  0.00     0.342 C 
ATOM      7  O   UNL     1       0.781  -3.213  -2.028  1.00  0.00    -0.246 OA
BRANCH   6   8
ATOM      8  C   UNL     1       1.273  -1.198  -0.939  1.00  0.00     0.109 A 
ATOM      9  C   UNL     1       3.634  -0.046  -0.550  1.00  0.00     0.088 C 
ATOM     10  C   UNL     1       2.166  -0.170  -0.669  1.00  0.00     0.116 A 
ATOM     11  O   UNL     1       1.489   1.003  -0.500  1.00  0.00    -0.460 OA
ATOM     12  C   UNL     1       0.165   0.714  -0.541  1.00  0.00     0.135 A 
ATOM     13  C   UNL     1      -0.030  -0.648  -0.701  1.00  0.00     0.039 A 
ATOM     14  C   UNL     1      -0.864   1.636  -0.429  1.00  0.00     0.051 A 
ATOM     15  C   UNL     1      -1.349  -1.147  -0.591  1.00  0.00     0.059 A 
ATOM     16  C   UNL     1      -2.163   1.116  -0.374  1.00  0.00     0.050 A 
ATOM     17  C   UNL     1      -2.413  -0.255  -0.365  1.00  0.00     0.120 A 
BRANCH  17  18
ATOM     18  O   UNL     1      -3.621  -0.844  -0.101  1.00  0.00    -0.489 OA
BRANCH  18  19
ATOM     19  C   UNL     1      -4.817  -0.050  -0.026  1.00  0.00     0.265 C 
BRANCH  19  20
ATOM     20  C   UNL     1      -5.024   0.664   1.299  1.00  0.00    -0.011 A 
ATOM     21  C   UNL     1      -4.891   2.057   1.403  1.00  0.00     0.008 A 
ATOM     22  C   UNL     1      -5.381  -0.050   2.450  1.00  0.00     0.008 A 
ATOM     23  C   UNL     1      -5.007   2.704   2.635  1.00  0.00     0.016 A 
ATOM     24  C   UNL     1      -5.531   0.596   3.683  1.00  0.00     0.016 A 
ATOM     25  C   UNL     1      -5.318   1.968   3.773  1.00  0.00     0.017 A 
ATOM     26  Br  UNL     1      -5.464   2.847   5.440  1.00  0.00    -0.051 Br
ENDBRANCH  19  20
ENDBRANCH  18  19
ENDBRANCH  17  18
ENDBRANCH   6   8
ENDBRANCH   5   6
ENDBRANCH   4   5
ENDBRANCH   3   4
ENDBRANCH   2   3
ENDBRANCH   1   2
BRANCH   1  27
ATOM     27  C   UNL     1       1.996  -3.149   2.160  1.00  0.00     0.188 C 
BRANCH  27  28
ATOM     28  O   UNL     1       3.232  -3.724   2.559  1.00  0.00    -0.376 OA
BRANCH  28  29
ATOM     29  C   UNL     1       3.433  -3.878   3.955  1.00  0.00     0.202 C 
BRANCH  29  30
ATOM     30  C   UNL     1       2.603  -4.986   4.613  1.00  0.00     0.261 C 
BRANCH  30  31
ATOM     31  O   UNL     1       1.180  -4.863   4.469  1.00  0.00    -0.460 OA
BRANCH  31  32
ATOM     32  C   UNL     1       0.577  -3.835   5.108  1.00  0.00     0.338 C 
ATOM     33  O   UNL     1       1.115  -2.982   5.788  1.00  0.00    -0.246 OA
BRANCH  32  34
ATOM     34  C   UNL     1      -0.845  -3.830   4.701  1.00  0.00     0.060 A 
ATOM     35  C   UNL     1      -1.391  -2.668   4.146  1.00  0.00     0.016 A 
ATOM     36  C   UNL     1      -1.632  -4.976   4.854  1.00  0.00     0.016 A 
ATOM     37  C   UNL     1      -2.737  -2.644   3.768  1.00  0.00     0.010 A 
ATOM     38  C   UNL     1      -2.981  -4.944   4.491  1.00  0.00     0.010 A 
ATOM     39  C   UNL     1      -3.549  -3.770   3.972  1.00  0.00    -0.014 A 
BRANCH  39  40
ATOM     40  C   UNL     1      -5.021  -3.679   3.805  1.00  0.00     0.031 A 
ATOM     41  C   UNL     1      -5.864  -3.364   5.012  1.00  0.00     0.074 A 
ATOM     42  C   UNL     1      -5.607  -3.861   2.608  1.00  0.00     0.049 A 
ATOM     43  N   UNL     1      -7.163  -3.248   5.110  1.00  0.00    -0.248 NA
ATOM     44  C   UNL     1      -5.142  -3.143   6.275  1.00  0.00     0.031 C 
ATOM     45  C   UNL     1      -4.906  -4.117   1.352  1.00  0.00     0.029 A 
ATOM     46  N   UNL     1      -6.934  -3.838   2.254  1.00  0.00    -0.354 N 
ATOM     47  C   UNL     1      -7.417  -2.957   6.445  1.00  0.00     0.074 A 
ATOM     48  C   UNL     1      -6.137  -2.922   7.121  1.00  0.00     0.031 C 
ATOM     49  C   UNL     1      -5.812  -4.238   0.364  1.00  0.00     0.029 A 
ATOM     50  C   UNL     1      -7.156  -4.094   0.922  1.00  0.00     0.049 A 
ATOM     51  H   UNL     1      -7.659  -3.656   2.895  1.00  0.00     0.167 HD
ATOM     52  C   UNL     1      -8.605  -2.740   7.057  1.00  0.00     0.037 A 
ATOM     53  C   UNL     1      -8.311  -4.212   0.236  1.00  0.00     0.037 A 
ATOM     54  C   UNL     1      -9.881  -2.785   6.394  1.00  0.00     0.049 A 
ATOM     55  C   UNL     1      -9.627  -4.028   0.950  1.00  0.00     0.074 A 
ATOM     56  C   UNL     1     -11.138  -2.558   6.928  1.00  0.00     0.029 A 
ATOM     57  N   UNL     1     -10.066  -3.090   5.054  1.00  0.00    -0.354 N 
ATOM     58  N   UNL     1      -9.848  -3.722   2.206  1.00  0.00    -0.248 NA
ATOM     59  C   UNL     1     -10.849  -4.206   0.152  1.00  0.00     0.031 C 
ATOM     60  C   UNL     1     -12.086  -2.767   5.920  1.00  0.00     0.029 A 
ATOM     61  C   UNL     1     -11.416  -3.082   4.748  1.00  0.00     0.049 A 
ATOM     62  H   UNL     1      -9.343  -3.284   4.415  1.00  0.00     0.167 HD
ATOM     63  C   UNL     1     -11.232  -3.647   2.342  1.00  0.00     0.074 A 
ATOM     64  C   UNL     1     -11.796  -3.934   1.040  1.00  0.00     0.031 C 
ATOM     65  C   UNL     1     -11.967  -3.363   3.446  1.00  0.00     0.037 A 
BRANCH  52  66
ATOM     66  C   UNL     1      -8.577  -2.466   8.534  1.00  0.00     0.058 A 
ATOM     67  C   UNL     1      -8.137  -1.236   9.046  1.00  0.00     0.135 A 
ATOM     68  C   UNL     1      -9.004  -3.444   9.446  1.00  0.00     0.135 A 
ATOM     69  F   UNL     1      -7.700  -0.276   8.216  1.00  0.00    -0.206 F 
ATOM     70  C   UNL     1      -8.094  -0.995  10.416  1.00  0.00     0.059 A 
ATOM     71  C   UNL     1      -8.990  -3.217  10.819  1.00  0.00     0.059 A 
ATOM     72  F   UNL     1      -9.431  -4.639   9.007  1.00  0.00    -0.206 F 
ATOM     73  C   UNL     1      -8.517  -1.994  11.294  1.00  0.00     0.060 A 
BRANCH  73  74
ATOM     74  S   UNL     1      -8.442  -1.676  13.070  1.00  0.00     0.124 S 
ATOM     75  O   UNL     1      -7.013  -1.817  13.330  1.00  0.00    -0.237 OA
ATOM     76  O   UNL     1      -8.973  -0.320  13.170  1.00  0.00    -0.237 OA
ATOM     77  O   UNL     1      -9.290  -2.720  13.637  1.00  0.00    -0.744 OA
ENDBRANCH  73  74
ENDBRANCH  52  66
BRANCH  53  78
ATOM     78  C   UNL     1      -8.283  -4.532  -1.216  1.00  0.00     0.058 A 
ATOM     79  C   UNL     1      -8.630  -3.569  -2.175  1.00  0.00     0.135 A 
ATOM     80  C   UNL     1      -7.916  -5.807  -1.671  1.00  0.00     0.135 A 
ATOM     81  F   UNL     1      -9.000  -2.339  -1.786  1.00  0.00    -0.206 F 
ATOM     82  C   UNL     1      -8.625  -3.862  -3.535  1.00  0.00     0.059 A 
ATOM     83  C   UNL     1      -7.882  -6.118  -3.027  1.00  0.00     0.059 A 
ATOM     84  F   UNL     1      -7.573  -6.762  -0.792  1.00  0.00    -0.206 F 
ATOM     85  C   UNL     1      -8.247  -5.140  -3.951  1.00  0.00     0.060 A 
BRANCH  85  86
ATOM     86  S   UNL     1      -8.194  -5.496  -5.722  1.00  0.00     0.124 S 
ATOM     87  O   UNL     1      -9.611  -5.642  -6.034  1.00  0.00    -0.237 OA
ATOM     88  O   UNL     1      -7.542  -4.304  -6.256  1.00  0.00    -0.237 OA
ATOM     89  O   UNL     1      -7.402  -6.720  -5.793  1.00  0.00    -0.744 OA
ENDBRANCH  85  86
ENDBRANCH  53  78
BRANCH  65  90
ATOM     90  C   UNL     1     -13.463  -3.315   3.296  1.00  0.00     0.058 A 
ATOM     91  C   UNL     1     -14.230  -4.484   3.179  1.00  0.00     0.135 A 
ATOM     92  C   UNL     1     -14.142  -2.086   3.333  1.00  0.00     0.135 A 
ATOM     93  F   UNL     1     -13.630  -5.684   3.134  1.00  0.00    -0.206 F 
ATOM     94  C   UNL     1     -15.618  -4.436   3.085  1.00  0.00     0.059 A 
ATOM     95  C   UNL     1     -15.530  -2.016   3.264  1.00  0.00     0.059 A 
ATOM     96  F   UNL     1     -13.456  -0.939   3.456  1.00  0.00    -0.206 F 
ATOM     97  C   UNL     1     -16.259  -3.197   3.130  1.00  0.00     0.060 A 
BRANCH  97  98
ATOM     98  S   UNL     1     -18.063  -3.146   3.047  1.00  0.00     0.124 S 
ATOM     99  O   UNL     1     -18.298  -3.371   1.625  1.00  0.00    -0.237 OA
ATOM    100  O   UNL     1     -18.450  -4.239   3.934  1.00  0.00    -0.237 OA
ATOM    101  O   UNL     1     -18.387  -1.809   3.534  1.00  0.00    -0.744 OA
ENDBRANCH  97  98
ENDBRANCH  65  90
ENDBRANCH  39  40
ENDBRANCH  32  34
ENDBRANCH  31  32
ENDBRANCH  30  31
ENDBRANCH  29  30
ENDBRANCH  28  29
ENDBRANCH  27  28
ENDBRANCH   1  27
TORSDOF 23
