REMARK SMILES O=C(OCCOCCOCCOC(=O)[C@@H]1[C@@H](C(=O)Nc2nc(-c3ccc(F)cc3)cs2)[C@H]2C=C[C@@H]1O2)c1ccc(-c2c3nc(c(-c4c(F)cc(S(=O)(=O)[O-])cc4F)c4ccc([nH]4)c(-c4c(F)cc(S(=O)(=O)[O-])cc4F)c4nc(c(-c5c(F)cc(S(=O)(=O)[O-])cc5F)c5ccc2[nH]5)C=C4)C=C3)cc1
REMARK SMILES IDX 7 1 6 2 5 3 4 4 3 5 2 6 1 7 37 8 38 9 102 10 39 11 101 12
REMARK SMILES IDX 40 13 41 14 42 15 95 16 43 17 100 18 94 19 96 20 44 21 99 22
REMARK SMILES IDX 93 23 92 24 45 26 79 27 58 28 78 29 59 30 62 31 77 32 97 33
REMARK SMILES IDX 60 34 61 35 76 37 98 38 63 39 46 40 47 41 56 42 48 43 49 44
REMARK SMILES IDX 55 45 57 46 50 47 51 48 52 49 53 50 54 51 80 52 81 53 90 54
REMARK SMILES IDX 82 55 83 56 89 57 91 58 84 59 85 60 86 61 87 62 88 63 64 64
REMARK SMILES IDX 65 65 74 66 66 67 67 68 73 69 75 70 68 71 69 72 70 73 71 74
REMARK SMILES IDX 72 75 8 76 9 77 10 78 11 79 12 80 13 81 14 82 15 83 16 84
REMARK SMILES IDX 35 85 32 86 34 87 36 88 33 89 17 90 18 91 19 92 20 94 21 95
REMARK SMILES IDX 31 96 22 97 30 98 23 99 24 100 29 101 25 102 28 103 26 104
REMARK SMILES IDX 27 105
REMARK H PARENT 96 25 62 36 19 93
REMARK Flexibility Score: inf
ROOT
ATOM      1  C   UNL     1       3.248   1.773   0.987  1.00  0.00     0.188 C 
ENDROOT
BRANCH   1   2
ATOM      2  O   UNL     1       4.530   1.140   1.045  1.00  0.00    -0.376 OA
BRANCH   2   3
ATOM      3  C   UNL     1       5.376   1.514  -0.046  1.00  0.00     0.202 C 
BRANCH   3   4
ATOM      4  C   UNL     1       5.119   0.736  -1.344  1.00  0.00     0.261 C 
BRANCH   4   5
ATOM      5  O   UNL     1       3.761   0.293  -1.473  1.00  0.00    -0.460 OA
BRANCH   5   6
ATOM      6  C   UNL     1       3.239  -0.920  -1.166  1.00  0.00     0.338 C 
ATOM      7  O   UNL     1       2.131  -1.194  -1.626  1.00  0.00    -0.246 OA
BRANCH   6   8
ATOM      8  C   UNL     1       3.894  -1.956  -0.299  1.00  0.00     0.060 A 
ATOM      9  C   UNL     1       5.154  -1.860   0.290  1.00  0.00     0.016 A 
ATOM     10  C   UNL     1       3.163  -3.143  -0.074  1.00  0.00     0.016 A 
ATOM     11  C   UNL     1       5.719  -2.934   0.971  1.00  0.00     0.010 A 
ATOM     12  C   UNL     1       3.702  -4.210   0.654  1.00  0.00     0.010 A 
ATOM     13  C   UNL     1       5.006  -4.120   1.141  1.00  0.00    -0.014 A 
BRANCH  13  14
ATOM     14  C   UNL     1       5.699  -5.261   1.772  1.00  0.00     0.031 A 
ATOM     15  C   UNL     1       6.286  -6.314   0.893  1.00  0.00     0.074 A 
ATOM     16  C   UNL     1       5.933  -5.243   3.096  1.00  0.00     0.049 A 
ATOM     17  N   UNL     1       7.093  -7.283   1.219  1.00  0.00    -0.248 NA
ATOM     18  C   UNL     1       5.985  -6.231  -0.547  1.00  0.00     0.031 C 
ATOM     19  C   UNL     1       5.509  -4.165   3.976  1.00  0.00     0.029 A 
ATOM     20  N   UNL     1       6.588  -6.101   3.935  1.00  0.00    -0.354 N 
ATOM     21  C   UNL     1       7.457  -7.880   0.023  1.00  0.00     0.074 A 
ATOM     22  C   UNL     1       6.728  -7.215  -1.033  1.00  0.00     0.031 C 
ATOM     23  C   UNL     1       5.861  -4.435   5.239  1.00  0.00     0.029 A 
ATOM     24  C   UNL     1       6.562  -5.704   5.254  1.00  0.00     0.049 A 
ATOM     25  H   UNL     1       7.035  -6.922   3.626  1.00  0.00     0.167 HD
ATOM     26  C   UNL     1       8.357  -8.870  -0.162  1.00  0.00     0.037 A 
ATOM     27  C   UNL     1       7.065  -6.291   6.355  1.00  0.00     0.037 A 
ATOM     28  C   UNL     1       9.016  -9.541   0.926  1.00  0.00     0.049 A 
ATOM     29  C   UNL     1       7.903  -7.512   6.137  1.00  0.00     0.074 A 
ATOM     30  C   UNL     1       9.879 -10.618   0.880  1.00  0.00     0.029 A 
ATOM     31  N   UNL     1       8.864  -9.201   2.267  1.00  0.00    -0.354 N 
ATOM     32  N   UNL     1       8.236  -8.073   4.996  1.00  0.00    -0.248 NA
ATOM     33  C   UNL     1       8.458  -8.167   7.323  1.00  0.00     0.031 C 
ATOM     34  C   UNL     1      10.213 -10.958   2.196  1.00  0.00     0.029 A 
ATOM     35  C   UNL     1       9.590 -10.069   3.062  1.00  0.00     0.049 A 
ATOM     36  H   UNL     1       8.318  -8.453   2.601  1.00  0.00     0.167 HD
ATOM     37  C   UNL     1       9.059  -9.136   5.322  1.00  0.00     0.074 A 
ATOM     38  C   UNL     1       9.182  -9.132   6.770  1.00  0.00     0.031 C 
ATOM     39  C   UNL     1       9.661 -10.032   4.503  1.00  0.00     0.037 A 
BRANCH  26  40
ATOM     40  C   UNL     1       8.648  -9.273  -1.575  1.00  0.00     0.058 A 
ATOM     41  C   UNL     1       8.117 -10.454  -2.111  1.00  0.00     0.135 A 
ATOM     42  C   UNL     1       9.452  -8.476  -2.408  1.00  0.00     0.135 A 
ATOM     43  F   UNL     1       7.320 -11.236  -1.367  1.00  0.00    -0.206 F 
ATOM     44  C   UNL     1       8.383 -10.841  -3.421  1.00  0.00     0.059 A 
ATOM     45  C   UNL     1       9.720  -8.836  -3.726  1.00  0.00     0.059 A 
ATOM     46  F   UNL     1       9.951  -7.314  -1.955  1.00  0.00    -0.206 F 
ATOM     47  C   UNL     1       9.189 -10.027  -4.221  1.00  0.00     0.060 A 
BRANCH  47  48
ATOM     48  S   UNL     1       9.498 -10.531  -5.927  1.00  0.00     0.124 S 
ATOM     49  O   UNL     1      10.335 -11.711  -5.744  1.00  0.00    -0.237 OA
ATOM     50  O   UNL     1       8.148 -10.777  -6.422  1.00  0.00    -0.237 OA
ATOM     51  O   UNL     1      10.167  -9.369  -6.508  1.00  0.00    -0.744 OA
ENDBRANCH  47  48
ENDBRANCH  26  40
BRANCH  27  52
ATOM     52  C   UNL     1       6.801  -5.717   7.704  1.00  0.00     0.058 A 
ATOM     53  C   UNL     1       5.501  -5.707   8.238  1.00  0.00     0.135 A 
ATOM     54  C   UNL     1       7.819  -5.136   8.474  1.00  0.00     0.135 A 
ATOM     55  F   UNL     1       4.483  -6.239   7.543  1.00  0.00    -0.206 F 
ATOM     56  C   UNL     1       5.218  -5.139   9.477  1.00  0.00     0.059 A 
ATOM     57  C   UNL     1       7.565  -4.580   9.729  1.00  0.00     0.059 A 
ATOM     58  F   UNL     1       9.078  -5.114   8.013  1.00  0.00    -0.206 F 
ATOM     59  C   UNL     1       6.258  -4.579  10.218  1.00  0.00     0.060 A 
BRANCH  59  60
ATOM     60  S   UNL     1       5.878  -3.879  11.841  1.00  0.00     0.124 S 
ATOM     61  O   UNL     1       5.121  -2.685  11.479  1.00  0.00    -0.237 OA
ATOM     62  O   UNL     1       5.111  -4.952  12.466  1.00  0.00    -0.237 OA
ATOM     63  O   UNL     1       7.195  -3.635  12.421  1.00  0.00    -0.744 OA
ENDBRANCH  59  60
ENDBRANCH  27  52
BRANCH  39  64
ATOM     64  C   UNL     1      10.488 -11.083   5.172  1.00  0.00     0.058 A 
ATOM     65  C   UNL     1      11.888 -11.030   5.116  1.00  0.00     0.135 A 
ATOM     66  C   UNL     1       9.885 -12.166   5.828  1.00  0.00     0.135 A 
ATOM     67  F   UNL     1      12.504 -10.010   4.498  1.00  0.00    -0.206 F 
ATOM     68  C   UNL     1      12.667 -12.029   5.681  1.00  0.00     0.059 A 
ATOM     69  C   UNL     1      10.646 -13.165   6.420  1.00  0.00     0.059 A 
ATOM     70  F   UNL     1       8.547 -12.243   5.917  1.00  0.00    -0.206 F 
ATOM     71  C   UNL     1      12.037 -13.094   6.327  1.00  0.00     0.060 A 
BRANCH  71  72
ATOM     72  S   UNL     1      13.061 -14.375   7.075  1.00  0.00     0.124 S 
ATOM     73  O   UNL     1      13.497 -15.127   5.903  1.00  0.00    -0.237 OA
ATOM     74  O   UNL     1      14.094 -13.593   7.749  1.00  0.00    -0.237 OA
ATOM     75  O   UNL     1      12.135 -15.072   7.963  1.00  0.00    -0.744 OA
ENDBRANCH  71  72
ENDBRANCH  39  64
ENDBRANCH  13  14
ENDBRANCH   6   8
ENDBRANCH   5   6
ENDBRANCH   4   5
ENDBRANCH   3   4
ENDBRANCH   2   3
ENDBRANCH   1   2
BRANCH   1  76
ATOM     76  C   UNL     1       2.869   2.478   2.291  1.00  0.00     0.188 C 
BRANCH  76  77
ATOM     77  O   UNL     1       3.713   3.545   2.716  1.00  0.00    -0.376 OA
BRANCH  77  78
ATOM     78  C   UNL     1       5.032   3.205   3.146  1.00  0.00     0.202 C 
BRANCH  78  79
ATOM     79  C   UNL     1       5.166   2.439   4.469  1.00  0.00     0.261 C 
BRANCH  79  80
ATOM     80  O   UNL     1       4.479   1.179   4.457  1.00  0.00    -0.463 OA
BRANCH  80  81
ATOM     81  C   UNL     1       3.429   1.056   5.317  1.00  0.00     0.312 C 
ATOM     82  O   UNL     1       3.053   1.935   6.085  1.00  0.00    -0.252 OA
BRANCH  81  83
ATOM     83  C   UNL     1       2.639  -0.212   5.079  1.00  0.00     0.147 C 
ATOM     84  C   UNL     1       2.080  -0.752   6.417  1.00  0.00     0.129 C 
ATOM     85  C   UNL     1       3.495  -1.373   4.608  1.00  0.00     0.157 C 
ATOM     86  C   UNL     1       2.794  -2.117   6.523  1.00  0.00     0.155 C 
ATOM     87  C   UNL     1       2.624  -2.566   4.309  1.00  0.00     0.004 C 
ATOM     88  O   UNL     1       4.056  -1.787   5.877  1.00  0.00    -0.365 OA
ATOM     89  C   UNL     1       2.248  -3.061   5.495  1.00  0.00     0.004 C 
BRANCH  84  90
ATOM     90  C   UNL     1       0.578  -0.898   6.627  1.00  0.00     0.233 C 
ATOM     91  O   UNL     1       0.138  -1.766   7.391  1.00  0.00    -0.274 OA
ATOM     92  N   UNL     1      -0.261   0.124   6.309  1.00  0.00    -0.302 N 
ATOM     93  H   UNL     1      -0.743   0.538   7.061  1.00  0.00     0.172 HD
BRANCH  92  94
ATOM     94  C   UNL     1      -0.516   0.645   5.073  1.00  0.00     0.189 A 
ATOM     95  N   UNL     1      -0.206   0.215   3.873  1.00  0.00    -0.220 NA
ATOM     96  S   UNL     1      -1.497   2.042   5.146  1.00  0.00    -0.105 S 
ATOM     97  C   UNL     1      -0.728   1.087   2.920  1.00  0.00     0.084 A 
ATOM     98  C   UNL     1      -1.422   2.163   3.442  1.00  0.00     0.097 A 
BRANCH  97  99
ATOM     99  C   UNL     1      -0.594   0.877   1.481  1.00  0.00     0.001 A 
ATOM    100  C   UNL     1      -0.783  -0.397   0.929  1.00  0.00     0.013 A 
ATOM    101  C   UNL     1      -0.324   1.956   0.618  1.00  0.00     0.013 A 
ATOM    102  C   UNL     1      -0.740  -0.578  -0.459  1.00  0.00     0.040 A 
ATOM    103  C   UNL     1      -0.249   1.768  -0.764  1.00  0.00     0.040 A 
ATOM    104  C   UNL     1      -0.476   0.505  -1.292  1.00  0.00     0.123 A 
ATOM    105  F   UNL     1      -0.450   0.336  -2.620  1.00  0.00    -0.207 F 
ENDBRANCH  97  99
ENDBRANCH  92  94
ENDBRANCH  84  90
ENDBRANCH  81  83
ENDBRANCH  80  81
ENDBRANCH  79  80
ENDBRANCH  78  79
ENDBRANCH  77  78
ENDBRANCH  76  77
ENDBRANCH   1  76
TORSDOF 23
