REMARK SMILES CCCn1cc(S(=O)(=O)N[C@H]2C=C[C@@H](C(=O)OCCOCCOCCOC(=O)c3ccc(-c4c5nc(c(-c6c(F)cc(S(=O)(=O)[O-])cc6F)c6ccc([nH]6)c(-c6c(F)cc(S(=O)(=O)[O-])cc6F)c6nc(c(-c7c(F)cc(S(=O)(=O)[O-])cc7F)c7ccc4[nH]7)C=C6)C=C5)cc3)C2)nc1C
REMARK SMILES IDX 21 1 20 2 19 3 18 4 17 5 15 6 16 7 14 8 11 9 12 10 95 11
REMARK SMILES IDX 13 12 10 13 7 15 8 16 9 17 6 18 4 19 5 20 97 21 96 22 98 23
REMARK SMILES IDX 3 24 2 25 1 26 22 27 23 28 24 29 25 30 26 31 27 32 28 33
REMARK SMILES IDX 29 34 30 35 94 36 31 37 93 38 32 39 33 40 34 41 87 42 35 43
REMARK SMILES IDX 92 44 86 45 88 46 36 47 91 48 85 49 84 50 37 52 71 53 50 54
REMARK SMILES IDX 70 55 51 56 54 57 69 58 89 59 52 60 53 61 68 63 90 64 55 65
REMARK SMILES IDX 38 66 39 67 48 68 40 69 41 70 47 71 49 72 42 73 43 74 44 75
REMARK SMILES IDX 45 76 46 77 72 78 73 79 82 80 74 81 75 82 81 83 83 84 76 85
REMARK SMILES IDX 77 86 78 87 79 88 80 89 56 90 57 91 66 92 58 93 59 94 65 95
REMARK SMILES IDX 67 96 60 97 61 98 62 99 63 100 64 101
REMARK H PARENT 10 14 88 51 54 62
REMARK Flexibility Score: inf
ROOT
ATOM      1  C   UNL     1      -2.322   2.261   4.295  1.00  0.00     0.188 C 
ENDROOT
BRANCH   1   2
ATOM      2  O   UNL     1      -1.113   1.972   4.957  1.00  0.00    -0.376 OA
BRANCH   2   3
ATOM      3  C   UNL     1      -0.316   0.901   4.459  1.00  0.00     0.202 C 
BRANCH   3   4
ATOM      4  C   UNL     1      -0.750   0.073   3.237  1.00  0.00     0.261 C 
BRANCH   4   5
ATOM      5  O   UNL     1      -1.283   0.813   2.113  1.00  0.00    -0.463 OA
BRANCH   5   6
ATOM      6  C   UNL     1      -2.189   0.129   1.363  1.00  0.00     0.312 C 
ATOM      7  O   UNL     1      -2.422  -1.067   1.549  1.00  0.00    -0.252 OA
BRANCH   6   8
ATOM      8  C   UNL     1      -2.987   0.932   0.314  1.00  0.00     0.123 C 
ATOM      9  C   UNL     1      -2.811   2.473  -1.628  1.00  0.00     0.093 C 
ATOM     10  C   UNL     1      -2.817   1.034  -2.038  1.00  0.00    -0.011 C 
ATOM     11  C   UNL     1      -2.632   2.367  -0.110  1.00  0.00     0.043 C 
ATOM     12  C   UNL     1      -2.910   0.202  -0.996  1.00  0.00    -0.015 C 
BRANCH   9  13
ATOM     13  N   UNL     1      -1.758   3.115  -2.420  1.00  0.00    -0.203 NA
ATOM     14  H   UNL     1      -1.059   2.395  -2.603  1.00  0.00     0.142 HD
BRANCH  13  15
ATOM     15  S   UNL     1      -0.912   4.469  -1.845  1.00  0.00     0.260 S 
ATOM     16  O   UNL     1      -1.767   5.170  -0.925  1.00  0.00    -0.205 OA
ATOM     17  O   UNL     1      -0.355   5.083  -3.037  1.00  0.00    -0.205 OA
BRANCH  15  18
ATOM     18  C   UNL     1       0.471   3.881  -0.959  1.00  0.00     0.188 A 
ATOM     19  N   UNL     1       1.796   2.489   0.092  1.00  0.00    -0.334 N 
ATOM     20  C   UNL     1       0.692   2.547  -0.701  1.00  0.00     0.129 A 
ATOM     21  C   UNL     1       2.247   3.788   0.262  1.00  0.00     0.107 A 
ATOM     22  N   UNL     1       1.487   4.637  -0.409  1.00  0.00    -0.221 NA
ATOM     23  C   UNL     1       3.309   4.190   1.226  1.00  0.00     0.088 C 
BRANCH  19  24
ATOM     24  C   UNL     1       2.268   1.311   0.799  1.00  0.00     0.123 C 
BRANCH  24  25
ATOM     25  C   UNL     1       1.634  -0.037   0.425  1.00  0.00     0.018 C 
ATOM     26  C   UNL     1       1.910  -0.499  -0.996  1.00  0.00     0.006 C 
ENDBRANCH  24  25
ENDBRANCH  19  24
ENDBRANCH  15  18
ENDBRANCH  13  15
ENDBRANCH   9  13
ENDBRANCH   6   8
ENDBRANCH   5   6
ENDBRANCH   4   5
ENDBRANCH   3   4
ENDBRANCH   2   3
ENDBRANCH   1   2
BRANCH   1  27
ATOM     27  C   UNL     1      -2.252   3.199   3.081  1.00  0.00     0.188 C 
BRANCH  27  28
ATOM     28  O   UNL     1      -1.060   3.521   2.376  1.00  0.00    -0.376 OA
BRANCH  28  29
ATOM     29  C   UNL     1       0.182   3.793   3.003  1.00  0.00     0.202 C 
BRANCH  29  30
ATOM     30  C   UNL     1       0.569   5.203   3.428  1.00  0.00     0.261 C 
BRANCH  30  31
ATOM     31  O   UNL     1      -0.414   5.670   4.308  1.00  0.00    -0.460 OA
BRANCH  31  32
ATOM     32  C   UNL     1      -1.494   6.096   3.614  1.00  0.00     0.338 C 
ATOM     33  O   UNL     1      -1.532   6.531   2.488  1.00  0.00    -0.246 OA
BRANCH  32  34
ATOM     34  C   UNL     1      -2.657   5.923   4.493  1.00  0.00     0.060 A 
ATOM     35  C   UNL     1      -3.744   6.702   4.128  1.00  0.00     0.016 A 
ATOM     36  C   UNL     1      -2.446   5.447   5.786  1.00  0.00     0.016 A 
ATOM     37  C   UNL     1      -4.192   7.534   5.104  1.00  0.00     0.010 A 
ATOM     38  C   UNL     1      -2.906   6.258   6.763  1.00  0.00     0.010 A 
ATOM     39  C   UNL     1      -3.597   7.399   6.356  1.00  0.00    -0.014 A 
BRANCH  39  40
ATOM     40  C   UNL     1      -3.666   8.499   7.272  1.00  0.00     0.031 A 
ATOM     41  C   UNL     1      -4.777   8.279   8.201  1.00  0.00     0.074 A 
ATOM     42  C   UNL     1      -2.720   9.452   7.311  1.00  0.00     0.049 A 
ATOM     43  N   UNL     1      -6.013   8.611   8.009  1.00  0.00    -0.248 NA
ATOM     44  C   UNL     1      -4.588   7.205   9.194  1.00  0.00     0.031 C 
ATOM     45  C   UNL     1      -1.440   9.556   6.602  1.00  0.00     0.029 A 
ATOM     46  N   UNL     1      -2.711  10.541   8.118  1.00  0.00    -0.354 N 
ATOM     47  C   UNL     1      -6.670   7.972   9.046  1.00  0.00     0.074 A 
ATOM     48  C   UNL     1      -5.858   6.837   9.366  1.00  0.00     0.031 C 
ATOM     49  C   UNL     1      -0.686  10.520   7.187  1.00  0.00     0.029 A 
ATOM     50  C   UNL     1      -1.470  11.166   8.223  1.00  0.00     0.049 A 
ATOM     51  H   UNL     1      -3.513  10.863   8.590  1.00  0.00     0.167 HD
ATOM     52  C   UNL     1      -7.521   8.645   9.867  1.00  0.00     0.037 A 
ATOM     53  C   UNL     1      -1.169  12.045   9.216  1.00  0.00     0.037 A 
ATOM     54  C   UNL     1      -7.884   9.917   9.281  1.00  0.00     0.049 A 
ATOM     55  C   UNL     1      -2.490  12.501   9.772  1.00  0.00     0.074 A 
ATOM     56  C   UNL     1      -8.509  10.286   8.105  1.00  0.00     0.029 A 
ATOM     57  N   UNL     1      -7.184  11.028   9.702  1.00  0.00    -0.354 N 
ATOM     58  N   UNL     1      -3.375  13.167   9.069  1.00  0.00    -0.248 NA
ATOM     59  C   UNL     1      -3.041  11.734  10.884  1.00  0.00     0.031 C 
ATOM     60  C   UNL     1      -7.802  11.437   7.647  1.00  0.00     0.029 A 
ATOM     61  C   UNL     1      -6.834  11.769   8.598  1.00  0.00     0.049 A 
ATOM     62  H   UNL     1      -6.970  11.252  10.637  1.00  0.00     0.167 HD
ATOM     63  C   UNL     1      -4.606  12.596   9.390  1.00  0.00     0.074 A 
ATOM     64  C   UNL     1      -4.335  11.742  10.545  1.00  0.00     0.031 C 
ATOM     65  C   UNL     1      -5.662  12.626   8.520  1.00  0.00     0.037 A 
BRANCH  52  66
ATOM     66  C   UNL     1      -7.688   8.324  11.336  1.00  0.00     0.058 A 
ATOM     67  C   UNL     1      -8.751   8.923  12.033  1.00  0.00     0.135 A 
ATOM     68  C   UNL     1      -6.759   7.624  12.150  1.00  0.00     0.135 A 
ATOM     69  F   UNL     1      -9.698   9.607  11.372  1.00  0.00    -0.206 F 
ATOM     70  C   UNL     1      -8.847   8.884  13.425  1.00  0.00     0.059 A 
ATOM     71  C   UNL     1      -6.868   7.522  13.526  1.00  0.00     0.059 A 
ATOM     72  F   UNL     1      -5.637   7.063  11.691  1.00  0.00    -0.206 F 
ATOM     73  C   UNL     1      -7.891   8.190  14.162  1.00  0.00     0.060 A 
BRANCH  73  74
ATOM     74  S   UNL     1      -7.942   8.210  15.956  1.00  0.00     0.124 S 
ATOM     75  O   UNL     1      -7.648   9.610  16.238  1.00  0.00    -0.237 OA
ATOM     76  O   UNL     1      -9.308   7.772  16.220  1.00  0.00    -0.237 OA
ATOM     77  O   UNL     1      -6.901   7.259  16.335  1.00  0.00    -0.744 OA
ENDBRANCH  73  74
ENDBRANCH  52  66
BRANCH  53  78
ATOM     78  C   UNL     1       0.114  12.130   9.970  1.00  0.00     0.058 A 
ATOM     79  C   UNL     1       0.426  13.225  10.797  1.00  0.00     0.135 A 
ATOM     80  C   UNL     1       0.961  11.009  10.092  1.00  0.00     0.135 A 
ATOM     81  F   UNL     1      -0.345  14.323  10.778  1.00  0.00    -0.206 F 
ATOM     82  C   UNL     1       1.499  13.199  11.702  1.00  0.00     0.059 A 
ATOM     83  C   UNL     1       2.037  10.963  10.977  1.00  0.00     0.059 A 
ATOM     84  F   UNL     1       0.715   9.879   9.414  1.00  0.00    -0.206 F 
ATOM     85  C   UNL     1       2.292  12.055  11.795  1.00  0.00     0.060 A 
BRANCH  85  86
ATOM     86  S   UNL     1       3.588  11.950  13.055  1.00  0.00     0.124 S 
ATOM     87  O   UNL     1       4.551  12.938  12.583  1.00  0.00    -0.237 OA
ATOM     88  O   UNL     1       2.864  12.295  14.273  1.00  0.00    -0.237 OA
ATOM     89  O   UNL     1       4.032  10.560  12.971  1.00  0.00    -0.744 OA
ENDBRANCH  85  86
ENDBRANCH  53  78
BRANCH  65  90
ATOM     90  C   UNL     1      -5.530  13.463   7.263  1.00  0.00     0.058 A 
ATOM     91  C   UNL     1      -4.660  13.160   6.197  1.00  0.00     0.135 A 
ATOM     92  C   UNL     1      -6.457  14.491   7.046  1.00  0.00     0.135 A 
ATOM     93  F   UNL     1      -3.811  12.128   6.281  1.00  0.00    -0.206 F 
ATOM     94  C   UNL     1      -4.690  13.860   4.987  1.00  0.00     0.059 A 
ATOM     95  C   UNL     1      -6.526  15.185   5.838  1.00  0.00     0.059 A 
ATOM     96  F   UNL     1      -7.360  14.789   7.994  1.00  0.00    -0.206 F 
ATOM     97  C   UNL     1      -5.634  14.871   4.815  1.00  0.00     0.060 A 
BRANCH  97  98
ATOM     98  S   UNL     1      -5.738  15.723   3.224  1.00  0.00     0.124 S 
ATOM     99  O   UNL     1      -4.514  16.516   3.220  1.00  0.00    -0.237 OA
ATOM    100  O   UNL     1      -5.781  14.616   2.273  1.00  0.00    -0.237 OA
ATOM    101  O   UNL     1      -6.977  16.490   3.329  1.00  0.00    -0.744 OA
ENDBRANCH  97  98
ENDBRANCH  65  90
ENDBRANCH  39  40
ENDBRANCH  32  34
ENDBRANCH  31  32
ENDBRANCH  30  31
ENDBRANCH  29  30
ENDBRANCH  28  29
ENDBRANCH  27  28
ENDBRANCH   1  27
TORSDOF 25
