REMARK SMILES COc1ccc(OC)c([C@H](C(=O)OCCOCCOCCOC(=O)c2ccc(-c3c4nc(c(-c5c(F)cc(S(=O)(=O)[O-])cc5F)c5ccc([nH]5)c(-c5c(F)cc(S(=O)(=O)[O-])cc5F)c5nc(c(-c6c(F)cc(S(=O)(=O)[O-])cc6F)c6ccc3[nH]6)C=C5)C=C4)cc2)[NH+]2CC[NH+](Cc3nccn3C)CC2)c1
REMARK SMILES IDX 17 1 16 2 15 3 14 4 13 5 11 6 12 7 10 8 9 9 3 10 4 11 104 12
REMARK SMILES IDX 5 13 6 14 2 15 1 16 7 17 8 18 91 19 92 20 103 21 93 23
REMARK SMILES IDX 102 24 94 25 95 27 96 28 97 29 100 30 98 31 99 32 101 33
REMARK SMILES IDX 18 34 19 35 20 36 21 37 22 38 23 39 24 40 25 41 26 42 90 43
REMARK SMILES IDX 27 44 89 45 28 46 29 47 30 48 83 49 31 50 88 51 82 52 84 53
REMARK SMILES IDX 32 54 87 55 81 56 80 57 33 59 67 60 46 61 66 62 47 63 50 64
REMARK SMILES IDX 65 65 85 66 48 67 49 68 64 70 86 71 51 72 34 73 35 74 44 75
REMARK SMILES IDX 36 76 37 77 43 78 45 79 38 80 39 81 40 82 41 83 42 84 68 85
REMARK SMILES IDX 69 86 78 87 70 88 71 89 77 90 79 91 72 92 73 93 74 94 75 95
REMARK SMILES IDX 76 96 52 97 53 98 62 99 54 100 55 101 61 102 63 103 56 104
REMARK SMILES IDX 57 105 58 106 59 107 60 108
REMARK H PARENT 91 22 94 26 84 58 50 69
REMARK Flexibility Score: inf
ROOT
ATOM      1  C   UNL     1       1.075  -1.078   2.463  1.00  0.00     0.188 C 
ENDROOT
BRANCH   1   2
ATOM      2  O   UNL     1      -0.231  -1.476   2.797  1.00  0.00    -0.376 OA
BRANCH   2   3
ATOM      3  C   UNL     1      -0.740  -2.718   2.369  1.00  0.00     0.202 C 
BRANCH   3   4
ATOM      4  C   UNL     1       0.094  -3.935   1.952  1.00  0.00     0.261 C 
BRANCH   4   5
ATOM      5  O   UNL     1       1.438  -4.104   2.417  1.00  0.00    -0.459 OA
BRANCH   5   6
ATOM      6  C   UNL     1       2.400  -3.789   1.506  1.00  0.00     0.370 C 
ATOM      7  O   UNL     1       2.174  -3.094   0.513  1.00  0.00    -0.245 OA
BRANCH   6   8
ATOM      8  C   UNL     1       3.760  -4.478   1.676  1.00  0.00     0.330 C 
BRANCH   8   9
ATOM      9  C   UNL     1       4.478  -4.588   3.031  1.00  0.00     0.067 A 
ATOM     10  C   UNL     1       4.392  -4.732   5.495  1.00  0.00     0.119 A 
ATOM     11  C   UNL     1       5.781  -4.738   5.548  1.00  0.00     0.050 A 
ATOM     12  C   UNL     1       3.757  -4.694   4.247  1.00  0.00     0.060 A 
ATOM     13  C   UNL     1       6.524  -4.667   4.375  1.00  0.00     0.051 A 
ATOM     14  C   UNL     1       5.892  -4.579   3.126  1.00  0.00     0.128 A 
BRANCH  10  15
ATOM     15  O   UNL     1       3.792  -4.723   6.723  1.00  0.00    -0.497 OA
ATOM     16  C   UNL     1       2.380  -4.840   6.801  1.00  0.00     0.278 C 
ENDBRANCH  10  15
BRANCH  14  17
ATOM     17  O   UNL     1       6.776  -4.302   2.113  1.00  0.00    -0.496 OA
ATOM     18  C   UNL     1       6.740  -5.144   0.969  1.00  0.00     0.278 C 
ENDBRANCH  14  17
ENDBRANCH   8   9
BRANCH   8  19
ATOM     19  N   UNL     1       3.763  -5.744   0.908  1.00  0.00    -0.310 N 
ATOM     20  C   UNL     1       3.052  -6.869   1.520  1.00  0.00     0.325 C 
ATOM     21  C   UNL     1       3.430  -5.563  -0.515  1.00  0.00     0.325 C 
ATOM     22  H   UNL     1       4.741  -6.032   0.950  1.00  0.00     0.349 HD
ATOM     23  C   UNL     1       1.596  -7.126   1.071  1.00  0.00     0.324 C 
ATOM     24  C   UNL     1       1.951  -5.783  -0.932  1.00  0.00     0.324 C 
ATOM     25  N   UNL     1       1.259  -6.935  -0.345  1.00  0.00    -0.319 N 
ATOM     26  H   UNL     1       0.266  -6.701  -0.373  1.00  0.00     0.348 HD
BRANCH  25  27
ATOM     27  C   UNL     1       1.357  -8.167  -1.144  1.00  0.00     0.339 C 
BRANCH  27  28
ATOM     28  C   UNL     1       2.751  -8.675  -1.350  1.00  0.00     0.164 A 
ATOM     29  N   UNL     1       3.440  -9.367  -0.458  1.00  0.00    -0.236 NA
ATOM     30  N   UNL     1       3.541  -8.389  -2.441  1.00  0.00    -0.333 N 
ATOM     31  C   UNL     1       4.737  -9.348  -0.890  1.00  0.00     0.131 A 
ATOM     32  C   UNL     1       4.826  -8.746  -2.120  1.00  0.00     0.107 A 
ATOM     33  C   UNL     1       3.179  -7.717  -3.666  1.00  0.00     0.151 C 
ENDBRANCH  27  28
ENDBRANCH  25  27
ENDBRANCH   8  19
ENDBRANCH   6   8
ENDBRANCH   5   6
ENDBRANCH   4   5
ENDBRANCH   3   4
ENDBRANCH   2   3
ENDBRANCH   1   2
BRANCH   1  34
ATOM     34  C   UNL     1       2.135  -1.487   3.506  1.00  0.00     0.188 C 
BRANCH  34  35
ATOM     35  O   UNL     1       1.727  -2.017   4.756  1.00  0.00    -0.376 OA
BRANCH  35  36
ATOM     36  C   UNL     1       0.673  -1.371   5.451  1.00  0.00     0.202 C 
BRANCH  36  37
ATOM     37  C   UNL     1       0.685   0.157   5.665  1.00  0.00     0.261 C 
BRANCH  37  38
ATOM     38  O   UNL     1       1.177   0.962   4.582  1.00  0.00    -0.460 OA
BRANCH  38  39
ATOM     39  C   UNL     1       2.462   1.408   4.697  1.00  0.00     0.338 C 
ATOM     40  O   UNL     1       3.198   1.260   5.646  1.00  0.00    -0.246 OA
BRANCH  39  41
ATOM     41  C   UNL     1       2.919   1.891   3.361  1.00  0.00     0.060 A 
ATOM     42  C   UNL     1       4.057   1.302   2.779  1.00  0.00     0.016 A 
ATOM     43  C   UNL     1       2.218   2.878   2.672  1.00  0.00     0.016 A 
ATOM     44  C   UNL     1       4.497   1.700   1.515  1.00  0.00     0.010 A 
ATOM     45  C   UNL     1       2.687   3.312   1.427  1.00  0.00     0.010 A 
ATOM     46  C   UNL     1       3.842   2.744   0.854  1.00  0.00    -0.014 A 
BRANCH  46  47
ATOM     47  C   UNL     1       4.483   3.419  -0.302  1.00  0.00     0.031 A 
ATOM     48  C   UNL     1       5.295   4.654  -0.021  1.00  0.00     0.074 A 
ATOM     49  C   UNL     1       4.333   2.980  -1.565  1.00  0.00     0.049 A 
ATOM     50  N   UNL     1       5.808   5.522  -0.852  1.00  0.00    -0.248 NA
ATOM     51  C   UNL     1       5.551   4.953   1.399  1.00  0.00     0.031 C 
ATOM     52  C   UNL     1       3.632   1.762  -1.964  1.00  0.00     0.029 A 
ATOM     53  N   UNL     1       4.747   3.535  -2.753  1.00  0.00    -0.354 N 
ATOM     54  C   UNL     1       6.427   6.481  -0.057  1.00  0.00     0.074 A 
ATOM     55  C   UNL     1       6.211   6.098   1.320  1.00  0.00     0.031 C 
ATOM     56  C   UNL     1       3.634   1.679  -3.307  1.00  0.00     0.029 A 
ATOM     57  C   UNL     1       4.296   2.860  -3.863  1.00  0.00     0.049 A 
ATOM     58  H   UNL     1       5.312   4.339  -2.804  1.00  0.00     0.167 HD
ATOM     59  C   UNL     1       7.111   7.582  -0.443  1.00  0.00     0.037 A 
ATOM     60  C   UNL     1       4.372   3.183  -5.171  1.00  0.00     0.037 A 
ATOM     61  C   UNL     1       7.319   7.957  -1.816  1.00  0.00     0.049 A 
ATOM     62  C   UNL     1       5.058   4.466  -5.577  1.00  0.00     0.074 A 
ATOM     63  C   UNL     1       8.013   9.045  -2.315  1.00  0.00     0.029 A 
ATOM     64  N   UNL     1       6.821   7.263  -2.909  1.00  0.00    -0.354 N 
ATOM     65  N   UNL     1       5.652   5.361  -4.822  1.00  0.00    -0.248 NA
ATOM     66  C   UNL     1       5.074   4.790  -7.011  1.00  0.00     0.031 C 
ATOM     67  C   UNL     1       7.886   9.041  -3.707  1.00  0.00     0.029 A 
ATOM     68  C   UNL     1       7.162   7.919  -4.080  1.00  0.00     0.049 A 
ATOM     69  H   UNL     1       6.303   6.428  -2.860  1.00  0.00     0.167 HD
ATOM     70  C   UNL     1       6.128   6.340  -5.690  1.00  0.00     0.074 A 
ATOM     71  C   UNL     1       5.769   5.920  -7.029  1.00  0.00     0.031 C 
ATOM     72  C   UNL     1       6.798   7.486  -5.407  1.00  0.00     0.037 A 
BRANCH  59  73
ATOM     73  C   UNL     1       7.650   8.481   0.636  1.00  0.00     0.058 A 
ATOM     74  C   UNL     1       8.724   8.097   1.455  1.00  0.00     0.135 A 
ATOM     75  C   UNL     1       7.098   9.757   0.836  1.00  0.00     0.135 A 
ATOM     76  F   UNL     1       9.275   6.880   1.323  1.00  0.00    -0.206 F 
ATOM     77  C   UNL     1       9.216   8.937   2.449  1.00  0.00     0.059 A 
ATOM     78  C   UNL     1       7.594  10.625   1.804  1.00  0.00     0.059 A 
ATOM     79  F   UNL     1       6.065  10.171   0.086  1.00  0.00    -0.206 F 
ATOM     80  C   UNL     1       8.645  10.200   2.614  1.00  0.00     0.060 A 
BRANCH  80  81
ATOM     81  S   UNL     1       9.305  11.282   3.900  1.00  0.00     0.124 S 
ATOM     82  O   UNL     1       8.838  10.614   5.111  1.00  0.00    -0.237 OA
ATOM     83  O   UNL     1      10.742  11.216   3.654  1.00  0.00    -0.237 OA
ATOM     84  O   UNL     1       8.681  12.570   3.615  1.00  0.00    -0.744 OA
ENDBRANCH  80  81
ENDBRANCH  59  73
BRANCH  60  85
ATOM     85  C   UNL     1       3.751   2.300  -6.199  1.00  0.00     0.058 A 
ATOM     86  C   UNL     1       4.538   1.601  -7.126  1.00  0.00     0.135 A 
ATOM     87  C   UNL     1       2.357   2.147  -6.283  1.00  0.00     0.135 A 
ATOM     88  F   UNL     1       5.873   1.730  -7.104  1.00  0.00    -0.206 F 
ATOM     89  C   UNL     1       3.969   0.787  -8.101  1.00  0.00     0.059 A 
ATOM     90  C   UNL     1       1.766   1.316  -7.231  1.00  0.00     0.059 A 
ATOM     91  F   UNL     1       1.556   2.793  -5.423  1.00  0.00    -0.206 F 
ATOM     92  C   UNL     1       2.581   0.644  -8.140  1.00  0.00     0.060 A 
BRANCH  92  93
ATOM     93  S   UNL     1       1.860  -0.470  -9.366  1.00  0.00     0.124 S 
ATOM     94  O   UNL     1       2.081   0.268 -10.603  1.00  0.00    -0.237 OA
ATOM     95  O   UNL     1       2.663  -1.677  -9.189  1.00  0.00    -0.237 OA
ATOM     96  O   UNL     1       0.469  -0.587  -8.938  1.00  0.00    -0.744 OA
ENDBRANCH  92  93
ENDBRANCH  60  85
BRANCH  72  97
ATOM     97  C   UNL     1       7.208   8.363  -6.561  1.00  0.00     0.058 A 
ATOM     98  C   UNL     1       6.271   9.121  -7.279  1.00  0.00     0.135 A 
ATOM     99  C   UNL     1       8.564   8.504  -6.902  1.00  0.00     0.135 A 
ATOM    100  F   UNL     1       4.962   9.019  -6.998  1.00  0.00    -0.206 F 
ATOM    101  C   UNL     1       6.660   9.976  -8.305  1.00  0.00     0.059 A 
ATOM    102  C   UNL     1       8.978   9.377  -7.904  1.00  0.00     0.059 A 
ATOM    103  F   UNL     1       9.504   7.811  -6.241  1.00  0.00    -0.206 F 
ATOM    104  C   UNL     1       8.018  10.103  -8.606  1.00  0.00     0.060 A 
BRANCH 104 105
ATOM    105  S   UNL     1       8.510  11.253  -9.907  1.00  0.00     0.124 S 
ATOM    106  O   UNL     1       8.046  10.560 -11.105  1.00  0.00    -0.237 OA
ATOM    107  O   UNL     1       7.774  12.462  -9.549  1.00  0.00    -0.237 OA
ATOM    108  O   UNL     1       9.959  11.340  -9.755  1.00  0.00    -0.744 OA
ENDBRANCH 104 105
ENDBRANCH  72  97
ENDBRANCH  46  47
ENDBRANCH  39  41
ENDBRANCH  38  39
ENDBRANCH  37  38
ENDBRANCH  36  37
ENDBRANCH  35  36
ENDBRANCH  34  35
ENDBRANCH   1  34
TORSDOF 26
