REMARK SMILES CCCN1C(=O)CO[C@H](C(=O)OCCOCCOCCOC(=O)c2ccc(-c3c4nc(c(-c5c(F)cc(S(=O)(=O)[O-])cc5F)c5ccc([nH]5)c(-c5c(F)cc(S(=O)(=O)[O-])cc5F)c5nc(c(-c6c(F)cc(S(=O)(=O)[O-])cc6F)c6ccc3[nH]6)C=C5)C=C4)cc2)[C@@H]1c1cncn1C1CC1
REMARK SMILES IDX 17 1 16 2 15 3 14 4 13 5 12 6 10 7 11 8 9 9 4 10 5 11 90 12
REMARK SMILES IDX 6 13 7 14 8 15 3 16 2 17 1 18 91 19 92 20 95 21 93 22 94 23
REMARK SMILES IDX 96 24 97 25 98 26 18 27 19 28 20 29 21 30 22 31 23 32 24 33
REMARK SMILES IDX 25 34 89 35 26 36 88 37 27 38 28 39 29 40 82 41 30 42 87 43
REMARK SMILES IDX 81 44 83 45 31 46 86 47 80 48 79 49 32 51 66 52 45 53 65 54
REMARK SMILES IDX 46 55 49 56 64 57 84 58 47 59 48 60 63 62 85 63 50 64 33 65
REMARK SMILES IDX 34 66 43 67 35 68 36 69 42 70 44 71 37 72 38 73 39 74 40 75
REMARK SMILES IDX 41 76 67 77 68 78 77 79 69 80 70 81 76 82 78 83 71 84 72 85
REMARK SMILES IDX 73 86 74 87 75 88 51 89 52 90 61 91 53 92 54 93 60 94 62 95
REMARK SMILES IDX 55 96 56 97 57 98 58 99 59 100
REMARK H PARENT 83 50 49 61
REMARK Flexibility Score: inf
ROOT
ATOM      1  C   UNL     1       0.284  -7.378  -1.887  1.00  0.00     0.188 C 
ENDROOT
BRANCH   1   2
ATOM      2  C   UNL     1      -0.381  -7.696  -3.238  1.00  0.00     0.188 C 
BRANCH   2   3
ATOM      3  O   UNL     1       0.317  -8.496  -4.182  1.00  0.00    -0.376 OA
BRANCH   3   4
ATOM      4  C   UNL     1       1.661  -8.167  -4.519  1.00  0.00     0.202 C 
BRANCH   4   5
ATOM      5  C   UNL     1       2.055  -6.710  -4.812  1.00  0.00     0.261 C 
BRANCH   5   6
ATOM      6  O   UNL     1       1.652  -5.765  -3.806  1.00  0.00    -0.461 OA
BRANCH   6   7
ATOM      7  C   UNL     1       0.855  -4.748  -4.218  1.00  0.00     0.337 C 
ATOM      8  O   UNL     1       0.508  -4.553  -5.379  1.00  0.00    -0.249 OA
BRANCH   7   9
ATOM      9  C   UNL     1       0.398  -3.830  -3.074  1.00  0.00     0.257 C 
ATOM     10  N   UNL     1       0.427  -1.465  -2.253  1.00  0.00    -0.329 N 
ATOM     11  C   UNL     1      -0.493  -1.958  -1.313  1.00  0.00     0.249 C 
ATOM     12  C   UNL     1       1.033  -2.428  -3.202  1.00  0.00     0.174 C 
ATOM     13  O   UNL     1      -1.392  -1.297  -0.799  1.00  0.00    -0.272 OA
ATOM     14  C   UNL     1      -0.336  -3.439  -0.922  1.00  0.00     0.261 C 
ATOM     15  O   UNL     1       0.552  -4.212  -1.715  1.00  0.00    -0.354 OA
BRANCH  10  16
ATOM     16  C   UNL     1       0.427  -0.050  -2.657  1.00  0.00     0.120 C 
BRANCH  16  17
ATOM     17  C   UNL     1      -0.180   1.021  -1.730  1.00  0.00     0.018 C 
ATOM     18  C   UNL     1       0.356   1.107  -0.307  1.00  0.00     0.006 C 
ENDBRANCH  16  17
ENDBRANCH  10  16
BRANCH  12  19
ATOM     19  C   UNL     1       2.549  -2.507  -3.295  1.00  0.00     0.064 A 
ATOM     20  C   UNL     1       3.189  -2.827  -4.501  1.00  0.00     0.136 A 
ATOM     21  N   UNL     1       3.606  -2.522  -2.395  1.00  0.00    -0.330 N 
ATOM     22  N   UNL     1       4.497  -3.162  -4.343  1.00  0.00    -0.245 NA
ATOM     23  C   UNL     1       4.707  -3.008  -3.063  1.00  0.00     0.199 A 
BRANCH  21  24
ATOM     24  C   UNL     1       3.831  -2.049  -1.044  1.00  0.00     0.088 C 
ATOM     25  C   UNL     1       2.985  -1.043  -0.329  1.00  0.00     0.027 C 
ATOM     26  C   UNL     1       3.039  -2.442   0.175  1.00  0.00     0.027 C 
ENDBRANCH  21  24
ENDBRANCH  12  19
ENDBRANCH   7   9
ENDBRANCH   6   7
ENDBRANCH   5   6
ENDBRANCH   4   5
ENDBRANCH   3   4
ENDBRANCH   2   3
ENDBRANCH   1   2
BRANCH   1  27
ATOM     27  O   UNL     1       1.625  -7.777  -1.768  1.00  0.00    -0.376 OA
BRANCH  27  28
ATOM     28  C   UNL     1       1.924  -8.970  -1.070  1.00  0.00     0.202 C 
BRANCH  28  29
ATOM     29  C   UNL     1       0.950 -10.160  -0.920  1.00  0.00     0.261 C 
BRANCH  29  30
ATOM     30  O   UNL     1      -0.442  -9.954  -1.192  1.00  0.00    -0.460 OA
BRANCH  30  31
ATOM     31  C   UNL     1      -1.225  -9.584  -0.144  1.00  0.00     0.338 C 
ATOM     32  O   UNL     1      -0.869  -9.397   1.001  1.00  0.00    -0.246 OA
BRANCH  31  33
ATOM     33  C   UNL     1      -2.557  -9.209  -0.682  1.00  0.00     0.060 A 
ATOM     34  C   UNL     1      -2.991  -7.879  -0.559  1.00  0.00     0.016 A 
ATOM     35  C   UNL     1      -3.364 -10.156  -1.312  1.00  0.00     0.016 A 
ATOM     36  C   UNL     1      -4.244  -7.500  -1.046  1.00  0.00     0.010 A 
ATOM     37  C   UNL     1      -4.630  -9.781  -1.773  1.00  0.00     0.010 A 
ATOM     38  C   UNL     1      -5.089  -8.460  -1.616  1.00  0.00    -0.014 A 
BRANCH  38  39
ATOM     39  C   UNL     1      -6.520  -8.145  -1.860  1.00  0.00     0.031 A 
ATOM     40  C   UNL     1      -7.528  -8.577  -0.830  1.00  0.00     0.074 A 
ATOM     41  C   UNL     1      -6.927  -7.505  -2.971  1.00  0.00     0.049 A 
ATOM     42  N   UNL     1      -8.833  -8.503  -0.857  1.00  0.00    -0.248 NA
ATOM     43  C   UNL     1      -6.983  -9.184   0.395  1.00  0.00     0.031 C 
ATOM     44  C   UNL     1      -6.051  -7.003  -4.026  1.00  0.00     0.029 A 
ATOM     45  N   UNL     1      -8.193  -7.189  -3.402  1.00  0.00    -0.354 N 
ATOM     46  C   UNL     1      -9.267  -9.067   0.338  1.00  0.00     0.074 A 
ATOM     47  C   UNL     1      -8.087  -9.507   1.050  1.00  0.00     0.031 C 
ATOM     48  C   UNL     1      -6.808  -6.464  -4.998  1.00  0.00     0.029 A 
ATOM     49  C   UNL     1      -8.222  -6.616  -4.651  1.00  0.00     0.049 A 
ATOM     50  H   UNL     1      -9.002  -7.358  -2.867  1.00  0.00     0.167 HD
ATOM     51  C   UNL     1     -10.532  -9.202   0.802  1.00  0.00     0.037 A 
ATOM     52  C   UNL     1      -9.267  -6.284  -5.436  1.00  0.00     0.037 A 
ATOM     53  C   UNL     1     -11.704  -8.777   0.080  1.00  0.00     0.049 A 
ATOM     54  C   UNL     1     -10.673  -6.503  -4.936  1.00  0.00     0.074 A 
ATOM     55  C   UNL     1     -13.029  -8.852   0.470  1.00  0.00     0.029 A 
ATOM     56  N   UNL     1     -11.693  -8.213  -1.188  1.00  0.00    -0.354 N 
ATOM     57  N   UNL     1     -11.073  -7.012  -3.794  1.00  0.00    -0.248 NA
ATOM     58  C   UNL     1     -11.769  -6.100  -5.828  1.00  0.00     0.031 C 
ATOM     59  C   UNL     1     -13.822  -8.393  -0.587  1.00  0.00     0.029 A 
ATOM     60  C   UNL     1     -12.990  -7.965  -1.609  1.00  0.00     0.049 A 
ATOM     61  H   UNL     1     -10.882  -8.018  -1.712  1.00  0.00     0.167 HD
ATOM     62  C   UNL     1     -12.465  -6.967  -3.820  1.00  0.00     0.074 A 
ATOM     63  C   UNL     1     -12.836  -6.372  -5.088  1.00  0.00     0.031 C 
ATOM     64  C   UNL     1     -13.352  -7.375  -2.877  1.00  0.00     0.037 A 
BRANCH  51  65
ATOM     65  C   UNL     1     -10.707  -9.882   2.134  1.00  0.00     0.058 A 
ATOM     66  C   UNL     1     -10.272  -9.292   3.333  1.00  0.00     0.135 A 
ATOM     67  C   UNL     1     -11.303 -11.151   2.211  1.00  0.00     0.135 A 
ATOM     68  F   UNL     1      -9.680  -8.087   3.320  1.00  0.00    -0.206 F 
ATOM     69  C   UNL     1     -10.375  -9.958   4.551  1.00  0.00     0.059 A 
ATOM     70  C   UNL     1     -11.448 -11.820   3.422  1.00  0.00     0.059 A 
ATOM     71  F   UNL     1     -11.739 -11.762   1.098  1.00  0.00    -0.206 F 
ATOM     72  C   UNL     1     -10.958 -11.226   4.584  1.00  0.00     0.060 A 
BRANCH  72  73
ATOM     73  S   UNL     1     -11.049 -12.093   6.164  1.00  0.00     0.124 S 
ATOM     74  O   UNL     1      -9.651 -12.453   6.379  1.00  0.00    -0.237 OA
ATOM     75  O   UNL     1     -11.582 -11.066   7.053  1.00  0.00    -0.237 OA
ATOM     76  O   UNL     1     -11.949 -13.209   5.889  1.00  0.00    -0.744 OA
ENDBRANCH  72  73
ENDBRANCH  51  65
BRANCH  52  77
ATOM     77  C   UNL     1      -9.014  -5.716  -6.788  1.00  0.00     0.058 A 
ATOM     78  C   UNL     1      -9.280  -4.370  -7.074  1.00  0.00     0.135 A 
ATOM     79  C   UNL     1      -8.461  -6.503  -7.812  1.00  0.00     0.135 A 
ATOM     80  F   UNL     1      -9.828  -3.581  -6.137  1.00  0.00    -0.206 F 
ATOM     81  C   UNL     1      -8.998  -3.819  -8.320  1.00  0.00     0.059 A 
ATOM     82  C   UNL     1      -8.145  -5.970  -9.057  1.00  0.00     0.059 A 
ATOM     83  F   UNL     1      -8.186  -7.798  -7.589  1.00  0.00    -0.206 F 
ATOM     84  C   UNL     1      -8.416  -4.625  -9.302  1.00  0.00     0.060 A 
BRANCH  84  85
ATOM     85  S   UNL     1      -7.961  -3.872 -10.880  1.00  0.00     0.124 S 
ATOM     86  O   UNL     1      -9.267  -3.626 -11.478  1.00  0.00    -0.237 OA
ATOM     87  O   UNL     1      -7.222  -2.689 -10.449  1.00  0.00    -0.237 OA
ATOM     88  O   UNL     1      -7.155  -4.905 -11.525  1.00  0.00    -0.744 OA
ENDBRANCH  84  85
ENDBRANCH  52  77
BRANCH  64  89
ATOM     89  C   UNL     1     -14.818  -7.166  -3.155  1.00  0.00     0.058 A 
ATOM     90  C   UNL     1     -15.510  -7.924  -4.113  1.00  0.00     0.135 A 
ATOM     91  C   UNL     1     -15.556  -6.234  -2.405  1.00  0.00     0.135 A 
ATOM     92  F   UNL     1     -14.856  -8.826  -4.862  1.00  0.00    -0.206 F 
ATOM     93  C   UNL     1     -16.874  -7.750  -4.333  1.00  0.00     0.059 A 
ATOM     94  C   UNL     1     -16.926  -6.065  -2.587  1.00  0.00     0.059 A 
ATOM     95  F   UNL     1     -14.950  -5.489  -1.467  1.00  0.00    -0.206 F 
ATOM     96  C   UNL     1     -17.574  -6.820  -3.562  1.00  0.00     0.060 A 
BRANCH  96  97
ATOM     97  S   UNL     1     -19.349  -6.629  -3.835  1.00  0.00     0.124 S 
ATOM     98  O   UNL     1     -19.378  -5.950  -5.126  1.00  0.00    -0.237 OA
ATOM     99  O   UNL     1     -19.815  -8.012  -3.835  1.00  0.00    -0.237 OA
ATOM    100  O   UNL     1     -19.785  -5.827  -2.695  1.00  0.00    -0.744 OA
ENDBRANCH  96  97
ENDBRANCH  64  89
ENDBRANCH  38  39
ENDBRANCH  31  33
ENDBRANCH  30  31
ENDBRANCH  29  30
ENDBRANCH  28  29
ENDBRANCH  27  28
ENDBRANCH   1  27
TORSDOF 24
