REMARK SMILES CCCOc1ccc(NC(=O)CCC(=O)OCCOCCOCCOC(=O)c2ccc(-c3c4nc(c(-c5c(F)cc(S(=O)(=O)[O-])cc5F)c5ccc([nH]5)c(-c5c(F)cc(S(=O)(=O)[O-])cc5F)c5nc(c(-c6c(F)cc(S(=O)(=O)[O-])cc6F)c6ccc3[nH]6)C=C5)C=C4)cc2)cc1
REMARK SMILES IDX 19 1 18 2 17 3 16 4 14 5 15 6 13 7 12 8 10 9 9 10 11 12 8 13
REMARK SMILES IDX 5 14 6 15 95 16 7 17 94 18 4 19 3 20 2 21 1 22 20 23 21 24
REMARK SMILES IDX 22 25 23 26 24 27 25 28 26 29 27 30 28 31 29 32 93 33 30 34
REMARK SMILES IDX 92 35 31 36 32 37 33 38 86 39 34 40 91 41 85 42 87 43 35 44
REMARK SMILES IDX 90 45 84 46 83 47 36 49 70 50 49 51 69 52 50 53 53 54 68 55
REMARK SMILES IDX 88 56 51 57 52 58 67 60 89 61 54 62 37 63 38 64 47 65 39 66
REMARK SMILES IDX 40 67 46 68 48 69 41 70 42 71 43 72 44 73 45 74 71 75 72 76
REMARK SMILES IDX 81 77 73 78 74 79 80 80 82 81 75 82 76 83 77 84 78 85 79 86
REMARK SMILES IDX 55 87 56 88 65 89 57 90 58 91 64 92 66 93 59 94 60 95 61 96
REMARK SMILES IDX 62 97 63 98
REMARK H PARENT 9 11 87 48 53 59
REMARK Flexibility Score: inf
ROOT
ATOM      1  O   UNL     1       0.277   3.449   2.678  1.00  0.00    -0.376 OA
ENDROOT
BRANCH   1   2
ATOM      2  C   UNL     1      -1.037   4.015   2.666  1.00  0.00     0.202 C 
BRANCH   2   3
ATOM      3  C   UNL     1      -1.537   4.419   1.268  1.00  0.00     0.261 C 
BRANCH   3   4
ATOM      4  O   UNL     1      -0.614   5.239   0.535  1.00  0.00    -0.463 OA
BRANCH   4   5
ATOM      5  C   UNL     1      -0.447   6.514   0.934  1.00  0.00     0.306 C 
ATOM      6  O   UNL     1      -1.111   7.063   1.802  1.00  0.00    -0.252 OA
BRANCH   5   7
ATOM      7  C   UNL     1       0.667   7.190   0.168  1.00  0.00     0.132 C 
BRANCH   7   8
ATOM      8  C   UNL     1       1.722   6.252  -0.431  1.00  0.00     0.112 C 
BRANCH   8   9
ATOM      9  C   UNL     1       1.359   5.727  -1.811  1.00  0.00     0.224 C 
ATOM     10  N   UNL     1       0.931   4.473  -2.143  1.00  0.00    -0.326 N 
ATOM     11  H   UNL     1       0.725   4.411  -3.104  1.00  0.00     0.169 HD
ATOM     12  O   UNL     1       1.429   6.528  -2.759  1.00  0.00    -0.275 OA
BRANCH  10  13
ATOM     13  C   UNL     1       0.703   3.244  -1.492  1.00  0.00     0.041 A 
ATOM     14  C   UNL     1       0.078   0.785  -0.201  1.00  0.00     0.119 A 
ATOM     15  C   UNL     1       0.794   1.754   0.450  1.00  0.00     0.048 A 
ATOM     16  C   UNL     1      -0.299   1.016  -1.519  1.00  0.00     0.048 A 
ATOM     17  C   UNL     1       1.052   2.972  -0.192  1.00  0.00     0.030 A 
ATOM     18  C   UNL     1       0.049   2.216  -2.173  1.00  0.00     0.030 A 
BRANCH  14  19
ATOM     19  O   UNL     1      -0.391  -0.327   0.425  1.00  0.00    -0.494 OA
BRANCH  19  20
ATOM     20  C   UNL     1       0.562  -1.065   1.204  1.00  0.00     0.229 C 
BRANCH  20  21
ATOM     21  C   UNL     1       0.712  -2.418   0.518  1.00  0.00     0.038 C 
ATOM     22  C   UNL     1       1.606  -2.317  -0.712  1.00  0.00     0.007 C 
ENDBRANCH  20  21
ENDBRANCH  19  20
ENDBRANCH  14  19
ENDBRANCH  10  13
ENDBRANCH   8   9
ENDBRANCH   7   8
ENDBRANCH   5   7
ENDBRANCH   4   5
ENDBRANCH   3   4
ENDBRANCH   2   3
ENDBRANCH   1   2
BRANCH   1  23
ATOM     23  C   UNL     1       1.340   4.351   3.004  1.00  0.00     0.188 C 
BRANCH  23  24
ATOM     24  C   UNL     1       2.718   3.663   2.797  1.00  0.00     0.188 C 
BRANCH  24  25
ATOM     25  O   UNL     1       3.228   3.833   1.477  1.00  0.00    -0.376 OA
BRANCH  25  26
ATOM     26  C   UNL     1       4.166   2.948   0.854  1.00  0.00     0.202 C 
BRANCH  26  27
ATOM     27  C   UNL     1       4.423   1.515   1.348  1.00  0.00     0.261 C 
BRANCH  27  28
ATOM     28  O   UNL     1       4.708   1.418   2.739  1.00  0.00    -0.460 OA
BRANCH  28  29
ATOM     29  C   UNL     1       5.708   2.211   3.187  1.00  0.00     0.338 C 
ATOM     30  O   UNL     1       6.598   2.723   2.532  1.00  0.00    -0.246 OA
BRANCH  29  31
ATOM     31  C   UNL     1       5.289   2.614   4.538  1.00  0.00     0.060 A 
ATOM     32  C   UNL     1       5.309   3.984   4.831  1.00  0.00     0.016 A 
ATOM     33  C   UNL     1       4.698   1.692   5.414  1.00  0.00     0.016 A 
ATOM     34  C   UNL     1       4.716   4.439   5.998  1.00  0.00     0.010 A 
ATOM     35  C   UNL     1       4.156   2.140   6.611  1.00  0.00     0.010 A 
ATOM     36  C   UNL     1       4.200   3.510   6.913  1.00  0.00    -0.014 A 
BRANCH  36  37
ATOM     37  C   UNL     1       4.102   3.941   8.316  1.00  0.00     0.031 A 
ATOM     38  C   UNL     1       5.385   3.892   9.097  1.00  0.00     0.074 A 
ATOM     39  C   UNL     1       2.958   4.410   8.836  1.00  0.00     0.049 A 
ATOM     40  N   UNL     1       5.626   4.264  10.322  1.00  0.00    -0.248 NA
ATOM     41  C   UNL     1       6.566   3.360   8.387  1.00  0.00     0.031 C 
ATOM     42  C   UNL     1       1.684   4.529   8.128  1.00  0.00     0.029 A 
ATOM     43  N   UNL     1       2.694   4.881  10.092  1.00  0.00    -0.354 N 
ATOM     44  C   UNL     1       6.982   4.032  10.517  1.00  0.00     0.074 A 
ATOM     45  C   UNL     1       7.510   3.458   9.305  1.00  0.00     0.031 C 
ATOM     46  C   UNL     1       0.766   5.035   8.972  1.00  0.00     0.029 A 
ATOM     47  C   UNL     1       1.386   5.254  10.277  1.00  0.00     0.049 A 
ATOM     48  H   UNL     1       3.378   4.947  10.798  1.00  0.00     0.167 HD
ATOM     49  C   UNL     1       7.724   4.283  11.616  1.00  0.00     0.037 A 
ATOM     50  C   UNL     1       0.774   5.704  11.390  1.00  0.00     0.037 A 
ATOM     51  C   UNL     1       7.167   4.812  12.826  1.00  0.00     0.049 A 
ATOM     52  C   UNL     1       1.606   5.892  12.635  1.00  0.00     0.074 A 
ATOM     53  C   UNL     1       7.803   5.083  14.021  1.00  0.00     0.029 A 
ATOM     54  N   UNL     1       5.826   5.131  12.995  1.00  0.00    -0.354 N 
ATOM     55  N   UNL     1       2.893   5.689  12.809  1.00  0.00    -0.248 NA
ATOM     56  C   UNL     1       0.908   6.375  13.833  1.00  0.00     0.031 C 
ATOM     57  C   UNL     1       6.835   5.520  14.930  1.00  0.00     0.029 A 
ATOM     58  C   UNL     1       5.608   5.576  14.284  1.00  0.00     0.049 A 
ATOM     59  H   UNL     1       5.135   5.053  12.299  1.00  0.00     0.167 HD
ATOM     60  C   UNL     1       3.163   6.042  14.127  1.00  0.00     0.074 A 
ATOM     61  C   UNL     1       1.906   6.486  14.699  1.00  0.00     0.031 C 
ATOM     62  C   UNL     1       4.336   6.008  14.809  1.00  0.00     0.037 A 
BRANCH  49  63
ATOM     63  C   UNL     1       9.181   3.934  11.553  1.00  0.00     0.058 A 
ATOM     64  C   UNL     1      10.085   4.669  10.767  1.00  0.00     0.135 A 
ATOM     65  C   UNL     1       9.677   2.833  12.267  1.00  0.00     0.135 A 
ATOM     66  F   UNL     1       9.654   5.704  10.028  1.00  0.00    -0.206 F 
ATOM     67  C   UNL     1      11.427   4.314  10.680  1.00  0.00     0.059 A 
ATOM     68  C   UNL     1      11.021   2.476  12.215  1.00  0.00     0.059 A 
ATOM     69  F   UNL     1       8.850   2.082  13.010  1.00  0.00    -0.206 F 
ATOM     70  C   UNL     1      11.885   3.216  11.410  1.00  0.00     0.060 A 
BRANCH  70  71
ATOM     71  S   UNL     1      13.632   2.775  11.299  1.00  0.00     0.124 S 
ATOM     72  O   UNL     1      13.707   2.220   9.951  1.00  0.00    -0.237 OA
ATOM     73  O   UNL     1      14.290   4.063  11.492  1.00  0.00    -0.237 OA
ATOM     74  O   UNL     1      13.809   1.815  12.384  1.00  0.00    -0.744 OA
ENDBRANCH  70  71
ENDBRANCH  49  63
BRANCH  50  75
ATOM     75  C   UNL     1      -0.686   5.990  11.382  1.00  0.00     0.058 A 
ATOM     76  C   UNL     1      -1.178   7.296  11.518  1.00  0.00     0.135 A 
ATOM     77  C   UNL     1      -1.623   4.954  11.243  1.00  0.00     0.135 A 
ATOM     78  F   UNL     1      -0.325   8.322  11.663  1.00  0.00    -0.206 F 
ATOM     79  C   UNL     1      -2.544   7.565  11.532  1.00  0.00     0.059 A 
ATOM     80  C   UNL     1      -2.993   5.199  11.229  1.00  0.00     0.059 A 
ATOM     81  F   UNL     1      -1.208   3.685  11.100  1.00  0.00    -0.206 F 
ATOM     82  C   UNL     1      -3.445   6.508  11.385  1.00  0.00     0.060 A 
BRANCH  82  83
ATOM     83  S   UNL     1      -5.214   6.870  11.366  1.00  0.00     0.124 S 
ATOM     84  O   UNL     1      -5.463   7.197  12.765  1.00  0.00    -0.237 OA
ATOM     85  O   UNL     1      -5.288   7.985  10.426  1.00  0.00    -0.237 OA
ATOM     86  O   UNL     1      -5.807   5.622  10.893  1.00  0.00    -0.744 OA
ENDBRANCH  82  83
ENDBRANCH  50  75
BRANCH  62  87
ATOM     87  C   UNL     1       4.316   6.488  16.232  1.00  0.00     0.058 A 
ATOM     88  C   UNL     1       3.721   5.736  17.256  1.00  0.00     0.135 A 
ATOM     89  C   UNL     1       4.952   7.691  16.581  1.00  0.00     0.135 A 
ATOM     90  F   UNL     1       3.101   4.579  16.972  1.00  0.00    -0.206 F 
ATOM     91  C   UNL     1       3.727   6.177  18.573  1.00  0.00     0.059 A 
ATOM     92  C   UNL     1       4.998   8.135  17.896  1.00  0.00     0.059 A 
ATOM     93  F   UNL     1       5.553   8.436  15.639  1.00  0.00    -0.206 F 
ATOM     94  C   UNL     1       4.367   7.379  18.883  1.00  0.00     0.060 A 
BRANCH  94  95
ATOM     95  S   UNL     1       4.383   7.932  20.600  1.00  0.00     0.124 S 
ATOM     96  O   UNL     1       3.008   8.390  20.772  1.00  0.00    -0.237 OA
ATOM     97  O   UNL     1       4.740   6.712  21.319  1.00  0.00    -0.237 OA
ATOM     98  O   UNL     1       5.400   8.979  20.611  1.00  0.00    -0.744 OA
ENDBRANCH  94  95
ENDBRANCH  62  87
ENDBRANCH  36  37
ENDBRANCH  29  31
ENDBRANCH  28  29
ENDBRANCH  27  28
ENDBRANCH  26  27
ENDBRANCH  25  26
ENDBRANCH  24  25
ENDBRANCH  23  24
ENDBRANCH   1  23
TORSDOF 26
