REMARK SMILES O=C(C[C@H]1SC[C@@H](C(=O)OCCOCCOCCOC(=O)c2ccc(-c3c4nc(c(-c5c(F)cc(S(=O)(=O)[O-])cc5F)c5ccc([nH]5)c(-c5c(F)cc(S(=O)(=O)[O-])cc5F)c5nc(c(-c6c(F)cc(S(=O)(=O)[O-])cc6F)c6ccc3[nH]6)C=C5)C=C4)cc2)NC1=O)Nc1cccc(Cl)c1
REMARK SMILES IDX 14 1 13 2 12 3 11 4 10 5 8 6 9 7 7 8 4 9 5 10 89 11 6 12
REMARK SMILES IDX 88 13 90 14 3 16 2 17 1 18 91 19 92 21 93 22 98 23 94 24
REMARK SMILES IDX 96 25 95 26 97 27 15 28 16 29 17 30 18 31 19 32 20 33 21 34
REMARK SMILES IDX 22 35 23 36 87 37 24 38 86 39 25 40 26 41 27 42 80 43 28 44
REMARK SMILES IDX 85 45 79 46 81 47 29 48 84 49 78 50 77 51 30 53 64 54 43 55
REMARK SMILES IDX 63 56 44 57 47 58 62 59 82 60 45 61 46 62 61 64 83 65 48 66
REMARK SMILES IDX 31 67 32 68 41 69 33 70 34 71 40 72 42 73 35 74 36 75 37 76
REMARK SMILES IDX 38 77 39 78 65 79 66 80 75 81 67 82 68 83 74 84 76 85 69 86
REMARK SMILES IDX 70 87 71 88 72 89 73 90 49 91 50 92 59 93 51 94 52 95 58 96
REMARK SMILES IDX 60 97 53 98 54 99 55 100 56 101 57 102
REMARK H PARENT 88 15 91 20 81 52 47 63
REMARK Flexibility Score: inf
ROOT
ATOM      1  C   UNL     1       8.712   4.262  -1.030  1.00  0.00     0.188 C 
ENDROOT
BRANCH   1   2
ATOM      2  O   UNL     1       9.800   4.315  -0.132  1.00  0.00    -0.376 OA
BRANCH   2   3
ATOM      3  C   UNL     1       9.613   3.817   1.183  1.00  0.00     0.202 C 
BRANCH   3   4
ATOM      4  C   UNL     1       8.895   2.479   1.453  1.00  0.00     0.261 C 
BRANCH   4   5
ATOM      5  O   UNL     1       8.085   1.966   0.388  1.00  0.00    -0.462 OA
BRANCH   5   6
ATOM      6  C   UNL     1       6.743   2.121   0.522  1.00  0.00     0.329 C 
ATOM      7  O   UNL     1       6.212   2.615   1.503  1.00  0.00    -0.250 OA
BRANCH   6   8
ATOM      8  C   UNL     1       5.993   1.522  -0.680  1.00  0.00     0.202 C 
ATOM      9  C   UNL     1       3.215   1.379   0.531  1.00  0.00     0.145 C 
ATOM     10  S   UNL     1       3.656   2.980  -0.225  1.00  0.00    -0.145 SA
ATOM     11  C   UNL     1       4.157   0.200   0.351  1.00  0.00     0.234 C 
ATOM     12  C   UNL     1       5.033   2.518  -1.317  1.00  0.00     0.107 C 
ATOM     13  N   UNL     1       5.337   0.293  -0.298  1.00  0.00    -0.341 N 
ATOM     14  O   UNL     1       3.899  -0.900   0.852  1.00  0.00    -0.274 OA
ATOM     15  H   UNL     1       5.790  -0.549  -0.532  1.00  0.00     0.164 HD
BRANCH   9  16
ATOM     16  C   UNL     1       2.788   1.514   1.999  1.00  0.00     0.124 C 
BRANCH  16  17
ATOM     17  C   UNL     1       3.857   1.716   3.071  1.00  0.00     0.226 C 
ATOM     18  O   UNL     1       3.831   2.717   3.784  1.00  0.00    -0.275 OA
ATOM     19  N   UNL     1       4.743   0.661   3.230  1.00  0.00    -0.326 N 
ATOM     20  H   UNL     1       4.720  -0.046   2.545  1.00  0.00     0.169 HD
BRANCH  19  21
ATOM     21  C   UNL     1       5.673   0.502   4.280  1.00  0.00     0.042 A 
ATOM     22  C   UNL     1       6.765  -0.351   4.062  1.00  0.00     0.026 A 
ATOM     23  C   UNL     1       5.510   1.093   5.534  1.00  0.00     0.046 A 
ATOM     24  C   UNL     1       7.687  -0.603   5.082  1.00  0.00     0.004 A 
ATOM     25  C   UNL     1       6.409   0.804   6.561  1.00  0.00     0.043 A 
ATOM     26  C   UNL     1       7.499  -0.035   6.340  1.00  0.00     0.020 A 
ATOM     27  Cl  UNL     1       6.149   1.453   8.136  1.00  0.00    -0.084 Cl
ENDBRANCH  19  21
ENDBRANCH  16  17
ENDBRANCH   9  16
ENDBRANCH   6   8
ENDBRANCH   5   6
ENDBRANCH   4   5
ENDBRANCH   3   4
ENDBRANCH   2   3
ENDBRANCH   1   2
BRANCH   1  28
ATOM     28  C   UNL     1       8.878   3.155  -2.094  1.00  0.00     0.188 C 
BRANCH  28  29
ATOM     29  O   UNL     1       9.915   2.193  -1.965  1.00  0.00    -0.376 OA
BRANCH  29  30
ATOM     30  C   UNL     1      11.246   2.664  -1.773  1.00  0.00     0.202 C 
BRANCH  30  31
ATOM     31  C   UNL     1      11.824   3.820  -2.621  1.00  0.00     0.261 C 
BRANCH  31  32
ATOM     32  O   UNL     1      10.938   4.914  -2.921  1.00  0.00    -0.460 OA
BRANCH  32  33
ATOM     33  C   UNL     1      10.490   4.971  -4.198  1.00  0.00     0.338 C 
ATOM     34  O   UNL     1      10.794   4.210  -5.116  1.00  0.00    -0.246 OA
BRANCH  33  35
ATOM     35  C   UNL     1       9.377   5.936  -4.305  1.00  0.00     0.060 A 
ATOM     36  C   UNL     1       8.110   5.456  -4.675  1.00  0.00     0.016 A 
ATOM     37  C   UNL     1       9.580   7.301  -4.105  1.00  0.00     0.016 A 
ATOM     38  C   UNL     1       7.050   6.337  -4.875  1.00  0.00     0.010 A 
ATOM     39  C   UNL     1       8.525   8.190  -4.345  1.00  0.00     0.010 A 
ATOM     40  C   UNL     1       7.268   7.715  -4.768  1.00  0.00    -0.014 A 
BRANCH  40  41
ATOM     41  C   UNL     1       6.270   8.649  -5.346  1.00  0.00     0.031 A 
ATOM     42  C   UNL     1       6.490   9.130  -6.757  1.00  0.00     0.074 A 
ATOM     43  C   UNL     1       5.174   9.027  -4.665  1.00  0.00     0.049 A 
ATOM     44  N   UNL     1       5.794   9.981  -7.465  1.00  0.00    -0.248 NA
ATOM     45  C   UNL     1       7.657   8.573  -7.463  1.00  0.00     0.031 C 
ATOM     46  C   UNL     1       4.814   8.583  -3.320  1.00  0.00     0.029 A 
ATOM     47  N   UNL     1       4.161   9.884  -5.019  1.00  0.00    -0.354 N 
ATOM     48  C   UNL     1       6.440  10.065  -8.694  1.00  0.00     0.074 A 
ATOM     49  C   UNL     1       7.601   9.206  -8.624  1.00  0.00     0.031 C 
ATOM     50  C   UNL     1       3.667   9.184  -2.955  1.00  0.00     0.029 A 
ATOM     51  C   UNL     1       3.229  10.078  -4.027  1.00  0.00     0.049 A 
ATOM     52  H   UNL     1       4.107  10.319  -5.900  1.00  0.00     0.167 HD
ATOM     53  C   UNL     1       6.092  10.784  -9.787  1.00  0.00     0.037 A 
ATOM     54  C   UNL     1       2.159  10.898  -3.986  1.00  0.00     0.037 A 
ATOM     55  C   UNL     1       4.942  11.646  -9.851  1.00  0.00     0.049 A 
ATOM     56  C   UNL     1       1.839  11.756  -5.187  1.00  0.00     0.074 A 
ATOM     57  C   UNL     1       4.512  12.432 -10.905  1.00  0.00     0.029 A 
ATOM     58  N   UNL     1       4.038  11.838  -8.816  1.00  0.00    -0.354 N 
ATOM     59  N   UNL     1       2.459  11.831  -6.341  1.00  0.00    -0.248 NA
ATOM     60  C   UNL     1       0.666  12.636  -5.081  1.00  0.00     0.031 C 
ATOM     61  C   UNL     1       3.373  13.133 -10.493  1.00  0.00     0.029 A 
ATOM     62  C   UNL     1       3.059  12.737  -9.202  1.00  0.00     0.049 A 
ATOM     63  H   UNL     1       4.086  11.398  -7.936  1.00  0.00     0.167 HD
ATOM     64  C   UNL     1       1.725  12.729  -7.112  1.00  0.00     0.074 A 
ATOM     65  C   UNL     1       0.614  13.168  -6.294  1.00  0.00     0.031 C 
ATOM     66  C   UNL     1       1.945  13.148  -8.385  1.00  0.00     0.037 A 
BRANCH  53  67
ATOM     67  C   UNL     1       6.986  10.687 -10.993  1.00  0.00     0.058 A 
ATOM     68  C   UNL     1       7.054   9.519 -11.770  1.00  0.00     0.135 A 
ATOM     69  C   UNL     1       7.771  11.782 -11.389  1.00  0.00     0.135 A 
ATOM     70  F   UNL     1       6.343   8.434 -11.424  1.00  0.00    -0.206 F 
ATOM     71  C   UNL     1       7.887   9.431 -12.880  1.00  0.00     0.059 A 
ATOM     72  C   UNL     1       8.589  11.727 -12.513  1.00  0.00     0.059 A 
ATOM     73  F   UNL     1       7.750  12.921 -10.679  1.00  0.00    -0.206 F 
ATOM     74  C   UNL     1       8.651  10.541 -13.244  1.00  0.00     0.060 A 
BRANCH  74  75
ATOM     75  S   UNL     1       9.724  10.412 -14.690  1.00  0.00     0.124 S 
ATOM     76  O   UNL     1      10.777   9.531 -14.193  1.00  0.00    -0.237 OA
ATOM     77  O   UNL     1       8.832   9.833 -15.689  1.00  0.00    -0.237 OA
ATOM     78  O   UNL     1      10.128  11.793 -14.939  1.00  0.00    -0.744 OA
ENDBRANCH  74  75
ENDBRANCH  53  67
BRANCH  54  79
ATOM     79  C   UNL     1       1.306  10.963  -2.767  1.00  0.00     0.058 A 
ATOM     80  C   UNL     1      -0.021  10.508  -2.787  1.00  0.00     0.135 A 
ATOM     81  C   UNL     1       1.787  11.514  -1.569  1.00  0.00     0.135 A 
ATOM     82  F   UNL     1      -0.534   9.984  -3.911  1.00  0.00    -0.206 F 
ATOM     83  C   UNL     1      -0.850  10.623  -1.675  1.00  0.00     0.059 A 
ATOM     84  C   UNL     1       0.988  11.613  -0.435  1.00  0.00     0.059 A 
ATOM     85  F   UNL     1       3.052  11.958  -1.493  1.00  0.00    -0.206 F 
ATOM     86  C   UNL     1      -0.335  11.179  -0.502  1.00  0.00     0.060 A 
BRANCH  86  87
ATOM     87  S   UNL     1      -1.415  11.307   0.940  1.00  0.00     0.124 S 
ATOM     88  O   UNL     1      -2.312  12.384   0.539  1.00  0.00    -0.237 OA
ATOM     89  O   UNL     1      -2.005   9.974   1.000  1.00  0.00    -0.237 OA
ATOM     90  O   UNL     1      -0.490  11.627   2.023  1.00  0.00    -0.744 OA
ENDBRANCH  86  87
ENDBRANCH  54  79
BRANCH  66  91
ATOM     91  C   UNL     1       0.926  14.071  -9.002  1.00  0.00     0.058 A 
ATOM     92  C   UNL     1       0.784  15.407  -8.597  1.00  0.00     0.135 A 
ATOM     93  C   UNL     1       0.103  13.613 -10.044  1.00  0.00     0.135 A 
ATOM     94  F   UNL     1       1.545  15.898  -7.606  1.00  0.00    -0.206 F 
ATOM     95  C   UNL     1      -0.164  16.245  -9.177  1.00  0.00     0.059 A 
ATOM     96  C   UNL     1      -0.829  14.442 -10.660  1.00  0.00     0.059 A 
ATOM     97  F   UNL     1       0.207  12.348 -10.484  1.00  0.00    -0.206 F 
ATOM     98  C   UNL     1      -0.968  15.752 -10.206  1.00  0.00     0.060 A 
BRANCH  98  99
ATOM     99  S   UNL     1      -2.188  16.851 -10.957  1.00  0.00     0.124 S 
ATOM    100  O   UNL     1      -3.207  16.915  -9.915  1.00  0.00    -0.237 OA
ATOM    101  O   UNL     1      -1.420  18.074 -11.169  1.00  0.00    -0.237 OA
ATOM    102  O   UNL     1      -2.579  16.145 -12.174  1.00  0.00    -0.744 OA
ENDBRANCH  98  99
ENDBRANCH  66  91
ENDBRANCH  40  41
ENDBRANCH  33  35
ENDBRANCH  32  33
ENDBRANCH  31  32
ENDBRANCH  30  31
ENDBRANCH  29  30
ENDBRANCH  28  29
ENDBRANCH   1  28
TORSDOF 23
