REMARK SMILES O=C(OCCOCCOCCOC(=O)c1ccc(-c2c(F)cccc2F)cn1)c1ccc(-c2c3nc(c(-c4c(F)cc(S(=O)(=O)[O-])cc4F)c4ccc([nH]4)c(-c4c(F)cc(S(=O)(=O)[O-])cc4F)c4nc(c(-c5c(F)cc(S(=O)(=O)[O-])cc5F)c5ccc2[nH]5)C=C4)C=C3)cc1
REMARK SMILES IDX 7 1 6 2 5 3 4 4 3 5 2 6 1 7 29 8 30 9 94 10 31 11 93 12
REMARK SMILES IDX 32 13 33 14 34 15 87 16 35 17 92 18 86 19 88 20 36 21 91 22
REMARK SMILES IDX 85 23 84 24 37 26 71 27 50 28 70 29 51 30 54 31 69 32 89 33
REMARK SMILES IDX 52 34 53 35 68 37 90 38 55 39 38 40 39 41 48 42 40 43 41 44
REMARK SMILES IDX 47 45 49 46 42 47 43 48 44 49 45 50 46 51 72 52 73 53 82 54
REMARK SMILES IDX 74 55 75 56 81 57 83 58 76 59 77 60 78 61 79 62 80 63 56 64
REMARK SMILES IDX 57 65 66 66 58 67 59 68 65 69 67 70 60 71 61 72 62 73 63 74
REMARK SMILES IDX 64 75 8 76 9 77 10 78 11 79 12 80 13 81 14 82 15 83 16 84
REMARK SMILES IDX 28 85 17 86 27 87 18 88 19 89 20 90 25 91 21 92 22 93 24 94
REMARK SMILES IDX 26 95 23 96
REMARK H PARENT 88 25 54 36
REMARK Flexibility Score: inf
ROOT
ATOM      1  C   UNL     1       2.429   1.452  -1.512  1.00  0.00     0.188 C 
ENDROOT
BRANCH   1   2
ATOM      2  O   UNL     1       3.748   1.283  -0.976  1.00  0.00    -0.376 OA
BRANCH   2   3
ATOM      3  C   UNL     1       4.529   0.292  -1.647  1.00  0.00     0.202 C 
BRANCH   3   4
ATOM      4  C   UNL     1       4.335  -1.136  -1.122  1.00  0.00     0.261 C 
BRANCH   4   5
ATOM      5  O   UNL     1       2.959  -1.414  -0.821  1.00  0.00    -0.460 OA
BRANCH   5   6
ATOM      6  C   UNL     1       2.349  -1.388   0.392  1.00  0.00     0.338 C 
ATOM      7  O   UNL     1       1.166  -1.721   0.456  1.00  0.00    -0.246 OA
BRANCH   6   8
ATOM      8  C   UNL     1       3.047  -1.026   1.666  1.00  0.00     0.060 A 
ATOM      9  C   UNL     1       4.162  -0.192   1.763  1.00  0.00     0.016 A 
ATOM     10  C   UNL     1       2.505  -1.534   2.860  1.00  0.00     0.016 A 
ATOM     11  C   UNL     1       4.812   0.008   2.976  1.00  0.00     0.010 A 
ATOM     12  C   UNL     1       3.109  -1.274   4.096  1.00  0.00     0.010 A 
ATOM     13  C   UNL     1       4.298  -0.539   4.151  1.00  0.00    -0.014 A 
BRANCH  13  14
ATOM     14  C   UNL     1       5.079  -0.407   5.400  1.00  0.00     0.031 A 
ATOM     15  C   UNL     1       5.788  -1.612   5.941  1.00  0.00     0.074 A 
ATOM     16  C   UNL     1       5.250   0.804   5.963  1.00  0.00     0.049 A 
ATOM     17  N   UNL     1       6.514  -1.728   7.021  1.00  0.00    -0.248 NA
ATOM     18  C   UNL     1       5.689  -2.849   5.147  1.00  0.00     0.031 C 
ATOM     19  C   UNL     1       4.708   2.057   5.437  1.00  0.00     0.029 A 
ATOM     20  N   UNL     1       5.947   1.187   7.078  1.00  0.00    -0.354 N 
ATOM     21  C   UNL     1       6.957  -3.044   7.036  1.00  0.00     0.074 A 
ATOM     22  C   UNL     1       6.399  -3.698   5.874  1.00  0.00     0.031 C 
ATOM     23  C   UNL     1       5.098   3.070   6.224  1.00  0.00     0.029 A 
ATOM     24  C   UNL     1       5.869   2.534   7.338  1.00  0.00     0.049 A 
ATOM     25  H   UNL     1       6.456   0.558   7.639  1.00  0.00     0.167 HD
ATOM     26  C   UNL     1       7.767  -3.646   7.937  1.00  0.00     0.037 A 
ATOM     27  C   UNL     1       6.342   3.253   8.373  1.00  0.00     0.037 A 
ATOM     28  C   UNL     1       8.306  -2.979   9.091  1.00  0.00     0.049 A 
ATOM     29  C   UNL     1       7.134   2.538   9.430  1.00  0.00     0.074 A 
ATOM     30  C   UNL     1       9.075  -3.503  10.112  1.00  0.00     0.029 A 
ATOM     31  N   UNL     1       8.129  -1.630   9.371  1.00  0.00    -0.354 N 
ATOM     32  N   UNL     1       7.484   1.274   9.475  1.00  0.00    -0.248 NA
ATOM     33  C   UNL     1       7.589   3.333  10.577  1.00  0.00     0.031 C 
ATOM     34  C   UNL     1       9.336  -2.477  11.028  1.00  0.00     0.029 A 
ATOM     35  C   UNL     1       8.761  -1.306  10.557  1.00  0.00     0.049 A 
ATOM     36  H   UNL     1       7.627  -0.998   8.808  1.00  0.00     0.167 HD
ATOM     37  C   UNL     1       8.213   1.123  10.645  1.00  0.00     0.074 A 
ATOM     38  C   UNL     1       8.263   2.428  11.275  1.00  0.00     0.031 C 
ATOM     39  C   UNL     1       8.790   0.007  11.154  1.00  0.00     0.037 A 
BRANCH  26  40
ATOM     40  C   UNL     1       8.068  -5.100   7.720  1.00  0.00     0.058 A 
ATOM     41  C   UNL     1       7.436  -6.080   8.500  1.00  0.00     0.135 A 
ATOM     42  C   UNL     1       8.958  -5.528   6.722  1.00  0.00     0.135 A 
ATOM     43  F   UNL     1       6.567  -5.724   9.459  1.00  0.00    -0.206 F 
ATOM     44  C   UNL     1       7.667  -7.437   8.295  1.00  0.00     0.059 A 
ATOM     45  C   UNL     1       9.189  -6.880   6.487  1.00  0.00     0.059 A 
ATOM     46  F   UNL     1       9.566  -4.632   5.929  1.00  0.00    -0.206 F 
ATOM     47  C   UNL     1       8.533  -7.827   7.275  1.00  0.00     0.060 A 
BRANCH  47  48
ATOM     48  S   UNL     1       8.817  -9.578   6.935  1.00  0.00     0.124 S 
ATOM     49  O   UNL     1       8.109  -9.747   5.670  1.00  0.00    -0.237 OA
ATOM     50  O   UNL     1      10.273  -9.649   6.861  1.00  0.00    -0.237 OA
ATOM     51  O   UNL     1       8.217 -10.250   8.083  1.00  0.00    -0.744 OA
ENDBRANCH  47  48
ENDBRANCH  26  40
BRANCH  27  52
ATOM     52  C   UNL     1       6.045   4.707   8.466  1.00  0.00     0.058 A 
ATOM     53  C   UNL     1       4.734   5.162   8.690  1.00  0.00     0.135 A 
ATOM     54  C   UNL     1       7.049   5.671   8.301  1.00  0.00     0.135 A 
ATOM     55  F   UNL     1       3.732   4.282   8.840  1.00  0.00    -0.206 F 
ATOM     56  C   UNL     1       4.424   6.517   8.732  1.00  0.00     0.059 A 
ATOM     57  C   UNL     1       6.768   7.033   8.362  1.00  0.00     0.059 A 
ATOM     58  F   UNL     1       8.317   5.288   8.088  1.00  0.00    -0.206 F 
ATOM     59  C   UNL     1       5.451   7.446   8.574  1.00  0.00     0.060 A 
BRANCH  59  60
ATOM     60  S   UNL     1       5.091   9.215   8.601  1.00  0.00     0.124 S 
ATOM     61  O   UNL     1       5.716   9.623   9.854  1.00  0.00    -0.237 OA
ATOM     62  O   UNL     1       5.744   9.675   7.380  1.00  0.00    -0.237 OA
ATOM     63  O   UNL     1       3.632   9.259   8.579  1.00  0.00    -0.744 OA
ENDBRANCH  59  60
ENDBRANCH  27  52
BRANCH  39  64
ATOM     64  C   UNL     1       9.533   0.154  12.447  1.00  0.00     0.058 A 
ATOM     65  C   UNL     1      10.936   0.136  12.465  1.00  0.00     0.135 A 
ATOM     66  C   UNL     1       8.854   0.237  13.671  1.00  0.00     0.135 A 
ATOM     67  F   UNL     1      11.626   0.051  11.316  1.00  0.00    -0.206 F 
ATOM     68  C   UNL     1      11.646   0.182  13.659  1.00  0.00     0.059 A 
ATOM     69  C   UNL     1       9.544   0.304  14.875  1.00  0.00     0.059 A 
ATOM     70  F   UNL     1       7.512   0.267  13.699  1.00  0.00    -0.206 F 
ATOM     71  C   UNL     1      10.940   0.270  14.858  1.00  0.00     0.060 A 
BRANCH  71  72
ATOM     72  S   UNL     1      11.822   0.300  16.433  1.00  0.00     0.124 S 
ATOM     73  O   UNL     1      11.664   1.696  16.829  1.00  0.00    -0.237 OA
ATOM     74  O   UNL     1      11.077  -0.673  17.226  1.00  0.00    -0.237 OA
ATOM     75  O   UNL     1      13.177  -0.101  16.070  1.00  0.00    -0.744 OA
ENDBRANCH  71  72
ENDBRANCH  39  64
ENDBRANCH  13  14
ENDBRANCH   6   8
ENDBRANCH   5   6
ENDBRANCH   4   5
ENDBRANCH   3   4
ENDBRANCH   2   3
ENDBRANCH   1   2
BRANCH   1  76
ATOM     76  C   UNL     1       1.937   2.893  -1.339  1.00  0.00     0.188 C 
BRANCH  76  77
ATOM     77  O   UNL     1       2.571   3.851  -2.196  1.00  0.00    -0.376 OA
BRANCH  77  78
ATOM     78  C   UNL     1       3.977   4.016  -2.031  1.00  0.00     0.202 C 
BRANCH  78  79
ATOM     79  C   UNL     1       4.436   4.791  -0.793  1.00  0.00     0.261 C 
BRANCH  79  80
ATOM     80  O   UNL     1       3.893   4.311   0.447  1.00  0.00    -0.459 OA
BRANCH  80  81
ATOM     81  C   UNL     1       3.122   5.218   1.106  1.00  0.00     0.356 C 
ATOM     82  O   UNL     1       2.845   6.346   0.725  1.00  0.00    -0.244 OA
BRANCH  81  83
ATOM     83  C   UNL     1       2.735   4.736   2.454  1.00  0.00     0.148 A 
ATOM     84  C   UNL     1       3.032   5.573   3.518  1.00  0.00     0.037 A 
ATOM     85  N   UNL     1       1.995   3.601   2.567  1.00  0.00    -0.249 NA
ATOM     86  C   UNL     1       2.514   5.258   4.768  1.00  0.00     0.013 A 
ATOM     87  C   UNL     1       1.498   3.335   3.810  1.00  0.00     0.121 A 
ATOM     88  C   UNL     1       1.697   4.131   4.944  1.00  0.00     0.006 A 
BRANCH  88  89
ATOM     89  C   UNL     1       1.102   3.848   6.263  1.00  0.00     0.055 A 
ATOM     90  C   UNL     1       0.505   4.872   7.019  1.00  0.00     0.134 A 
ATOM     91  C   UNL     1       1.137   2.580   6.856  1.00  0.00     0.134 A 
ATOM     92  F   UNL     1       0.379   6.104   6.499  1.00  0.00    -0.206 F 
ATOM     93  C   UNL     1       0.016   4.665   8.308  1.00  0.00     0.040 A 
ATOM     94  C   UNL     1       0.654   2.355   8.150  1.00  0.00     0.040 A 
ATOM     95  F   UNL     1       1.649   1.535   6.188  1.00  0.00    -0.206 F 
ATOM     96  C   UNL     1       0.101   3.403   8.883  1.00  0.00     0.006 A 
ENDBRANCH  88  89
ENDBRANCH  81  83
ENDBRANCH  80  81
ENDBRANCH  79  80
ENDBRANCH  78  79
ENDBRANCH  77  78
ENDBRANCH  76  77
ENDBRANCH   1  76
TORSDOF 21
