REMARK SMILES COc1ccc(/C=C2/C(=O)N(c3ccccc3)C(=O)N=C2OCCOCCOCCOC(=O)c2ccc(-c3c4nc(c(-c5c(F)cc(S(=O)(=O)[O-])cc5F)c5ccc([nH]5)c(-c5c(F)cc(S(=O)(=O)[O-])cc5F)c5nc(c(-c6c(F)cc(S(=O)(=O)[O-])cc6F)c6ccc3[nH]6)C=C5)C=C4)cc2)cc1C(=O)[O-]
REMARK SMILES IDX 27 1 26 2 25 3 24 4 23 5 22 6 21 7 7 8 8 9 9 10 10 11 11 12
REMARK SMILES IDX 20 13 18 14 19 15 6 16 3 17 4 18 101 19 5 20 100 21 2 22
REMARK SMILES IDX 1 23 102 24 103 25 104 26 12 27 13 28 17 29 14 30 16 31
REMARK SMILES IDX 15 32 28 33 29 34 30 35 31 36 32 37 33 38 34 39 35 40 99 41
REMARK SMILES IDX 36 42 98 43 37 44 38 45 39 46 92 47 40 48 97 49 91 50 93 51
REMARK SMILES IDX 41 52 96 53 90 54 89 55 42 57 76 58 55 59 75 60 56 61 59 62
REMARK SMILES IDX 74 63 94 64 57 65 58 66 73 68 95 69 60 70 43 71 44 72 53 73
REMARK SMILES IDX 45 74 46 75 52 76 54 77 47 78 48 79 49 80 50 81 51 82 77 83
REMARK SMILES IDX 78 84 87 85 79 86 80 87 86 88 88 89 81 90 82 91 83 92 84 93
REMARK SMILES IDX 85 94 61 95 62 96 71 97 63 98 64 99 70 100 72 101 65 102
REMARK SMILES IDX 66 103 67 104 68 105 69 106
REMARK H PARENT 93 56 59 67
REMARK Flexibility Score: inf
ROOT
ATOM      1  C   UNL     1      -1.221   2.836   6.367  1.00  0.00     0.188 C 
ENDROOT
BRANCH   1   2
ATOM      2  C   UNL     1      -2.063   4.088   6.683  1.00  0.00     0.188 C 
BRANCH   2   3
ATOM      3  O   UNL     1      -3.195   4.426   5.909  1.00  0.00    -0.376 OA
BRANCH   3   4
ATOM      4  C   UNL     1      -3.076   4.747   4.534  1.00  0.00     0.201 C 
BRANCH   4   5
ATOM      5  C   UNL     1      -1.982   5.682   4.027  1.00  0.00     0.260 C 
BRANCH   5   6
ATOM      6  O   UNL     1      -0.657   5.175   4.274  1.00  0.00    -0.475 OA
BRANCH   6   7
ATOM      7  C   UNL     1       0.133   5.808   5.156  1.00  0.00     0.231 C 
ATOM      8  C   UNL     1       2.055   4.158   4.699  1.00  0.00     0.027 C 
ATOM      9  C   UNL     1       1.421   5.136   5.402  1.00  0.00     0.103 C 
ATOM     10  C   UNL     1       2.080   5.597   6.686  1.00  0.00     0.272 C 
ATOM     11  O   UNL     1       3.135   5.085   7.065  1.00  0.00    -0.268 OA
ATOM     12  N   UNL     1       1.385   6.572   7.398  1.00  0.00    -0.226 N 
ATOM     13  N   UNL     1      -0.340   6.805   5.791  1.00  0.00    -0.156 NA
ATOM     14  C   UNL     1       0.240   7.239   6.946  1.00  0.00     0.358 C 
ATOM     15  O   UNL     1      -0.300   8.135   7.568  1.00  0.00    -0.245 OA
BRANCH   8  16
ATOM     16  C   UNL     1       1.810   3.358   3.452  1.00  0.00    -0.024 A 
ATOM     17  C   UNL     1       1.487   1.730   1.111  1.00  0.00     0.127 A 
ATOM     18  C   UNL     1       0.610   2.770   1.392  1.00  0.00     0.048 A 
ATOM     19  C   UNL     1       2.577   1.521   1.959  1.00  0.00     0.040 A 
ATOM     20  C   UNL     1       0.814   3.597   2.505  1.00  0.00     0.012 A 
ATOM     21  C   UNL     1       2.695   2.300   3.143  1.00  0.00     0.022 A 
BRANCH  17  22
ATOM     22  O   UNL     1       1.315   1.122  -0.102  1.00  0.00    -0.496 OA
ATOM     23  C   UNL     1       0.671  -0.148   0.007  1.00  0.00     0.278 C 
ENDBRANCH  17  22
BRANCH  19  24
ATOM     24  C   UNL     1       3.710   0.611   1.645  1.00  0.00     0.075 C 
ATOM     25  O   UNL     1       4.764   0.572   2.257  1.00  0.00    -0.545 OA
ATOM     26  O   UNL     1       3.530  -0.181   0.576  1.00  0.00    -0.545 OA
ENDBRANCH  19  24
ENDBRANCH   8  16
BRANCH  12  27
ATOM     27  C   UNL     1       1.846   6.948   8.692  1.00  0.00     0.054 A 
ATOM     28  C   UNL     1       1.131   6.547   9.828  1.00  0.00     0.027 A 
ATOM     29  C   UNL     1       2.924   7.826   8.825  1.00  0.00     0.027 A 
ATOM     30  C   UNL     1       1.508   7.007  11.091  1.00  0.00     0.002 A 
ATOM     31  C   UNL     1       3.264   8.320  10.087  1.00  0.00     0.002 A 
ATOM     32  C   UNL     1       2.558   7.911  11.218  1.00  0.00     0.000 A 
ENDBRANCH  12  27
ENDBRANCH   6   7
ENDBRANCH   5   6
ENDBRANCH   4   5
ENDBRANCH   3   4
ENDBRANCH   2   3
ENDBRANCH   1   2
BRANCH   1  33
ATOM     33  O   UNL     1      -1.557   2.001   5.283  1.00  0.00    -0.376 OA
BRANCH  33  34
ATOM     34  C   UNL     1      -2.838   1.397   5.232  1.00  0.00     0.202 C 
BRANCH  34  35
ATOM     35  C   UNL     1      -3.607   0.927   6.479  1.00  0.00     0.261 C 
BRANCH  35  36
ATOM     36  O   UNL     1      -3.565   1.782   7.630  1.00  0.00    -0.460 OA
BRANCH  36  37
ATOM     37  C   UNL     1      -2.880   1.293   8.696  1.00  0.00     0.338 C 
ATOM     38  O   UNL     1      -2.315   0.214   8.764  1.00  0.00    -0.246 OA
BRANCH  37  39
ATOM     39  C   UNL     1      -2.719   2.349   9.723  1.00  0.00     0.060 A 
ATOM     40  C   UNL     1      -1.418   2.677  10.132  1.00  0.00     0.016 A 
ATOM     41  C   UNL     1      -3.817   3.002  10.288  1.00  0.00     0.016 A 
ATOM     42  C   UNL     1      -1.217   3.632  11.130  1.00  0.00     0.010 A 
ATOM     43  C   UNL     1      -3.613   3.946  11.306  1.00  0.00     0.010 A 
ATOM     44  C   UNL     1      -2.315   4.246  11.752  1.00  0.00    -0.014 A 
BRANCH  44  45
ATOM     45  C   UNL     1      -2.088   5.037  12.991  1.00  0.00     0.031 A 
ATOM     46  C   UNL     1      -2.062   4.309  14.307  1.00  0.00     0.074 A 
ATOM     47  C   UNL     1      -1.863   6.362  12.957  1.00  0.00     0.049 A 
ATOM     48  N   UNL     1      -1.787   4.760  15.504  1.00  0.00    -0.248 NA
ATOM     49  C   UNL     1      -2.419   2.884  14.264  1.00  0.00     0.031 C 
ATOM     50  C   UNL     1      -1.890   7.190  11.756  1.00  0.00     0.029 A 
ATOM     51  N   UNL     1      -1.521   7.236  13.962  1.00  0.00    -0.354 N 
ATOM     52  C   UNL     1      -1.970   3.682  16.363  1.00  0.00     0.074 A 
ATOM     53  C   UNL     1      -2.380   2.559  15.546  1.00  0.00     0.031 C 
ATOM     54  C   UNL     1      -1.508   8.438  12.081  1.00  0.00     0.029 A 
ATOM     55  C   UNL     1      -1.242   8.508  13.518  1.00  0.00     0.049 A 
ATOM     56  H   UNL     1      -1.479   6.975  14.911  1.00  0.00     0.167 HD
ATOM     57  C   UNL     1      -1.831   3.635  17.711  1.00  0.00     0.037 A 
ATOM     58  C   UNL     1      -0.804   9.594  14.190  1.00  0.00     0.037 A 
ATOM     59  C   UNL     1      -1.455   4.762  18.526  1.00  0.00     0.049 A 
ATOM     60  C   UNL     1      -0.592   9.507  15.684  1.00  0.00     0.074 A 
ATOM     61  C   UNL     1      -1.311   4.821  19.901  1.00  0.00     0.029 A 
ATOM     62  N   UNL     1      -1.179   6.034  18.043  1.00  0.00    -0.354 N 
ATOM     63  N   UNL     1      -0.745   8.477  16.484  1.00  0.00    -0.248 NA
ATOM     64  C   UNL     1      -0.164  10.735  16.369  1.00  0.00     0.031 C 
ATOM     65  C   UNL     1      -1.003   6.140  20.254  1.00  0.00     0.029 A 
ATOM     66  C   UNL     1      -0.885   6.889  19.095  1.00  0.00     0.049 A 
ATOM     67  H   UNL     1      -1.190   6.292  17.093  1.00  0.00     0.167 HD
ATOM     68  C   UNL     1      -0.449   8.937  17.765  1.00  0.00     0.074 A 
ATOM     69  C   UNL     1      -0.054  10.324  17.625  1.00  0.00     0.031 C 
ATOM     70  C   UNL     1      -0.516   8.279  18.952  1.00  0.00     0.037 A 
BRANCH  57  71
ATOM     71  C   UNL     1      -2.170   2.330  18.383  1.00  0.00     0.058 A 
ATOM     72  C   UNL     1      -1.386   1.177  18.214  1.00  0.00     0.135 A 
ATOM     73  C   UNL     1      -3.324   2.224  19.176  1.00  0.00     0.135 A 
ATOM     74  F   UNL     1      -0.283   1.214  17.450  1.00  0.00    -0.206 F 
ATOM     75  C   UNL     1      -1.765  -0.046  18.760  1.00  0.00     0.059 A 
ATOM     76  C   UNL     1      -3.703   1.020  19.761  1.00  0.00     0.059 A 
ATOM     77  F   UNL     1      -4.111   3.294  19.373  1.00  0.00    -0.206 F 
ATOM     78  C   UNL     1      -2.931  -0.116  19.524  1.00  0.00     0.060 A 
BRANCH  78  79
ATOM     79  S   UNL     1      -3.438  -1.718  20.184  1.00  0.00     0.124 S 
ATOM     80  O   UNL     1      -3.901  -2.395  18.977  1.00  0.00    -0.237 OA
ATOM     81  O   UNL     1      -2.197  -2.226  20.758  1.00  0.00    -0.237 OA
ATOM     82  O   UNL     1      -4.478  -1.375  21.149  1.00  0.00    -0.744 OA
ENDBRANCH  78  79
ENDBRANCH  57  71
BRANCH  58  83
ATOM     83  C   UNL     1      -0.517  10.860  13.454  1.00  0.00     0.058 A 
ATOM     84  C   UNL     1       0.792  11.356  13.344  1.00  0.00     0.135 A 
ATOM     85  C   UNL     1      -1.540  11.591  12.830  1.00  0.00     0.135 A 
ATOM     86  F   UNL     1       1.808  10.708  13.937  1.00  0.00    -0.206 F 
ATOM     87  C   UNL     1       1.076  12.528  12.647  1.00  0.00     0.059 A 
ATOM     88  C   UNL     1      -1.277  12.745  12.097  1.00  0.00     0.059 A 
ATOM     89  F   UNL     1      -2.811  11.165  12.904  1.00  0.00    -0.206 F 
ATOM     90  C   UNL     1       0.035  13.210  12.017  1.00  0.00     0.060 A 
BRANCH  90  91
ATOM     91  S   UNL     1       0.420  14.683  11.043  1.00  0.00     0.124 S 
ATOM     92  O   UNL     1       0.658  15.672  12.088  1.00  0.00    -0.237 OA
ATOM     93  O   UNL     1       1.597  14.258  10.290  1.00  0.00    -0.237 OA
ATOM     94  O   UNL     1      -0.786  14.885  10.246  1.00  0.00    -0.744 OA
ENDBRANCH  90  91
ENDBRANCH  58  83
BRANCH  70  95
ATOM     95  C   UNL     1      -0.166   9.051  20.201  1.00  0.00     0.058 A 
ATOM     96  C   UNL     1      -0.980  10.091  20.683  1.00  0.00     0.135 A 
ATOM     97  C   UNL     1       0.979   8.726  20.948  1.00  0.00     0.135 A 
ATOM     98  F   UNL     1      -2.091  10.443  20.016  1.00  0.00    -0.206 F 
ATOM     99  C   UNL     1      -0.647  10.808  21.829  1.00  0.00     0.059 A 
ATOM    100  C   UNL     1       1.313   9.408  22.115  1.00  0.00     0.059 A 
ATOM    101  F   UNL     1       1.786   7.729  20.550  1.00  0.00    -0.206 F 
ATOM    102  C   UNL     1       0.505  10.462  22.536  1.00  0.00     0.060 A 
BRANCH 102 103
ATOM    103  S   UNL     1       0.929  11.405  24.017  1.00  0.00     0.124 S 
ATOM    104  O   UNL     1       1.380  12.668  23.442  1.00  0.00    -0.237 OA
ATOM    105  O   UNL     1      -0.342  11.452  24.734  1.00  0.00    -0.237 OA
ATOM    106  O   UNL     1       1.968  10.598  24.649  1.00  0.00    -0.744 OA
ENDBRANCH 102 103
ENDBRANCH  70  95
ENDBRANCH  44  45
ENDBRANCH  37  39
ENDBRANCH  36  37
ENDBRANCH  35  36
ENDBRANCH  34  35
ENDBRANCH  33  34
ENDBRANCH   1  33
TORSDOF 23
