REMARK SMILES C[C@H]1CC[C@@H](C(=O)OCCOCCOCCOC(=O)c2ccc(-c3c4nc(c(-c5c(F)cc(S(=O)(=O)[O-])cc5F)c5ccc([nH]5)c(-c5c(F)cc(S(=O)(=O)[O-])cc5F)c5nc(c(-c6c(F)cc(S(=O)(=O)[O-])cc6F)c6ccc3[nH]6)C=C5)C=C4)cc2)[C@H]([N@@H+](C)CCS(C)(=O)=O)C1
REMARK SMILES IDX 12 1 11 2 10 3 9 4 8 5 6 6 7 7 5 8 1 9 2 10 3 11 95 12 4 13
REMARK SMILES IDX 86 14 87 15 88 16 89 18 90 19 91 20 92 21 93 22 94 23 13 24
REMARK SMILES IDX 14 25 15 26 16 27 17 28 18 29 19 30 20 31 21 32 85 33 22 34
REMARK SMILES IDX 84 35 23 36 24 37 25 38 78 39 26 40 83 41 77 42 79 43 27 44
REMARK SMILES IDX 82 45 76 46 75 47 28 49 62 50 41 51 61 52 42 53 45 54 60 55
REMARK SMILES IDX 80 56 43 57 44 58 59 60 81 61 46 62 29 63 30 64 39 65 31 66
REMARK SMILES IDX 32 67 38 68 40 69 33 70 34 71 35 72 36 73 37 74 63 75 64 76
REMARK SMILES IDX 73 77 65 78 66 79 72 80 74 81 67 82 68 83 69 84 70 85 71 86
REMARK SMILES IDX 47 87 48 88 57 89 49 90 50 91 56 92 58 93 51 94 52 95 53 96
REMARK SMILES IDX 54 97 55 98
REMARK H PARENT 87 17 79 48 45 59
REMARK Flexibility Score: inf
ROOT
ATOM      1  C   UNL     1      -1.514   1.823  -3.993  1.00  0.00     0.188 C 
ENDROOT
BRANCH   1   2
ATOM      2  O   UNL     1      -2.376   1.353  -4.998  1.00  0.00    -0.376 OA
BRANCH   2   3
ATOM      3  C   UNL     1      -3.123   0.183  -4.744  1.00  0.00     0.202 C 
BRANCH   3   4
ATOM      4  C   UNL     1      -3.310  -0.512  -3.365  1.00  0.00     0.261 C 
BRANCH   4   5
ATOM      5  O   UNL     1      -2.543  -0.086  -2.215  1.00  0.00    -0.463 OA
BRANCH   5   6
ATOM      6  C   UNL     1      -2.640  -0.920  -1.144  1.00  0.00     0.315 C 
ATOM      7  O   UNL     1      -3.378  -1.907  -1.157  1.00  0.00    -0.252 OA
BRANCH   6   8
ATOM      8  C   UNL     1      -1.791  -0.574   0.155  1.00  0.00     0.157 C 
ATOM      9  C   UNL     1       3.446  -0.482   1.155  1.00  0.00     0.008 C 
ATOM     10  C   UNL     1       1.938  -0.504   1.483  1.00  0.00    -0.008 C 
ATOM     11  C   UNL     1       0.957   1.148   1.197  1.00  0.00     0.005 C 
ATOM     12  C   UNL     1       1.069  -2.171   0.939  1.00  0.00     0.069 C 
ATOM     13  C   UNL     1      -0.966   1.083   0.735  1.00  0.00     0.022 C 
ATOM     14  C   UNL     1      -0.855  -2.219   0.613  1.00  0.00     0.198 C 
BRANCH  14  15
ATOM     15  N   UNL     1      -1.600  -2.534   1.831  1.00  0.00    -0.333 N 
ATOM     16  C   UNL     1      -1.085  -3.631   2.632  1.00  0.00     0.333 C 
ATOM     17  H   UNL     1      -2.547  -2.875   1.667  1.00  0.00     0.348 HD
BRANCH  15  18
ATOM     18  C   UNL     1      -1.455  -1.273   2.468  1.00  0.00     0.278 C 
BRANCH  18  19
ATOM     19  C   UNL     1      -0.192  -0.574   1.795  1.00  0.00     0.197 C 
BRANCH  19  20
ATOM     20  S   UNL     1       0.479  -0.421  -0.544  1.00  0.00     0.152 S 
ATOM     21  C   UNL     1       0.167   1.096  -1.459  1.00  0.00     0.158 C 
ATOM     22  O   UNL     1       1.911  -0.377  -0.834  1.00  0.00    -0.229 OA
ATOM     23  O   UNL     1      -0.145  -1.379  -1.461  1.00  0.00    -0.229 OA
ENDBRANCH  19  20
ENDBRANCH  18  19
ENDBRANCH  15  18
ENDBRANCH  14  15
ENDBRANCH   6   8
ENDBRANCH   5   6
ENDBRANCH   4   5
ENDBRANCH   3   4
ENDBRANCH   2   3
ENDBRANCH   1   2
BRANCH   1  24
ATOM     24  C   UNL     1      -2.241   2.712  -2.956  1.00  0.00     0.188 C 
BRANCH  24  25
ATOM     25  O   UNL     1      -3.170   3.668  -3.452  1.00  0.00    -0.376 OA
BRANCH  25  26
ATOM     26  C   UNL     1      -2.828   4.301  -4.672  1.00  0.00     0.202 C 
BRANCH  26  27
ATOM     27  C   UNL     1      -1.647   5.280  -4.625  1.00  0.00     0.261 C 
BRANCH  27  28
ATOM     28  O   UNL     1      -0.382   4.751  -4.156  1.00  0.00    -0.460 OA
BRANCH  28  29
ATOM     29  C   UNL     1       0.025   5.187  -2.933  1.00  0.00     0.338 C 
ATOM     30  O   UNL     1      -0.634   5.872  -2.166  1.00  0.00    -0.246 OA
BRANCH  29  31
ATOM     31  C   UNL     1       1.357   4.638  -2.542  1.00  0.00     0.060 A 
ATOM     32  C   UNL     1       1.557   4.330  -1.190  1.00  0.00     0.016 A 
ATOM     33  C   UNL     1       2.426   4.492  -3.431  1.00  0.00     0.016 A 
ATOM     34  C   UNL     1       2.792   3.844  -0.738  1.00  0.00     0.010 A 
ATOM     35  C   UNL     1       3.683   4.042  -2.965  1.00  0.00     0.010 A 
ATOM     36  C   UNL     1       3.877   3.708  -1.614  1.00  0.00    -0.014 A 
BRANCH  36  37
ATOM     37  C   UNL     1       5.223   3.385  -1.046  1.00  0.00     0.031 A 
ATOM     38  C   UNL     1       5.989   4.481  -0.349  1.00  0.00     0.074 A 
ATOM     39  C   UNL     1       5.737   2.137  -1.060  1.00  0.00     0.049 A 
ATOM     40  N   UNL     1       7.156   4.440   0.242  1.00  0.00    -0.248 NA
ATOM     41  C   UNL     1       5.344   5.803  -0.310  1.00  0.00     0.031 C 
ATOM     42  C   UNL     1       5.079   0.967  -1.630  1.00  0.00     0.029 A 
ATOM     43  N   UNL     1       6.915   1.636  -0.546  1.00  0.00    -0.354 N 
ATOM     44  C   UNL     1       7.396   5.730   0.700  1.00  0.00     0.074 A 
ATOM     45  C   UNL     1       6.243   6.526   0.339  1.00  0.00     0.031 C 
ATOM     46  C   UNL     1       5.840  -0.120  -1.401  1.00  0.00     0.029 A 
ATOM     47  C   UNL     1       7.063   0.273  -0.703  1.00  0.00     0.049 A 
ATOM     48  H   UNL     1       7.591   2.201  -0.107  1.00  0.00     0.167 HD
ATOM     49  C   UNL     1       8.488   6.219   1.336  1.00  0.00     0.037 A 
ATOM     50  C   UNL     1       8.065  -0.559  -0.335  1.00  0.00     0.037 A 
ATOM     51  C   UNL     1       9.657   5.441   1.656  1.00  0.00     0.049 A 
ATOM     52  C   UNL     1       9.299   0.023   0.322  1.00  0.00     0.074 A 
ATOM     53  C   UNL     1      10.840   5.866   2.235  1.00  0.00     0.029 A 
ATOM     54  N   UNL     1       9.799   4.082   1.414  1.00  0.00    -0.354 N 
ATOM     55  N   UNL     1       9.528   1.257   0.709  1.00  0.00    -0.248 NA
ATOM     56  C   UNL     1      10.428  -0.892   0.559  1.00  0.00     0.031 C 
ATOM     57  C   UNL     1      11.719   4.780   2.287  1.00  0.00     0.029 A 
ATOM     58  C   UNL     1      11.057   3.659   1.812  1.00  0.00     0.049 A 
ATOM     59  H   UNL     1       9.107   3.504   1.018  1.00  0.00     0.167 HD
ATOM     60  C   UNL     1      10.819   1.261   1.236  1.00  0.00     0.074 A 
ATOM     61  C   UNL     1      11.309  -0.097   1.152  1.00  0.00     0.031 C 
ATOM     62  C   UNL     1      11.538   2.301   1.730  1.00  0.00     0.037 A 
BRANCH  49  63
ATOM     63  C   UNL     1       8.502   7.692   1.642  1.00  0.00     0.058 A 
ATOM     64  C   UNL     1       7.683   8.257   2.632  1.00  0.00     0.135 A 
ATOM     65  C   UNL     1       9.352   8.552   0.926  1.00  0.00     0.135 A 
ATOM     66  F   UNL     1       6.831   7.487   3.327  1.00  0.00    -0.206 F 
ATOM     67  C   UNL     1       7.684   9.627   2.879  1.00  0.00     0.059 A 
ATOM     68  C   UNL     1       9.394   9.918   1.179  1.00  0.00     0.059 A 
ATOM     69  F   UNL     1      10.150   8.065  -0.037  1.00  0.00    -0.206 F 
ATOM     70  C   UNL     1       8.544  10.449   2.147  1.00  0.00     0.060 A 
BRANCH  70  71
ATOM     71  S   UNL     1       8.527  12.223   2.477  1.00  0.00     0.124 S 
ATOM     72  O   UNL     1       7.225  12.607   1.939  1.00  0.00    -0.237 OA
ATOM     73  O   UNL     1       8.651  12.270   3.930  1.00  0.00    -0.237 OA
ATOM     74  O   UNL     1       9.682  12.719   1.734  1.00  0.00    -0.744 OA
ENDBRANCH  70  71
ENDBRANCH  49  63
BRANCH  50  75
ATOM     75  C   UNL     1       7.989  -2.031  -0.603  1.00  0.00     0.058 A 
ATOM     76  C   UNL     1       8.024  -2.972   0.442  1.00  0.00     0.135 A 
ATOM     77  C   UNL     1       7.927  -2.536  -1.913  1.00  0.00     0.135 A 
ATOM     78  F   UNL     1       8.115  -2.557   1.715  1.00  0.00    -0.206 F 
ATOM     79  C   UNL     1       8.015  -4.346   0.201  1.00  0.00     0.059 A 
ATOM     80  C   UNL     1       7.875  -3.903  -2.178  1.00  0.00     0.059 A 
ATOM     81  F   UNL     1       7.910  -1.695  -2.958  1.00  0.00    -0.206 F 
ATOM     82  C   UNL     1       7.932  -4.802  -1.115  1.00  0.00     0.060 A 
BRANCH  82  83
ATOM     83  S   UNL     1       7.873  -6.583  -1.420  1.00  0.00     0.124 S 
ATOM     84  O   UNL     1       9.240  -6.983  -1.107  1.00  0.00    -0.237 OA
ATOM     85  O   UNL     1       6.849  -7.023  -0.478  1.00  0.00    -0.237 OA
ATOM     86  O   UNL     1       7.499  -6.671  -2.829  1.00  0.00    -0.744 OA
ENDBRANCH  82  83
ENDBRANCH  50  75
BRANCH  62  87
ATOM     87  C   UNL     1      12.926   2.020   2.247  1.00  0.00     0.058 A 
ATOM     88  C   UNL     1      13.990   1.696   1.389  1.00  0.00     0.135 A 
ATOM     89  C   UNL     1      13.213   2.149   3.617  1.00  0.00     0.135 A 
ATOM     90  F   UNL     1      13.777   1.559   0.071  1.00  0.00    -0.206 F 
ATOM     91  C   UNL     1      15.279   1.488   1.872  1.00  0.00     0.059 A 
ATOM     92  C   UNL     1      14.500   1.978   4.118  1.00  0.00     0.059 A 
ATOM     93  F   UNL     1      12.239   2.470   4.484  1.00  0.00    -0.206 F 
ATOM     94  C   UNL     1      15.526   1.637   3.238  1.00  0.00     0.060 A 
BRANCH  94  95
ATOM     95  S   UNL     1      17.211   1.403   3.845  1.00  0.00     0.124 S 
ATOM     96  O   UNL     1      17.381  -0.039   3.697  1.00  0.00    -0.237 OA
ATOM     97  O   UNL     1      17.989   2.230   2.929  1.00  0.00    -0.237 OA
ATOM     98  O   UNL     1      17.149   1.889   5.220  1.00  0.00    -0.744 OA
ENDBRANCH  94  95
ENDBRANCH  62  87
ENDBRANCH  36  37
ENDBRANCH  29  31
ENDBRANCH  28  29
ENDBRANCH  27  28
ENDBRANCH  26  27
ENDBRANCH  25  26
ENDBRANCH  24  25
ENDBRANCH   1  24
TORSDOF 24
