REMARK SMILES Cc1cccc(C(=O)OCCOCCOCCOC(=O)c2ccc(-c3c4nc(c(-c5c(F)cc(S(=O)(=O)[O-])cc5F)c5ccc([nH]5)c(-c5c(F)cc(S(=O)(=O)[O-])cc5F)c5nc(c(-c6c(F)cc(S(=O)(=O)[O-])cc6F)c6ccc3[nH]6)C=C5)C=C4)cc2)c1NC(=O)Cc1ccccc1
REMARK SMILES IDX 13 1 12 2 11 3 10 4 9 5 7 6 8 7 6 8 1 9 2 10 3 11 87 12 4 13
REMARK SMILES IDX 5 14 88 15 89 16 90 18 91 19 92 20 93 21 97 22 94 23 96 24
REMARK SMILES IDX 95 25 14 26 15 27 16 28 17 29 18 30 19 31 20 32 21 33 22 34
REMARK SMILES IDX 86 35 23 36 85 37 24 38 25 39 26 40 79 41 27 42 84 43 78 44
REMARK SMILES IDX 80 45 28 46 83 47 77 48 76 49 29 51 63 52 42 53 62 54 43 55
REMARK SMILES IDX 46 56 61 57 81 58 44 59 45 60 60 62 82 63 47 64 30 65 31 66
REMARK SMILES IDX 40 67 32 68 33 69 39 70 41 71 34 72 35 73 36 74 37 75 38 76
REMARK SMILES IDX 64 77 65 78 74 79 66 80 67 81 73 82 75 83 68 84 69 85 70 86
REMARK SMILES IDX 71 87 72 88 48 89 49 90 58 91 50 92 51 93 57 94 59 95 52 96
REMARK SMILES IDX 53 97 54 98 55 99 56 100
REMARK H PARENT 88 17 80 50 46 61
REMARK Flexibility Score: inf
ROOT
ATOM      1  C   UNL     1      -4.540   4.351  -1.742  1.00  0.00     0.188 C 
ENDROOT
BRANCH   1   2
ATOM      2  O   UNL     1      -3.926   5.013  -0.617  1.00  0.00    -0.376 OA
BRANCH   2   3
ATOM      3  C   UNL     1      -2.523   5.394  -0.493  1.00  0.00     0.202 C 
BRANCH   3   4
ATOM      4  C   UNL     1      -1.405   4.527   0.386  1.00  0.00     0.261 C 
BRANCH   4   5
ATOM      5  O   UNL     1      -0.395   3.419  -0.066  1.00  0.00    -0.460 OA
BRANCH   5   6
ATOM      6  C   UNL     1      -0.200   2.079   0.086  1.00  0.00     0.340 C 
ATOM      7  O   UNL     1      -0.732   1.223   0.782  1.00  0.00    -0.246 OA
BRANCH   6   8
ATOM      8  C   UNL     1       0.616   1.405  -0.886  1.00  0.00     0.083 A 
ATOM      9  C   UNL     1       4.254   0.638  -0.670  1.00  0.00     0.046 C 
ATOM     10  C   UNL     1       2.781   0.624  -0.947  1.00  0.00    -0.027 A 
ATOM     11  C   UNL     1       2.303  -0.742  -1.103  1.00  0.00     0.005 A 
ATOM     12  C   UNL     1       1.933   1.783  -0.887  1.00  0.00     0.058 A 
ATOM     13  C   UNL     1       0.974  -1.047  -1.212  1.00  0.00     0.001 A 
ATOM     14  C   UNL     1       0.137   0.032  -1.118  1.00  0.00     0.018 A 
BRANCH  12  15
ATOM     15  N   UNL     1       2.440   3.116  -0.578  1.00  0.00    -0.325 N 
ATOM     16  C   UNL     1       2.170   4.490  -0.475  1.00  0.00     0.228 C 
ATOM     17  H   UNL     1       3.387   3.002  -0.335  1.00  0.00     0.169 HD
ATOM     18  O   UNL     1       3.149   5.091   0.013  1.00  0.00    -0.274 OA
BRANCH  16  19
ATOM     19  C   UNL     1       1.059   5.432  -1.080  1.00  0.00     0.135 C 
BRANCH  19  20
ATOM     20  C   UNL     1       0.643   6.902  -0.474  1.00  0.00    -0.039 A 
ATOM     21  C   UNL     1      -0.207   7.213   0.634  1.00  0.00     0.004 A 
ATOM     22  C   UNL     1       0.881   8.018  -1.288  1.00  0.00     0.004 A 
ATOM     23  C   UNL     1      -1.046   8.352   0.683  1.00  0.00     0.000 A 
ATOM     24  C   UNL     1       0.170   9.236  -1.141  1.00  0.00     0.000 A 
ATOM     25  C   UNL     1      -0.868   9.367  -0.227  1.00  0.00     0.000 A 
ENDBRANCH  19  20
ENDBRANCH  16  19
ENDBRANCH  12  15
ENDBRANCH   6   8
ENDBRANCH   5   6
ENDBRANCH   4   5
ENDBRANCH   3   4
ENDBRANCH   2   3
ENDBRANCH   1   2
BRANCH   1  26
ATOM     26  C   UNL     1      -4.173   4.724  -3.177  1.00  0.00     0.188 C 
BRANCH  26  27
ATOM     27  O   UNL     1      -2.772   4.886  -3.302  1.00  0.00    -0.376 OA
BRANCH  27  28
ATOM     28  C   UNL     1      -2.269   5.141  -4.597  1.00  0.00     0.202 C 
BRANCH  28  29
ATOM     29  C   UNL     1      -2.426   3.966  -5.588  1.00  0.00     0.261 C 
BRANCH  29  30
ATOM     30  O   UNL     1      -1.721   2.765  -5.158  1.00  0.00    -0.460 OA
BRANCH  30  31
ATOM     31  C   UNL     1      -2.453   1.627  -4.833  1.00  0.00     0.338 C 
ATOM     32  O   UNL     1      -2.921   0.897  -5.683  1.00  0.00    -0.246 OA
BRANCH  31  33
ATOM     33  C   UNL     1      -2.493   1.412  -3.331  1.00  0.00     0.060 A 
ATOM     34  C   UNL     1      -3.173   0.520  -2.484  1.00  0.00     0.016 A 
ATOM     35  C   UNL     1      -1.848   2.354  -2.642  1.00  0.00     0.016 A 
ATOM     36  C   UNL     1      -3.283   0.698  -0.976  1.00  0.00     0.010 A 
ATOM     37  C   UNL     1      -2.259   2.601  -1.327  1.00  0.00     0.010 A 
ATOM     38  C   UNL     1      -2.847   1.835  -0.295  1.00  0.00    -0.014 A 
BRANCH  38  39
ATOM     39  C   UNL     1      -2.825   2.349   1.387  1.00  0.00     0.031 A 
ATOM     40  C   UNL     1      -1.474   2.665   2.535  1.00  0.00     0.074 A 
ATOM     41  C   UNL     1      -3.845   3.212   1.636  1.00  0.00     0.049 A 
ATOM     42  N   UNL     1      -1.241   3.851   3.077  1.00  0.00    -0.248 NA
ATOM     43  C   UNL     1      -0.269   1.838   2.932  1.00  0.00     0.031 C 
ATOM     44  C   UNL     1      -3.959   4.361   2.568  1.00  0.00     0.029 A 
ATOM     45  N   UNL     1      -5.149   3.116   1.159  1.00  0.00    -0.354 N 
ATOM     46  C   UNL     1       0.089   4.001   3.483  1.00  0.00     0.074 A 
ATOM     47  C   UNL     1       0.696   2.729   3.253  1.00  0.00     0.031 C 
ATOM     48  C   UNL     1      -5.251   4.534   2.895  1.00  0.00     0.029 A 
ATOM     49  C   UNL     1      -5.926   3.399   2.311  1.00  0.00     0.049 A 
ATOM     50  H   UNL     1      -5.455   2.904   0.248  1.00  0.00     0.167 HD
ATOM     51  C   UNL     1       0.503   5.067   4.249  1.00  0.00     0.037 A 
ATOM     52  C   UNL     1      -6.333   2.306   3.029  1.00  0.00     0.037 A 
ATOM     53  C   UNL     1      -0.635   5.385   5.085  1.00  0.00     0.049 A 
ATOM     54  C   UNL     1      -5.591   2.216   4.377  1.00  0.00     0.074 A 
ATOM     55  C   UNL     1      -1.671   6.293   5.088  1.00  0.00     0.029 A 
ATOM     56  N   UNL     1      -1.028   4.337   5.905  1.00  0.00    -0.354 N 
ATOM     57  N   UNL     1      -4.418   2.745   4.657  1.00  0.00    -0.248 NA
ATOM     58  C   UNL     1      -6.224   1.672   5.573  1.00  0.00     0.031 C 
ATOM     59  C   UNL     1      -2.793   5.602   5.670  1.00  0.00     0.029 A 
ATOM     60  C   UNL     1      -2.395   4.326   6.062  1.00  0.00     0.049 A 
ATOM     61  H   UNL     1      -0.412   3.690   6.318  1.00  0.00     0.167 HD
ATOM     62  C   UNL     1      -4.150   2.647   6.001  1.00  0.00     0.074 A 
ATOM     63  C   UNL     1      -5.320   1.966   6.524  1.00  0.00     0.031 C 
ATOM     64  C   UNL     1      -3.038   3.143   6.641  1.00  0.00     0.037 A 
BRANCH  51  65
ATOM     65  C   UNL     1       1.897   5.674   4.457  1.00  0.00     0.058 A 
ATOM     66  C   UNL     1       2.177   6.592   5.501  1.00  0.00     0.135 A 
ATOM     67  C   UNL     1       2.946   5.536   3.526  1.00  0.00     0.135 A 
ATOM     68  F   UNL     1       1.272   6.827   6.464  1.00  0.00    -0.206 F 
ATOM     69  C   UNL     1       3.379   7.323   5.599  1.00  0.00     0.059 A 
ATOM     70  C   UNL     1       4.155   6.272   3.588  1.00  0.00     0.059 A 
ATOM     71  F   UNL     1       2.818   4.668   2.514  1.00  0.00    -0.206 F 
ATOM     72  C   UNL     1       4.361   7.177   4.625  1.00  0.00     0.060 A 
BRANCH  72  73
ATOM     73  S   UNL     1       5.872   8.185   4.738  1.00  0.00     0.124 S 
ATOM     74  O   UNL     1       5.353   9.545   4.621  1.00  0.00    -0.237 OA
ATOM     75  O   UNL     1       6.394   7.825   6.053  1.00  0.00    -0.237 OA
ATOM     76  O   UNL     1       6.682   7.733   3.610  1.00  0.00    -0.744 OA
ENDBRANCH  72  73
ENDBRANCH  51  65
BRANCH  52  77
ATOM     77  C   UNL     1      -6.785   1.241   2.041  1.00  0.00     0.058 A 
ATOM     78  C   UNL     1      -7.748   1.679   1.084  1.00  0.00     0.135 A 
ATOM     79  C   UNL     1      -6.005   0.140   1.655  1.00  0.00     0.135 A 
ATOM     80  F   UNL     1      -8.546   2.721   1.376  1.00  0.00    -0.206 F 
ATOM     81  C   UNL     1      -7.763   1.228  -0.236  1.00  0.00     0.059 A 
ATOM     82  C   UNL     1      -6.090  -0.403   0.353  1.00  0.00     0.059 A 
ATOM     83  F   UNL     1      -5.056  -0.338   2.473  1.00  0.00    -0.206 F 
ATOM     84  C   UNL     1      -6.889   0.221  -0.611  1.00  0.00     0.060 A 
BRANCH  84  85
ATOM     85  S   UNL     1      -6.724  -0.126  -2.387  1.00  0.00     0.124 S 
ATOM     86  O   UNL     1      -8.103  -0.444  -2.770  1.00  0.00    -0.237 OA
ATOM     87  O   UNL     1      -6.219   1.143  -2.906  1.00  0.00    -0.237 OA
ATOM     88  O   UNL     1      -5.800  -1.250  -2.431  1.00  0.00    -0.744 OA
ENDBRANCH  84  85
ENDBRANCH  52  77
BRANCH  64  89
ATOM     89  C   UNL     1      -2.485   2.519   7.927  1.00  0.00     0.058 A 
ATOM     90  C   UNL     1      -2.834   1.226   8.361  1.00  0.00     0.135 A 
ATOM     91  C   UNL     1      -1.468   3.139   8.703  1.00  0.00     0.135 A 
ATOM     92  F   UNL     1      -3.625   0.426   7.633  1.00  0.00    -0.206 F 
ATOM     93  C   UNL     1      -2.362   0.670   9.549  1.00  0.00     0.059 A 
ATOM     94  C   UNL     1      -0.910   2.558   9.843  1.00  0.00     0.059 A 
ATOM     95  F   UNL     1      -0.954   4.334   8.380  1.00  0.00    -0.206 F 
ATOM     96  C   UNL     1      -1.416   1.354  10.297  1.00  0.00     0.060 A 
BRANCH  96  97
ATOM     97  S   UNL     1      -0.861   0.664  11.862  1.00  0.00     0.124 S 
ATOM     98  O   UNL     1      -1.901   1.144  12.768  1.00  0.00    -0.237 OA
ATOM     99  O   UNL     1      -0.866  -0.772  11.602  1.00  0.00    -0.237 OA
ATOM    100  O   UNL     1       0.459   1.258  12.044  1.00  0.00    -0.744 OA
ENDBRANCH  96  97
ENDBRANCH  64  89
ENDBRANCH  38  39
ENDBRANCH  31  33
ENDBRANCH  30  31
ENDBRANCH  29  30
ENDBRANCH  28  29
ENDBRANCH  27  28
ENDBRANCH  26  27
ENDBRANCH   1  26
TORSDOF 23
