REMARK SMILES CCn1c(C(=O)OCCOCCOCCOC(=O)c2ccc(-c3c4nc(c(-c5c(F)cc(S(=O)(=O)[O-])cc5F)c5ccc([nH]5)c(-c5c(F)cc(S(=O)(=O)[O-])cc5F)c5nc(c(-c6c(F)cc(S(=O)(=O)[O-])cc6F)c6ccc3[nH]6)C=C5)C=C4)cc2)c(C[NH2+]Cc2ccccc2Cl)c2ccc(C)cc21
REMARK SMILES IDX 11 1 10 2 9 3 8 4 7 5 5 6 6 7 4 8 3 9 102 10 85 11 96 12
REMARK SMILES IDX 101 13 97 14 99 15 98 16 100 17 2 18 1 19 86 20 87 21 88 24
REMARK SMILES IDX 89 25 90 26 94 27 91 28 93 29 95 30 92 31 12 32 13 33 14 34
REMARK SMILES IDX 15 35 16 36 17 37 18 38 19 39 20 40 84 41 21 42 83 43 22 44
REMARK SMILES IDX 23 45 24 46 77 47 25 48 82 49 76 50 78 51 26 52 81 53 75 54
REMARK SMILES IDX 74 55 27 57 61 58 40 59 60 60 41 61 44 62 59 63 79 64 42 65
REMARK SMILES IDX 43 66 58 68 80 69 45 70 28 71 29 72 38 73 30 74 31 75 37 76
REMARK SMILES IDX 39 77 32 78 33 79 34 80 35 81 36 82 62 83 63 84 72 85 64 86
REMARK SMILES IDX 65 87 71 88 73 89 66 90 67 91 68 92 69 93 70 94 46 95 47 96
REMARK SMILES IDX 56 97 48 98 49 99 55 100 57 101 50 102 51 103 52 104 53 105
REMARK SMILES IDX 54 106
REMARK H PARENT 87 22 87 23 78 56 44 67
REMARK Flexibility Score: inf
ROOT
ATOM      1  C   UNL     1       1.226  -2.275   5.007  1.00  0.00     0.188 C 
ENDROOT
BRANCH   1   2
ATOM      2  O   UNL     1       2.199  -2.501   6.003  1.00  0.00    -0.376 OA
BRANCH   2   3
ATOM      3  C   UNL     1       3.547  -2.333   5.652  1.00  0.00     0.202 C 
BRANCH   3   4
ATOM      4  C   UNL     1       4.020  -0.972   5.113  1.00  0.00     0.261 C 
BRANCH   4   5
ATOM      5  O   UNL     1       3.133   0.159   5.189  1.00  0.00    -0.459 OA
BRANCH   5   6
ATOM      6  C   UNL     1       2.407   0.467   4.080  1.00  0.00     0.355 C 
ATOM      7  O   UNL     1       2.302  -0.350   3.155  1.00  0.00    -0.244 OA
BRANCH   6   8
ATOM      8  C   UNL     1       1.758   1.780   4.098  1.00  0.00     0.137 A 
ATOM      9  N   UNL     1       0.625   2.195   3.408  1.00  0.00    -0.335 N 
ATOM     10  C   UNL     1       0.367   3.528   3.607  1.00  0.00     0.049 A 
ATOM     11  C   UNL     1       2.125   2.911   4.832  1.00  0.00     0.047 A 
ATOM     12  C   UNL     1       1.479   4.047   4.236  1.00  0.00     0.009 A 
ATOM     13  C   UNL     1      -0.681   4.305   3.107  1.00  0.00     0.030 A 
ATOM     14  C   UNL     1       1.632   5.447   4.186  1.00  0.00     0.011 A 
ATOM     15  C   UNL     1      -0.338   5.593   2.733  1.00  0.00    -0.049 A 
ATOM     16  C   UNL     1       0.793   6.176   3.307  1.00  0.00     0.004 A 
ATOM     17  C   UNL     1      -1.070   6.165   1.546  1.00  0.00     0.044 C 
BRANCH   9  18
ATOM     18  C   UNL     1      -0.196   1.438   2.492  1.00  0.00     0.119 C 
ATOM     19  C   UNL     1      -0.617   2.147   1.182  1.00  0.00     0.027 C 
ENDBRANCH   9  18
BRANCH  11  20
ATOM     20  C   UNL     1       2.995   2.863   6.031  1.00  0.00     0.300 C 
BRANCH  20  21
ATOM     21  N   UNL     1       2.248   1.988   6.955  1.00  0.00    -0.339 N 
ATOM     22  H   UNL     1       2.318   1.033   6.606  1.00  0.00     0.346 HD
ATOM     23  H   UNL     1       1.297   2.357   6.974  1.00  0.00     0.346 HD
BRANCH  21  24
ATOM     24  C   UNL     1       2.697   1.991   8.333  1.00  0.00     0.299 C 
BRANCH  24  25
ATOM     25  C   UNL     1       2.552   3.384   8.888  1.00  0.00     0.025 A 
ATOM     26  C   UNL     1       1.244   3.886   9.043  1.00  0.00     0.011 A 
ATOM     27  C   UNL     1       3.639   4.269   8.930  1.00  0.00     0.049 A 
ATOM     28  C   UNL     1       1.023   5.256   9.121  1.00  0.00     0.001 A 
ATOM     29  C   UNL     1       3.408   5.641   8.997  1.00  0.00     0.021 A 
ATOM     30  Cl  UNL     1       5.273   3.736   8.745  1.00  0.00    -0.084 Cl
ATOM     31  C   UNL     1       2.104   6.133   9.069  1.00  0.00     0.002 A 
ENDBRANCH  24  25
ENDBRANCH  21  24
ENDBRANCH  20  21
ENDBRANCH  11  20
ENDBRANCH   6   8
ENDBRANCH   5   6
ENDBRANCH   4   5
ENDBRANCH   3   4
ENDBRANCH   2   3
ENDBRANCH   1   2
BRANCH   1  32
ATOM     32  C   UNL     1       0.205  -1.258   5.549  1.00  0.00     0.188 C 
BRANCH  32  33
ATOM     33  O   UNL     1      -0.229  -1.460   6.899  1.00  0.00    -0.376 OA
BRANCH  33  34
ATOM     34  C   UNL     1      -0.399  -2.810   7.314  1.00  0.00     0.202 C 
BRANCH  34  35
ATOM     35  C   UNL     1      -1.544  -3.543   6.599  1.00  0.00     0.261 C 
BRANCH  35  36
ATOM     36  O   UNL     1      -1.253  -3.780   5.196  1.00  0.00    -0.460 OA
BRANCH  36  37
ATOM     37  C   UNL     1      -2.172  -3.366   4.286  1.00  0.00     0.338 C 
ATOM     38  O   UNL     1      -3.346  -3.135   4.534  1.00  0.00    -0.246 OA
BRANCH  37  39
ATOM     39  C   UNL     1      -1.495  -2.913   3.018  1.00  0.00     0.060 A 
ATOM     40  C   UNL     1      -0.348  -3.471   2.427  1.00  0.00     0.016 A 
ATOM     41  C   UNL     1      -1.979  -1.734   2.474  1.00  0.00     0.016 A 
ATOM     42  C   UNL     1       0.409  -2.756   1.440  1.00  0.00     0.010 A 
ATOM     43  C   UNL     1      -1.257  -1.080   1.468  1.00  0.00     0.010 A 
ATOM     44  C   UNL     1       0.024  -1.481   1.012  1.00  0.00    -0.014 A 
BRANCH  44  45
ATOM     45  C   UNL     1       0.683  -0.661  -0.102  1.00  0.00     0.031 A 
ATOM     46  C   UNL     1      -0.021  -0.975  -1.357  1.00  0.00     0.074 A 
ATOM     47  C   UNL     1       1.577   0.392  -0.213  1.00  0.00     0.049 A 
ATOM     48  N   UNL     1       0.376  -1.882  -2.184  1.00  0.00    -0.248 NA
ATOM     49  C   UNL     1      -1.357  -0.435  -1.648  1.00  0.00     0.031 C 
ATOM     50  C   UNL     1       2.389   1.063   0.797  1.00  0.00     0.029 A 
ATOM     51  N   UNL     1       1.819   1.262  -1.284  1.00  0.00    -0.354 N 
ATOM     52  C   UNL     1      -0.465  -1.728  -3.262  1.00  0.00     0.074 A 
ATOM     53  C   UNL     1      -1.665  -1.123  -2.750  1.00  0.00     0.031 C 
ATOM     54  C   UNL     1       2.692   2.344   0.479  1.00  0.00     0.029 A 
ATOM     55  C   UNL     1       2.388   2.515  -0.927  1.00  0.00     0.049 A 
ATOM     56  H   UNL     1       1.611   1.022  -2.216  1.00  0.00     0.167 HD
ATOM     57  C   UNL     1       0.053  -1.694  -4.516  1.00  0.00     0.037 A 
ATOM     58  C   UNL     1       2.910   3.526  -1.686  1.00  0.00     0.037 A 
ATOM     59  C   UNL     1       1.455  -2.071  -4.527  1.00  0.00     0.049 A 
ATOM     60  C   UNL     1       3.407   2.876  -2.906  1.00  0.00     0.074 A 
ATOM     61  C   UNL     1       2.189  -3.128  -4.021  1.00  0.00     0.029 A 
ATOM     62  N   UNL     1       2.357  -1.067  -4.790  1.00  0.00    -0.354 N 
ATOM     63  N   UNL     1       4.441   2.084  -2.929  1.00  0.00    -0.248 NA
ATOM     64  C   UNL     1       2.573   2.869  -4.094  1.00  0.00     0.031 C 
ATOM     65  C   UNL     1       3.467  -2.598  -3.682  1.00  0.00     0.029 A 
ATOM     66  C   UNL     1       3.506  -1.257  -4.058  1.00  0.00     0.049 A 
ATOM     67  H   UNL     1       2.203  -0.321  -5.412  1.00  0.00     0.167 HD
ATOM     68  C   UNL     1       4.094   1.139  -3.868  1.00  0.00     0.074 A 
ATOM     69  C   UNL     1       3.074   1.784  -4.687  1.00  0.00     0.031 C 
ATOM     70  C   UNL     1       4.387  -0.175  -3.649  1.00  0.00     0.037 A 
BRANCH  57  71
ATOM     71  C   UNL     1      -0.580  -0.933  -5.648  1.00  0.00     0.058 A 
ATOM     72  C   UNL     1      -0.225  -1.279  -6.961  1.00  0.00     0.135 A 
ATOM     73  C   UNL     1      -1.345   0.249  -5.504  1.00  0.00     0.135 A 
ATOM     74  F   UNL     1       0.536  -2.360  -7.196  1.00  0.00    -0.206 F 
ATOM     75  C   UNL     1      -0.580  -0.495  -8.054  1.00  0.00     0.059 A 
ATOM     76  C   UNL     1      -1.770   1.007  -6.585  1.00  0.00     0.059 A 
ATOM     77  F   UNL     1      -1.635   0.777  -4.308  1.00  0.00    -0.206 F 
ATOM     78  C   UNL     1      -1.353   0.646  -7.854  1.00  0.00     0.060 A 
BRANCH  78  79
ATOM     79  S   UNL     1      -1.756   1.689  -9.262  1.00  0.00     0.124 S 
ATOM     80  O   UNL     1      -0.457   2.284  -9.555  1.00  0.00    -0.237 OA
ATOM     81  O   UNL     1      -2.247   0.712 -10.229  1.00  0.00    -0.237 OA
ATOM     82  O   UNL     1      -2.766   2.596  -8.728  1.00  0.00    -0.744 OA
ENDBRANCH  78  79
ENDBRANCH  57  71
BRANCH  58  83
ATOM     83  C   UNL     1       3.088   5.006  -1.500  1.00  0.00     0.058 A 
ATOM     84  C   UNL     1       3.854   5.779  -2.402  1.00  0.00     0.135 A 
ATOM     85  C   UNL     1       2.231   5.739  -0.664  1.00  0.00     0.135 A 
ATOM     86  F   UNL     1       4.743   5.191  -3.216  1.00  0.00    -0.206 F 
ATOM     87  C   UNL     1       3.673   7.160  -2.566  1.00  0.00     0.059 A 
ATOM     88  C   UNL     1       2.029   7.122  -0.807  1.00  0.00     0.059 A 
ATOM     89  F   UNL     1       1.496   5.101   0.254  1.00  0.00    -0.206 F 
ATOM     90  C   UNL     1       2.718   7.817  -1.798  1.00  0.00     0.060 A 
BRANCH  90  91
ATOM     91  S   UNL     1       2.269   9.525  -2.218  1.00  0.00     0.124 S 
ATOM     92  O   UNL     1       3.422  10.276  -1.732  1.00  0.00    -0.237 OA
ATOM     93  O   UNL     1       2.120   9.461  -3.669  1.00  0.00    -0.237 OA
ATOM     94  O   UNL     1       1.027   9.739  -1.480  1.00  0.00    -0.744 OA
ENDBRANCH  90  91
ENDBRANCH  58  83
BRANCH  70  95
ATOM     95  C   UNL     1       5.548  -0.516  -2.732  1.00  0.00     0.058 A 
ATOM     96  C   UNL     1       5.640  -0.183  -1.368  1.00  0.00     0.135 A 
ATOM     97  C   UNL     1       6.571  -1.331  -3.240  1.00  0.00     0.135 A 
ATOM     98  F   UNL     1       4.699   0.548  -0.768  1.00  0.00    -0.206 F 
ATOM     99  C   UNL     1       6.682  -0.634  -0.553  1.00  0.00     0.059 A 
ATOM    100  C   UNL     1       7.609  -1.818  -2.442  1.00  0.00     0.059 A 
ATOM    101  F   UNL     1       6.548  -1.710  -4.529  1.00  0.00    -0.206 F 
ATOM    102  C   UNL     1       7.656  -1.466  -1.096  1.00  0.00     0.060 A 
BRANCH 102 103
ATOM    103  S   UNL     1       8.934  -2.134  -0.009  1.00  0.00     0.124 S 
ATOM    104  O   UNL     1       9.678  -0.937   0.368  1.00  0.00    -0.237 OA
ATOM    105  O   UNL     1       8.149  -2.752   1.056  1.00  0.00    -0.237 OA
ATOM    106  O   UNL     1       9.655  -3.072  -0.866  1.00  0.00    -0.744 OA
ENDBRANCH 102 103
ENDBRANCH  70  95
ENDBRANCH  44  45
ENDBRANCH  37  39
ENDBRANCH  36  37
ENDBRANCH  35  36
ENDBRANCH  34  35
ENDBRANCH  33  34
ENDBRANCH  32  33
ENDBRANCH   1  32
TORSDOF 25
