REMARK SMILES O=C(OCCOCCOCCOC(=O)c1ccc(-c2c3nc(c(-c4c(F)cc(S(=O)(=O)[O-])cc4F)c4ccc([nH]4)c(-c4c(F)cc(S(=O)(=O)[O-])cc4F)c4nc(c(-c5c(F)cc(S(=O)(=O)[O-])cc5F)c5ccc2[nH]5)C=C4)C=C3)cc1)C1=Cc2cc(S(F)(F)(F)(F)F)ccc2O[C@H]1C(F)(F)F
REMARK SMILES IDX 8 1 7 2 6 3 5 4 4 5 3 6 2 7 1 8 81 9 82 10 96 11 83 12 95 13
REMARK SMILES IDX 84 14 94 15 85 16 93 17 92 18 97 19 98 20 99 21 100 22 86 23
REMARK SMILES IDX 87 24 88 25 89 26 90 27 91 28 9 29 10 30 11 31 12 32 13 33
REMARK SMILES IDX 14 34 15 35 16 36 80 37 17 38 79 39 18 40 19 41 20 42 73 43
REMARK SMILES IDX 21 44 78 45 72 46 74 47 22 48 77 49 71 50 70 51 23 53 57 54
REMARK SMILES IDX 36 55 56 56 37 57 40 58 55 59 75 60 38 61 39 62 54 64 76 65
REMARK SMILES IDX 41 66 24 67 25 68 34 69 26 70 27 71 33 72 35 73 28 74 29 75
REMARK SMILES IDX 30 76 31 77 32 78 58 79 59 80 68 81 60 82 61 83 67 84 69 85
REMARK SMILES IDX 62 86 63 87 64 88 65 89 66 90 42 91 43 92 52 93 44 94 45 95
REMARK SMILES IDX 51 96 53 97 46 98 47 99 48 100 49 101 50 102
REMARK H PARENT 74 52 40 63
REMARK Flexibility Score: inf
ROOT
ATOM      1  C   UNL     1       2.552   2.438   0.123  1.00  0.00     0.188 C 
ENDROOT
BRANCH   1   2
ATOM      2  C   UNL     1       3.058   1.171   0.791  1.00  0.00     0.188 C 
BRANCH   2   3
ATOM      3  O   UNL     1       4.478   1.171   0.791  1.00  0.00    -0.376 OA
BRANCH   3   4
ATOM      4  C   UNL     1       4.952   1.222  -0.547  1.00  0.00     0.202 C 
BRANCH   4   5
ATOM      5  C   UNL     1       4.445   0.009  -1.310  1.00  0.00     0.261 C 
BRANCH   5   6
ATOM      6  O   UNL     1       3.025   0.009  -1.310  1.00  0.00    -0.460 OA
BRANCH   6   7
ATOM      7  C   UNL     1       2.315  -0.038  -0.081  1.00  0.00     0.338 C 
ATOM      8  O   UNL     1       1.044  -0.038  -0.081  1.00  0.00    -0.246 OA
BRANCH   7   9
ATOM      9  C   UNL     1       3.075  -0.088   1.234  1.00  0.00     0.087 C 
ATOM     10  C   UNL     1       4.435  -0.088   1.234  1.00  0.00     0.027 C 
ATOM     11  C   UNL     1       2.315  -0.139   2.550  1.00  0.00     0.316 C 
ATOM     12  C   UNL     1       5.195  -0.038  -0.081  1.00  0.00     0.019 A 
ATOM     13  O   UNL     1       3.611   1.555  -0.856  1.00  0.00    -0.475 OA
ATOM     14  C   UNL     1       6.274  -0.886  -0.276  1.00  0.00     0.036 A 
ATOM     15  C   UNL     1       4.812   0.817  -1.022  1.00  0.00     0.128 A 
ATOM     16  C   UNL     1       7.070  -0.552  -1.397  1.00  0.00     0.107 A 
ATOM     17  C   UNL     1       5.568   0.994  -2.156  1.00  0.00     0.048 A 
ATOM     18  C   UNL     1       6.680   0.231  -2.386  1.00  0.00     0.028 A 
BRANCH  11  19
ATOM     19  C   UNL     1       0.821  -0.128   2.272  1.00  0.00     0.430 C 
ATOM     20  F   UNL     1       0.580  -0.745   1.119  1.00  0.00    -0.167 F 
ATOM     21  F   UNL     1       0.183  -0.759   3.254  1.00  0.00    -0.167 F 
ATOM     22  F   UNL     1       0.392   1.129   2.201  1.00  0.00    -0.167 F 
ENDBRANCH  11  19
BRANCH  16  23
ATOM     23  S   UNL     1       8.739  -1.248  -1.481  1.00  0.00     0.310 S 
ATOM     24  F   UNL     1       8.884  -1.254   0.098  1.00  0.00    -0.094 F 
ATOM     25  F   UNL     1       9.320   0.216  -1.460  1.00  0.00    -0.094 F 
ATOM     26  F   UNL     1      10.172  -1.846  -1.554  1.00  0.00    -0.094 F 
ATOM     27  F   UNL     1       8.145  -2.706  -1.360  1.00  0.00    -0.094 F 
ATOM     28  F   UNL     1       7.285  -0.656  -1.294  1.00  0.00    -0.094 F 
ENDBRANCH  16  23
ENDBRANCH   7   9
ENDBRANCH   6   7
ENDBRANCH   5   6
ENDBRANCH   4   5
ENDBRANCH   3   4
ENDBRANCH   2   3
ENDBRANCH   1   2
BRANCH   1  29
ATOM     29  O   UNL     1       3.025   2.489  -1.215  1.00  0.00    -0.376 OA
BRANCH  29  30
ATOM     30  C   UNL     1       4.445   2.489  -1.215  1.00  0.00     0.202 C 
BRANCH  30  31
ATOM     31  C   UNL     1       4.952   3.702  -0.452  1.00  0.00     0.261 C 
BRANCH  31  32
ATOM     32  O   UNL     1       4.478   3.651   0.886  1.00  0.00    -0.460 OA
BRANCH  32  33
ATOM     33  C   UNL     1       3.082   3.641   1.145  1.00  0.00     0.338 C 
ATOM     34  O   UNL     1       2.256   3.678   0.180  1.00  0.00    -0.246 OA
BRANCH  33  35
ATOM     35  C   UNL     1       2.576   3.586   2.577  1.00  0.00     0.060 A 
ATOM     36  C   UNL     1       1.543   2.721   2.900  1.00  0.00     0.016 A 
ATOM     37  C   UNL     1       3.130   4.370   3.495  1.00  0.00     0.016 A 
ATOM     38  C   UNL     1       0.965   2.966   4.168  1.00  0.00     0.010 A 
ATOM     39  C   UNL     1       2.593   4.458   4.756  1.00  0.00     0.010 A 
ATOM     40  C   UNL     1       1.534   3.675   5.126  1.00  0.00    -0.014 A 
BRANCH  40  41
ATOM     41  C   UNL     1       1.039   3.625   6.562  1.00  0.00     0.031 A 
ATOM     42  C   UNL     1       0.595   4.813   7.145  1.00  0.00     0.074 A 
ATOM     43  C   UNL     1       1.054   2.402   7.212  1.00  0.00     0.049 A 
ATOM     44  N   UNL     1       0.092   4.981   8.369  1.00  0.00    -0.248 NA
ATOM     45  C   UNL     1       0.610   6.119   6.468  1.00  0.00     0.031 C 
ATOM     46  C   UNL     1       1.492   1.198   6.629  1.00  0.00     0.029 A 
ATOM     47  N   UNL     1       0.662   2.127   8.504  1.00  0.00    -0.354 N 
ATOM     48  C   UNL     1      -0.240   6.260   8.560  1.00  0.00     0.074 A 
ATOM     49  C   UNL     1       0.095   7.011   7.342  1.00  0.00     0.031 C 
ATOM     50  C   UNL     1       1.378   0.213   7.558  1.00  0.00     0.029 A 
ATOM     51  C   UNL     1       0.865   0.785   8.738  1.00  0.00     0.049 A 
ATOM     52  H   UNL     1       0.299   2.777   9.148  1.00  0.00     0.167 HD
ATOM     53  C   UNL     1      -0.809   6.828   9.700  1.00  0.00     0.037 A 
ATOM     54  C   UNL     1       0.624   0.082   9.907  1.00  0.00     0.037 A 
ATOM     55  C   UNL     1      -1.091   6.115  10.855  1.00  0.00     0.049 A 
ATOM     56  C   UNL     1       0.108   0.662  11.069  1.00  0.00     0.074 A 
ATOM     57  C   UNL     1      -1.672   6.671  12.011  1.00  0.00     0.029 A 
ATOM     58  N   UNL     1      -0.865   4.778  11.098  1.00  0.00    -0.354 N 
ATOM     59  N   UNL     1      -0.260   1.932  11.245  1.00  0.00    -0.248 NA
ATOM     60  C   UNL     1      -0.121  -0.067  12.323  1.00  0.00     0.031 C 
ATOM     61  C   UNL     1      -1.787   5.686  12.941  1.00  0.00     0.029 A 
ATOM     62  C   UNL     1      -1.278   4.498  12.381  1.00  0.00     0.049 A 
ATOM     63  H   UNL     1      -0.476   4.134  10.463  1.00  0.00     0.167 HD
ATOM     64  C   UNL     1      -0.724   2.107  12.484  1.00  0.00     0.074 A 
ATOM     65  C   UNL     1      -0.635   0.826  13.198  1.00  0.00     0.031 C 
ATOM     66  C   UNL     1      -1.223   3.284  13.047  1.00  0.00     0.037 A 
BRANCH  53  67
ATOM     67  C   UNL     1      -1.140   8.311   9.674  1.00  0.00     0.058 A 
ATOM     68  C   UNL     1      -2.038   8.818   8.749  1.00  0.00     0.135 A 
ATOM     69  C   UNL     1      -0.553   9.098  10.568  1.00  0.00     0.135 A 
ATOM     70  F   UNL     1      -2.833   8.048   8.012  1.00  0.00    -0.206 F 
ATOM     71  C   UNL     1      -2.034  10.230   8.661  1.00  0.00     0.059 A 
ATOM     72  C   UNL     1      -0.703  10.463  10.503  1.00  0.00     0.059 A 
ATOM     73  F   UNL     1       0.186   8.561  11.535  1.00  0.00    -0.206 F 
ATOM     74  C   UNL     1      -1.529  11.037   9.577  1.00  0.00     0.060 A 
BRANCH  74  75
ATOM     75  S   UNL     1      -1.909  12.806   9.605  1.00  0.00     0.124 S 
ATOM     76  O   UNL     1      -1.452  13.447   8.292  1.00  0.00    -0.237 OA
ATOM     77  O   UNL     1      -3.418  13.001   9.769  1.00  0.00    -0.237 OA
ATOM     78  O   UNL     1      -1.092  13.544  10.913  1.00  0.00    -0.744 OA
ENDBRANCH  74  75
ENDBRANCH  53  67
BRANCH  54  79
ATOM     79  C   UNL     1       0.939  -1.405   9.928  1.00  0.00     0.058 A 
ATOM     80  C   UNL     1      -0.060  -2.335  10.163  1.00  0.00     0.135 A 
ATOM     81  C   UNL     1       2.191  -1.783   9.696  1.00  0.00     0.135 A 
ATOM     82  F   UNL     1      -1.354  -2.029  10.148  1.00  0.00    -0.206 F 
ATOM     83  C   UNL     1       0.421  -3.640  10.421  1.00  0.00     0.059 A 
ATOM     84  C   UNL     1       2.562  -3.099   9.836  1.00  0.00     0.059 A 
ATOM     85  F   UNL     1       3.094  -0.879   9.326  1.00  0.00    -0.206 F 
ATOM     86  C   UNL     1       1.637  -4.063  10.126  1.00  0.00     0.060 A 
BRANCH  86  87
ATOM     87  S   UNL     1       2.056  -5.824  10.105  1.00  0.00     0.124 S 
ATOM     88  O   UNL     1       1.811  -6.422  11.492  1.00  0.00    -0.237 OA
ATOM     89  O   UNL     1       1.181  -6.544   9.077  1.00  0.00    -0.237 OA
ATOM     90  O   UNL     1       3.703  -6.012   9.685  1.00  0.00    -0.744 OA
ENDBRANCH  86  87
ENDBRANCH  54  79
BRANCH  66  91
ATOM     91  C   UNL     1      -1.736   3.229  14.477  1.00  0.00     0.058 A 
ATOM     92  C   UNL     1      -0.875   2.852  15.494  1.00  0.00     0.135 A 
ATOM     93  C   UNL     1      -3.002   3.542  14.727  1.00  0.00     0.135 A 
ATOM     94  F   UNL     1       0.443   2.776  15.337  1.00  0.00    -0.206 F 
ATOM     95  C   UNL     1      -1.526   2.554  16.715  1.00  0.00     0.059 A 
ATOM     96  C   UNL     1      -3.536   3.353  15.979  1.00  0.00     0.059 A 
ATOM     97  F   UNL     1      -3.761   4.044  13.756  1.00  0.00    -0.206 F 
ATOM     98  C   UNL     1      -2.756   2.925  17.017  1.00  0.00     0.060 A 
BRANCH  98  99
ATOM     99  S   UNL     1      -3.378   2.871  18.716  1.00  0.00     0.124 S 
ATOM    100  O   UNL     1      -3.314   1.433  19.237  1.00  0.00    -0.237 OA
ATOM    101  O   UNL     1      -2.518   3.773  19.604  1.00  0.00    -0.237 OA
ATOM    102  O   UNL     1      -4.998   3.417  18.748  1.00  0.00    -0.744 OA
ENDBRANCH  98  99
ENDBRANCH  66  91
ENDBRANCH  40  41
ENDBRANCH  33  35
ENDBRANCH  32  33
ENDBRANCH  31  32
ENDBRANCH  30  31
ENDBRANCH  29  30
ENDBRANCH   1  29
TORSDOF 22
