REMARK SMILES CCC[NH2+]CC(=O)N1CCC(CC(=O)OCCOCCOCCOC(=O)c2ccc(-c3c4nc(c(-c5c(F)cc(S(=O)(=O)[O-])cc5F)c5ccc([nH]5)c(-c5c(F)cc(S(=O)(=O)[O-])cc5F)c5nc(c(-c6c(F)cc(S(=O)(=O)[O-])cc6F)c6ccc3[nH]6)C=C5)C=C4)cc2)CC1
REMARK SMILES IDX 19 1 18 2 17 3 16 4 15 5 13 6 14 7 12 8 11 9 6 10 7 11 8 12
REMARK SMILES IDX 9 13 94 14 10 15 93 16 5 17 4 18 3 21 2 22 1 23 20 24 21 25
REMARK SMILES IDX 22 26 23 27 24 28 25 29 26 30 27 31 28 32 92 33 29 34 91 35
REMARK SMILES IDX 30 36 31 37 32 38 85 39 33 40 90 41 84 42 86 43 34 44 89 45
REMARK SMILES IDX 83 46 82 47 35 49 69 50 48 51 68 52 49 53 52 54 67 55 87 56
REMARK SMILES IDX 50 57 51 58 66 60 88 61 53 62 36 63 37 64 46 65 38 66 39 67
REMARK SMILES IDX 45 68 47 69 40 70 41 71 42 72 43 73 44 74 70 75 71 76 80 77
REMARK SMILES IDX 72 78 73 79 79 80 81 81 74 82 75 83 76 84 77 85 78 86 54 87
REMARK SMILES IDX 55 88 64 89 56 90 57 91 63 92 65 93 58 94 59 95 60 96 61 97
REMARK SMILES IDX 62 98
REMARK H PARENT 4 19 4 20 86 48 52 59
REMARK Flexibility Score: inf
ROOT
ATOM      1  C   UNL     1       8.676   1.139   4.103  1.00  0.00     0.188 C 
ENDROOT
BRANCH   1   2
ATOM      2  O   UNL     1      10.072   1.401   3.989  1.00  0.00    -0.376 OA
BRANCH   2   3
ATOM      3  C   UNL     1      10.442   2.643   3.394  1.00  0.00     0.202 C 
BRANCH   3   4
ATOM      4  C   UNL     1      10.075   2.817   1.913  1.00  0.00     0.261 C 
BRANCH   4   5
ATOM      5  O   UNL     1       8.681   2.580   1.635  1.00  0.00    -0.463 OA
BRANCH   5   6
ATOM      6  C   UNL     1       8.407   1.583   0.757  1.00  0.00     0.306 C 
ATOM      7  O   UNL     1       9.251   0.959   0.122  1.00  0.00    -0.252 OA
BRANCH   6   8
ATOM      8  C   UNL     1       6.936   1.219   0.677  1.00  0.00     0.126 C 
BRANCH   8   9
ATOM      9  C   UNL     1       5.883   2.099   1.373  1.00  0.00     0.003 C 
ATOM     10  C   UNL     1       2.677   4.229   0.116  1.00  0.00     0.277 C 
ATOM     11  O   UNL     1       3.196   4.879  -0.798  1.00  0.00    -0.268 OA
ATOM     12  N   UNL     1       3.453   3.701   1.143  1.00  0.00    -0.338 N 
ATOM     13  C   UNL     1       4.721   4.341   1.452  1.00  0.00     0.120 C 
ATOM     14  C   UNL     1       3.342   2.345   1.656  1.00  0.00     0.120 C 
ATOM     15  C   UNL     1       5.889   3.553   0.870  1.00  0.00     0.026 C 
ATOM     16  C   UNL     1       4.489   1.473   1.138  1.00  0.00     0.026 C 
BRANCH  10  17
ATOM     17  C   UNL     1       1.139   4.184   0.240  1.00  0.00     0.362 C 
BRANCH  17  18
ATOM     18  N   UNL     1       0.528   2.877  -0.039  1.00  0.00    -0.338 N 
ATOM     19  H   UNL     1      -0.229   3.005  -0.712  1.00  0.00     0.346 HD
ATOM     20  H   UNL     1       1.253   2.264  -0.411  1.00  0.00     0.346 HD
BRANCH  18  21
ATOM     21  C   UNL     1      -0.014   2.255   1.167  1.00  0.00     0.260 C 
BRANCH  21  22
ATOM     22  C   UNL     1      -0.200   0.728   1.101  1.00  0.00     0.058 C 
ATOM     23  C   UNL     1       0.606  -0.027   0.051  1.00  0.00     0.010 C 
ENDBRANCH  21  22
ENDBRANCH  18  21
ENDBRANCH  17  18
ENDBRANCH  10  17
ENDBRANCH   8   9
ENDBRANCH   6   8
ENDBRANCH   5   6
ENDBRANCH   4   5
ENDBRANCH   3   4
ENDBRANCH   2   3
ENDBRANCH   1   2
BRANCH   1  24
ATOM     24  C   UNL     1       7.865   2.194   4.854  1.00  0.00     0.188 C 
BRANCH  24  25
ATOM     25  O   UNL     1       7.984   3.528   4.378  1.00  0.00    -0.376 OA
BRANCH  25  26
ATOM     26  C   UNL     1       7.339   4.543   5.155  1.00  0.00     0.202 C 
BRANCH  26  27
ATOM     27  C   UNL     1       7.506   4.513   6.694  1.00  0.00     0.261 C 
BRANCH  27  28
ATOM     28  O   UNL     1       7.113   3.298   7.370  1.00  0.00    -0.460 OA
BRANCH  28  29
ATOM     29  C   UNL     1       5.885   2.789   7.095  1.00  0.00     0.338 C 
ATOM     30  O   UNL     1       4.988   3.366   6.519  1.00  0.00    -0.246 OA
BRANCH  29  31
ATOM     31  C   UNL     1       5.906   1.315   7.353  1.00  0.00     0.060 A 
ATOM     32  C   UNL     1       5.181   0.493   6.476  1.00  0.00     0.016 A 
ATOM     33  C   UNL     1       6.656   0.730   8.379  1.00  0.00     0.016 A 
ATOM     34  C   UNL     1       5.143  -0.891   6.665  1.00  0.00     0.010 A 
ATOM     35  C   UNL     1       6.608  -0.660   8.575  1.00  0.00     0.010 A 
ATOM     36  C   UNL     1       5.806  -1.473   7.752  1.00  0.00    -0.014 A 
BRANCH  36  37
ATOM     37  C   UNL     1       5.437  -2.856   8.168  1.00  0.00     0.031 A 
ATOM     38  C   UNL     1       4.427  -3.010   9.280  1.00  0.00     0.074 A 
ATOM     39  C   UNL     1       5.903  -3.954   7.542  1.00  0.00     0.049 A 
ATOM     40  N   UNL     1       3.913  -4.094   9.800  1.00  0.00    -0.248 NA
ATOM     41  C   UNL     1       3.929  -1.762   9.882  1.00  0.00     0.031 C 
ATOM     42  C   UNL     1       6.838  -3.960   6.420  1.00  0.00     0.029 A 
ATOM     43  N   UNL     1       5.638  -5.285   7.765  1.00  0.00    -0.354 N 
ATOM     44  C   UNL     1       3.035  -3.661  10.788  1.00  0.00     0.074 A 
ATOM     45  C   UNL     1       3.124  -2.218  10.827  1.00  0.00     0.031 C 
ATOM     46  C   UNL     1       7.066  -5.234   6.049  1.00  0.00     0.029 A 
ATOM     47  C   UNL     1       6.315  -6.136   6.923  1.00  0.00     0.049 A 
ATOM     48  H   UNL     1       5.020  -5.600   8.463  1.00  0.00     0.167 HD
ATOM     49  C   UNL     1       2.214  -4.389  11.582  1.00  0.00     0.037 A 
ATOM     50  C   UNL     1       6.332  -7.485   6.868  1.00  0.00     0.037 A 
ATOM     51  C   UNL     1       2.129  -5.825  11.558  1.00  0.00     0.049 A 
ATOM     52  C   UNL     1       5.478  -8.285   7.822  1.00  0.00     0.074 A 
ATOM     53  C   UNL     1       1.333  -6.653  12.329  1.00  0.00     0.029 A 
ATOM     54  N   UNL     1       2.875  -6.650  10.727  1.00  0.00    -0.354 N 
ATOM     55  N   UNL     1       4.645  -7.861   8.744  1.00  0.00    -0.248 NA
ATOM     56  C   UNL     1       5.559  -9.751   7.721  1.00  0.00     0.031 C 
ATOM     57  C   UNL     1       1.637  -7.980  12.006  1.00  0.00     0.029 A 
ATOM     58  C   UNL     1       2.572  -7.978  10.983  1.00  0.00     0.049 A 
ATOM     59  H   UNL     1       3.523  -6.337  10.056  1.00  0.00     0.167 HD
ATOM     60  C   UNL     1       4.074  -9.004   9.301  1.00  0.00     0.074 A 
ATOM     61  C   UNL     1       4.655 -10.137   8.611  1.00  0.00     0.031 C 
ATOM     62  C   UNL     1       3.145  -9.104  10.286  1.00  0.00     0.037 A 
BRANCH  49  63
ATOM     63  C   UNL     1       1.368  -3.631  12.572  1.00  0.00     0.058 A 
ATOM     64  C   UNL     1       0.315  -2.796  12.163  1.00  0.00     0.135 A 
ATOM     65  C   UNL     1       1.625  -3.731  13.949  1.00  0.00     0.135 A 
ATOM     66  F   UNL     1       0.037  -2.646  10.857  1.00  0.00    -0.206 F 
ATOM     67  C   UNL     1      -0.420  -2.049  13.079  1.00  0.00     0.059 A 
ATOM     68  C   UNL     1       0.880  -3.021  14.885  1.00  0.00     0.059 A 
ATOM     69  F   UNL     1       2.619  -4.514  14.397  1.00  0.00    -0.206 F 
ATOM     70  C   UNL     1      -0.125  -2.164  14.438  1.00  0.00     0.060 A 
BRANCH  70  71
ATOM     71  S   UNL     1      -1.062  -1.162  15.611  1.00  0.00     0.124 S 
ATOM     72  O   UNL     1      -0.528   0.171  15.344  1.00  0.00    -0.237 OA
ATOM     73  O   UNL     1      -2.439  -1.390  15.185  1.00  0.00    -0.237 OA
ATOM     74  O   UNL     1      -0.706  -1.732  16.906  1.00  0.00    -0.744 OA
ENDBRANCH  70  71
ENDBRANCH  49  63
BRANCH  50  75
ATOM     75  C   UNL     1       7.182  -8.180   5.859  1.00  0.00     0.058 A 
ATOM     76  C   UNL     1       6.610  -8.890   4.792  1.00  0.00     0.135 A 
ATOM     77  C   UNL     1       8.583  -8.152   5.944  1.00  0.00     0.135 A 
ATOM     78  F   UNL     1       5.275  -8.966   4.677  1.00  0.00    -0.206 F 
ATOM     79  C   UNL     1       7.392  -9.550   3.849  1.00  0.00     0.059 A 
ATOM     80  C   UNL     1       9.388  -8.780   4.997  1.00  0.00     0.059 A 
ATOM     81  F   UNL     1       9.182  -7.488   6.944  1.00  0.00    -0.206 F 
ATOM     82  C   UNL     1       8.783  -9.481   3.956  1.00  0.00     0.060 A 
BRANCH  82  83
ATOM     83  S   UNL     1       9.787 -10.281   2.685  1.00  0.00     0.124 S 
ATOM     84  O   UNL     1       9.562 -11.692   2.975  1.00  0.00    -0.237 OA
ATOM     85  O   UNL     1       9.181  -9.776   1.457  1.00  0.00    -0.237 OA
ATOM     86  O   UNL     1      11.133  -9.787   2.961  1.00  0.00    -0.744 OA
ENDBRANCH  82  83
ENDBRANCH  50  75
BRANCH  62  87
ATOM     87  C   UNL     1       2.643 -10.480  10.645  1.00  0.00     0.058 A 
ATOM     88  C   UNL     1       3.445 -11.423  11.307  1.00  0.00     0.135 A 
ATOM     89  C   UNL     1       1.316 -10.843  10.357  1.00  0.00     0.135 A 
ATOM     90  F   UNL     1       4.721 -11.133  11.607  1.00  0.00    -0.206 F 
ATOM     91  C   UNL     1       2.962 -12.686  11.639  1.00  0.00     0.059 A 
ATOM     92  C   UNL     1       0.802 -12.088  10.710  1.00  0.00     0.059 A 
ATOM     93  F   UNL     1       0.496  -9.978   9.740  1.00  0.00    -0.206 F 
ATOM     94  C   UNL     1       1.638 -13.010  11.335  1.00  0.00     0.060 A 
BRANCH  94  95
ATOM     95  S   UNL     1       1.019 -14.646  11.784  1.00  0.00     0.124 S 
ATOM     96  O   UNL     1       1.696 -15.494  10.809  1.00  0.00    -0.237 OA
ATOM     97  O   UNL     1       1.470 -14.782  13.165  1.00  0.00    -0.237 OA
ATOM     98  O   UNL     1      -0.426 -14.523  11.612  1.00  0.00    -0.744 OA
ENDBRANCH  94  95
ENDBRANCH  62  87
ENDBRANCH  36  37
ENDBRANCH  29  31
ENDBRANCH  28  29
ENDBRANCH  27  28
ENDBRANCH  26  27
ENDBRANCH  25  26
ENDBRANCH  24  25
ENDBRANCH   1  24
TORSDOF 25
