REMARK SMILES O=C(OCCOCCOCCOC(=O)[C@@H]1C[C@@H]2CC[C@H]1N2c1ncnc2c1CCCCC2)c1ccc(-c2c3nc(c(-c4c(F)cc(S(=O)(=O)[O-])cc4F)c4ccc([nH]4)c(-c4c(F)cc(S(=O)(=O)[O-])cc4F)c4nc(c(-c5c(F)cc(S(=O)(=O)[O-])cc5F)c5ccc2[nH]5)C=C4)C=C3)cc1
REMARK SMILES IDX 8 1 7 2 6 3 5 4 4 5 3 6 2 7 1 8 33 9 34 10 98 11 35 12 97 13
REMARK SMILES IDX 36 14 37 15 38 16 91 17 39 18 96 19 90 20 92 21 40 22 95 23
REMARK SMILES IDX 89 24 88 25 41 27 75 28 54 29 74 30 55 31 58 32 73 33 93 34
REMARK SMILES IDX 56 35 57 36 72 38 94 39 59 40 42 41 43 42 52 43 44 44 45 45
REMARK SMILES IDX 51 46 53 47 46 48 47 49 48 50 49 51 50 52 76 53 77 54 86 55
REMARK SMILES IDX 78 56 79 57 85 58 87 59 80 60 81 61 82 62 83 63 84 64 60 65
REMARK SMILES IDX 61 66 70 67 62 68 63 69 69 70 71 71 64 72 65 73 66 74 67 75
REMARK SMILES IDX 68 76 9 77 10 78 11 79 12 80 13 81 14 82 15 83 16 84 20 85
REMARK SMILES IDX 17 86 19 87 21 88 18 89 22 90 23 91 27 92 24 93 26 94 25 95
REMARK SMILES IDX 28 96 29 97 30 98 32 100 31 101
REMARK H PARENT 92 26 58 37
REMARK Flexibility Score: 90.00
ROOT
ATOM      1  C   UNL     1       1.740   1.317  -2.616  1.00  0.00     0.188 C 
ENDROOT
BRANCH   1   2
ATOM      2  C   UNL     1       2.490   0.223  -1.856  1.00  0.00     0.188 C 
BRANCH   2   3
ATOM      3  O   UNL     1       3.871   0.524  -1.626  1.00  0.00    -0.376 OA
BRANCH   3   4
ATOM      4  C   UNL     1       4.738  -0.594  -1.866  1.00  0.00     0.202 C 
BRANCH   4   5
ATOM      5  C   UNL     1       4.772  -1.652  -0.752  1.00  0.00     0.261 C 
BRANCH   5   6
ATOM      6  O   UNL     1       3.519  -1.783  -0.073  1.00  0.00    -0.460 OA
BRANCH   6   7
ATOM      7  C   UNL     1       3.123  -1.133   1.047  1.00  0.00     0.338 C 
ATOM      8  O   UNL     1       2.007  -1.399   1.497  1.00  0.00    -0.246 OA
BRANCH   7   9
ATOM      9  C   UNL     1       3.941  -0.101   1.771  1.00  0.00     0.060 A 
ATOM     10  C   UNL     1       4.975   0.688   1.251  1.00  0.00     0.016 A 
ATOM     11  C   UNL     1       3.569   0.141   3.096  1.00  0.00     0.016 A 
ATOM     12  C   UNL     1       5.596   1.707   1.998  1.00  0.00     0.010 A 
ATOM     13  C   UNL     1       4.201   1.139   3.846  1.00  0.00     0.010 A 
ATOM     14  C   UNL     1       5.187   1.983   3.297  1.00  0.00    -0.014 A 
BRANCH  14  15
ATOM     15  C   UNL     1       5.935   3.008   4.102  1.00  0.00     0.031 A 
ATOM     16  C   UNL     1       6.781   2.487   5.198  1.00  0.00     0.074 A 
ATOM     17  C   UNL     1       5.785   4.354   4.028  1.00  0.00     0.049 A 
ATOM     18  N   UNL     1       7.384   3.171   6.122  1.00  0.00    -0.248 NA
ATOM     19  C   UNL     1       6.832   1.027   5.366  1.00  0.00     0.031 C 
ATOM     20  C   UNL     1       4.684   4.972   3.345  1.00  0.00     0.029 A 
ATOM     21  N   UNL     1       6.419   5.452   4.577  1.00  0.00    -0.354 N 
ATOM     22  C   UNL     1       7.832   2.228   7.016  1.00  0.00     0.074 A 
ATOM     23  C   UNL     1       7.357   0.936   6.574  1.00  0.00     0.031 C 
ATOM     24  C   UNL     1       4.724   6.305   3.435  1.00  0.00     0.029 A 
ATOM     25  C   UNL     1       5.900   6.676   4.161  1.00  0.00     0.049 A 
ATOM     26  H   UNL     1       7.172   5.376   5.206  1.00  0.00     0.167 HD
ATOM     27  C   UNL     1       8.618   2.435   8.086  1.00  0.00     0.037 A 
ATOM     28  C   UNL     1       6.290   7.956   4.336  1.00  0.00     0.037 A 
ATOM     29  C   UNL     1       9.117   3.724   8.459  1.00  0.00     0.049 A 
ATOM     30  C   UNL     1       7.354   8.139   5.363  1.00  0.00     0.074 A 
ATOM     31  C   UNL     1      10.019   4.027   9.457  1.00  0.00     0.029 A 
ATOM     32  N   UNL     1       8.772   4.922   7.840  1.00  0.00    -0.354 N 
ATOM     33  N   UNL     1       7.906   7.206   6.098  1.00  0.00    -0.248 NA
ATOM     34  C   UNL     1       7.794   9.504   5.666  1.00  0.00     0.031 C 
ATOM     35  C   UNL     1      10.220   5.408   9.447  1.00  0.00     0.029 A 
ATOM     36  C   UNL     1       9.467   5.966   8.423  1.00  0.00     0.049 A 
ATOM     37  H   UNL     1       8.130   5.012   7.099  1.00  0.00     0.167 HD
ATOM     38  C   UNL     1       8.712   7.870   6.995  1.00  0.00     0.074 A 
ATOM     39  C   UNL     1       8.648   9.280   6.657  1.00  0.00     0.031 C 
ATOM     40  C   UNL     1       9.393   7.354   8.040  1.00  0.00     0.037 A 
BRANCH  27  41
ATOM     41  C   UNL     1       9.019   1.214   8.837  1.00  0.00     0.058 A 
ATOM     42  C   UNL     1       9.872   0.264   8.249  1.00  0.00     0.135 A 
ATOM     43  C   UNL     1       8.508   0.955  10.114  1.00  0.00     0.135 A 
ATOM     44  F   UNL     1      10.334   0.445   7.000  1.00  0.00    -0.206 F 
ATOM     45  C   UNL     1      10.190  -0.916   8.898  1.00  0.00     0.059 A 
ATOM     46  C   UNL     1       8.844  -0.206  10.798  1.00  0.00     0.059 A 
ATOM     47  F   UNL     1       7.657   1.817  10.692  1.00  0.00    -0.206 F 
ATOM     48  C   UNL     1       9.681  -1.136  10.178  1.00  0.00     0.060 A 
BRANCH  48  49
ATOM     49  S   UNL     1      10.159  -2.650  11.026  1.00  0.00     0.124 S 
ATOM     50  O   UNL     1       9.421  -3.655  10.268  1.00  0.00    -0.237 OA
ATOM     51  O   UNL     1      11.610  -2.657  10.838  1.00  0.00    -0.237 OA
ATOM     52  O   UNL     1       9.707  -2.432  12.393  1.00  0.00    -0.744 OA
ENDBRANCH  48  49
ENDBRANCH  27  41
BRANCH  28  53
ATOM     53  C   UNL     1       5.726   9.129   3.577  1.00  0.00     0.058 A 
ATOM     54  C   UNL     1       6.558   9.866   2.709  1.00  0.00     0.135 A 
ATOM     55  C   UNL     1       4.400   9.579   3.695  1.00  0.00     0.135 A 
ATOM     56  F   UNL     1       7.840   9.502   2.546  1.00  0.00    -0.206 F 
ATOM     57  C   UNL     1       6.117  11.003   2.028  1.00  0.00     0.059 A 
ATOM     58  C   UNL     1       3.922  10.693   2.993  1.00  0.00     0.059 A 
ATOM     59  F   UNL     1       3.542   8.939   4.504  1.00  0.00    -0.206 F 
ATOM     60  C   UNL     1       4.794  11.414   2.178  1.00  0.00     0.060 A 
BRANCH  60  61
ATOM     61  S   UNL     1       4.236  12.892   1.293  1.00  0.00     0.124 S 
ATOM     62  O   UNL     1       4.890  13.954   2.049  1.00  0.00    -0.237 OA
ATOM     63  O   UNL     1       4.752  12.661  -0.053  1.00  0.00    -0.237 OA
ATOM     64  O   UNL     1       2.783  12.832   1.418  1.00  0.00    -0.744 OA
ENDBRANCH  60  61
ENDBRANCH  28  53
BRANCH  40  65
ATOM     65  C   UNL     1      10.138   8.328   8.882  1.00  0.00     0.058 A 
ATOM     66  C   UNL     1       9.472   9.120   9.828  1.00  0.00     0.135 A 
ATOM     67  C   UNL     1      11.535   8.387   8.810  1.00  0.00     0.135 A 
ATOM     68  F   UNL     1       8.132   9.104   9.904  1.00  0.00    -0.206 F 
ATOM     69  C   UNL     1      10.179   9.932  10.699  1.00  0.00     0.059 A 
ATOM     70  C   UNL     1      12.263   9.172   9.690  1.00  0.00     0.059 A 
ATOM     71  F   UNL     1      12.199   7.643   7.911  1.00  0.00    -0.206 F 
ATOM     72  C   UNL     1      11.575   9.935  10.633  1.00  0.00     0.060 A 
BRANCH  72  73
ATOM     73  S   UNL     1      12.484  10.912  11.843  1.00  0.00     0.124 S 
ATOM     74  O   UNL     1      12.195  12.271  11.399  1.00  0.00    -0.237 OA
ATOM     75  O   UNL     1      11.860  10.505  13.098  1.00  0.00    -0.237 OA
ATOM     76  O   UNL     1      13.865  10.472  11.664  1.00  0.00    -0.744 OA
ENDBRANCH  72  73
ENDBRANCH  40  65
ENDBRANCH  14  15
ENDBRANCH   7   9
ENDBRANCH   6   7
ENDBRANCH   5   6
ENDBRANCH   4   5
ENDBRANCH   3   4
ENDBRANCH   2   3
ENDBRANCH   1   2
BRANCH   1  77
ATOM     77  O   UNL     1       2.207   1.654  -3.920  1.00  0.00    -0.376 OA
BRANCH  77  78
ATOM     78  C   UNL     1       3.548   2.114  -4.047  1.00  0.00     0.202 C 
BRANCH  78  79
ATOM     79  C   UNL     1       3.918   3.465  -3.418  1.00  0.00     0.261 C 
BRANCH  79  80
ATOM     80  O   UNL     1       3.230   3.760  -2.197  1.00  0.00    -0.463 OA
BRANCH  80  81
ATOM     81  C   UNL     1       2.157   4.588  -2.222  1.00  0.00     0.311 C 
ATOM     82  O   UNL     1       1.727   5.095  -3.251  1.00  0.00    -0.252 OA
BRANCH  81  83
ATOM     83  C   UNL     1       1.575   4.912  -0.832  1.00  0.00     0.124 C 
ATOM     84  C   UNL     1       2.065   6.325  -0.458  1.00  0.00     0.042 C 
ATOM     85  C   UNL     1       1.935   4.067   0.456  1.00  0.00     0.098 C 
ATOM     86  C   UNL     1       2.877   6.043   0.803  1.00  0.00     0.085 C 
ATOM     87  C   UNL     1       3.425   3.715   0.446  1.00  0.00     0.028 C 
ATOM     88  N   UNL     1       2.018   5.083   1.528  1.00  0.00    -0.349 N 
ATOM     89  C   UNL     1       4.069   5.119   0.367  1.00  0.00     0.027 C 
BRANCH  88  90
ATOM     90  C   UNL     1       1.233   5.407   2.603  1.00  0.00     0.135 A 
ATOM     91  N   UNL     1       0.722   6.649   2.572  1.00  0.00    -0.219 NA
ATOM     92  C   UNL     1       1.048   4.632   3.784  1.00  0.00     0.016 A 
ATOM     93  C   UNL     1       0.033   7.087   3.640  1.00  0.00     0.224 A 
ATOM     94  C   UNL     1       0.240   5.162   4.816  1.00  0.00     0.049 A 
ATOM     95  N   UNL     1      -0.276   6.397   4.744  1.00  0.00    -0.241 NA
BRANCH  92  96
ATOM     96  C   UNL     1       1.813   3.385   4.154  1.00  0.00     0.041 C 
BRANCH  96  97
ATOM     97  C   UNL     1       2.713   3.659   5.393  1.00  0.00     0.005 C 
BRANCH  97  98
ATOM     98  C   UNL     1       2.102   3.273   6.728  1.00  0.00     0.001 CG0
ATOM     99  G   UNL     1       1.031   4.269   7.135  1.00  0.00     0.000 G0
ENDBRANCH  97  98
ENDBRANCH  96  97
ENDBRANCH  92  96
BRANCH  94 100
ATOM    100  C   UNL     1      -0.088   4.397   6.096  1.00  0.00     0.057 C 
BRANCH 100 101
ATOM    101  C   UNL     1       1.031   4.269   7.135  1.00  0.00     0.006 CG0
ATOM    102  G   UNL     1       2.102   3.273   6.728  1.00  0.00     0.000 G0
ENDBRANCH 100 101
ENDBRANCH  94 100
ENDBRANCH  88  90
ENDBRANCH  81  83
ENDBRANCH  80  81
ENDBRANCH  79  80
ENDBRANCH  78  79
ENDBRANCH  77  78
ENDBRANCH   1  77
TORSDOF 21
