REMARK SMILES O=C1C[C@@H](C(=O)Nc2cccc(C(=O)OCCOCCOCCOC(=O)c3ccc(-c4c5nc(c(-c6c(F)cc(S(=O)(=O)[O-])cc6F)c6ccc([nH]6)c(-c6c(F)cc(S(=O)(=O)[O-])cc6F)c6nc(c(-c7c(F)cc(S(=O)(=O)[O-])cc7F)c7ccc4[nH]7)C=C6)C=C5)cc3)c2)[C@H](c2ccccc2)O1
REMARK SMILES IDX 19 1 18 2 17 3 16 4 15 5 13 6 14 7 12 8 8 9 9 10 93 11 10 12
REMARK SMILES IDX 11 13 7 14 5 15 6 16 4 18 1 19 2 20 3 21 101 22 94 23 95 24
REMARK SMILES IDX 96 25 100 26 97 27 99 28 98 29 20 30 21 31 22 32 23 33 24 34
REMARK SMILES IDX 25 35 26 36 27 37 28 38 92 39 29 40 91 41 30 42 31 43 32 44
REMARK SMILES IDX 85 45 33 46 90 47 84 48 86 49 34 50 89 51 83 52 82 53 35 55
REMARK SMILES IDX 69 56 48 57 68 58 49 59 52 60 67 61 87 62 50 63 51 64 66 66
REMARK SMILES IDX 88 67 53 68 36 69 37 70 46 71 38 72 39 73 45 74 47 75 40 76
REMARK SMILES IDX 41 77 42 78 43 79 44 80 70 81 71 82 80 83 72 84 73 85 79 86
REMARK SMILES IDX 81 87 74 88 75 89 76 90 77 91 78 92 54 93 55 94 64 95 56 96
REMARK SMILES IDX 57 97 63 98 65 99 58 100 59 101 60 102 61 103 62 104
REMARK H PARENT 7 17 86 54 52 65
REMARK Flexibility Score: inf
ROOT
ATOM      1  C   UNL     1       7.205   3.231  -2.676  1.00  0.00     0.188 C 
ENDROOT
BRANCH   1   2
ATOM      2  O   UNL     1       6.777   4.077  -3.717  1.00  0.00    -0.376 OA
BRANCH   2   3
ATOM      3  C   UNL     1       5.614   3.782  -4.469  1.00  0.00     0.202 C 
BRANCH   3   4
ATOM      4  C   UNL     1       4.441   2.899  -4.003  1.00  0.00     0.261 C 
BRANCH   4   5
ATOM      5  O   UNL     1       4.534   2.284  -2.723  1.00  0.00    -0.460 OA
BRANCH   5   6
ATOM      6  C   UNL     1       5.032   1.021  -2.699  1.00  0.00     0.338 C 
ATOM      7  O   UNL     1       5.420   0.374  -3.649  1.00  0.00    -0.246 OA
BRANCH   6   8
ATOM      8  C   UNL     1       5.176   0.591  -1.284  1.00  0.00     0.062 A 
ATOM      9  C   UNL     1       4.257   0.476   0.948  1.00  0.00     0.042 A 
ATOM     10  C   UNL     1       5.332  -0.321   1.345  1.00  0.00     0.026 A 
ATOM     11  C   UNL     1       4.267   1.035  -0.322  1.00  0.00     0.041 A 
ATOM     12  C   UNL     1       6.311  -0.689   0.414  1.00  0.00     0.003 A 
ATOM     13  C   UNL     1       6.205  -0.275  -0.916  1.00  0.00     0.016 A 
BRANCH   9  14
ATOM     14  N   UNL     1       3.180   0.653   1.827  1.00  0.00    -0.326 N 
ATOM     15  C   UNL     1       1.841   0.797   1.556  1.00  0.00     0.232 C 
ATOM     16  O   UNL     1       1.087   1.031   2.505  1.00  0.00    -0.274 OA
ATOM     17  H   UNL     1       3.419   0.678   2.782  1.00  0.00     0.169 HD
BRANCH  15  18
ATOM     18  C   UNL     1       1.276   0.529   0.156  1.00  0.00     0.135 C 
ATOM     19  O   UNL     1      -2.218  -0.014   0.284  1.00  0.00    -0.252 OA
ATOM     20  C   UNL     1      -1.001  -0.068   0.201  1.00  0.00     0.307 C 
ATOM     21  C   UNL     1      -0.111   1.109  -0.015  1.00  0.00     0.140 C 
ATOM     22  O   UNL     1      -0.291  -1.229   0.203  1.00  0.00    -0.457 OA
ATOM     23  C   UNL     1       1.091  -0.968  -0.068  1.00  0.00     0.220 C 
BRANCH  23  24
ATOM     24  C   UNL     1       1.465  -1.424  -1.475  1.00  0.00    -0.007 A 
ATOM     25  C   UNL     1       0.524  -1.582  -2.503  1.00  0.00     0.007 A 
ATOM     26  C   UNL     1       2.809  -1.685  -1.780  1.00  0.00     0.007 A 
ATOM     27  C   UNL     1       0.926  -1.932  -3.798  1.00  0.00     0.000 A 
ATOM     28  C   UNL     1       3.217  -1.996  -3.079  1.00  0.00     0.000 A 
ATOM     29  C   UNL     1       2.275  -2.111  -4.092  1.00  0.00     0.000 A 
ENDBRANCH  23  24
ENDBRANCH  15  18
ENDBRANCH   9  14
ENDBRANCH   6   8
ENDBRANCH   5   6
ENDBRANCH   4   5
ENDBRANCH   3   4
ENDBRANCH   2   3
ENDBRANCH   1   2
BRANCH   1  30
ATOM     30  C   UNL     1       6.689   3.640  -1.279  1.00  0.00     0.188 C 
BRANCH  30  31
ATOM     31  O   UNL     1       5.786   4.723  -1.151  1.00  0.00    -0.376 OA
BRANCH  31  32
ATOM     32  C   UNL     1       6.145   5.968  -1.734  1.00  0.00     0.202 C 
BRANCH  32  33
ATOM     33  C   UNL     1       7.583   6.529  -1.658  1.00  0.00     0.261 C 
BRANCH  33  34
ATOM     34  O   UNL     1       8.670   5.599  -1.808  1.00  0.00    -0.460 OA
BRANCH  34  35
ATOM     35  C   UNL     1       9.350   5.286  -0.674  1.00  0.00     0.338 C 
ATOM     36  O   UNL     1       9.142   5.718   0.447  1.00  0.00    -0.246 OA
BRANCH  35  37
ATOM     37  C   UNL     1      10.273   4.159  -0.946  1.00  0.00     0.060 A 
ATOM     38  C   UNL     1      10.052   2.921  -0.317  1.00  0.00     0.016 A 
ATOM     39  C   UNL     1      11.371   4.331  -1.786  1.00  0.00     0.016 A 
ATOM     40  C   UNL     1      10.936   1.857  -0.515  1.00  0.00     0.010 A 
ATOM     41  C   UNL     1      12.274   3.276  -1.956  1.00  0.00     0.010 A 
ATOM     42  C   UNL     1      12.077   2.043  -1.302  1.00  0.00    -0.014 A 
BRANCH  42  43
ATOM     43  C   UNL     1      13.175   1.042  -1.298  1.00  0.00     0.031 A 
ATOM     44  C   UNL     1      14.365   1.304  -0.413  1.00  0.00     0.074 A 
ATOM     45  C   UNL     1      13.146  -0.044  -2.092  1.00  0.00     0.049 A 
ATOM     46  N   UNL     1      15.515   0.687  -0.366  1.00  0.00    -0.248 NA
ATOM     47  C   UNL     1      14.242   2.420   0.541  1.00  0.00     0.031 C 
ATOM     48  C   UNL     1      12.032  -0.435  -2.954  1.00  0.00     0.029 A 
ATOM     49  N   UNL     1      14.103  -1.003  -2.326  1.00  0.00    -0.354 N 
ATOM     50  C   UNL     1      16.267   1.361   0.589  1.00  0.00     0.074 A 
ATOM     51  C   UNL     1      15.442   2.432   1.102  1.00  0.00     0.031 C 
ATOM     52  C   UNL     1      12.385  -1.529  -3.654  1.00  0.00     0.029 A 
ATOM     53  C   UNL     1      13.764  -1.887  -3.326  1.00  0.00     0.049 A 
ATOM     54  H   UNL     1      14.950  -1.052  -1.827  1.00  0.00     0.167 HD
ATOM     55  C   UNL     1      17.534   1.114   0.991  1.00  0.00     0.037 A 
ATOM     56  C   UNL     1      14.500  -2.840  -3.938  1.00  0.00     0.037 A 
ATOM     57  C   UNL     1      18.340   0.033   0.489  1.00  0.00     0.049 A 
ATOM     58  C   UNL     1      15.934  -3.058  -3.508  1.00  0.00     0.074 A 
ATOM     59  C   UNL     1      19.618  -0.331   0.875  1.00  0.00     0.029 A 
ATOM     60  N   UNL     1      17.956  -0.846  -0.511  1.00  0.00    -0.354 N 
ATOM     61  N   UNL     1      16.619  -2.441  -2.574  1.00  0.00    -0.248 NA
ATOM     62  C   UNL     1      16.698  -4.098  -4.216  1.00  0.00     0.031 C 
ATOM     63  C   UNL     1      20.034  -1.386   0.061  1.00  0.00     0.029 A 
ATOM     64  C   UNL     1      18.986  -1.729  -0.779  1.00  0.00     0.049 A 
ATOM     65  H   UNL     1      17.081  -0.842  -0.963  1.00  0.00     0.167 HD
ATOM     66  C   UNL     1      17.872  -3.050  -2.554  1.00  0.00     0.074 A 
ATOM     67  C   UNL     1      17.854  -4.081  -3.567  1.00  0.00     0.031 C 
ATOM     68  C   UNL     1      18.939  -2.782  -1.762  1.00  0.00     0.037 A 
BRANCH  55  69
ATOM     69  C   UNL     1      18.160   2.037   1.997  1.00  0.00     0.058 A 
ATOM     70  C   UNL     1      17.797   2.020   3.351  1.00  0.00     0.135 A 
ATOM     71  C   UNL     1      19.217   2.879   1.610  1.00  0.00     0.135 A 
ATOM     72  F   UNL     1      16.781   1.250   3.771  1.00  0.00    -0.206 F 
ATOM     73  C   UNL     1      18.464   2.802   4.289  1.00  0.00     0.059 A 
ATOM     74  C   UNL     1      19.915   3.648   2.534  1.00  0.00     0.059 A 
ATOM     75  F   UNL     1      19.596   2.938   0.324  1.00  0.00    -0.206 F 
ATOM     76  C   UNL     1      19.530   3.603   3.873  1.00  0.00     0.060 A 
BRANCH  76  77
ATOM     77  S   UNL     1      20.425   4.560   5.114  1.00  0.00     0.124 S 
ATOM     78  O   UNL     1      19.435   5.572   5.472  1.00  0.00    -0.237 OA
ATOM     79  O   UNL     1      20.704   3.557   6.136  1.00  0.00    -0.237 OA
ATOM     80  O   UNL     1      21.591   5.054   4.389  1.00  0.00    -0.744 OA
ENDBRANCH  76  77
ENDBRANCH  55  69
BRANCH  56  81
ATOM     81  C   UNL     1      13.929  -3.637  -5.060  1.00  0.00     0.058 A 
ATOM     82  C   UNL     1      13.743  -5.024  -4.948  1.00  0.00     0.135 A 
ATOM     83  C   UNL     1      13.613  -3.038  -6.291  1.00  0.00     0.135 A 
ATOM     84  F   UNL     1      14.040  -5.649  -3.798  1.00  0.00    -0.206 F 
ATOM     85  C   UNL     1      13.306  -5.793  -6.023  1.00  0.00     0.059 A 
ATOM     86  C   UNL     1      13.141  -3.781  -7.370  1.00  0.00     0.059 A 
ATOM     87  F   UNL     1      13.761  -1.714  -6.453  1.00  0.00    -0.206 F 
ATOM     88  C   UNL     1      13.012  -5.162  -7.232  1.00  0.00     0.060 A 
BRANCH  88  89
ATOM     89  S   UNL     1      12.448  -6.168  -8.621  1.00  0.00     0.124 S 
ATOM     90  O   UNL     1      13.676  -6.858  -9.001  1.00  0.00    -0.237 OA
ATOM     91  O   UNL     1      11.417  -6.995  -8.001  1.00  0.00    -0.237 OA
ATOM     92  O   UNL     1      11.958  -5.178  -9.576  1.00  0.00    -0.744 OA
ENDBRANCH  88  89
ENDBRANCH  56  81
BRANCH  68  93
ATOM     93  C   UNL     1      20.159  -3.656  -1.884  1.00  0.00     0.058 A 
ATOM     94  C   UNL     1      21.038  -3.563  -2.973  1.00  0.00     0.135 A 
ATOM     95  C   UNL     1      20.509  -4.517  -0.830  1.00  0.00     0.135 A 
ATOM     96  F   UNL     1      20.749  -2.761  -4.010  1.00  0.00    -0.206 F 
ATOM     97  C   UNL     1      22.223  -4.293  -3.012  1.00  0.00     0.059 A 
ATOM     98  C   UNL     1      21.701  -5.233  -0.834  1.00  0.00     0.059 A 
ATOM     99  F   UNL     1      19.706  -4.635   0.240  1.00  0.00    -0.206 F 
ATOM    100  C   UNL     1      22.552  -5.116  -1.932  1.00  0.00     0.060 A 
BRANCH 100 101
ATOM    101  S   UNL     1      24.130  -5.993  -1.959  1.00  0.00     0.124 S 
ATOM    102  O   UNL     1      23.886  -7.006  -2.980  1.00  0.00    -0.237 OA
ATOM    103  O   UNL     1      25.066  -4.935  -2.326  1.00  0.00    -0.237 OA
ATOM    104  O   UNL     1      24.264  -6.496  -0.595  1.00  0.00    -0.744 OA
ENDBRANCH 100 101
ENDBRANCH  68  93
ENDBRANCH  42  43
ENDBRANCH  35  37
ENDBRANCH  34  35
ENDBRANCH  33  34
ENDBRANCH  32  33
ENDBRANCH  31  32
ENDBRANCH  30  31
ENDBRANCH   1  30
TORSDOF 23
