REMARK SMILES Cc1c(C(=O)OCCOCCOCCOC(=O)c2ccc(-c3c4nc(c(-c5c(F)cc(S(=O)(=O)[O-])cc5F)c5ccc([nH]5)c(-c5c(F)cc(S(=O)(=O)[O-])cc5F)c5nc(c(-c6c(F)cc(S(=O)(=O)[O-])cc6F)c6ccc3[nH]6)C=C5)C=C4)cc2)sc2c1=C(CSc1nncn1-c1ccccc1)CC(=O)N=2
REMARK SMILES IDX 10 1 9 2 8 3 7 4 6 5 4 6 5 7 3 8 1 9 2 10 86 11 84 12 85 13
REMARK SMILES IDX 87 14 104 15 101 16 102 17 103 18 88 19 89 20 90 21 91 22
REMARK SMILES IDX 94 23 92 24 93 25 95 26 96 27 100 28 97 29 99 30 98 31 11 32
REMARK SMILES IDX 12 33 13 34 14 35 15 36 16 37 17 38 18 39 19 40 83 41 20 42
REMARK SMILES IDX 82 43 21 44 22 45 23 46 76 47 24 48 81 49 75 50 77 51 25 52
REMARK SMILES IDX 80 53 74 54 73 55 26 57 60 58 39 59 59 60 40 61 43 62 58 63
REMARK SMILES IDX 78 64 41 65 42 66 57 68 79 69 44 70 27 71 28 72 37 73 29 74
REMARK SMILES IDX 30 75 36 76 38 77 31 78 32 79 33 80 34 81 35 82 61 83 62 84
REMARK SMILES IDX 71 85 63 86 64 87 70 88 72 89 65 90 66 91 67 92 68 93 69 94
REMARK SMILES IDX 45 95 46 96 55 97 47 98 48 99 54 100 56 101 49 102 50 103
REMARK SMILES IDX 51 104 52 105 53 106
REMARK H PARENT 77 56 43 67
REMARK Flexibility Score: inf
ROOT
ATOM      1  C   UNL     1       0.498  -2.499   4.373  1.00  0.00     0.188 C 
ENDROOT
BRANCH   1   2
ATOM      2  O   UNL     1      -0.050  -3.801   4.392  1.00  0.00    -0.376 OA
BRANCH   2   3
ATOM      3  C   UNL     1      -0.692  -4.323   3.243  1.00  0.00     0.202 C 
BRANCH   3   4
ATOM      4  C   UNL     1      -1.379  -3.453   2.167  1.00  0.00     0.261 C 
BRANCH   4   5
ATOM      5  O   UNL     1      -0.886  -2.118   1.983  1.00  0.00    -0.459 OA
BRANCH   5   6
ATOM      6  C   UNL     1      -1.745  -1.100   2.222  1.00  0.00     0.348 C 
ATOM      7  O   UNL     1      -2.928  -1.231   2.502  1.00  0.00    -0.245 OA
BRANCH   6   8
ATOM      8  C   UNL     1      -1.051   0.221   2.211  1.00  0.00     0.118 A 
ATOM      9  C   UNL     1       0.730   0.024   0.367  1.00  0.00     0.047 C 
ATOM     10  C   UNL     1      -0.096   0.721   1.401  1.00  0.00    -0.016 A 
ATOM     11  C   UNL     1       0.314   2.071   1.756  1.00  0.00     0.016 A 
ATOM     12  S   UNL     1      -1.440   1.290   3.555  1.00  0.00    -0.108 S 
ATOM     13  C   UNL     1      -0.276   2.503   3.060  1.00  0.00     0.128 A 
ATOM     14  C   UNL     1       0.484   3.202   1.040  1.00  0.00    -0.040 C 
ATOM     15  N   UNL     1      -0.100   3.600   3.707  1.00  0.00    -0.202 NA
ATOM     16  C   UNL     1       1.333   4.235   1.762  1.00  0.00     0.135 C 
ATOM     17  C   UNL     1       0.742   4.533   3.139  1.00  0.00     0.251 C 
ATOM     18  O   UNL     1       1.031   5.589   3.703  1.00  0.00    -0.272 OA
BRANCH  14  19
ATOM     19  C   UNL     1      -0.532   3.873   0.124  1.00  0.00     0.110 C 
BRANCH  19  20
ATOM     20  S   UNL     1      -1.862   2.857  -0.530  1.00  0.00    -0.081 SA
BRANCH  20  21
ATOM     21  C   UNL     1      -1.249   2.519  -2.114  1.00  0.00     0.195 A 
ATOM     22  N   UNL     1      -0.654   3.413  -2.873  1.00  0.00    -0.123 NA
ATOM     23  N   UNL     1      -1.107   1.256  -2.659  1.00  0.00    -0.277 N 
ATOM     24  N   UNL     1      -0.042   2.751  -3.901  1.00  0.00    -0.138 NA
ATOM     25  C   UNL     1      -0.289   1.471  -3.745  1.00  0.00     0.231 A 
BRANCH  23  26
ATOM     26  C   UNL     1      -1.581  -0.003  -2.203  1.00  0.00     0.049 A 
ATOM     27  C   UNL     1      -2.772  -0.106  -1.473  1.00  0.00     0.027 A 
ATOM     28  C   UNL     1      -0.811  -1.153  -2.431  1.00  0.00     0.027 A 
ATOM     29  C   UNL     1      -3.159  -1.331  -0.931  1.00  0.00     0.002 A 
ATOM     30  C   UNL     1      -1.195  -2.372  -1.869  1.00  0.00     0.002 A 
ATOM     31  C   UNL     1      -2.367  -2.459  -1.121  1.00  0.00     0.000 A 
ENDBRANCH  23  26
ENDBRANCH  20  21
ENDBRANCH  19  20
ENDBRANCH  14  19
ENDBRANCH   6   8
ENDBRANCH   5   6
ENDBRANCH   4   5
ENDBRANCH   3   4
ENDBRANCH   2   3
ENDBRANCH   1   2
BRANCH   1  32
ATOM     32  C   UNL     1       1.582  -2.142   3.332  1.00  0.00     0.188 C 
BRANCH  32  33
ATOM     33  O   UNL     1       1.635  -2.921   2.153  1.00  0.00    -0.376 OA
BRANCH  33  34
ATOM     34  C   UNL     1       2.426  -4.090   2.000  1.00  0.00     0.202 C 
BRANCH  34  35
ATOM     35  C   UNL     1       3.063  -4.910   3.121  1.00  0.00     0.261 C 
BRANCH  35  36
ATOM     36  O   UNL     1       2.866  -4.412   4.419  1.00  0.00    -0.460 OA
BRANCH  36  37
ATOM     37  C   UNL     1       3.795  -3.509   4.788  1.00  0.00     0.338 C 
ATOM     38  O   UNL     1       4.637  -2.988   4.077  1.00  0.00    -0.246 OA
BRANCH  37  39
ATOM     39  C   UNL     1       3.644  -3.264   6.221  1.00  0.00     0.060 A 
ATOM     40  C   UNL     1       4.437  -2.243   6.746  1.00  0.00     0.016 A 
ATOM     41  C   UNL     1       3.074  -4.274   7.009  1.00  0.00     0.016 A 
ATOM     42  C   UNL     1       4.934  -2.423   8.009  1.00  0.00     0.010 A 
ATOM     43  C   UNL     1       3.597  -4.470   8.256  1.00  0.00     0.010 A 
ATOM     44  C   UNL     1       4.604  -3.604   8.677  1.00  0.00    -0.014 A 
BRANCH  44  45
ATOM     45  C   UNL     1       5.413  -3.964   9.814  1.00  0.00     0.031 A 
ATOM     46  C   UNL     1       4.993  -3.313  11.064  1.00  0.00     0.074 A 
ATOM     47  C   UNL     1       6.375  -4.896   9.695  1.00  0.00     0.049 A 
ATOM     48  N   UNL     1       5.657  -2.486  11.798  1.00  0.00    -0.248 NA
ATOM     49  C   UNL     1       3.585  -3.483  11.457  1.00  0.00     0.031 C 
ATOM     50  C   UNL     1       6.618  -5.791   8.555  1.00  0.00     0.029 A 
ATOM     51  N   UNL     1       7.255  -5.340  10.628  1.00  0.00    -0.354 N 
ATOM     52  C   UNL     1       4.822  -2.216  12.875  1.00  0.00     0.074 A 
ATOM     53  C   UNL     1       3.508  -2.666  12.504  1.00  0.00     0.031 C 
ATOM     54  C   UNL     1       7.406  -6.811   8.960  1.00  0.00     0.029 A 
ATOM     55  C   UNL     1       7.798  -6.583  10.342  1.00  0.00     0.049 A 
ATOM     56  H   UNL     1       7.486  -4.825  11.435  1.00  0.00     0.167 HD
ATOM     57  C   UNL     1       5.328  -1.919  14.100  1.00  0.00     0.037 A 
ATOM     58  C   UNL     1       8.409  -7.407  11.229  1.00  0.00     0.037 A 
ATOM     59  C   UNL     1       6.691  -1.460  14.011  1.00  0.00     0.049 A 
ATOM     60  C   UNL     1       8.794  -6.583  12.409  1.00  0.00     0.074 A 
ATOM     61  C   UNL     1       7.316  -0.422  13.347  1.00  0.00     0.029 A 
ATOM     62  N   UNL     1       7.690  -2.324  14.390  1.00  0.00    -0.354 N 
ATOM     63  N   UNL     1       9.699  -5.642  12.390  1.00  0.00    -0.248 NA
ATOM     64  C   UNL     1       7.862  -6.517  13.527  1.00  0.00     0.031 C 
ATOM     65  C   UNL     1       8.597  -0.925  12.980  1.00  0.00     0.029 A 
ATOM     66  C   UNL     1       8.697  -2.231  13.463  1.00  0.00     0.049 A 
ATOM     67  H   UNL     1       7.684  -2.906  15.184  1.00  0.00     0.167 HD
ATOM     68  C   UNL     1       9.214  -4.655  13.238  1.00  0.00     0.074 A 
ATOM     69  C   UNL     1       8.142  -5.296  13.990  1.00  0.00     0.031 C 
ATOM     70  C   UNL     1       9.534  -3.340  13.054  1.00  0.00     0.037 A 
BRANCH  57  71
ATOM     71  C   UNL     1       4.708  -2.422  15.381  1.00  0.00     0.058 A 
ATOM     72  C   UNL     1       5.193  -1.935  16.609  1.00  0.00     0.135 A 
ATOM     73  C   UNL     1       3.868  -3.558  15.463  1.00  0.00     0.135 A 
ATOM     74  F   UNL     1       6.000  -0.863  16.648  1.00  0.00    -0.206 F 
ATOM     75  C   UNL     1       4.939  -2.584  17.817  1.00  0.00     0.059 A 
ATOM     76  C   UNL     1       3.550  -4.180  16.661  1.00  0.00     0.059 A 
ATOM     77  F   UNL     1       3.397  -4.193  14.384  1.00  0.00    -0.206 F 
ATOM     78  C   UNL     1       4.136  -3.721  17.826  1.00  0.00     0.060 A 
BRANCH  78  79
ATOM     79  S   UNL     1       3.937  -4.660  19.346  1.00  0.00     0.124 S 
ATOM     80  O   UNL     1       5.253  -5.275  19.474  1.00  0.00    -0.237 OA
ATOM     81  O   UNL     1       3.619  -3.614  20.312  1.00  0.00    -0.237 OA
ATOM     82  O   UNL     1       2.840  -5.572  19.035  1.00  0.00    -0.744 OA
ENDBRANCH  78  79
ENDBRANCH  57  71
BRANCH  58  83
ATOM     83  C   UNL     1       8.348  -8.893  11.261  1.00  0.00     0.058 A 
ATOM     84  C   UNL     1       9.223  -9.638  12.070  1.00  0.00     0.135 A 
ATOM     85  C   UNL     1       7.273  -9.608  10.691  1.00  0.00     0.135 A 
ATOM     86  F   UNL     1      10.254  -9.035  12.681  1.00  0.00    -0.206 F 
ATOM     87  C   UNL     1       9.027 -11.001  12.322  1.00  0.00     0.059 A 
ATOM     88  C   UNL     1       7.071 -10.969  10.909  1.00  0.00     0.059 A 
ATOM     89  F   UNL     1       6.325  -8.990   9.972  1.00  0.00    -0.206 F 
ATOM     90  C   UNL     1       7.939 -11.655  11.745  1.00  0.00     0.060 A 
BRANCH  90  91
ATOM     91  S   UNL     1       7.594 -13.374  12.184  1.00  0.00     0.124 S 
ATOM     92  O   UNL     1       8.700 -14.077  11.543  1.00  0.00    -0.237 OA
ATOM     93  O   UNL     1       7.622 -13.332  13.641  1.00  0.00    -0.237 OA
ATOM     94  O   UNL     1       6.278 -13.616  11.596  1.00  0.00    -0.744 OA
ENDBRANCH  90  91
ENDBRANCH  58  83
BRANCH  70  95
ATOM     95  C   UNL     1      10.686  -3.010  12.140  1.00  0.00     0.058 A 
ATOM     96  C   UNL     1      10.688  -3.257  10.757  1.00  0.00     0.135 A 
ATOM     97  C   UNL     1      11.757  -2.267  12.660  1.00  0.00     0.135 A 
ATOM     98  F   UNL     1       9.650  -3.865  10.165  1.00  0.00    -0.206 F 
ATOM     99  C   UNL     1      11.726  -2.819   9.934  1.00  0.00     0.059 A 
ATOM    100  C   UNL     1      12.788  -1.793  11.853  1.00  0.00     0.059 A 
ATOM    101  F   UNL     1      11.780  -1.942  13.964  1.00  0.00    -0.206 F 
ATOM    102  C   UNL     1      12.771  -2.082  10.490  1.00  0.00     0.060 A 
BRANCH 102 103
ATOM    103  S   UNL     1      14.059  -1.427   9.406  1.00  0.00     0.124 S 
ATOM    104  O   UNL     1      14.841  -2.620   9.103  1.00  0.00    -0.237 OA
ATOM    105  O   UNL     1      13.289  -0.875   8.294  1.00  0.00    -0.237 OA
ATOM    106  O   UNL     1      14.732  -0.432  10.238  1.00  0.00    -0.744 OA
ENDBRANCH 102 103
ENDBRANCH  70  95
ENDBRANCH  44  45
ENDBRANCH  37  39
ENDBRANCH  36  37
ENDBRANCH  35  36
ENDBRANCH  34  35
ENDBRANCH  33  34
ENDBRANCH  32  33
ENDBRANCH   1  32
TORSDOF 24
