REMARK SMILES COc1ccc(-c2sc(N)nc2C(=O)OCCOCCOCCOC(=O)c2ccc(-c3c4nc(c(-c5c(F)cc(S(=O)(=O)[O-])cc5F)c5ccc([nH]5)c(-c5c(F)cc(S(=O)(=O)[O-])cc5F)c5nc(c(-c6c(F)cc(S(=O)(=O)[O-])cc6F)c6ccc3[nH]6)C=C5)C=C4)cc2)cc1OC
REMARK SMILES IDX 20 1 19 2 18 3 17 4 16 5 15 6 13 7 14 8 12 9 7 10 8 11 9 12
REMARK SMILES IDX 11 13 6 14 3 15 4 16 94 17 5 18 93 19 2 20 1 21 95 22 96 23
REMARK SMILES IDX 10 24 21 27 22 28 23 29 24 30 25 31 26 32 27 33 28 34 92 35
REMARK SMILES IDX 29 36 91 37 30 38 31 39 32 40 85 41 33 42 90 43 84 44 86 45
REMARK SMILES IDX 34 46 89 47 83 48 82 49 35 51 69 52 48 53 68 54 49 55 52 56
REMARK SMILES IDX 67 57 87 58 50 59 51 60 66 62 88 63 53 64 36 65 37 66 46 67
REMARK SMILES IDX 38 68 39 69 45 70 47 71 40 72 41 73 42 74 43 75 44 76 70 77
REMARK SMILES IDX 71 78 80 79 72 80 73 81 79 82 81 83 74 84 75 85 76 86 77 87
REMARK SMILES IDX 78 88 54 89 55 90 64 91 56 92 57 93 63 94 65 95 58 96 59 97
REMARK SMILES IDX 60 98 61 99 62 100
REMARK H PARENT 10 25 10 26 86 50 52 61
REMARK Flexibility Score: inf
ROOT
ATOM      1  C   UNL     1       5.710  -3.057   4.559  1.00  0.00     0.188 C 
ENDROOT
BRANCH   1   2
ATOM      2  C   UNL     1       5.426  -1.578   4.861  1.00  0.00     0.188 C 
BRANCH   2   3
ATOM      3  O   UNL     1       6.013  -1.172   6.101  1.00  0.00    -0.376 OA
BRANCH   3   4
ATOM      4  C   UNL     1       5.074  -0.608   7.018  1.00  0.00     0.202 C 
BRANCH   4   5
ATOM      5  C   UNL     1       4.618  -1.655   8.039  1.00  0.00     0.261 C 
BRANCH   5   6
ATOM      6  O   UNL     1       3.996  -2.807   7.446  1.00  0.00    -0.458 OA
BRANCH   6   7
ATOM      7  C   UNL     1       2.753  -2.624   6.915  1.00  0.00     0.358 C 
ATOM      8  O   UNL     1       2.139  -1.565   6.976  1.00  0.00    -0.244 OA
BRANCH   7   9
ATOM      9  C   UNL     1       2.287  -3.814   6.197  1.00  0.00     0.169 A 
ATOM     10  C   UNL     1       1.550  -3.780   5.018  1.00  0.00     0.071 A 
ATOM     11  S   UNL     1       1.273  -5.373   4.459  1.00  0.00    -0.096 S 
ATOM     12  C   UNL     1       2.214  -5.989   5.756  1.00  0.00     0.181 A 
ATOM     13  N   UNL     1       2.665  -5.098   6.599  1.00  0.00    -0.213 NA
BRANCH  10  14
ATOM     14  C   UNL     1       1.213  -2.618   4.200  1.00  0.00    -0.002 A 
ATOM     15  C   UNL     1       0.971  -0.072   3.038  1.00  0.00     0.160 A 
ATOM     16  C   UNL     1      -0.092  -0.633   3.767  1.00  0.00     0.051 A 
ATOM     17  C   UNL     1       2.147  -0.798   2.853  1.00  0.00     0.161 A 
ATOM     18  C   UNL     1       0.031  -1.899   4.359  1.00  0.00     0.014 A 
ATOM     19  C   UNL     1       2.219  -2.090   3.384  1.00  0.00     0.060 A 
BRANCH  15  20
ATOM     20  O   UNL     1       0.862   1.238   2.660  1.00  0.00    -0.493 OA
ATOM     21  C   UNL     1       0.231   1.364   1.387  1.00  0.00     0.278 C 
ENDBRANCH  15  20
BRANCH  17  22
ATOM     22  O   UNL     1       3.321  -0.422   2.267  1.00  0.00    -0.493 OA
ATOM     23  C   UNL     1       3.447   0.884   1.733  1.00  0.00     0.278 C 
ENDBRANCH  17  22
ENDBRANCH  10  14
BRANCH  12  24
ATOM     24  N   UNL     1       2.489  -7.292   5.875  1.00  0.00    -0.375 N 
ATOM     25  H   UNL     1       2.130  -7.933   5.219  1.00  0.00     0.159 HD
ATOM     26  H   UNL     1       3.050  -7.611   6.618  1.00  0.00     0.159 HD
ENDBRANCH  12  24
ENDBRANCH   7   9
ENDBRANCH   6   7
ENDBRANCH   5   6
ENDBRANCH   4   5
ENDBRANCH   3   4
ENDBRANCH   2   3
ENDBRANCH   1   2
BRANCH   1  27
ATOM     27  O   UNL     1       7.065  -3.496   4.463  1.00  0.00    -0.376 OA
BRANCH  27  28
ATOM     28  C   UNL     1       8.047  -2.534   4.119  1.00  0.00     0.202 C 
BRANCH  28  29
ATOM     29  C   UNL     1       8.126  -2.112   2.647  1.00  0.00     0.261 C 
BRANCH  29  30
ATOM     30  O   UNL     1       6.867  -2.006   1.970  1.00  0.00    -0.460 OA
BRANCH  30  31
ATOM     31  C   UNL     1       6.491  -3.115   1.279  1.00  0.00     0.338 C 
ATOM     32  O   UNL     1       7.072  -4.186   1.239  1.00  0.00    -0.246 OA
BRANCH  31  33
ATOM     33  C   UNL     1       5.206  -2.860   0.590  1.00  0.00     0.060 A 
ATOM     34  C   UNL     1       4.205  -3.840   0.621  1.00  0.00     0.016 A 
ATOM     35  C   UNL     1       5.010  -1.685  -0.136  1.00  0.00     0.016 A 
ATOM     36  C   UNL     1       3.000  -3.643  -0.072  1.00  0.00     0.010 A 
ATOM     37  C   UNL     1       3.807  -1.489  -0.821  1.00  0.00     0.010 A 
ATOM     38  C   UNL     1       2.796  -2.471  -0.811  1.00  0.00    -0.014 A 
BRANCH  38  39
ATOM     39  C   UNL     1       1.621  -2.283  -1.708  1.00  0.00     0.031 A 
ATOM     40  C   UNL     1       1.842  -2.341  -3.196  1.00  0.00     0.074 A 
ATOM     41  C   UNL     1       0.390  -1.988  -1.245  1.00  0.00     0.049 A 
ATOM     42  N   UNL     1       1.018  -2.043  -4.166  1.00  0.00    -0.248 NA
ATOM     43  C   UNL     1       3.162  -2.813  -3.646  1.00  0.00     0.031 C 
ATOM     44  C   UNL     1      -0.019  -1.975   0.154  1.00  0.00     0.029 A 
ATOM     45  N   UNL     1      -0.733  -1.561  -1.918  1.00  0.00    -0.354 N 
ATOM     46  C   UNL     1       1.691  -2.364  -5.337  1.00  0.00     0.074 A 
ATOM     47  C   UNL     1       3.032  -2.758  -4.962  1.00  0.00     0.031 C 
ATOM     48  C   UNL     1      -1.247  -1.431   0.250  1.00  0.00     0.029 A 
ATOM     49  C   UNL     1      -1.708  -1.062  -1.083  1.00  0.00     0.049 A 
ATOM     50  H   UNL     1      -0.829  -1.607  -2.897  1.00  0.00     0.167 HD
ATOM     51  C   UNL     1       1.214  -2.405  -6.603  1.00  0.00     0.037 A 
ATOM     52  C   UNL     1      -2.816  -0.347  -1.362  1.00  0.00     0.037 A 
ATOM     53  C   UNL     1      -0.112  -2.007  -6.987  1.00  0.00     0.049 A 
ATOM     54  C   UNL     1      -3.234  -0.148  -2.791  1.00  0.00     0.074 A 
ATOM     55  C   UNL     1      -0.709  -2.078  -8.234  1.00  0.00     0.029 A 
ATOM     56  N   UNL     1      -1.044  -1.446  -6.130  1.00  0.00    -0.354 N 
ATOM     57  N   UNL     1      -2.618  -0.518  -3.885  1.00  0.00    -0.248 NA
ATOM     58  C   UNL     1      -4.531   0.506  -3.018  1.00  0.00     0.031 C 
ATOM     59  C   UNL     1      -1.992  -1.528  -8.137  1.00  0.00     0.029 A 
ATOM     60  C   UNL     1      -2.203  -1.144  -6.823  1.00  0.00     0.049 A 
ATOM     61  H   UNL     1      -0.902  -1.285  -5.169  1.00  0.00     0.167 HD
ATOM     62  C   UNL     1      -3.497  -0.233  -4.923  1.00  0.00     0.074 A 
ATOM     63  C   UNL     1      -4.655   0.404  -4.335  1.00  0.00     0.031 C 
ATOM     64  C   UNL     1      -3.369  -0.532  -6.238  1.00  0.00     0.037 A 
BRANCH  51  65
ATOM     65  C   UNL     1       2.127  -2.971  -7.648  1.00  0.00     0.058 A 
ATOM     66  C   UNL     1       2.405  -4.348  -7.681  1.00  0.00     0.135 A 
ATOM     67  C   UNL     1       2.719  -2.154  -8.621  1.00  0.00     0.135 A 
ATOM     68  F   UNL     1       1.873  -5.168  -6.760  1.00  0.00    -0.206 F 
ATOM     69  C   UNL     1       3.267  -4.891  -8.623  1.00  0.00     0.059 A 
ATOM     70  C   UNL     1       3.569  -2.681  -9.589  1.00  0.00     0.059 A 
ATOM     71  F   UNL     1       2.485  -0.832  -8.629  1.00  0.00    -0.206 F 
ATOM     72  C   UNL     1       3.849  -4.048  -9.570  1.00  0.00     0.060 A 
BRANCH  72  73
ATOM     73  S   UNL     1       4.979  -4.768 -10.779  1.00  0.00     0.124 S 
ATOM     74  O   UNL     1       6.170  -4.992  -9.964  1.00  0.00    -0.237 OA
ATOM     75  O   UNL     1       4.265  -5.969 -11.199  1.00  0.00    -0.237 OA
ATOM     76  O   UNL     1       5.098  -3.726 -11.793  1.00  0.00    -0.744 OA
ENDBRANCH  72  73
ENDBRANCH  51  65
BRANCH  52  77
ATOM     77  C   UNL     1      -3.622   0.273  -0.282  1.00  0.00     0.058 A 
ATOM     78  C   UNL     1      -4.753  -0.358   0.249  1.00  0.00     0.135 A 
ATOM     79  C   UNL     1      -3.317   1.567   0.168  1.00  0.00     0.135 A 
ATOM     80  F   UNL     1      -5.099  -1.581  -0.178  1.00  0.00    -0.206 F 
ATOM     81  C   UNL     1      -5.562   0.276   1.187  1.00  0.00     0.059 A 
ATOM     82  C   UNL     1      -4.099   2.215   1.118  1.00  0.00     0.059 A 
ATOM     83  F   UNL     1      -2.253   2.216  -0.331  1.00  0.00    -0.206 F 
ATOM     84  C   UNL     1      -5.230   1.566   1.611  1.00  0.00     0.060 A 
BRANCH  84  85
ATOM     85  S   UNL     1      -6.278   2.383   2.835  1.00  0.00     0.124 S 
ATOM     86  O   UNL     1      -7.376   2.862   2.005  1.00  0.00    -0.237 OA
ATOM     87  O   UNL     1      -6.596   1.290   3.749  1.00  0.00    -0.237 OA
ATOM     88  O   UNL     1      -5.402   3.413   3.384  1.00  0.00    -0.744 OA
ENDBRANCH  84  85
ENDBRANCH  52  77
BRANCH  64  89
ATOM     89  C   UNL     1      -4.554  -0.284  -7.124  1.00  0.00     0.058 A 
ATOM     90  C   UNL     1      -4.902   0.998  -7.568  1.00  0.00     0.135 A 
ATOM     91  C   UNL     1      -5.325  -1.370  -7.572  1.00  0.00     0.135 A 
ATOM     92  F   UNL     1      -4.208   2.069  -7.152  1.00  0.00    -0.206 F 
ATOM     93  C   UNL     1      -5.981   1.198  -8.425  1.00  0.00     0.059 A 
ATOM     94  C   UNL     1      -6.392  -1.196  -8.446  1.00  0.00     0.059 A 
ATOM     95  F   UNL     1      -5.031  -2.618  -7.174  1.00  0.00    -0.206 F 
ATOM     96  C   UNL     1      -6.717   0.094  -8.862  1.00  0.00     0.060 A 
BRANCH  96  97
ATOM     97  S   UNL     1      -8.076   0.354 -10.021  1.00  0.00     0.124 S 
ATOM     98  O   UNL     1      -9.124   0.854  -9.137  1.00  0.00    -0.237 OA
ATOM     99  O   UNL     1      -7.513   1.328 -10.952  1.00  0.00    -0.237 OA
ATOM    100  O   UNL     1      -8.304  -0.975 -10.579  1.00  0.00    -0.744 OA
ENDBRANCH  96  97
ENDBRANCH  64  89
ENDBRANCH  38  39
ENDBRANCH  31  33
ENDBRANCH  30  31
ENDBRANCH  29  30
ENDBRANCH  28  29
ENDBRANCH  27  28
ENDBRANCH   1  27
TORSDOF 24
