REMARK SMILES Cc1cc(I)cc([C@H]([NH3+])C(=O)OCCOCCOCCOC(=O)c2ccc(-c3c4nc(c(-c5c(F)cc(S(=O)(=O)[O-])cc5F)c5ccc([nH]5)c(-c5c(F)cc(S(=O)(=O)[O-])cc5F)c5nc(c(-c6c(F)cc(S(=O)(=O)[O-])cc6F)c6ccc3[nH]6)C=C5)C=C4)cc2)c1O
REMARK SMILES IDX 17 1 16 2 15 3 14 4 13 5 12 6 10 7 11 8 8 9 7 10 1 11 2 12
REMARK SMILES IDX 3 13 90 14 4 15 5 16 6 17 91 18 9 20 18 24 19 25 20 26 21 27
REMARK SMILES IDX 22 28 23 29 24 30 25 31 89 32 26 33 88 34 27 35 28 36 29 37
REMARK SMILES IDX 82 38 30 39 87 40 81 41 83 42 31 43 86 44 80 45 79 46 32 48
REMARK SMILES IDX 66 49 45 50 65 51 46 52 49 53 64 54 84 55 47 56 48 57 63 59
REMARK SMILES IDX 85 60 50 61 33 62 34 63 43 64 35 65 36 66 42 67 44 68 37 69
REMARK SMILES IDX 38 70 39 71 40 72 41 73 67 74 68 75 77 76 69 77 70 78 76 79
REMARK SMILES IDX 78 80 71 81 72 82 73 83 74 84 75 85 51 86 52 87 61 88 53 89
REMARK SMILES IDX 54 90 60 91 62 92 55 93 56 94 57 95 58 96 59 97
REMARK H PARENT 91 19 9 21 9 22 9 23 83 47 49 58
REMARK Flexibility Score: inf
ROOT
ATOM      1  C   UNL     1       2.033  -0.640   4.870  1.00  0.00     0.188 C 
ENDROOT
BRANCH   1   2
ATOM      2  C   UNL     1       2.156  -0.163   6.327  1.00  0.00     0.188 C 
BRANCH   2   3
ATOM      3  O   UNL     1       2.949  -0.943   7.195  1.00  0.00    -0.376 OA
BRANCH   3   4
ATOM      4  C   UNL     1       2.387  -2.066   7.862  1.00  0.00     0.202 C 
BRANCH   4   5
ATOM      5  C   UNL     1       0.898  -2.432   7.832  1.00  0.00     0.261 C 
BRANCH   5   6
ATOM      6  O   UNL     1       0.277  -2.376   6.545  1.00  0.00    -0.459 OA
BRANCH   6   7
ATOM      7  C   UNL     1      -0.811  -1.548   6.444  1.00  0.00     0.369 C 
ATOM      8  O   UNL     1      -1.166  -0.790   7.343  1.00  0.00    -0.245 OA
BRANCH   7   9
ATOM      9  C   UNL     1      -1.472  -1.593   5.042  1.00  0.00     0.326 C 
BRANCH   9  10
ATOM     10  C   UNL     1      -2.979  -1.843   5.044  1.00  0.00     0.064 A 
ATOM     11  C   UNL     1      -5.760  -2.744   2.534  1.00  0.00     0.048 C 
ATOM     12  C   UNL     1      -5.027  -2.404   3.798  1.00  0.00    -0.008 A 
ATOM     13  C   UNL     1      -5.716  -2.530   5.013  1.00  0.00     0.022 A 
ATOM     14  C   UNL     1      -3.672  -2.036   3.830  1.00  0.00     0.128 A 
ATOM     15  C   UNL     1      -5.074  -2.263   6.217  1.00  0.00     0.014 A 
ATOM     16  I   UNL     1      -6.121  -2.414   8.008  1.00  0.00    -0.044 I 
ATOM     17  C   UNL     1      -3.723  -1.922   6.235  1.00  0.00     0.029 A 
BRANCH  14  18
ATOM     18  O   UNL     1      -2.974  -1.854   2.662  1.00  0.00    -0.507 OA
ATOM     19  H   UNL     1      -3.402  -1.973   1.837  1.00  0.00     0.293 HD
ENDBRANCH  14  18
ENDBRANCH   9  10
BRANCH   9  20
ATOM     20  N   UNL     1      -0.787  -2.595   4.176  1.00  0.00    -0.342 N 
ATOM     21  H   UNL     1      -0.913  -3.527   4.569  1.00  0.00     0.345 HD
ATOM     22  H   UNL     1       0.209  -2.378   4.129  1.00  0.00     0.345 HD
ATOM     23  H   UNL     1      -1.186  -2.563   3.238  1.00  0.00     0.345 HD
ENDBRANCH   9  20
ENDBRANCH   7   9
ENDBRANCH   6   7
ENDBRANCH   5   6
ENDBRANCH   4   5
ENDBRANCH   3   4
ENDBRANCH   2   3
ENDBRANCH   1   2
BRANCH   1  24
ATOM     24  O   UNL     1       2.431  -1.940   4.475  1.00  0.00    -0.376 OA
BRANCH  24  25
ATOM     25  C   UNL     1       3.763  -2.370   4.732  1.00  0.00     0.202 C 
BRANCH  25  26
ATOM     26  C   UNL     1       5.003  -1.484   4.497  1.00  0.00     0.261 C 
BRANCH  26  27
ATOM     27  O   UNL     1       4.824  -0.078   4.672  1.00  0.00    -0.460 OA
BRANCH  27  28
ATOM     28  C   UNL     1       4.705   0.639   3.525  1.00  0.00     0.338 C 
ATOM     29  O   UNL     1       4.778   0.219   2.382  1.00  0.00    -0.246 OA
BRANCH  28  30
ATOM     30  C   UNL     1       4.209   1.984   3.884  1.00  0.00     0.060 A 
ATOM     31  C   UNL     1       4.871   2.768   4.829  1.00  0.00     0.016 A 
ATOM     32  C   UNL     1       3.015   2.431   3.297  1.00  0.00     0.016 A 
ATOM     33  C   UNL     1       4.350   4.019   5.162  1.00  0.00     0.010 A 
ATOM     34  C   UNL     1       2.479   3.667   3.652  1.00  0.00     0.010 A 
ATOM     35  C   UNL     1       3.162   4.483   4.563  1.00  0.00    -0.014 A 
BRANCH  35  36
ATOM     36  C   UNL     1       2.784   5.906   4.708  1.00  0.00     0.031 A 
ATOM     37  C   UNL     1       1.747   6.372   5.680  1.00  0.00     0.074 A 
ATOM     38  C   UNL     1       3.429   6.787   3.920  1.00  0.00     0.049 A 
ATOM     39  N   UNL     1       1.431   7.599   6.006  1.00  0.00    -0.248 NA
ATOM     40  C   UNL     1       0.957   5.341   6.368  1.00  0.00     0.031 C 
ATOM     41  C   UNL     1       4.421   6.426   2.904  1.00  0.00     0.029 A 
ATOM     42  N   UNL     1       3.366   8.153   3.856  1.00  0.00    -0.354 N 
ATOM     43  C   UNL     1       0.430   7.496   6.962  1.00  0.00     0.074 A 
ATOM     44  C   UNL     1       0.152   6.082   7.124  1.00  0.00     0.031 C 
ATOM     45  C   UNL     1       4.902   7.545   2.344  1.00  0.00     0.029 A 
ATOM     46  C   UNL     1       4.245   8.697   2.951  1.00  0.00     0.049 A 
ATOM     47  H   UNL     1       2.752   8.693   4.405  1.00  0.00     0.167 HD
ATOM     48  C   UNL     1      -0.179   8.493   7.649  1.00  0.00     0.037 A 
ATOM     49  C   UNL     1       4.511   9.983   2.655  1.00  0.00     0.037 A 
ATOM     50  C   UNL     1       0.097   9.897   7.454  1.00  0.00     0.049 A 
ATOM     51  C   UNL     1       3.804  11.067   3.415  1.00  0.00     0.074 A 
ATOM     52  C   UNL     1      -0.436  10.980   8.133  1.00  0.00     0.029 A 
ATOM     53  N   UNL     1       0.967  10.415   6.505  1.00  0.00    -0.354 N 
ATOM     54  N   UNL     1       2.929  10.953   4.386  1.00  0.00    -0.248 NA
ATOM     55  C   UNL     1       4.125  12.452   3.050  1.00  0.00     0.031 C 
ATOM     56  C   UNL     1       0.072  12.151   7.563  1.00  0.00     0.029 A 
ATOM     57  C   UNL     1       0.962  11.801   6.561  1.00  0.00     0.049 A 
ATOM     58  H   UNL     1       1.507   9.878   5.882  1.00  0.00     0.167 HD
ATOM     59  C   UNL     1       2.611  12.251   4.763  1.00  0.00     0.074 A 
ATOM     60  C   UNL     1       3.396  13.134   3.924  1.00  0.00     0.031 C 
ATOM     61  C   UNL     1       1.746  12.671   5.718  1.00  0.00     0.037 A 
BRANCH  48  62
ATOM     62  C   UNL     1      -1.190   8.118   8.699  1.00  0.00     0.058 A 
ATOM     63  C   UNL     1      -0.792   7.547   9.919  1.00  0.00     0.135 A 
ATOM     64  C   UNL     1      -2.551   8.425   8.536  1.00  0.00     0.135 A 
ATOM     65  F   UNL     1       0.495   7.228  10.128  1.00  0.00    -0.206 F 
ATOM     66  C   UNL     1      -1.707   7.286  10.934  1.00  0.00     0.059 A 
ATOM     67  C   UNL     1      -3.480   8.194   9.547  1.00  0.00     0.059 A 
ATOM     68  F   UNL     1      -2.986   8.977   7.392  1.00  0.00    -0.206 F 
ATOM     69  C   UNL     1      -3.049   7.619  10.741  1.00  0.00     0.060 A 
BRANCH  69  70
ATOM     70  S   UNL     1      -4.212   7.304  12.086  1.00  0.00     0.124 S 
ATOM     71  O   UNL     1      -4.261   5.845  12.095  1.00  0.00    -0.237 OA
ATOM     72  O   UNL     1      -3.544   7.922  13.226  1.00  0.00    -0.237 OA
ATOM     73  O   UNL     1      -5.435   7.968  11.643  1.00  0.00    -0.744 OA
ENDBRANCH  69  70
ENDBRANCH  48  62
BRANCH  49  74
ATOM     74  C   UNL     1       5.535  10.297   1.629  1.00  0.00     0.058 A 
ATOM     75  C   UNL     1       6.781  10.826   1.996  1.00  0.00     0.135 A 
ATOM     76  C   UNL     1       5.311  10.025   0.271  1.00  0.00     0.135 A 
ATOM     77  F   UNL     1       7.041  11.098   3.284  1.00  0.00    -0.206 F 
ATOM     78  C   UNL     1       7.765  11.087   1.050  1.00  0.00     0.059 A 
ATOM     79  C   UNL     1       6.289  10.255  -0.691  1.00  0.00     0.059 A 
ATOM     80  F   UNL     1       4.143   9.495  -0.125  1.00  0.00    -0.206 F 
ATOM     81  C   UNL     1       7.511  10.794  -0.291  1.00  0.00     0.060 A 
BRANCH  81  82
ATOM     82  S   UNL     1       8.817  11.091  -1.501  1.00  0.00     0.124 S 
ATOM     83  O   UNL     1       8.846  12.548  -1.549  1.00  0.00    -0.237 OA
ATOM     84  O   UNL     1       9.967  10.449  -0.872  1.00  0.00    -0.237 OA
ATOM     85  O   UNL     1       8.318  10.430  -2.703  1.00  0.00    -0.744 OA
ENDBRANCH  81  82
ENDBRANCH  49  74
BRANCH  61  86
ATOM     86  C   UNL     1       1.601  14.154   5.921  1.00  0.00     0.058 A 
ATOM     87  C   UNL     1       0.907  14.955   5.001  1.00  0.00     0.135 A 
ATOM     88  C   UNL     1       2.094  14.768   7.084  1.00  0.00     0.135 A 
ATOM     89  F   UNL     1       0.425  14.420   3.868  1.00  0.00    -0.206 F 
ATOM     90  C   UNL     1       0.711  16.314   5.224  1.00  0.00     0.059 A 
ATOM     91  C   UNL     1       1.889  16.120   7.339  1.00  0.00     0.059 A 
ATOM     92  F   UNL     1       2.762  14.046   7.998  1.00  0.00    -0.206 F 
ATOM     93  C   UNL     1       1.198  16.886   6.401  1.00  0.00     0.060 A 
BRANCH  93  94
ATOM     94  S   UNL     1       0.881  18.638   6.703  1.00  0.00     0.124 S 
ATOM     95  O   UNL     1       1.754  19.270   5.719  1.00  0.00    -0.237 OA
ATOM     96  O   UNL     1      -0.551  18.743   6.440  1.00  0.00    -0.237 OA
ATOM     97  O   UNL     1       1.272  18.820   8.097  1.00  0.00    -0.744 OA
ENDBRANCH  93  94
ENDBRANCH  61  86
ENDBRANCH  35  36
ENDBRANCH  28  30
ENDBRANCH  27  28
ENDBRANCH  26  27
ENDBRANCH  25  26
ENDBRANCH  24  25
ENDBRANCH   1  24
TORSDOF 23
