REMARK SMILES O=C(OCCOCCOCCOC(=O)[C@H](c1c[nH]c2cc(F)ccc12)[NH+]1CCN(c2ccccc2)CC1)c1ccc(-c2c3nc(c(-c4c(F)cc(S(=O)(=O)[O-])cc4F)c4ccc([nH]4)c(-c4c(F)cc(S(=O)(=O)[O-])cc4F)c4nc(c(-c5c(F)cc(S(=O)(=O)[O-])cc5F)c5ccc2[nH]5)C=C4)C=C3)cc1
REMARK SMILES IDX 7 1 6 2 5 3 4 4 3 5 2 6 1 7 38 8 39 9 103 10 40 11 102 12
REMARK SMILES IDX 41 13 42 14 43 15 96 16 44 17 101 18 95 19 97 20 45 21
REMARK SMILES IDX 100 22 94 23 93 24 46 26 80 27 59 28 79 29 60 30 63 31 78 32
REMARK SMILES IDX 98 33 61 34 62 35 77 37 99 38 64 39 47 40 48 41 57 42 49 43
REMARK SMILES IDX 50 44 56 45 58 46 51 47 52 48 53 49 54 50 55 51 81 52 82 53
REMARK SMILES IDX 91 54 83 55 84 56 90 57 92 58 85 59 86 60 87 61 88 62 89 63
REMARK SMILES IDX 65 64 66 65 75 66 67 67 68 68 74 69 76 70 69 71 70 72 71 73
REMARK SMILES IDX 72 74 73 75 8 76 9 77 10 78 11 79 12 80 13 81 14 82 15 83
REMARK SMILES IDX 26 84 27 85 37 86 28 88 36 89 29 90 30 91 31 92 35 93 32 94
REMARK SMILES IDX 34 95 33 96 16 97 17 98 25 99 18 100 19 101 24 102 20 104
REMARK SMILES IDX 23 105 21 106 22 107
REMARK H PARENT 97 25 63 36 26 87 18 103
REMARK Flexibility Score: inf
ROOT
ATOM      1  C   UNL     1       4.828   1.771  -1.256  1.00  0.00     0.188 C 
ENDROOT
BRANCH   1   2
ATOM      2  O   UNL     1       4.625   2.972  -0.502  1.00  0.00    -0.376 OA
BRANCH   2   3
ATOM      3  C   UNL     1       3.456   2.993   0.315  1.00  0.00     0.202 C 
BRANCH   3   4
ATOM      4  C   UNL     1       3.522   2.074   1.540  1.00  0.00     0.261 C 
BRANCH   4   5
ATOM      5  O   UNL     1       4.117   0.780   1.291  1.00  0.00    -0.460 OA
BRANCH   5   6
ATOM      6  C   UNL     1       3.583  -0.419   0.986  1.00  0.00     0.338 C 
ATOM      7  O   UNL     1       4.293  -1.423   1.041  1.00  0.00    -0.246 OA
BRANCH   6   8
ATOM      8  C   UNL     1       2.175  -0.576   0.552  1.00  0.00     0.060 A 
ATOM      9  C   UNL     1       1.538   0.284  -0.342  1.00  0.00     0.016 A 
ATOM     10  C   UNL     1       1.515  -1.748   0.928  1.00  0.00     0.016 A 
ATOM     11  C   UNL     1       0.224   0.071  -0.754  1.00  0.00     0.010 A 
ATOM     12  C   UNL     1       0.232  -2.015   0.449  1.00  0.00     0.010 A 
ATOM     13  C   UNL     1      -0.443  -1.081  -0.357  1.00  0.00    -0.014 A 
BRANCH  13  14
ATOM     14  C   UNL     1      -1.887  -1.267  -0.626  1.00  0.00     0.031 A 
ATOM     15  C   UNL     1      -2.794  -1.329   0.567  1.00  0.00     0.074 A 
ATOM     16  C   UNL     1      -2.377  -1.395  -1.873  1.00  0.00     0.049 A 
ATOM     17  N   UNL     1      -4.025  -1.745   0.660  1.00  0.00    -0.248 NA
ATOM     18  C   UNL     1      -2.210  -0.873   1.841  1.00  0.00     0.031 C 
ATOM     19  C   UNL     1      -1.618  -1.226  -3.110  1.00  0.00     0.029 A 
ATOM     20  N   UNL     1      -3.635  -1.736  -2.305  1.00  0.00    -0.354 N 
ATOM     21  C   UNL     1      -4.342  -1.654   2.010  1.00  0.00     0.074 A 
ATOM     22  C   UNL     1      -3.165  -1.179   2.700  1.00  0.00     0.031 C 
ATOM     23  C   UNL     1      -2.398  -1.536  -4.158  1.00  0.00     0.029 A 
ATOM     24  C   UNL     1      -3.707  -1.948  -3.663  1.00  0.00     0.049 A 
ATOM     25  H   UNL     1      -4.409  -1.820  -1.703  1.00  0.00     0.167 HD
ATOM     26  C   UNL     1      -5.519  -1.932   2.614  1.00  0.00     0.037 A 
ATOM     27  C   UNL     1      -4.704  -2.458  -4.412  1.00  0.00     0.037 A 
ATOM     28  C   UNL     1      -6.680  -2.371   1.893  1.00  0.00     0.049 A 
ATOM     29  C   UNL     1      -5.994  -2.818  -3.726  1.00  0.00     0.074 A 
ATOM     30  C   UNL     1      -7.933  -2.688   2.378  1.00  0.00     0.029 A 
ATOM     31  N   UNL     1      -6.720  -2.546   0.515  1.00  0.00    -0.354 N 
ATOM     32  N   UNL     1      -6.283  -2.760  -2.446  1.00  0.00    -0.248 NA
ATOM     33  C   UNL     1      -7.095  -3.295  -4.571  1.00  0.00     0.031 C 
ATOM     34  C   UNL     1      -8.723  -3.086   1.294  1.00  0.00     0.029 A 
ATOM     35  C   UNL     1      -7.976  -2.972   0.129  1.00  0.00     0.049 A 
ATOM     36  H   UNL     1      -5.965  -2.389  -0.097  1.00  0.00     0.167 HD
ATOM     37  C   UNL     1      -7.612  -3.151  -2.335  1.00  0.00     0.074 A 
ATOM     38  C   UNL     1      -8.064  -3.459  -3.679  1.00  0.00     0.031 C 
ATOM     39  C   UNL     1      -8.391  -3.236  -1.228  1.00  0.00     0.037 A 
BRANCH  26  40
ATOM     40  C   UNL     1      -5.555  -1.809   4.112  1.00  0.00     0.058 A 
ATOM     41  C   UNL     1      -5.450  -0.565   4.758  1.00  0.00     0.135 A 
ATOM     42  C   UNL     1      -5.590  -2.961   4.913  1.00  0.00     0.135 A 
ATOM     43  F   UNL     1      -5.383   0.567   4.039  1.00  0.00    -0.206 F 
ATOM     44  C   UNL     1      -5.304  -0.473   6.139  1.00  0.00     0.059 A 
ATOM     45  C   UNL     1      -5.479  -2.890   6.298  1.00  0.00     0.059 A 
ATOM     46  F   UNL     1      -5.687  -4.175   4.349  1.00  0.00    -0.206 F 
ATOM     47  C   UNL     1      -5.301  -1.644   6.898  1.00  0.00     0.060 A 
BRANCH  47  48
ATOM     48  S   UNL     1      -5.022  -1.520   8.677  1.00  0.00     0.124 S 
ATOM     49  O   UNL     1      -3.583  -1.289   8.728  1.00  0.00    -0.237 OA
ATOM     50  O   UNL     1      -5.859  -0.385   9.049  1.00  0.00    -0.237 OA
ATOM     51  O   UNL     1      -5.469  -2.817   9.181  1.00  0.00    -0.744 OA
ENDBRANCH  47  48
ENDBRANCH  26  40
BRANCH  27  52
ATOM     52  C   UNL     1      -4.504  -2.657  -5.873  1.00  0.00     0.058 A 
ATOM     53  C   UNL     1      -5.118  -1.819  -6.814  1.00  0.00     0.135 A 
ATOM     54  C   UNL     1      -3.636  -3.651  -6.356  1.00  0.00     0.135 A 
ATOM     55  F   UNL     1      -5.957  -0.856  -6.406  1.00  0.00    -0.206 F 
ATOM     56  C   UNL     1      -4.878  -1.955  -8.180  1.00  0.00     0.059 A 
ATOM     57  C   UNL     1      -3.367  -3.796  -7.715  1.00  0.00     0.059 A 
ATOM     58  F   UNL     1      -3.008  -4.469  -5.496  1.00  0.00    -0.206 F 
ATOM     59  C   UNL     1      -3.993  -2.941  -8.620  1.00  0.00     0.060 A 
BRANCH  59  60
ATOM     60  S   UNL     1      -3.627  -3.051 -10.387  1.00  0.00     0.124 S 
ATOM     61  O   UNL     1      -4.883  -3.570 -10.916  1.00  0.00    -0.237 OA
ATOM     62  O   UNL     1      -3.319  -1.664 -10.720  1.00  0.00    -0.237 OA
ATOM     63  O   UNL     1      -2.493  -3.968 -10.439  1.00  0.00    -0.744 OA
ENDBRANCH  59  60
ENDBRANCH  27  52
BRANCH  39  64
ATOM     64  C   UNL     1      -9.829  -3.613  -1.418  1.00  0.00     0.058 A 
ATOM     65  C   UNL     1     -10.221  -4.944  -1.613  1.00  0.00     0.135 A 
ATOM     66  C   UNL     1     -10.830  -2.641  -1.258  1.00  0.00     0.135 A 
ATOM     67  F   UNL     1      -9.297  -5.904  -1.779  1.00  0.00    -0.206 F 
ATOM     68  C   UNL     1     -11.563  -5.304  -1.626  1.00  0.00     0.059 A 
ATOM     69  C   UNL     1     -12.177  -2.981  -1.246  1.00  0.00     0.059 A 
ATOM     70  F   UNL     1     -10.498  -1.355  -1.061  1.00  0.00    -0.206 F 
ATOM     71  C   UNL     1     -12.533  -4.317  -1.427  1.00  0.00     0.060 A 
BRANCH  71  72
ATOM     72  S   UNL     1     -14.266  -4.813  -1.336  1.00  0.00     0.124 S 
ATOM     73  O   UNL     1     -14.572  -5.070  -2.739  1.00  0.00    -0.237 OA
ATOM     74  O   UNL     1     -14.209  -5.989  -0.472  1.00  0.00    -0.237 OA
ATOM     75  O   UNL     1     -14.922  -3.647  -0.752  1.00  0.00    -0.744 OA
ENDBRANCH  71  72
ENDBRANCH  39  64
ENDBRANCH  13  14
ENDBRANCH   6   8
ENDBRANCH   5   6
ENDBRANCH   4   5
ENDBRANCH   3   4
ENDBRANCH   2   3
ENDBRANCH   1   2
BRANCH   1  76
ATOM     76  C   UNL     1       5.722   2.030  -2.464  1.00  0.00     0.188 C 
BRANCH  76  77
ATOM     77  O   UNL     1       5.484   3.320  -3.005  1.00  0.00    -0.376 OA
BRANCH  77  78
ATOM     78  C   UNL     1       4.589   3.381  -4.109  1.00  0.00     0.202 C 
BRANCH  78  79
ATOM     79  C   UNL     1       3.156   2.850  -3.882  1.00  0.00     0.261 C 
BRANCH  79  80
ATOM     80  O   UNL     1       2.960   1.411  -3.788  1.00  0.00    -0.459 OA
BRANCH  80  81
ATOM     81  C   UNL     1       3.356   0.684  -4.876  1.00  0.00     0.370 C 
ATOM     82  O   UNL     1       4.016   1.207  -5.766  1.00  0.00    -0.245 OA
BRANCH  81  83
ATOM     83  C   UNL     1       2.846  -0.799  -4.856  1.00  0.00     0.328 C 
BRANCH  83  84
ATOM     84  N   UNL     1       3.012  -1.510  -6.176  1.00  0.00    -0.316 N 
ATOM     85  C   UNL     1       4.176  -1.170  -7.017  1.00  0.00     0.284 C 
ATOM     86  C   UNL     1       2.971  -2.988  -6.148  1.00  0.00     0.284 C 
ATOM     87  H   UNL     1       2.168  -1.124  -6.598  1.00  0.00     0.349 HD
ATOM     88  C   UNL     1       5.511  -1.566  -6.386  1.00  0.00     0.178 C 
ATOM     89  C   UNL     1       4.289  -3.733  -5.770  1.00  0.00     0.178 C 
ATOM     90  N   UNL     1       5.521  -3.001  -6.116  1.00  0.00    -0.360 N 
BRANCH  90  91
ATOM     91  C   UNL     1       6.742  -3.634  -6.037  1.00  0.00     0.037 A 
ATOM     92  C   UNL     1       7.694  -3.299  -5.068  1.00  0.00     0.026 A 
ATOM     93  C   UNL     1       7.082  -4.585  -7.003  1.00  0.00     0.026 A 
ATOM     94  C   UNL     1       8.960  -3.891  -5.074  1.00  0.00     0.002 A 
ATOM     95  C   UNL     1       8.350  -5.165  -7.027  1.00  0.00     0.002 A 
ATOM     96  C   UNL     1       9.291  -4.816  -6.062  1.00  0.00     0.000 A 
ENDBRANCH  90  91
ENDBRANCH  83  84
BRANCH  83  97
ATOM     97  C   UNL     1       3.300  -1.594  -3.634  1.00  0.00     0.046 A 
ATOM     98  C   UNL     1       4.524  -1.559  -2.985  1.00  0.00     0.094 A 
ATOM     99  C   UNL     1       2.525  -2.603  -2.934  1.00  0.00     0.009 A 
ATOM    100  N   UNL     1       4.523  -2.474  -1.964  1.00  0.00    -0.361 N 
ATOM    101  C   UNL     1       3.333  -3.156  -1.940  1.00  0.00     0.049 A 
ATOM    102  C   UNL     1       1.231  -3.150  -3.099  1.00  0.00     0.014 A 
ATOM    103  H   UNL     1       5.269  -2.621  -1.339  1.00  0.00     0.166 HD
ATOM    104  C   UNL     1       2.923  -4.217  -1.119  1.00  0.00     0.065 A 
ATOM    105  C   UNL     1       0.794  -4.201  -2.282  1.00  0.00     0.040 A 
ATOM    106  C   UNL     1       1.639  -4.721  -1.315  1.00  0.00     0.125 A 
ATOM    107  F   UNL     1       1.211  -5.727  -0.540  1.00  0.00    -0.207 F 
ENDBRANCH  83  97
ENDBRANCH  81  83
ENDBRANCH  80  81
ENDBRANCH  79  80
ENDBRANCH  78  79
ENDBRANCH  77  78
ENDBRANCH  76  77
ENDBRANCH   1  76
TORSDOF 23
