REMARK SMILES COc1ccc(C(=O)N2CCC(C(=O)OCCOCCOCCOC(=O)c3ccc(-c4c5nc(c(-c6c(F)cc(S(=O)(=O)[O-])cc6F)c6ccc([nH]6)c(-c6c(F)cc(S(=O)(=O)[O-])cc6F)c6nc(c(-c7c(F)cc(S(=O)(=O)[O-])cc7F)c7ccc4[nH]7)C=C6)C=C5)cc3)CC2)c(OC)c1
REMARK SMILES IDX 20 1 19 2 18 3 17 4 16 5 15 6 13 7 14 8 12 9 7 10 8 11 9 12
REMARK SMILES IDX 10 13 94 14 11 15 93 16 6 17 3 18 4 19 98 20 5 21 95 22 2 23
REMARK SMILES IDX 1 24 96 25 97 26 21 27 22 28 23 29 24 30 25 31 26 32 27 33
REMARK SMILES IDX 28 34 92 35 29 36 91 37 30 38 31 39 32 40 85 41 33 42 90 43
REMARK SMILES IDX 84 44 86 45 34 46 89 47 83 48 82 49 35 51 69 52 48 53 68 54
REMARK SMILES IDX 49 55 52 56 67 57 87 58 50 59 51 60 66 62 88 63 53 64 36 65
REMARK SMILES IDX 37 66 46 67 38 68 39 69 45 70 47 71 40 72 41 73 42 74 43 75
REMARK SMILES IDX 44 76 70 77 71 78 80 79 72 80 73 81 79 82 81 83 74 84 75 85
REMARK SMILES IDX 76 86 77 87 78 88 54 89 55 90 64 91 56 92 57 93 63 94 65 95
REMARK SMILES IDX 58 96 59 97 60 98 61 99 62 100
REMARK H PARENT 86 50 52 61
REMARK Flexibility Score: inf
ROOT
ATOM      1  C   UNL     1       6.590  10.496   5.362  1.00  0.00     0.188 C 
ENDROOT
BRANCH   1   2
ATOM      2  C   UNL     1       7.779  10.278   4.428  1.00  0.00     0.188 C 
BRANCH   2   3
ATOM      3  O   UNL     1       8.325  11.435   3.808  1.00  0.00    -0.376 OA
BRANCH   3   4
ATOM      4  C   UNL     1       7.447  12.220   3.005  1.00  0.00     0.202 C 
BRANCH   4   5
ATOM      5  C   UNL     1       6.760  11.527   1.820  1.00  0.00     0.261 C 
BRANCH   5   6
ATOM      6  O   UNL     1       6.031  10.327   2.151  1.00  0.00    -0.463 OA
BRANCH   6   7
ATOM      7  C   UNL     1       6.524   9.179   1.615  1.00  0.00     0.309 C 
ATOM      8  O   UNL     1       7.502   9.120   0.876  1.00  0.00    -0.252 OA
BRANCH   7   9
ATOM      9  C   UNL     1       5.767   7.926   2.019  1.00  0.00     0.103 C 
ATOM     10  C   UNL     1       2.131   5.783   1.938  1.00  0.00     0.257 C 
ATOM     11  O   UNL     1       1.215   6.376   2.512  1.00  0.00    -0.269 OA
ATOM     12  N   UNL     1       3.450   6.208   2.040  1.00  0.00    -0.338 N 
ATOM     13  C   UNL     1       3.883   6.806   3.292  1.00  0.00     0.120 C 
ATOM     14  C   UNL     1       4.483   6.004   1.033  1.00  0.00     0.120 C 
ATOM     15  C   UNL     1       4.676   8.091   3.083  1.00  0.00     0.037 C 
ATOM     16  C   UNL     1       5.193   7.314   0.738  1.00  0.00     0.037 C 
BRANCH  10  17
ATOM     17  C   UNL     1       1.777   4.553   1.171  1.00  0.00     0.082 A 
ATOM     18  C   UNL     1       0.780   2.196  -0.001  1.00  0.00     0.122 A 
ATOM     19  C   UNL     1       0.023   3.365  -0.028  1.00  0.00     0.047 A 
ATOM     20  C   UNL     1       2.045   2.211   0.589  1.00  0.00     0.093 A 
ATOM     21  C   UNL     1       0.512   4.534   0.560  1.00  0.00     0.021 A 
ATOM     22  C   UNL     1       2.550   3.378   1.183  1.00  0.00     0.135 A 
BRANCH  18  23
ATOM     23  O   UNL     1       0.184   1.101  -0.565  1.00  0.00    -0.497 OA
ATOM     24  C   UNL     1       0.747  -0.164  -0.227  1.00  0.00     0.278 C 
ENDBRANCH  18  23
BRANCH  22  25
ATOM     25  O   UNL     1       3.730   3.365   1.881  1.00  0.00    -0.496 OA
ATOM     26  C   UNL     1       4.753   2.508   1.374  1.00  0.00     0.278 C 
ENDBRANCH  22  25
ENDBRANCH  10  17
ENDBRANCH   7   9
ENDBRANCH   6   7
ENDBRANCH   5   6
ENDBRANCH   4   5
ENDBRANCH   3   4
ENDBRANCH   2   3
ENDBRANCH   1   2
BRANCH   1  27
ATOM     27  O   UNL     1       5.665  11.502   4.984  1.00  0.00    -0.376 OA
BRANCH  27  28
ATOM     28  C   UNL     1       4.767  11.942   6.007  1.00  0.00     0.202 C 
BRANCH  28  29
ATOM     29  C   UNL     1       5.409  12.523   7.292  1.00  0.00     0.261 C 
BRANCH  29  30
ATOM     30  O   UNL     1       6.274  11.642   8.049  1.00  0.00    -0.460 OA
BRANCH  30  31
ATOM     31  C   UNL     1       5.787  10.425   8.393  1.00  0.00     0.338 C 
ATOM     32  O   UNL     1       4.614  10.090   8.351  1.00  0.00    -0.246 OA
BRANCH  31  33
ATOM     33  C   UNL     1       6.920   9.463   8.555  1.00  0.00     0.060 A 
ATOM     34  C   UNL     1       6.779   8.183   7.997  1.00  0.00     0.016 A 
ATOM     35  C   UNL     1       8.125   9.806   9.177  1.00  0.00     0.016 A 
ATOM     36  C   UNL     1       7.807   7.236   8.104  1.00  0.00     0.010 A 
ATOM     37  C   UNL     1       9.149   8.850   9.298  1.00  0.00     0.010 A 
ATOM     38  C   UNL     1       8.986   7.545   8.794  1.00  0.00    -0.014 A 
BRANCH  38  39
ATOM     39  C   UNL     1       9.952   6.462   9.147  1.00  0.00     0.031 A 
ATOM     40  C   UNL     1       9.900   5.875  10.537  1.00  0.00     0.074 A 
ATOM     41  C   UNL     1      10.843   5.972   8.262  1.00  0.00     0.049 A 
ATOM     42  N   UNL     1      10.650   4.951  11.082  1.00  0.00    -0.248 NA
ATOM     43  C   UNL     1       8.859   6.407  11.431  1.00  0.00     0.031 C 
ATOM     44  C   UNL     1      10.988   6.407   6.875  1.00  0.00     0.029 A 
ATOM     45  N   UNL     1      11.805   4.997   8.408  1.00  0.00    -0.354 N 
ATOM     46  C   UNL     1      10.178   4.795  12.382  1.00  0.00     0.074 A 
ATOM     47  C   UNL     1       9.098   5.743  12.552  1.00  0.00     0.031 C 
ATOM     48  C   UNL     1      11.988   5.712   6.301  1.00  0.00     0.029 A 
ATOM     49  C   UNL     1      12.576   4.803   7.285  1.00  0.00     0.049 A 
ATOM     50  H   UNL     1      11.929   4.486   9.240  1.00  0.00     0.167 HD
ATOM     51  C   UNL     1      10.595   3.937  13.345  1.00  0.00     0.037 A 
ATOM     52  C   UNL     1      13.645   4.003   7.078  1.00  0.00     0.037 A 
ATOM     53  C   UNL     1      11.670   2.992  13.186  1.00  0.00     0.049 A 
ATOM     54  C   UNL     1      14.141   3.107   8.190  1.00  0.00     0.074 A 
ATOM     55  C   UNL     1      12.145   2.069  14.103  1.00  0.00     0.029 A 
ATOM     56  N   UNL     1      12.447   2.854  12.046  1.00  0.00    -0.354 N 
ATOM     57  N   UNL     1      13.664   2.950   9.402  1.00  0.00    -0.248 NA
ATOM     58  C   UNL     1      15.321   2.277   7.902  1.00  0.00     0.031 C 
ATOM     59  C   UNL     1      13.245   1.414  13.538  1.00  0.00     0.029 A 
ATOM     60  C   UNL     1      13.416   1.884  12.247  1.00  0.00     0.049 A 
ATOM     61  H   UNL     1      12.327   3.369  11.215  1.00  0.00     0.167 HD
ATOM     62  C   UNL     1      14.467   1.987  10.008  1.00  0.00     0.074 A 
ATOM     63  C   UNL     1      15.450   1.585   9.026  1.00  0.00     0.031 C 
ATOM     64  C   UNL     1      14.395   1.482  11.266  1.00  0.00     0.037 A 
BRANCH  51  65
ATOM     65  C   UNL     1       9.899   3.998  14.679  1.00  0.00     0.058 A 
ATOM     66  C   UNL     1       8.579   3.551  14.849  1.00  0.00     0.135 A 
ATOM     67  C   UNL     1      10.578   4.477  15.813  1.00  0.00     0.135 A 
ATOM     68  F   UNL     1       7.877   3.099  13.797  1.00  0.00    -0.206 F 
ATOM     69  C   UNL     1       7.947   3.601  16.088  1.00  0.00     0.059 A 
ATOM     70  C   UNL     1       9.976   4.508  17.067  1.00  0.00     0.059 A 
ATOM     71  F   UNL     1      11.841   4.918  15.708  1.00  0.00    -0.206 F 
ATOM     72  C   UNL     1       8.655   4.081  17.192  1.00  0.00     0.060 A 
BRANCH  72  73
ATOM     73  S   UNL     1       7.822   4.135  18.792  1.00  0.00     0.124 S 
ATOM     74  O   UNL     1       6.874   5.226  18.590  1.00  0.00    -0.237 OA
ATOM     75  O   UNL     1       7.240   2.800  18.885  1.00  0.00    -0.237 OA
ATOM     76  O   UNL     1       8.905   4.412  19.731  1.00  0.00    -0.744 OA
ENDBRANCH  72  73
ENDBRANCH  51  65
BRANCH  52  77
ATOM     77  C   UNL     1      14.345   4.013   5.761  1.00  0.00     0.058 A 
ATOM     78  C   UNL     1      14.316   2.897   4.911  1.00  0.00     0.135 A 
ATOM     79  C   UNL     1      15.076   5.134   5.337  1.00  0.00     0.135 A 
ATOM     80  F   UNL     1      13.650   1.792   5.278  1.00  0.00    -0.206 F 
ATOM     81  C   UNL     1      14.994   2.886   3.695  1.00  0.00     0.059 A 
ATOM     82  C   UNL     1      15.738   5.158   4.112  1.00  0.00     0.059 A 
ATOM     83  F   UNL     1      15.139   6.228   6.111  1.00  0.00    -0.206 F 
ATOM     84  C   UNL     1      15.698   4.025   3.301  1.00  0.00     0.060 A 
BRANCH  84  85
ATOM     85  S   UNL     1      16.524   4.020   1.695  1.00  0.00     0.124 S 
ATOM     86  O   UNL     1      17.642   3.116   1.941  1.00  0.00    -0.237 OA
ATOM     87  O   UNL     1      15.476   3.513   0.815  1.00  0.00    -0.237 OA
ATOM     88  O   UNL     1      16.878   5.422   1.494  1.00  0.00    -0.744 OA
ENDBRANCH  84  85
ENDBRANCH  52  77
BRANCH  64  89
ATOM     89  C   UNL     1      15.384   0.410  11.651  1.00  0.00     0.058 A 
ATOM     90  C   UNL     1      16.747   0.690  11.841  1.00  0.00     0.135 A 
ATOM     91  C   UNL     1      14.954  -0.909  11.874  1.00  0.00     0.135 A 
ATOM     92  F   UNL     1      17.216   1.932  11.640  1.00  0.00    -0.206 F 
ATOM     93  C   UNL     1      17.652  -0.304  12.203  1.00  0.00     0.059 A 
ATOM     94  C   UNL     1      15.836  -1.912  12.268  1.00  0.00     0.059 A 
ATOM     95  F   UNL     1      13.661  -1.234  11.723  1.00  0.00    -0.206 F 
ATOM     96  C   UNL     1      17.187  -1.603  12.415  1.00  0.00     0.060 A 
BRANCH  96  97
ATOM     97  S   UNL     1      18.370  -2.880  12.899  1.00  0.00     0.124 S 
ATOM     98  O   UNL     1      19.097  -3.095  11.652  1.00  0.00    -0.237 OA
ATOM     99  O   UNL     1      19.119  -2.223  13.965  1.00  0.00    -0.237 OA
ATOM    100  O   UNL     1      17.520  -3.986  13.328  1.00  0.00    -0.744 OA
ENDBRANCH  96  97
ENDBRANCH  64  89
ENDBRANCH  38  39
ENDBRANCH  31  33
ENDBRANCH  30  31
ENDBRANCH  29  30
ENDBRANCH  28  29
ENDBRANCH  27  28
ENDBRANCH   1  27
TORSDOF 23
