REMARK SMILES O=C(OCCOCCOCCOC(=O)[C@H]1c2[nH]cnc2CC[N@H+]1Cc1ccoc1)c1ccc(-c2c3nc(c(-c4c(F)cc(S(=O)(=O)[O-])cc4F)c4ccc([nH]4)c(-c4c(F)cc(S(=O)(=O)[O-])cc4F)c4nc(c(-c5c(F)cc(S(=O)(=O)[O-])cc5F)c5ccc2[nH]5)C=C4)C=C3)cc1
REMARK SMILES IDX 7 1 6 2 5 3 4 4 3 5 2 6 1 7 30 8 31 9 95 10 32 11 94 12
REMARK SMILES IDX 33 13 34 14 35 15 88 16 36 17 93 18 87 19 89 20 37 21 92 22
REMARK SMILES IDX 86 23 85 24 38 26 72 27 51 28 71 29 52 30 55 31 70 32 90 33
REMARK SMILES IDX 53 34 54 35 69 37 91 38 56 39 39 40 40 41 49 42 41 43 42 44
REMARK SMILES IDX 48 45 50 46 43 47 44 48 45 49 46 50 47 51 73 52 74 53 83 54
REMARK SMILES IDX 75 55 76 56 82 57 84 58 77 59 78 60 79 61 80 62 81 63 57 64
REMARK SMILES IDX 58 65 67 66 59 67 60 68 66 69 68 70 61 71 62 72 63 73 64 74
REMARK SMILES IDX 65 75 8 76 9 77 10 78 11 79 12 80 13 81 14 82 15 83 16 84
REMARK SMILES IDX 23 85 17 86 20 87 22 88 18 90 19 92 21 93 24 94 25 95 26 96
REMARK SMILES IDX 29 97 27 98 28 99
REMARK H PARENT 89 25 55 36 23 89 17 91
REMARK Flexibility Score: inf
ROOT
ATOM      1  C   UNL     1       3.436   0.282  -1.317  1.00  0.00     0.188 C 
ENDROOT
BRANCH   1   2
ATOM      2  O   UNL     1       4.814   0.027  -1.182  1.00  0.00    -0.376 OA
BRANCH   2   3
ATOM      3  C   UNL     1       5.378  -0.698  -0.107  1.00  0.00     0.202 C 
BRANCH   3   4
ATOM      4  C   UNL     1       4.616  -1.228   1.112  1.00  0.00     0.261 C 
BRANCH   4   5
ATOM      5  O   UNL     1       3.224  -1.455   0.917  1.00  0.00    -0.460 OA
BRANCH   5   6
ATOM      6  C   UNL     1       2.164  -0.741   1.353  1.00  0.00     0.338 C 
ATOM      7  O   UNL     1       1.042  -1.217   1.168  1.00  0.00    -0.246 OA
BRANCH   6   8
ATOM      8  C   UNL     1       2.242   0.620   1.961  1.00  0.00     0.060 A 
ATOM      9  C   UNL     1       3.397   1.355   2.247  1.00  0.00     0.016 A 
ATOM     10  C   UNL     1       0.993   1.199   2.249  1.00  0.00     0.016 A 
ATOM     11  C   UNL     1       3.319   2.485   3.044  1.00  0.00     0.010 A 
ATOM     12  C   UNL     1       0.904   2.367   2.974  1.00  0.00     0.010 A 
ATOM     13  C   UNL     1       2.071   2.933   3.465  1.00  0.00    -0.014 A 
BRANCH  13  14
ATOM     14  C   UNL     1       2.003   4.066   4.368  1.00  0.00     0.031 A 
ATOM     15  C   UNL     1       2.546   5.318   3.786  1.00  0.00     0.074 A 
ATOM     16  C   UNL     1       1.385   3.963   5.564  1.00  0.00     0.049 A 
ATOM     17  N   UNL     1       3.597   5.970   4.158  1.00  0.00    -0.248 NA
ATOM     18  C   UNL     1       1.968   5.799   2.518  1.00  0.00     0.031 C 
ATOM     19  C   UNL     1       0.626   2.816   6.076  1.00  0.00     0.029 A 
ATOM     20  N   UNL     1       1.199   4.894   6.538  1.00  0.00    -0.354 N 
ATOM     21  C   UNL     1       3.625   7.108   3.357  1.00  0.00     0.074 A 
ATOM     22  C   UNL     1       2.765   6.831   2.239  1.00  0.00     0.031 C 
ATOM     23  C   UNL     1      -0.135   3.208   7.120  1.00  0.00     0.029 A 
ATOM     24  C   UNL     1       0.181   4.587   7.440  1.00  0.00     0.049 A 
ATOM     25  H   UNL     1       1.738   5.715   6.601  1.00  0.00     0.167 HD
ATOM     26  C   UNL     1       4.081   8.288   3.864  1.00  0.00     0.037 A 
ATOM     27  C   UNL     1      -0.400   5.433   8.333  1.00  0.00     0.037 A 
ATOM     28  C   UNL     1       4.931   8.056   5.010  1.00  0.00     0.049 A 
ATOM     29  C   UNL     1       0.540   6.570   8.523  1.00  0.00     0.074 A 
ATOM     30  C   UNL     1       6.066   7.301   5.242  1.00  0.00     0.029 A 
ATOM     31  N   UNL     1       4.420   8.347   6.252  1.00  0.00    -0.354 N 
ATOM     32  N   UNL     1       1.710   6.451   9.092  1.00  0.00    -0.248 NA
ATOM     33  C   UNL     1       0.391   7.721   7.646  1.00  0.00     0.031 C 
ATOM     34  C   UNL     1       5.897   6.773   6.557  1.00  0.00     0.029 A 
ATOM     35  C   UNL     1       4.721   7.304   7.087  1.00  0.00     0.049 A 
ATOM     36  H   UNL     1       3.925   9.162   6.498  1.00  0.00     0.167 HD
ATOM     37  C   UNL     1       2.561   7.221   8.313  1.00  0.00     0.074 A 
ATOM     38  C   UNL     1       1.677   8.043   7.486  1.00  0.00     0.031 C 
ATOM     39  C   UNL     1       3.886   6.907   8.198  1.00  0.00     0.037 A 
BRANCH  26  40
ATOM     40  C   UNL     1       3.389   9.620   3.627  1.00  0.00     0.058 A 
ATOM     41  C   UNL     1       3.950  10.783   4.197  1.00  0.00     0.135 A 
ATOM     42  C   UNL     1       2.065   9.764   3.151  1.00  0.00     0.135 A 
ATOM     43  F   UNL     1       5.206  10.773   4.673  1.00  0.00    -0.206 F 
ATOM     44  C   UNL     1       3.217  11.954   4.386  1.00  0.00     0.059 A 
ATOM     45  C   UNL     1       1.334  10.938   3.284  1.00  0.00     0.059 A 
ATOM     46  F   UNL     1       1.370   8.758   2.611  1.00  0.00    -0.206 F 
ATOM     47  C   UNL     1       1.900  12.013   3.942  1.00  0.00     0.060 A 
BRANCH  47  48
ATOM     48  S   UNL     1       0.923  13.487   4.267  1.00  0.00     0.124 S 
ATOM     49  O   UNL     1       0.762  13.419   5.708  1.00  0.00    -0.237 OA
ATOM     50  O   UNL     1       1.796  14.541   3.761  1.00  0.00    -0.237 OA
ATOM     51  O   UNL     1      -0.292  13.261   3.478  1.00  0.00    -0.744 OA
ENDBRANCH  47  48
ENDBRANCH  26  40
BRANCH  27  52
ATOM     52  C   UNL     1      -1.835   5.503   8.736  1.00  0.00     0.058 A 
ATOM     53  C   UNL     1      -2.257   6.330   9.795  1.00  0.00     0.135 A 
ATOM     54  C   UNL     1      -2.861   4.984   7.919  1.00  0.00     0.135 A 
ATOM     55  F   UNL     1      -1.354   6.883  10.619  1.00  0.00    -0.206 F 
ATOM     56  C   UNL     1      -3.603   6.666   9.996  1.00  0.00     0.059 A 
ATOM     57  C   UNL     1      -4.208   5.295   8.106  1.00  0.00     0.059 A 
ATOM     58  F   UNL     1      -2.581   4.228   6.848  1.00  0.00    -0.206 F 
ATOM     59  C   UNL     1      -4.571   6.160   9.130  1.00  0.00     0.060 A 
BRANCH  59  60
ATOM     60  S   UNL     1      -6.283   6.729   9.265  1.00  0.00     0.124 S 
ATOM     61  O   UNL     1      -6.711   6.110  10.515  1.00  0.00    -0.237 OA
ATOM     62  O   UNL     1      -6.128   8.179   9.292  1.00  0.00    -0.237 OA
ATOM     63  O   UNL     1      -6.914   6.197   8.059  1.00  0.00    -0.744 OA
ENDBRANCH  59  60
ENDBRANCH  27  52
BRANCH  39  64
ATOM     64  C   UNL     1       4.479   5.929   9.178  1.00  0.00     0.058 A 
ATOM     65  C   UNL     1       4.089   4.584   9.319  1.00  0.00     0.135 A 
ATOM     66  C   UNL     1       5.590   6.352   9.923  1.00  0.00     0.135 A 
ATOM     67  F   UNL     1       3.111   4.066   8.562  1.00  0.00    -0.206 F 
ATOM     68  C   UNL     1       4.739   3.720  10.203  1.00  0.00     0.059 A 
ATOM     69  C   UNL     1       6.274   5.500  10.783  1.00  0.00     0.059 A 
ATOM     70  F   UNL     1       6.056   7.605   9.785  1.00  0.00    -0.206 F 
ATOM     71  C   UNL     1       5.830   4.189  10.935  1.00  0.00     0.060 A 
BRANCH  71  72
ATOM     72  S   UNL     1       6.697   3.066  12.051  1.00  0.00     0.124 S 
ATOM     73  O   UNL     1       5.717   2.870  13.113  1.00  0.00    -0.237 OA
ATOM     74  O   UNL     1       6.952   1.907  11.200  1.00  0.00    -0.237 OA
ATOM     75  O   UNL     1       7.890   3.818  12.435  1.00  0.00    -0.744 OA
ENDBRANCH  71  72
ENDBRANCH  39  64
ENDBRANCH  13  14
ENDBRANCH   6   8
ENDBRANCH   5   6
ENDBRANCH   4   5
ENDBRANCH   3   4
ENDBRANCH   2   3
ENDBRANCH   1   2
BRANCH   1  76
ATOM     76  C   UNL     1       2.500  -0.810  -1.900  1.00  0.00     0.188 C 
BRANCH  76  77
ATOM     77  O   UNL     1       3.007  -1.974  -2.528  1.00  0.00    -0.376 OA
BRANCH  77  78
ATOM     78  C   UNL     1       4.187  -1.852  -3.288  1.00  0.00     0.202 C 
BRANCH  78  79
ATOM     79  C   UNL     1       4.235  -0.811  -4.411  1.00  0.00     0.261 C 
BRANCH  79  80
ATOM     80  O   UNL     1       3.667   0.492  -4.136  1.00  0.00    -0.459 OA
BRANCH  80  81
ATOM     81  C   UNL     1       2.566   0.856  -4.852  1.00  0.00     0.371 C 
ATOM     82  O   UNL     1       2.027   0.113  -5.673  1.00  0.00    -0.245 OA
BRANCH  81  83
ATOM     83  C   UNL     1       2.024   2.284  -4.590  1.00  0.00     0.345 C 
ATOM     84  C   UNL     1       1.447   2.498  -3.221  1.00  0.00     0.108 A 
ATOM     85  N   UNL     1       2.935   3.402  -4.953  1.00  0.00    -0.314 N 
ATOM     86  N   UNL     1       0.463   1.804  -2.567  1.00  0.00    -0.343 N 
ATOM     87  C   UNL     1       1.723   3.558  -2.386  1.00  0.00     0.074 A 
ATOM     88  C   UNL     1       3.590   4.153  -3.866  1.00  0.00     0.270 C 
ATOM     89  H   UNL     1       2.211   4.076  -5.201  1.00  0.00     0.349 HD
ATOM     90  C   UNL     1       0.275   2.412  -1.350  1.00  0.00     0.197 A 
ATOM     91  H   UNL     1      -0.020   1.016  -2.906  1.00  0.00     0.167 HD
ATOM     92  N   UNL     1       1.025   3.483  -1.218  1.00  0.00    -0.241 NA
ATOM     93  C   UNL     1       2.631   4.656  -2.765  1.00  0.00     0.120 C 
BRANCH  85  94
ATOM     94  C   UNL     1       3.643   3.326  -6.225  1.00  0.00     0.303 C 
BRANCH  94  95
ATOM     95  C   UNL     1       5.064   2.890  -6.076  1.00  0.00     0.044 A 
ATOM     96  C   UNL     1       5.602   1.585  -6.239  1.00  0.00     0.051 A 
ATOM     97  C   UNL     1       6.156   3.682  -5.772  1.00  0.00     0.204 A 
ATOM     98  C   UNL     1       6.921   1.649  -5.860  1.00  0.00     0.195 A 
ATOM     99  O   UNL     1       7.275   2.933  -5.611  1.00  0.00    -0.472 OA
ENDBRANCH  94  95
ENDBRANCH  85  94
ENDBRANCH  81  83
ENDBRANCH  80  81
ENDBRANCH  79  80
ENDBRANCH  78  79
ENDBRANCH  77  78
ENDBRANCH  76  77
ENDBRANCH   1  76
TORSDOF 22
