REMARK SMILES Cc1ccc(-c2cc3cccnc3n2CCC(=O)OCCOCCOCCOC(=O)c2ccc(-c3c4nc(c(-c5c(F)cc(S(=O)(=O)[O-])cc5F)c5ccc([nH]5)c(-c5c(F)cc(S(=O)(=O)[O-])cc5F)c5nc(c(-c6c(F)cc(S(=O)(=O)[O-])cc6F)c6ccc3[nH]6)C=C5)C=C4)cc2)cn1
REMARK SMILES IDX 23 1 22 2 21 3 20 4 19 5 17 6 18 7 16 8 15 9 14 10 6 11 7 12
REMARK SMILES IDX 8 13 13 14 9 15 12 16 10 17 11 18 5 19 1 20 2 21 3 22 98 23
REMARK SMILES IDX 4 24 97 25 24 26 25 27 26 28 27 29 28 30 29 31 30 32 31 33
REMARK SMILES IDX 32 34 96 35 33 36 95 37 34 38 35 39 36 40 89 41 37 42 94 43
REMARK SMILES IDX 88 44 90 45 38 46 93 47 87 48 86 49 39 51 73 52 52 53 72 54
REMARK SMILES IDX 53 55 56 56 71 57 91 58 54 59 55 60 70 62 92 63 57 64 40 65
REMARK SMILES IDX 41 66 50 67 42 68 43 69 49 70 51 71 44 72 45 73 46 74 47 75
REMARK SMILES IDX 48 76 74 77 75 78 84 79 76 80 77 81 83 82 85 83 78 84 79 85
REMARK SMILES IDX 80 86 81 87 82 88 58 89 59 90 68 91 60 92 61 93 67 94 69 95
REMARK SMILES IDX 62 96 63 97 64 98 65 99 66 100
REMARK H PARENT 90 50 56 61
REMARK Flexibility Score: inf
ROOT
ATOM      1  C   UNL     1      -0.244   0.119   1.565  1.00  0.00     0.188 C 
ENDROOT
BRANCH   1   2
ATOM      2  O   UNL     1      -0.171  -0.055   0.050  1.00  0.00    -0.376 OA
BRANCH   2   3
ATOM      3  C   UNL     1      -0.447  -1.188  -1.571  1.00  0.00     0.202 C 
BRANCH   3   4
ATOM      4  C   UNL     1      -1.669  -2.353  -2.007  1.00  0.00     0.261 C 
BRANCH   4   5
ATOM      5  O   UNL     1      -2.932  -2.505  -1.301  1.00  0.00    -0.463 OA
BRANCH   5   6
ATOM      6  C   UNL     1      -3.107  -3.546  -0.450  1.00  0.00     0.307 C 
ATOM      7  O   UNL     1      -2.488  -4.601  -0.533  1.00  0.00    -0.252 OA
BRANCH   6   8
ATOM      8  C   UNL     1      -4.090  -3.265   0.692  1.00  0.00     0.144 C 
BRANCH   8   9
ATOM      9  C   UNL     1      -4.135  -1.877   1.347  1.00  0.00     0.136 C 
BRANCH   9  10
ATOM     10  N   UNL     1      -4.409  -0.784   0.442  1.00  0.00    -0.325 N 
ATOM     11  C   UNL     1      -3.480  -0.119  -0.331  1.00  0.00     0.052 A 
ATOM     12  C   UNL     1      -4.198   0.724  -1.167  1.00  0.00     0.039 A 
ATOM     13  C   UNL     1      -5.561   0.649  -0.826  1.00  0.00     0.020 A 
ATOM     14  C   UNL     1      -5.663  -0.262   0.218  1.00  0.00     0.140 A 
ATOM     15  C   UNL     1      -6.728   1.262  -1.297  1.00  0.00     0.013 A 
ATOM     16  N   UNL     1      -6.793  -0.601   0.874  1.00  0.00    -0.238 NA
ATOM     17  C   UNL     1      -7.914   0.964  -0.637  1.00  0.00     0.021 A 
ATOM     18  C   UNL     1      -7.882   0.069   0.425  1.00  0.00     0.113 A 
BRANCH  11  19
ATOM     19  C   UNL     1      -2.026  -0.332  -0.370  1.00  0.00     0.017 A 
ATOM     20  C   UNL     1       2.981  -0.217  -0.491  1.00  0.00     0.066 C 
ATOM     21  C   UNL     1       1.523  -0.470  -0.716  1.00  0.00     0.037 A 
ATOM     22  C   UNL     1       0.717  -1.797   0.181  1.00  0.00     0.024 A 
ATOM     23  N   UNL     1       0.636   0.835  -1.462  1.00  0.00    -0.261 NA
ATOM     24  C   UNL     1      -1.085  -1.733   0.365  1.00  0.00     0.014 A 
ATOM     25  C   UNL     1      -1.105   0.910  -1.269  1.00  0.00     0.121 A 
ENDBRANCH  11  19
ENDBRANCH   9  10
ENDBRANCH   8   9
ENDBRANCH   6   8
ENDBRANCH   5   6
ENDBRANCH   4   5
ENDBRANCH   3   4
ENDBRANCH   2   3
ENDBRANCH   1   2
BRANCH   1  26
ATOM     26  C   UNL     1      -1.400   1.032   2.022  1.00  0.00     0.188 C 
BRANCH  26  27
ATOM     27  O   UNL     1      -1.536   2.307   1.392  1.00  0.00    -0.376 OA
BRANCH  27  28
ATOM     28  C   UNL     1      -0.355   3.000   0.978  1.00  0.00     0.202 C 
BRANCH  28  29
ATOM     29  C   UNL     1       0.248   3.904   2.037  1.00  0.00     0.261 C 
BRANCH  29  30
ATOM     30  O   UNL     1       0.764   3.064   3.059  1.00  0.00    -0.460 OA
BRANCH  30  31
ATOM     31  C   UNL     1      -0.125   2.770   4.032  1.00  0.00     0.338 C 
ATOM     32  O   UNL     1      -1.197   3.325   4.241  1.00  0.00    -0.246 OA
BRANCH  31  33
ATOM     33  C   UNL     1       0.385   1.569   4.793  1.00  0.00     0.060 A 
ATOM     34  C   UNL     1      -0.333   1.443   5.980  1.00  0.00     0.016 A 
ATOM     35  C   UNL     1       1.773   1.562   4.820  1.00  0.00     0.016 A 
ATOM     36  C   UNL     1       0.200   2.103   7.059  1.00  0.00     0.010 A 
ATOM     37  C   UNL     1       2.301   2.310   5.832  1.00  0.00     0.010 A 
ATOM     38  C   UNL     1       1.467   2.665   6.899  1.00  0.00    -0.014 A 
BRANCH  38  39
ATOM     39  C   UNL     1       2.007   3.476   7.958  1.00  0.00     0.031 A 
ATOM     40  C   UNL     1       2.825   2.635   8.849  1.00  0.00     0.074 A 
ATOM     41  C   UNL     1       1.887   4.811   8.027  1.00  0.00     0.049 A 
ATOM     42  N   UNL     1       2.403   1.970   9.876  1.00  0.00    -0.248 NA
ATOM     43  C   UNL     1       4.125   2.175   8.328  1.00  0.00     0.031 C 
ATOM     44  C   UNL     1       1.347   5.756   7.051  1.00  0.00     0.029 A 
ATOM     45  N   UNL     1       2.335   5.617   9.023  1.00  0.00    -0.354 N 
ATOM     46  C   UNL     1       3.507   1.224  10.255  1.00  0.00     0.074 A 
ATOM     47  C   UNL     1       4.308   1.085   9.074  1.00  0.00     0.031 C 
ATOM     48  C   UNL     1       1.705   7.014   7.411  1.00  0.00     0.029 A 
ATOM     49  C   UNL     1       2.388   6.967   8.693  1.00  0.00     0.049 A 
ATOM     50  H   UNL     1       2.600   5.274   9.907  1.00  0.00     0.167 HD
ATOM     51  C   UNL     1       3.900   1.153  11.555  1.00  0.00     0.037 A 
ATOM     52  C   UNL     1       3.059   7.901   9.419  1.00  0.00     0.037 A 
ATOM     53  C   UNL     1       2.861   1.639  12.432  1.00  0.00     0.049 A 
ATOM     54  C   UNL     1       3.259   7.313  10.781  1.00  0.00     0.074 A 
ATOM     55  C   UNL     1       1.544   1.286  12.661  1.00  0.00     0.029 A 
ATOM     56  N   UNL     1       3.000   2.921  12.916  1.00  0.00    -0.354 N 
ATOM     57  N   UNL     1       2.279   7.054  11.607  1.00  0.00    -0.248 NA
ATOM     58  C   UNL     1       4.477   6.545  11.014  1.00  0.00     0.031 C 
ATOM     59  C   UNL     1       0.854   2.516  12.860  1.00  0.00     0.029 A 
ATOM     60  C   UNL     1       1.786   3.554  12.816  1.00  0.00     0.049 A 
ATOM     61  H   UNL     1       3.829   3.316  13.272  1.00  0.00     0.167 HD
ATOM     62  C   UNL     1       2.599   5.830  12.183  1.00  0.00     0.074 A 
ATOM     63  C   UNL     1       3.997   5.598  11.826  1.00  0.00     0.031 C 
ATOM     64  C   UNL     1       1.625   4.983  12.633  1.00  0.00     0.037 A 
BRANCH  51  65
ATOM     65  C   UNL     1       5.345   1.037  11.982  1.00  0.00     0.058 A 
ATOM     66  C   UNL     1       5.628   0.726  13.323  1.00  0.00     0.135 A 
ATOM     67  C   UNL     1       6.462   1.430  11.204  1.00  0.00     0.135 A 
ATOM     68  F   UNL     1       4.645   0.353  14.158  1.00  0.00    -0.206 F 
ATOM     69  C   UNL     1       6.909   0.852  13.862  1.00  0.00     0.059 A 
ATOM     70  C   UNL     1       7.753   1.494  11.701  1.00  0.00     0.059 A 
ATOM     71  F   UNL     1       6.368   1.872   9.947  1.00  0.00    -0.206 F 
ATOM     72  C   UNL     1       7.963   1.244  13.041  1.00  0.00     0.060 A 
BRANCH  72  73
ATOM     73  S   UNL     1       9.597   1.502  13.740  1.00  0.00     0.124 S 
ATOM     74  O   UNL     1       9.364   2.653  14.603  1.00  0.00    -0.237 OA
ATOM     75  O   UNL     1       9.837   0.230  14.412  1.00  0.00    -0.237 OA
ATOM     76  O   UNL     1      10.430   1.751  12.566  1.00  0.00    -0.744 OA
ENDBRANCH  72  73
ENDBRANCH  51  65
BRANCH  52  77
ATOM     77  C   UNL     1       3.857   9.059   8.924  1.00  0.00     0.058 A 
ATOM     78  C   UNL     1       4.352  10.035   9.810  1.00  0.00     0.135 A 
ATOM     79  C   UNL     1       4.391   9.084   7.620  1.00  0.00     0.135 A 
ATOM     80  F   UNL     1       3.917  10.077  11.079  1.00  0.00    -0.206 F 
ATOM     81  C   UNL     1       5.354  10.943   9.441  1.00  0.00     0.059 A 
ATOM     82  C   UNL     1       5.383   9.984   7.228  1.00  0.00     0.059 A 
ATOM     83  F   UNL     1       4.035   8.170   6.707  1.00  0.00    -0.206 F 
ATOM     84  C   UNL     1       5.881  10.893   8.152  1.00  0.00     0.060 A 
BRANCH  84  85
ATOM     85  S   UNL     1       7.296  11.936   7.723  1.00  0.00     0.124 S 
ATOM     86  O   UNL     1       6.717  13.274   7.779  1.00  0.00    -0.237 OA
ATOM     87  O   UNL     1       8.249  11.609   8.779  1.00  0.00    -0.237 OA
ATOM     88  O   UNL     1       7.668  11.474   6.388  1.00  0.00    -0.744 OA
ENDBRANCH  84  85
ENDBRANCH  52  77
BRANCH  64  89
ATOM     89  C   UNL     1       0.217   5.517  12.748  1.00  0.00     0.058 A 
ATOM     90  C   UNL     1      -0.579   5.901  11.654  1.00  0.00     0.135 A 
ATOM     91  C   UNL     1      -0.405   5.468  14.004  1.00  0.00     0.135 A 
ATOM     92  F   UNL     1      -0.088   5.878  10.407  1.00  0.00    -0.206 F 
ATOM     93  C   UNL     1      -1.924   6.249  11.807  1.00  0.00     0.059 A 
ATOM     94  C   UNL     1      -1.750   5.780  14.176  1.00  0.00     0.059 A 
ATOM     95  F   UNL     1       0.285   5.050  15.078  1.00  0.00    -0.206 F 
ATOM     96  C   UNL     1      -2.503   6.180  13.074  1.00  0.00     0.060 A 
BRANCH  96  97
ATOM     97  S   UNL     1      -4.261   6.549  13.265  1.00  0.00     0.124 S 
ATOM     98  O   UNL     1      -4.304   7.985  13.011  1.00  0.00    -0.237 OA
ATOM     99  O   UNL     1      -4.874   5.705  12.243  1.00  0.00    -0.237 OA
ATOM    100  O   UNL     1      -4.547   6.151  14.641  1.00  0.00    -0.744 OA
ENDBRANCH  96  97
ENDBRANCH  64  89
ENDBRANCH  38  39
ENDBRANCH  31  33
ENDBRANCH  30  31
ENDBRANCH  29  30
ENDBRANCH  28  29
ENDBRANCH  27  28
ENDBRANCH  26  27
ENDBRANCH   1  26
TORSDOF 23
