REMARK SMILES C[C@@H](C(=O)OCCOCCOCCOC(=O)c1ccc(-c2c3nc(c(-c4c(F)cc(S(=O)(=O)[O-])cc4F)c4ccc([nH]4)c(-c4c(F)cc(S(=O)(=O)[O-])cc4F)c4nc(c(-c5c(F)cc(S(=O)(=O)[O-])cc5F)c5ccc2[nH]5)C=C4)C=C3)cc1)c1ccc(-c2cccc(OC(=O)NCCC3CCCCC3)c2)c(F)c1
REMARK SMILES IDX 7 1 6 2 5 3 3 4 4 5 2 6 1 7 83 8 84 9 107 10 85 11 105 12
REMARK SMILES IDX 86 13 106 14 87 15 88 16 104 17 89 18 91 19 90 20 92 21
REMARK SMILES IDX 93 22 94 23 95 24 96 26 97 27 98 28 99 29 103 30 100 31
REMARK SMILES IDX 102 32 101 33 8 34 9 35 10 36 11 37 12 38 13 39 14 40 15 41
REMARK SMILES IDX 16 42 17 43 18 44 82 45 19 46 81 47 20 48 21 49 22 50 75 51
REMARK SMILES IDX 23 52 80 53 74 54 76 55 24 56 79 57 73 58 72 59 25 61 59 62
REMARK SMILES IDX 38 63 58 64 39 65 42 66 57 67 77 68 40 69 41 70 56 72 78 73
REMARK SMILES IDX 43 74 26 75 27 76 36 77 28 78 29 79 35 80 37 81 30 82 31 83
REMARK SMILES IDX 32 84 33 85 34 86 60 87 61 88 70 89 62 90 63 91 69 92 71 93
REMARK SMILES IDX 64 94 65 95 66 96 67 97 68 98 44 99 45 100 54 101 46 102
REMARK SMILES IDX 47 103 53 104 55 105 48 106 49 107 50 108 51 109 52 110
REMARK H PARENT 95 25 76 60 42 71
REMARK Flexibility Score: inf
ROOT
ATOM      1  C   UNL     1       2.556  -2.123  -4.238  1.00  0.00     0.202 C 
ENDROOT
BRANCH   1   2
ATOM      2  C   UNL     1       2.551  -0.588  -4.088  1.00  0.00     0.261 C 
BRANCH   2   3
ATOM      3  O   UNL     1       2.086  -0.069  -2.819  1.00  0.00    -0.463 OA
BRANCH   3   4
ATOM      4  C   UNL     1       1.151   0.923  -2.874  1.00  0.00     0.313 C 
ATOM      5  O   UNL     1       0.723   1.388  -3.926  1.00  0.00    -0.252 OA
BRANCH   4   6
ATOM      6  C   UNL     1       0.679   1.451  -1.502  1.00  0.00     0.126 C 
ATOM      7  C   UNL     1       1.358   0.907  -0.239  1.00  0.00     0.025 C 
BRANCH   6   8
ATOM      8  C   UNL     1      -0.840   1.381  -1.366  1.00  0.00    -0.031 A 
ATOM      9  C   UNL     1      -1.621   2.536  -1.220  1.00  0.00     0.005 A 
ATOM     10  C   UNL     1      -1.504   0.154  -1.390  1.00  0.00     0.044 A 
ATOM     11  C   UNL     1      -3.023   2.456  -1.115  1.00  0.00     0.012 A 
ATOM     12  C   UNL     1      -2.889   0.087  -1.306  1.00  0.00     0.131 A 
ATOM     13  C   UNL     1      -3.685   1.221  -1.154  1.00  0.00     0.018 A 
ATOM     14  F   UNL     1      -3.448  -1.123  -1.373  1.00  0.00    -0.206 F 
BRANCH  13  15
ATOM     15  C   UNL     1      -5.142   1.093  -1.005  1.00  0.00    -0.012 A 
ATOM     16  C   UNL     1      -6.025   1.684  -1.919  1.00  0.00     0.009 A 
ATOM     17  C   UNL     1      -5.682   0.338   0.056  1.00  0.00     0.056 A 
ATOM     18  C   UNL     1      -7.405   1.526  -1.775  1.00  0.00     0.004 A 
ATOM     19  C   UNL     1      -7.060   0.173   0.192  1.00  0.00     0.133 A 
ATOM     20  C   UNL     1      -7.925   0.766  -0.726  1.00  0.00     0.047 A 
BRANCH  19  21
ATOM     21  O   UNL     1      -7.686  -0.527   1.259  1.00  0.00    -0.410 OA
BRANCH  21  22
ATOM     22  C   UNL     1      -7.044  -1.305   2.221  1.00  0.00     0.412 C 
ATOM     23  O   UNL     1      -5.842  -1.571   2.254  1.00  0.00    -0.224 OA
ATOM     24  N   UNL     1      -7.864  -1.748   3.221  1.00  0.00    -0.321 N 
ATOM     25  H   UNL     1      -7.431  -2.272   3.933  1.00  0.00     0.167 HD
BRANCH  24  26
ATOM     26  C   UNL     1      -9.294  -1.540   3.364  1.00  0.00     0.119 C 
BRANCH  26  27
ATOM     27  C   UNL     1     -10.044  -2.857   3.576  1.00  0.00     0.025 C 
BRANCH  27  28
ATOM     28  C   UNL     1      -9.738  -3.597   4.899  1.00  0.00    -0.009 C 
ATOM     29  C   UNL     1     -10.269  -2.879   6.148  1.00  0.00     0.003 C 
ATOM     30  C   UNL     1     -10.350  -5.001   4.845  1.00  0.00     0.003 C 
ATOM     31  C   UNL     1     -10.013  -3.691   7.426  1.00  0.00     0.000 C 
ATOM     32  C   UNL     1     -10.040  -5.809   6.096  1.00  0.00     0.000 C 
ATOM     33  C   UNL     1     -10.562  -5.112   7.337  1.00  0.00     0.000 C 
ENDBRANCH  27  28
ENDBRANCH  26  27
ENDBRANCH  24  26
ENDBRANCH  21  22
ENDBRANCH  19  21
ENDBRANCH  13  15
ENDBRANCH   6   8
ENDBRANCH   4   6
ENDBRANCH   3   4
ENDBRANCH   2   3
ENDBRANCH   1   2
BRANCH   1  34
ATOM     34  O   UNL     1       1.347  -2.854  -4.059  1.00  0.00    -0.376 OA
BRANCH  34  35
ATOM     35  C   UNL     1       0.549  -2.560  -2.920  1.00  0.00     0.188 C 
BRANCH  35  36
ATOM     36  C   UNL     1       1.248  -2.487  -1.550  1.00  0.00     0.188 C 
BRANCH  36  37
ATOM     37  O   UNL     1       2.617  -2.820  -1.584  1.00  0.00    -0.376 OA
BRANCH  37  38
ATOM     38  C   UNL     1       3.025  -4.069  -1.061  1.00  0.00     0.202 C 
BRANCH  38  39
ATOM     39  C   UNL     1       2.249  -5.355  -1.392  1.00  0.00     0.261 C 
BRANCH  39  40
ATOM     40  O   UNL     1       0.816  -5.287  -1.368  1.00  0.00    -0.460 OA
BRANCH  40  41
ATOM     41  C   UNL     1       0.205  -5.222  -0.162  1.00  0.00     0.338 C 
ATOM     42  O   UNL     1       0.752  -5.211   0.929  1.00  0.00    -0.246 OA
BRANCH  41  43
ATOM     43  C   UNL     1      -1.230  -4.928  -0.410  1.00  0.00     0.060 A 
ATOM     44  C   UNL     1      -1.825  -3.839   0.240  1.00  0.00     0.016 A 
ATOM     45  C   UNL     1      -1.974  -5.696  -1.312  1.00  0.00     0.016 A 
ATOM     46  C   UNL     1      -3.170  -3.533   0.002  1.00  0.00     0.010 A 
ATOM     47  C   UNL     1      -3.319  -5.389  -1.546  1.00  0.00     0.010 A 
ATOM     48  C   UNL     1      -3.932  -4.313  -0.881  1.00  0.00    -0.014 A 
BRANCH  48  49
ATOM     49  C   UNL     1      -5.414  -4.166  -0.921  1.00  0.00     0.031 A 
ATOM     50  C   UNL     1      -6.214  -5.011   0.030  1.00  0.00     0.074 A 
ATOM     51  C   UNL     1      -6.047  -3.382  -1.812  1.00  0.00     0.049 A 
ATOM     52  N   UNL     1      -7.508  -5.175   0.127  1.00  0.00    -0.248 NA
ATOM     53  C   UNL     1      -5.427  -5.849   0.946  1.00  0.00     0.031 C 
ATOM     54  C   UNL     1      -5.394  -2.589  -2.847  1.00  0.00     0.029 A 
ATOM     55  N   UNL     1      -7.387  -3.138  -2.001  1.00  0.00    -0.354 N 
ATOM     56  C   UNL     1      -7.687  -6.152   1.099  1.00  0.00     0.074 A 
ATOM     57  C   UNL     1      -6.368  -6.600   1.490  1.00  0.00     0.031 C 
ATOM     58  C   UNL     1      -6.329  -1.925  -3.548  1.00  0.00     0.029 A 
ATOM     59  C   UNL     1      -7.654  -2.284  -3.047  1.00  0.00     0.049 A 
ATOM     60  H   UNL     1      -8.091  -3.537  -1.439  1.00  0.00     0.167 HD
ATOM     61  C   UNL     1      -8.841  -6.607   1.646  1.00  0.00     0.037 A 
ATOM     62  C   UNL     1      -8.832  -1.859  -3.553  1.00  0.00     0.037 A 
ATOM     63  C   UNL     1     -10.148  -6.116   1.252  1.00  0.00     0.049 A 
ATOM     64  C   UNL     1     -10.114  -2.337  -2.916  1.00  0.00     0.074 A 
ATOM     65  C   UNL     1     -11.390  -6.417   1.786  1.00  0.00     0.029 A 
ATOM     66  N   UNL     1     -10.380  -5.183   0.242  1.00  0.00    -0.354 N 
ATOM     67  N   UNL     1     -10.280  -3.149  -1.897  1.00  0.00    -0.248 NA
ATOM     68  C   UNL     1     -11.373  -1.847  -3.496  1.00  0.00     0.031 C 
ATOM     69  C   UNL     1     -12.365  -5.684   1.101  1.00  0.00     0.029 A 
ATOM     70  C   UNL     1     -11.738  -4.911   0.139  1.00  0.00     0.049 A 
ATOM     71  H   UNL     1      -9.680  -4.776  -0.318  1.00  0.00     0.167 HD
ATOM     72  C   UNL     1     -11.654  -3.254  -1.709  1.00  0.00     0.074 A 
ATOM     73  C   UNL     1     -12.275  -2.392  -2.693  1.00  0.00     0.031 C 
ATOM     74  C   UNL     1     -12.342  -4.012  -0.818  1.00  0.00     0.037 A 
BRANCH  61  75
ATOM     75  C   UNL     1      -8.722  -7.616   2.780  1.00  0.00     0.058 A 
ATOM     76  C   UNL     1      -7.976  -7.336   3.945  1.00  0.00     0.135 A 
ATOM     77  C   UNL     1      -9.420  -8.833   2.763  1.00  0.00     0.135 A 
ATOM     78  F   UNL     1      -7.318  -6.170   4.070  1.00  0.00    -0.206 F 
ATOM     79  C   UNL     1      -7.912  -8.213   5.021  1.00  0.00     0.059 A 
ATOM     80  C   UNL     1      -9.427  -9.698   3.860  1.00  0.00     0.059 A 
ATOM     81  F   UNL     1     -10.139  -9.186   1.686  1.00  0.00    -0.206 F 
ATOM     82  C   UNL     1      -8.677  -9.372   4.988  1.00  0.00     0.060 A 
BRANCH  82  83
ATOM     83  S   UNL     1      -8.722 -10.389   6.476  1.00  0.00     0.124 S 
ATOM     84  O   UNL     1      -7.309 -10.702   6.670  1.00  0.00    -0.237 OA
ATOM     85  O   UNL     1      -9.305  -9.469   7.449  1.00  0.00    -0.237 OA
ATOM     86  O   UNL     1      -9.565 -11.517   6.094  1.00  0.00    -0.744 OA
ENDBRANCH  82  83
ENDBRANCH  61  75
BRANCH  62  87
ATOM     87  C   UNL     1      -8.859  -0.945  -4.734  1.00  0.00     0.058 A 
ATOM     88  C   UNL     1      -9.379   0.356  -4.647  1.00  0.00     0.135 A 
ATOM     89  C   UNL     1      -8.368  -1.357  -5.984  1.00  0.00     0.135 A 
ATOM     90  F   UNL     1      -9.913   0.791  -3.495  1.00  0.00    -0.206 F 
ATOM     91  C   UNL     1      -9.395   1.218  -5.740  1.00  0.00     0.059 A 
ATOM     92  C   UNL     1      -8.351  -0.507  -7.086  1.00  0.00     0.059 A 
ATOM     93  F   UNL     1      -7.879  -2.597  -6.139  1.00  0.00    -0.206 F 
ATOM     94  C   UNL     1      -8.869   0.780  -6.955  1.00  0.00     0.060 A 
BRANCH  94  95
ATOM     95  S   UNL     1      -8.845   1.926  -8.349  1.00  0.00     0.124 S 
ATOM     96  O   UNL     1     -10.264   2.030  -8.671  1.00  0.00    -0.237 OA
ATOM     97  O   UNL     1      -8.239   3.114  -7.755  1.00  0.00    -0.237 OA
ATOM     98  O   UNL     1      -8.022   1.238  -9.338  1.00  0.00    -0.744 OA
ENDBRANCH  94  95
ENDBRANCH  62  87
BRANCH  74  99
ATOM     99  C   UNL     1     -13.847  -3.904  -0.840  1.00  0.00     0.058 A 
ATOM    100  C   UNL     1     -14.610  -4.457  -1.882  1.00  0.00     0.135 A 
ATOM    101  C   UNL     1     -14.538  -3.266   0.204  1.00  0.00     0.135 A 
ATOM    102  F   UNL     1     -14.003  -5.067  -2.913  1.00  0.00    -0.206 F 
ATOM    103  C   UNL     1     -15.999  -4.361  -1.902  1.00  0.00     0.059 A 
ATOM    104  C   UNL     1     -15.929  -3.183   0.219  1.00  0.00     0.059 A 
ATOM    105  F   UNL     1     -13.863  -2.724   1.230  1.00  0.00    -0.206 F 
ATOM    106  C   UNL     1     -16.651  -3.724  -0.845  1.00  0.00     0.060 A 
BRANCH 106 107
ATOM    107  S   UNL     1     -18.455  -3.633  -0.872  1.00  0.00     0.124 S 
ATOM    108  O   UNL     1     -18.688  -2.674  -1.946  1.00  0.00    -0.237 OA
ATOM    109  O   UNL     1     -18.832  -5.013  -1.162  1.00  0.00    -0.237 OA
ATOM    110  O   UNL     1     -18.793  -3.166   0.470  1.00  0.00    -0.744 OA
ENDBRANCH 106 107
ENDBRANCH  74  99
ENDBRANCH  48  49
ENDBRANCH  41  43
ENDBRANCH  40  41
ENDBRANCH  39  40
ENDBRANCH  38  39
ENDBRANCH  37  38
ENDBRANCH  36  37
ENDBRANCH  35  36
ENDBRANCH  34  35
ENDBRANCH   1  34
TORSDOF 27
