REMARK SMILES CCOc1ccc(CNC(=O)Cc2c(C(=O)OCCOCCOCCOC(=O)c3ccc(-c4c5nc(c(-c6c(F)cc(S(=O)(=O)[O-])cc6F)c6ccc([nH]6)c(-c6c(F)cc(S(=O)(=O)[O-])cc6F)c6nc(c(-c7c(F)cc(S(=O)(=O)[O-])cc7F)c7ccc4[nH]7)C=C6)C=C5)cc3)c(C)cn2C)cc1
REMARK SMILES IDX 20 1 19 2 18 3 17 4 15 5 16 6 14 7 13 8 98 9 95 10 97 11
REMARK SMILES IDX 99 12 96 13 12 14 10 15 9 16 11 18 8 19 7 20 4 21 5 22
REMARK SMILES IDX 101 23 6 24 100 25 3 26 2 27 1 28 21 29 22 30 23 31 24 32
REMARK SMILES IDX 25 33 26 34 27 35 28 36 29 37 30 38 94 39 31 40 93 41 32 42
REMARK SMILES IDX 33 43 34 44 87 45 35 46 92 47 86 48 88 49 36 50 91 51 85 52
REMARK SMILES IDX 84 53 37 55 71 56 50 57 70 58 51 59 54 60 69 61 89 62 52 63
REMARK SMILES IDX 53 64 68 66 90 67 55 68 38 69 39 70 48 71 40 72 41 73 47 74
REMARK SMILES IDX 49 75 42 76 43 77 44 78 45 79 46 80 72 81 73 82 82 83 74 84
REMARK SMILES IDX 75 85 81 86 83 87 76 88 77 89 78 90 79 91 80 92 56 93 57 94
REMARK SMILES IDX 66 95 58 96 59 97 65 98 67 99 60 100 61 101 62 102 63 103
REMARK SMILES IDX 64 104
REMARK H PARENT 9 17 88 54 54 65
REMARK Flexibility Score: inf
ROOT
ATOM      1  O   UNL     1       4.311  -3.230  -7.784  1.00  0.00    -0.376 OA
ENDROOT
BRANCH   1   2
ATOM      2  C   UNL     1       3.871  -3.454  -6.449  1.00  0.00     0.202 C 
BRANCH   2   3
ATOM      3  C   UNL     1       2.950  -2.371  -5.840  1.00  0.00     0.261 C 
BRANCH   3   4
ATOM      4  O   UNL     1       3.405  -1.010  -5.955  1.00  0.00    -0.460 OA
BRANCH   4   5
ATOM      5  C   UNL     1       4.578  -0.759  -5.302  1.00  0.00     0.340 C 
ATOM      6  O   UNL     1       5.107  -1.607  -4.619  1.00  0.00    -0.246 OA
BRANCH   5   7
ATOM      7  C   UNL     1       5.162   0.575  -5.602  1.00  0.00     0.084 A 
ATOM      8  C   UNL     1       6.523   0.935  -5.512  1.00  0.00     0.041 A 
ATOM      9  N   UNL     1       6.617   2.271  -5.867  1.00  0.00    -0.353 N 
ATOM     10  C   UNL     1       4.460   1.755  -6.065  1.00  0.00    -0.019 A 
ATOM     11  C   UNL     1       5.388   2.766  -6.184  1.00  0.00     0.089 A 
ATOM     12  C   UNL     1       7.832   3.062  -5.943  1.00  0.00     0.149 C 
ATOM     13  C   UNL     1       3.011   1.908  -6.374  1.00  0.00     0.047 C 
BRANCH   8  14
ATOM     14  C   UNL     1       7.795   0.169  -5.219  1.00  0.00     0.154 C 
BRANCH  14  15
ATOM     15  C   UNL     1       7.677  -1.105  -4.417  1.00  0.00     0.226 C 
ATOM     16  N   UNL     1       7.249  -1.081  -3.120  1.00  0.00    -0.352 N 
ATOM     17  H   UNL     1       7.291  -1.948  -2.655  1.00  0.00     0.163 HD
ATOM     18  O   UNL     1       8.054  -2.180  -4.894  1.00  0.00    -0.275 OA
BRANCH  16  19
ATOM     19  C   UNL     1       6.744   0.018  -2.317  1.00  0.00     0.151 C 
BRANCH  19  20
ATOM     20  C   UNL     1       5.255  -0.076  -2.043  1.00  0.00    -0.029 A 
ATOM     21  C   UNL     1       2.471  -0.366  -1.769  1.00  0.00     0.119 A 
ATOM     22  C   UNL     1       2.985   0.684  -2.518  1.00  0.00     0.047 A 
ATOM     23  C   UNL     1       3.329  -1.269  -1.149  1.00  0.00     0.047 A 
ATOM     24  C   UNL     1       4.368   0.857  -2.604  1.00  0.00     0.009 A 
ATOM     25  C   UNL     1       4.715  -1.129  -1.288  1.00  0.00     0.009 A 
BRANCH  21  26
ATOM     26  O   UNL     1       1.124  -0.584  -1.672  1.00  0.00    -0.494 OA
BRANCH  26  27
ATOM     27  C   UNL     1       0.445   0.477  -0.992  1.00  0.00     0.226 C 
ATOM     28  C   UNL     1       0.509   0.253   0.509  1.00  0.00     0.049 C 
ENDBRANCH  26  27
ENDBRANCH  21  26
ENDBRANCH  19  20
ENDBRANCH  16  19
ENDBRANCH  14  15
ENDBRANCH   8  14
ENDBRANCH   5   7
ENDBRANCH   4   5
ENDBRANCH   3   4
ENDBRANCH   2   3
ENDBRANCH   1   2
BRANCH   1  29
ATOM     29  C   UNL     1       5.240  -2.172  -7.947  1.00  0.00     0.188 C 
BRANCH  29  30
ATOM     30  C   UNL     1       4.673  -0.903  -8.624  1.00  0.00     0.188 C 
BRANCH  30  31
ATOM     31  O   UNL     1       3.289  -0.741  -8.928  1.00  0.00    -0.376 OA
BRANCH  31  32
ATOM     32  C   UNL     1       2.456  -1.828  -9.310  1.00  0.00     0.202 C 
BRANCH  32  33
ATOM     33  C   UNL     1       2.762  -2.630 -10.571  1.00  0.00     0.261 C 
BRANCH  33  34
ATOM     34  O   UNL     1       4.120  -3.005 -10.650  1.00  0.00    -0.460 OA
BRANCH  34  35
ATOM     35  C   UNL     1       4.880  -2.078 -11.264  1.00  0.00     0.338 C 
ATOM     36  O   UNL     1       4.505  -1.050 -11.803  1.00  0.00    -0.246 OA
BRANCH  35  37
ATOM     37  C   UNL     1       6.286  -2.488 -11.173  1.00  0.00     0.060 A 
ATOM     38  C   UNL     1       7.182  -1.617 -11.785  1.00  0.00     0.016 A 
ATOM     39  C   UNL     1       6.585  -3.831 -10.901  1.00  0.00     0.016 A 
ATOM     40  C   UNL     1       8.142  -2.199 -12.559  1.00  0.00     0.010 A 
ATOM     41  C   UNL     1       7.558  -4.411 -11.658  1.00  0.00     0.010 A 
ATOM     42  C   UNL     1       8.177  -3.596 -12.594  1.00  0.00    -0.014 A 
BRANCH  42  43
ATOM     43  C   UNL     1       8.789  -4.197 -13.745  1.00  0.00     0.031 A 
ATOM     44  C   UNL     1      10.249  -4.183 -13.661  1.00  0.00     0.074 A 
ATOM     45  C   UNL     1       8.057  -4.697 -14.755  1.00  0.00     0.049 A 
ATOM     46  N   UNL     1      11.051  -3.359 -14.242  1.00  0.00    -0.248 NA
ATOM     47  C   UNL     1      10.861  -5.011 -12.615  1.00  0.00     0.031 C 
ATOM     48  C   UNL     1       6.615  -4.955 -14.832  1.00  0.00     0.029 A 
ATOM     49  N   UNL     1       8.512  -5.153 -15.947  1.00  0.00    -0.354 N 
ATOM     50  C   UNL     1      12.312  -3.737 -13.814  1.00  0.00     0.074 A 
ATOM     51  C   UNL     1      12.117  -4.569 -12.655  1.00  0.00     0.031 C 
ATOM     52  C   UNL     1       6.361  -5.726 -15.917  1.00  0.00     0.029 A 
ATOM     53  C   UNL     1       7.589  -5.891 -16.673  1.00  0.00     0.049 A 
ATOM     54  H   UNL     1       9.424  -4.974 -16.271  1.00  0.00     0.167 HD
ATOM     55  C   UNL     1      13.396  -3.574 -14.615  1.00  0.00     0.037 A 
ATOM     56  C   UNL     1       7.893  -6.649 -17.757  1.00  0.00     0.037 A 
ATOM     57  C   UNL     1      13.128  -2.648 -15.689  1.00  0.00     0.049 A 
ATOM     58  C   UNL     1       9.168  -6.103 -18.311  1.00  0.00     0.074 A 
ATOM     59  C   UNL     1      12.769  -1.314 -15.745  1.00  0.00     0.029 A 
ATOM     60  N   UNL     1      12.819  -3.170 -16.925  1.00  0.00    -0.354 N 
ATOM     61  N   UNL     1       9.269  -4.908 -18.835  1.00  0.00    -0.248 NA
ATOM     62  C   UNL     1      10.422  -6.668 -17.826  1.00  0.00     0.031 C 
ATOM     63  C   UNL     1      11.849  -1.217 -16.831  1.00  0.00     0.029 A 
ATOM     64  C   UNL     1      11.732  -2.482 -17.409  1.00  0.00     0.049 A 
ATOM     65  H   UNL     1      13.292  -3.903 -17.380  1.00  0.00     0.167 HD
ATOM     66  C   UNL     1      10.489  -4.412 -18.389  1.00  0.00     0.074 A 
ATOM     67  C   UNL     1      11.184  -5.569 -17.828  1.00  0.00     0.031 C 
ATOM     68  C   UNL     1      10.705  -3.069 -18.248  1.00  0.00     0.037 A 
BRANCH  55  69
ATOM     69  C   UNL     1      14.544  -4.542 -14.629  1.00  0.00     0.058 A 
ATOM     70  C   UNL     1      15.729  -4.191 -15.298  1.00  0.00     0.135 A 
ATOM     71  C   UNL     1      14.436  -5.898 -14.237  1.00  0.00     0.135 A 
ATOM     72  F   UNL     1      15.924  -2.934 -15.725  1.00  0.00    -0.206 F 
ATOM     73  C   UNL     1      16.708  -5.133 -15.610  1.00  0.00     0.059 A 
ATOM     74  C   UNL     1      15.426  -6.836 -14.479  1.00  0.00     0.059 A 
ATOM     75  F   UNL     1      13.324  -6.407 -13.693  1.00  0.00    -0.206 F 
ATOM     76  C   UNL     1      16.538  -6.456 -15.208  1.00  0.00     0.060 A 
BRANCH  76  77
ATOM     77  S   UNL     1      17.735  -7.698 -15.714  1.00  0.00     0.124 S 
ATOM     78  O   UNL     1      17.487  -7.767 -17.150  1.00  0.00    -0.237 OA
ATOM     79  O   UNL     1      18.995  -7.084 -15.309  1.00  0.00    -0.237 OA
ATOM     80  O   UNL     1      17.341  -8.876 -14.947  1.00  0.00    -0.744 OA
ENDBRANCH  76  77
ENDBRANCH  55  69
BRANCH  56  81
ATOM     81  C   UNL     1       7.403  -8.028 -18.030  1.00  0.00     0.058 A 
ATOM     82  C   UNL     1       7.627  -8.654 -19.269  1.00  0.00     0.135 A 
ATOM     83  C   UNL     1       6.936  -8.864 -16.993  1.00  0.00     0.135 A 
ATOM     84  F   UNL     1       8.099  -7.944 -20.305  1.00  0.00    -0.206 F 
ATOM     85  C   UNL     1       7.436 -10.029 -19.458  1.00  0.00     0.059 A 
ATOM     86  C   UNL     1       6.729 -10.232 -17.159  1.00  0.00     0.059 A 
ATOM     87  F   UNL     1       6.749  -8.393 -15.751  1.00  0.00    -0.206 F 
ATOM     88  C   UNL     1       7.002 -10.814 -18.389  1.00  0.00     0.060 A 
BRANCH  88  89
ATOM     89  S   UNL     1       6.905 -12.611 -18.577  1.00  0.00     0.124 S 
ATOM     90  O   UNL     1       5.777 -12.759 -19.489  1.00  0.00    -0.237 OA
ATOM     91  O   UNL     1       8.217 -12.935 -19.128  1.00  0.00    -0.237 OA
ATOM     92  O   UNL     1       6.671 -13.083 -17.215  1.00  0.00    -0.744 OA
ENDBRANCH  88  89
ENDBRANCH  56  81
BRANCH  68  93
ATOM     93  C   UNL     1       9.665  -2.124 -18.803  1.00  0.00     0.058 A 
ATOM     94  C   UNL     1       8.364  -1.998 -18.283  1.00  0.00     0.135 A 
ATOM     95  C   UNL     1      10.050  -1.198 -19.783  1.00  0.00     0.135 A 
ATOM     96  F   UNL     1       7.953  -2.773 -17.271  1.00  0.00    -0.206 F 
ATOM     97  C   UNL     1       7.474  -1.022 -18.740  1.00  0.00     0.059 A 
ATOM     98  C   UNL     1       9.189  -0.199 -20.235  1.00  0.00     0.059 A 
ATOM     99  F   UNL     1      11.300  -1.220 -20.273  1.00  0.00    -0.206 F 
ATOM    100  C   UNL     1       7.897  -0.123 -19.718  1.00  0.00     0.060 A 
BRANCH 100 101
ATOM    101  S   UNL     1       6.779   1.193 -20.250  1.00  0.00     0.124 S 
ATOM    102  O   UNL     1       5.795   0.461 -21.039  1.00  0.00    -0.237 OA
ATOM    103  O   UNL     1       6.298   1.736 -18.982  1.00  0.00    -0.237 OA
ATOM    104  O   UNL     1       7.646   2.091 -21.010  1.00  0.00    -0.744 OA
ENDBRANCH 100 101
ENDBRANCH  68  93
ENDBRANCH  42  43
ENDBRANCH  35  37
ENDBRANCH  34  35
ENDBRANCH  33  34
ENDBRANCH  32  33
ENDBRANCH  31  32
ENDBRANCH  30  31
ENDBRANCH  29  30
ENDBRANCH   1  29
TORSDOF 26
