REMARK SMILES Cc1nn([C@H]2CCS(=O)(=O)C2)c(C)c1/C=C(\CC(=O)OCCOCCOCCOC(=O)c1ccc(-c2c3nc(c(-c4c(F)cc(S(=O)(=O)[O-])cc4F)c4ccc([nH]4)c(-c4c(F)cc(S(=O)(=O)[O-])cc4F)c4nc(c(-c5c(F)cc(S(=O)(=O)[O-])cc5F)c5ccc2[nH]5)C=C4)C=C3)cc1)c1nc2ccccc2s1
REMARK SMILES IDX 24 1 23 2 22 3 21 4 20 5 18 6 19 7 17 8 16 9 15 10 14 11
REMARK SMILES IDX 1 12 2 13 3 14 4 15 12 16 13 17 5 18 6 19 11 20 7 21 8 22
REMARK SMILES IDX 9 23 10 24 98 25 99 26 106 27 100 28 105 29 101 30 104 31
REMARK SMILES IDX 102 32 103 33 25 34 26 35 27 36 28 37 29 38 30 39 31 40
REMARK SMILES IDX 32 41 33 42 97 43 34 44 96 45 35 46 36 47 37 48 90 49 38 50
REMARK SMILES IDX 95 51 89 52 91 53 39 54 94 55 88 56 87 57 40 59 74 60 53 61
REMARK SMILES IDX 73 62 54 63 57 64 72 65 92 66 55 67 56 68 71 70 93 71 58 72
REMARK SMILES IDX 41 73 42 74 51 75 43 76 44 77 50 78 52 79 45 80 46 81 47 82
REMARK SMILES IDX 48 83 49 84 75 85 76 86 85 87 77 88 78 89 84 90 86 91 79 92
REMARK SMILES IDX 80 93 81 94 82 95 83 96 59 97 60 98 69 99 61 100 62 101
REMARK SMILES IDX 68 102 70 103 63 104 64 105 65 106 66 107 67 108
REMARK H PARENT 91 58 57 69
REMARK Flexibility Score: inf
ROOT
ATOM      1  C   UNL     1      -4.971   4.382  -9.915  1.00  0.00     0.188 C 
ENDROOT
BRANCH   1   2
ATOM      2  O   UNL     1      -4.021   5.440  -9.960  1.00  0.00    -0.376 OA
BRANCH   2   3
ATOM      3  C   UNL     1      -2.679   5.180 -10.334  1.00  0.00     0.202 C 
BRANCH   3   4
ATOM      4  C   UNL     1      -1.868   4.195  -9.467  1.00  0.00     0.261 C 
BRANCH   4   5
ATOM      5  O   UNL     1      -2.510   2.923  -9.174  1.00  0.00    -0.463 OA
BRANCH   5   6
ATOM      6  C   UNL     1      -3.246   2.939  -8.046  1.00  0.00     0.310 C 
ATOM      7  O   UNL     1      -3.197   3.866  -7.233  1.00  0.00    -0.252 OA
BRANCH   6   8
ATOM      8  C   UNL     1      -4.167   1.751  -7.723  1.00  0.00     0.161 C 
BRANCH   8   9
ATOM      9  C   UNL     1      -4.572   0.356  -8.246  1.00  0.00    -0.000 C 
ATOM     10  C   UNL     1      -4.059  -0.761  -7.644  1.00  0.00     0.019 C 
BRANCH  10  11
ATOM     11  C   UNL     1      -2.973  -0.773  -6.709  1.00  0.00     0.019 A 
ATOM     12  C   UNL     1      -1.553  -2.786  -7.542  1.00  0.00     0.069 C 
ATOM     13  C   UNL     1      -1.796  -1.550  -6.756  1.00  0.00     0.067 A 
ATOM     14  N   UNL     1      -0.848  -1.006  -5.976  1.00  0.00    -0.177 NA
ATOM     15  N   UNL     1      -1.462   0.075  -5.431  1.00  0.00    -0.265 N 
ATOM     16  C   UNL     1      -2.833  -0.034  -5.540  1.00  0.00     0.043 A 
ATOM     17  C   UNL     1      -3.847   0.669  -4.696  1.00  0.00     0.067 C 
BRANCH  15  18
ATOM     18  C   UNL     1      -0.639   1.210  -5.011  1.00  0.00     0.123 C 
ATOM     19  C   UNL     1       0.330   1.677  -6.128  1.00  0.00     0.044 C 
ATOM     20  C   UNL     1      -1.394   2.482  -4.627  1.00  0.00     0.164 C 
ATOM     21  C   UNL     1       0.990   2.976  -5.673  1.00  0.00     0.139 C 
ATOM     22  S   UNL     1      -0.166   3.758  -4.574  1.00  0.00     0.152 S 
ATOM     23  O   UNL     1       0.405   3.776  -3.247  1.00  0.00    -0.229 OA
ATOM     24  O   UNL     1      -0.678   4.958  -5.208  1.00  0.00    -0.229 OA
ENDBRANCH  15  18
ENDBRANCH  10  11
BRANCH   9  25
ATOM     25  C   UNL     1      -5.719   0.147  -9.137  1.00  0.00     0.121 A 
ATOM     26  N   UNL     1      -6.803   0.905  -9.179  1.00  0.00    -0.236 NA
ATOM     27  S   UNL     1      -5.754  -1.147 -10.309  1.00  0.00    -0.114 S 
ATOM     28  C   UNL     1      -7.670   0.507 -10.206  1.00  0.00     0.082 A 
ATOM     29  C   UNL     1      -7.238  -0.578 -10.965  1.00  0.00     0.055 A 
ATOM     30  C   UNL     1      -8.895   1.113 -10.563  1.00  0.00     0.030 A 
ATOM     31  C   UNL     1      -7.967  -1.044 -12.079  1.00  0.00     0.021 A 
ATOM     32  C   UNL     1      -9.559   0.744 -11.740  1.00  0.00     0.002 A 
ATOM     33  C   UNL     1      -9.097  -0.328 -12.490  1.00  0.00     0.002 A 
ENDBRANCH   9  25
ENDBRANCH   8   9
ENDBRANCH   6   8
ENDBRANCH   5   6
ENDBRANCH   4   5
ENDBRANCH   3   4
ENDBRANCH   2   3
ENDBRANCH   1   2
BRANCH   1  34
ATOM     34  C   UNL     1      -4.800   3.092 -10.759  1.00  0.00     0.188 C 
BRANCH  34  35
ATOM     35  O   UNL     1      -3.688   3.107 -11.626  1.00  0.00    -0.376 OA
BRANCH  35  36
ATOM     36  C   UNL     1      -3.890   2.944 -13.010  1.00  0.00     0.202 C 
BRANCH  36  37
ATOM     37  C   UNL     1      -4.855   3.883 -13.737  1.00  0.00     0.261 C 
BRANCH  37  38
ATOM     38  O   UNL     1      -5.646   4.712 -12.895  1.00  0.00    -0.460 OA
BRANCH  38  39
ATOM     39  C   UNL     1      -6.842   4.160 -12.607  1.00  0.00     0.338 C 
ATOM     40  O   UNL     1      -7.232   3.050 -12.934  1.00  0.00    -0.246 OA
BRANCH  39  41
ATOM     41  C   UNL     1      -7.639   5.103 -11.796  1.00  0.00     0.060 A 
ATOM     42  C   UNL     1      -8.522   4.455 -10.929  1.00  0.00     0.016 A 
ATOM     43  C   UNL     1      -8.029   6.199 -12.552  1.00  0.00     0.016 A 
ATOM     44  C   UNL     1      -9.851   4.495 -11.260  1.00  0.00     0.010 A 
ATOM     45  C   UNL     1      -9.360   6.266 -12.868  1.00  0.00     0.010 A 
ATOM     46  C   UNL     1     -10.220   5.296 -12.339  1.00  0.00    -0.014 A 
BRANCH  46  47
ATOM     47  C   UNL     1     -11.561   5.154 -12.874  1.00  0.00     0.031 A 
ATOM     48  C   UNL     1     -12.612   5.533 -11.896  1.00  0.00     0.074 A 
ATOM     49  C   UNL     1     -11.727   4.865 -14.183  1.00  0.00     0.049 A 
ATOM     50  N   UNL     1     -13.681   4.886 -11.570  1.00  0.00    -0.248 NA
ATOM     51  C   UNL     1     -12.336   6.703 -11.036  1.00  0.00     0.031 C 
ATOM     52  C   UNL     1     -10.682   4.654 -15.197  1.00  0.00     0.029 A 
ATOM     53  N   UNL     1     -12.859   4.885 -14.933  1.00  0.00    -0.354 N 
ATOM     54  C   UNL     1     -14.320   5.686 -10.626  1.00  0.00     0.074 A 
ATOM     55  C   UNL     1     -13.367   6.672 -10.197  1.00  0.00     0.031 C 
ATOM     56  C   UNL     1     -11.205   4.866 -16.424  1.00  0.00     0.029 A 
ATOM     57  C   UNL     1     -12.627   5.114 -16.288  1.00  0.00     0.049 A 
ATOM     58  H   UNL     1     -13.758   4.749 -14.556  1.00  0.00     0.167 HD
ATOM     59  C   UNL     1     -15.664   5.644 -10.437  1.00  0.00     0.037 A 
ATOM     60  C   UNL     1     -13.527   5.627 -17.169  1.00  0.00     0.037 A 
ATOM     61  C   UNL     1     -16.234   4.429 -10.946  1.00  0.00     0.049 A 
ATOM     62  C   UNL     1     -14.873   5.449 -16.554  1.00  0.00     0.074 A 
ATOM     63  C   UNL     1     -16.083   3.095 -10.624  1.00  0.00     0.029 A 
ATOM     64  N   UNL     1     -16.813   4.462 -12.191  1.00  0.00    -0.354 N 
ATOM     65  N   UNL     1     -15.423   4.283 -16.345  1.00  0.00    -0.248 NA
ATOM     66  C   UNL     1     -15.378   6.532 -15.719  1.00  0.00     0.031 C 
ATOM     67  C   UNL     1     -16.144   2.406 -11.867  1.00  0.00     0.029 A 
ATOM     68  C   UNL     1     -16.391   3.346 -12.868  1.00  0.00     0.049 A 
ATOM     69  H   UNL     1     -17.420   5.158 -12.533  1.00  0.00     0.167 HD
ATOM     70  C   UNL     1     -16.023   4.389 -15.097  1.00  0.00     0.074 A 
ATOM     71  C   UNL     1     -16.014   5.816 -14.787  1.00  0.00     0.031 C 
ATOM     72  C   UNL     1     -16.205   3.294 -14.301  1.00  0.00     0.037 A 
BRANCH  59  73
ATOM     73  C   UNL     1     -16.481   6.859 -10.101  1.00  0.00     0.058 A 
ATOM     74  C   UNL     1     -17.808   6.708  -9.662  1.00  0.00     0.135 A 
ATOM     75  C   UNL     1     -16.093   8.174 -10.450  1.00  0.00     0.135 A 
ATOM     76  F   UNL     1     -18.282   5.498  -9.325  1.00  0.00    -0.206 F 
ATOM     77  C   UNL     1     -18.702   7.779  -9.624  1.00  0.00     0.059 A 
ATOM     78  C   UNL     1     -16.948   9.263 -10.363  1.00  0.00     0.059 A 
ATOM     79  F   UNL     1     -14.896   8.447 -10.985  1.00  0.00    -0.206 F 
ATOM     80  C   UNL     1     -18.263   9.049  -9.989  1.00  0.00     0.060 A 
BRANCH  80  81
ATOM     81  S   UNL     1     -19.439  10.410 -10.046  1.00  0.00     0.124 S 
ATOM     82  O   UNL     1     -20.278  10.022 -11.174  1.00  0.00    -0.237 OA
ATOM     83  O   UNL     1     -20.058  10.329  -8.727  1.00  0.00    -0.237 OA
ATOM     84  O   UNL     1     -18.591  11.579 -10.262  1.00  0.00    -0.744 OA
ENDBRANCH  80  81
ENDBRANCH  59  73
BRANCH  60  85
ATOM     85  C   UNL     1     -13.259   6.608 -18.262  1.00  0.00     0.058 A 
ATOM     86  C   UNL     1     -14.224   6.890 -19.246  1.00  0.00     0.135 A 
ATOM     87  C   UNL     1     -12.152   7.483 -18.221  1.00  0.00     0.135 A 
ATOM     88  F   UNL     1     -15.326   6.131 -19.344  1.00  0.00    -0.206 F 
ATOM     89  C   UNL     1     -14.117   7.990 -20.109  1.00  0.00     0.059 A 
ATOM     90  C   UNL     1     -12.016   8.574 -19.078  1.00  0.00     0.059 A 
ATOM     91  F   UNL     1     -11.203   7.363 -17.282  1.00  0.00    -0.206 F 
ATOM     92  C   UNL     1     -13.015   8.839 -20.005  1.00  0.00     0.060 A 
BRANCH  92  93
ATOM     93  S   UNL     1     -12.949  10.354 -20.991  1.00  0.00     0.124 S 
ATOM     94  O   UNL     1     -12.743   9.831 -22.336  1.00  0.00    -0.237 OA
ATOM     95  O   UNL     1     -14.256  10.949 -20.730  1.00  0.00    -0.237 OA
ATOM     96  O   UNL     1     -11.815  11.079 -20.423  1.00  0.00    -0.744 OA
ENDBRANCH  92  93
ENDBRANCH  60  85
BRANCH  72  97
ATOM     97  C   UNL     1     -15.969   1.929 -14.893  1.00  0.00     0.058 A 
ATOM     98  C   UNL     1     -14.713   1.459 -15.320  1.00  0.00     0.135 A 
ATOM     99  C   UNL     1     -17.017   0.999 -14.843  1.00  0.00     0.135 A 
ATOM    100  F   UNL     1     -13.636   2.256 -15.293  1.00  0.00    -0.206 F 
ATOM    101  C   UNL     1     -14.518   0.133 -15.711  1.00  0.00     0.059 A 
ATOM    102  C   UNL     1     -16.838  -0.334 -15.197  1.00  0.00     0.059 A 
ATOM    103  F   UNL     1     -18.222   1.371 -14.381  1.00  0.00    -0.206 F 
ATOM    104  C   UNL     1     -15.588  -0.759 -15.640  1.00  0.00     0.060 A 
BRANCH 104 105
ATOM    105  S   UNL     1     -15.315  -2.495 -16.055  1.00  0.00     0.124 S 
ATOM    106  O   UNL     1     -15.170  -2.445 -17.505  1.00  0.00    -0.237 OA
ATOM    107  O   UNL     1     -14.101  -2.814 -15.307  1.00  0.00    -0.237 OA
ATOM    108  O   UNL     1     -16.525  -3.156 -15.570  1.00  0.00    -0.744 OA
ENDBRANCH 104 105
ENDBRANCH  72  97
ENDBRANCH  46  47
ENDBRANCH  39  41
ENDBRANCH  38  39
ENDBRANCH  37  38
ENDBRANCH  36  37
ENDBRANCH  35  36
ENDBRANCH  34  35
ENDBRANCH   1  34
TORSDOF 24
