REMARK SMILES O=C(Cn1c2c(sc1=O)C[C@H](c1ccccc1)CC2)OCCOCCOCCOC(=O)c1ccc(-c2c3nc(c(-c4c(F)cc(S(=O)(=O)[O-])cc4F)c4ccc([nH]4)c(-c4c(F)cc(S(=O)(=O)[O-])cc4F)c4nc(c(-c5c(F)cc(S(=O)(=O)[O-])cc5F)c5ccc2[nH]5)C=C4)C=C3)cc1
REMARK SMILES IDX 25 1 24 2 23 3 22 4 21 5 20 6 2 7 1 8 3 9 4 10 5 11 8 12
REMARK SMILES IDX 6 13 19 14 7 15 9 16 10 17 18 18 11 19 12 20 13 21 17 22
REMARK SMILES IDX 14 23 16 24 15 25 26 26 27 27 28 28 29 29 30 30 31 31 32 32
REMARK SMILES IDX 33 33 97 34 34 35 96 36 35 37 36 38 37 39 90 40 38 41 95 42
REMARK SMILES IDX 89 43 91 44 39 45 94 46 88 47 87 48 40 50 74 51 53 52 73 53
REMARK SMILES IDX 54 54 57 55 72 56 92 57 55 58 56 59 71 61 93 62 58 63 41 64
REMARK SMILES IDX 42 65 51 66 43 67 44 68 50 69 52 70 45 71 46 72 47 73 48 74
REMARK SMILES IDX 49 75 75 76 76 77 85 78 77 79 78 80 84 81 86 82 79 83 80 84
REMARK SMILES IDX 81 85 82 86 83 87 59 88 60 89 69 90 61 91 62 92 68 93 70 94
REMARK SMILES IDX 63 95 64 96 65 97 66 98 67 99
REMARK H PARENT 91 49 57 60
REMARK Flexibility Score: inf
ROOT
ATOM      1  C   UNL     1       2.112   0.579   2.883  1.00  0.00     0.188 C 
ENDROOT
BRANCH   1   2
ATOM      2  C   UNL     1       2.313  -0.901   2.449  1.00  0.00     0.188 C 
BRANCH   2   3
ATOM      3  O   UNL     1       3.599  -1.441   2.154  1.00  0.00    -0.376 OA
BRANCH   3   4
ATOM      4  C   UNL     1       4.606  -0.628   1.585  1.00  0.00     0.202 C 
BRANCH   4   5
ATOM      5  C   UNL     1       4.255   0.291   0.420  1.00  0.00     0.261 C 
BRANCH   5   6
ATOM      6  O   UNL     1       2.857   0.532   0.152  1.00  0.00    -0.462 OA
BRANCH   6   7
ATOM      7  C   UNL     1       2.069  -0.173  -0.684  1.00  0.00     0.326 C 
ATOM      8  O   UNL     1       0.898   0.157  -0.863  1.00  0.00    -0.250 OA
BRANCH   7   9
ATOM      9  C   UNL     1       2.662  -1.390  -1.334  1.00  0.00     0.249 C 
BRANCH   9  10
ATOM     10  N   UNL     1       3.736  -1.249  -2.296  1.00  0.00    -0.292 N 
ATOM     11  C   UNL     1       4.216  -0.096  -2.918  1.00  0.00     0.036 A 
ATOM     12  C   UNL     1       4.428  -2.415  -2.610  1.00  0.00     0.308 A 
ATOM     13  C   UNL     1       5.303  -0.333  -3.667  1.00  0.00     0.030 A 
ATOM     14  C   UNL     1       3.690   1.303  -2.730  1.00  0.00     0.056 C 
ATOM     15  S   UNL     1       5.746  -2.006  -3.702  1.00  0.00    -0.079 S 
ATOM     16  O   UNL     1       4.204  -3.552  -2.207  1.00  0.00    -0.257 OA
ATOM     17  C   UNL     1       6.127   0.736  -4.300  1.00  0.00     0.057 C 
ATOM     18  C   UNL     1       4.572   2.419  -3.325  1.00  0.00     0.015 C 
ATOM     19  C   UNL     1       6.070   2.051  -3.475  1.00  0.00     0.025 C 
BRANCH  19  20
ATOM     20  C   UNL     1       6.931   2.002  -2.204  1.00  0.00    -0.045 A 
ATOM     21  C   UNL     1       8.257   1.531  -2.286  1.00  0.00     0.004 A 
ATOM     22  C   UNL     1       6.501   2.456  -0.950  1.00  0.00     0.004 A 
ATOM     23  C   UNL     1       9.076   1.423  -1.158  1.00  0.00     0.000 A 
ATOM     24  C   UNL     1       7.318   2.343   0.187  1.00  0.00     0.000 A 
ATOM     25  C   UNL     1       8.599   1.811   0.086  1.00  0.00     0.000 A 
ENDBRANCH  19  20
ENDBRANCH   9  10
ENDBRANCH   7   9
ENDBRANCH   6   7
ENDBRANCH   5   6
ENDBRANCH   4   5
ENDBRANCH   3   4
ENDBRANCH   2   3
ENDBRANCH   1   2
BRANCH   1  26
ATOM     26  O   UNL     1       3.226   1.425   2.630  1.00  0.00    -0.376 OA
BRANCH  26  27
ATOM     27  C   UNL     1       3.822   2.143   3.696  1.00  0.00     0.202 C 
BRANCH  27  28
ATOM     28  C   UNL     1       4.582   1.356   4.761  1.00  0.00     0.261 C 
BRANCH  28  29
ATOM     29  O   UNL     1       4.314  -0.031   4.739  1.00  0.00    -0.460 OA
BRANCH  29  30
ATOM     30  C   UNL     1       3.238  -0.391   5.462  1.00  0.00     0.338 C 
ATOM     31  O   UNL     1       2.443   0.353   6.013  1.00  0.00    -0.246 OA
BRANCH  30  32
ATOM     32  C   UNL     1       3.218  -1.849   5.582  1.00  0.00     0.060 A 
ATOM     33  C   UNL     1       2.085  -2.365   6.211  1.00  0.00     0.016 A 
ATOM     34  C   UNL     1       4.465  -2.480   5.609  1.00  0.00     0.016 A 
ATOM     35  C   UNL     1       2.294  -3.292   7.195  1.00  0.00     0.010 A 
ATOM     36  C   UNL     1       4.682  -3.363   6.626  1.00  0.00     0.010 A 
ATOM     37  C   UNL     1       3.613  -3.664   7.468  1.00  0.00    -0.014 A 
BRANCH  37  38
ATOM     38  C   UNL     1       3.852  -4.524   8.597  1.00  0.00     0.031 A 
ATOM     39  C   UNL     1       3.522  -5.915   8.241  1.00  0.00     0.074 A 
ATOM     40  C   UNL     1       4.410  -4.068   9.733  1.00  0.00     0.049 A 
ATOM     41  N   UNL     1       2.450  -6.564   8.553  1.00  0.00    -0.248 NA
ATOM     42  C   UNL     1       4.303  -6.540   7.156  1.00  0.00     0.031 C 
ATOM     43  C   UNL     1       4.963  -2.736   9.995  1.00  0.00     0.029 A 
ATOM     44  N   UNL     1       4.704  -4.745  10.873  1.00  0.00    -0.354 N 
ATOM     45  C   UNL     1       2.628  -7.808   7.963  1.00  0.00     0.074 A 
ATOM     46  C   UNL     1       3.546  -7.603   6.881  1.00  0.00     0.031 C 
ATOM     47  C   UNL     1       5.727  -2.783  11.110  1.00  0.00     0.029 A 
ATOM     48  C   UNL     1       5.629  -4.107  11.698  1.00  0.00     0.049 A 
ATOM     49  H   UNL     1       4.298  -5.613  11.098  1.00  0.00     0.167 HD
ATOM     50  C   UNL     1       2.386  -8.932   8.692  1.00  0.00     0.037 A 
ATOM     51  C   UNL     1       6.319  -4.695  12.713  1.00  0.00     0.037 A 
ATOM     52  C   UNL     1       1.513  -8.631   9.808  1.00  0.00     0.049 A 
ATOM     53  C   UNL     1       5.570  -5.934  13.076  1.00  0.00     0.074 A 
ATOM     54  C   UNL     1       0.278  -8.023   9.945  1.00  0.00     0.029 A 
ATOM     55  N   UNL     1       2.081  -8.612  11.060  1.00  0.00    -0.354 N 
ATOM     56  N   UNL     1       4.380  -5.925  13.615  1.00  0.00    -0.248 NA
ATOM     57  C   UNL     1       5.927  -7.164  12.384  1.00  0.00     0.031 C 
ATOM     58  C   UNL     1       0.356  -7.280  11.160  1.00  0.00     0.029 A 
ATOM     59  C   UNL     1       1.596  -7.533  11.747  1.00  0.00     0.049 A 
ATOM     60  H   UNL     1       2.730  -9.267  11.405  1.00  0.00     0.167 HD
ATOM     61  C   UNL     1       3.687  -6.936  12.962  1.00  0.00     0.074 A 
ATOM     62  C   UNL     1       4.715  -7.715  12.273  1.00  0.00     0.031 C 
ATOM     63  C   UNL     1       2.332  -6.859  12.794  1.00  0.00     0.037 A 
BRANCH  50  64
ATOM     64  C   UNL     1       3.322 -10.130   8.695  1.00  0.00     0.058 A 
ATOM     65  C   UNL     1       2.950 -11.254   9.460  1.00  0.00     0.135 A 
ATOM     66  C   UNL     1       4.668 -10.129   8.250  1.00  0.00     0.135 A 
ATOM     67  F   UNL     1       1.697 -11.377   9.924  1.00  0.00    -0.206 F 
ATOM     68  C   UNL     1       3.866 -12.230   9.849  1.00  0.00     0.059 A 
ATOM     69  C   UNL     1       5.582 -11.115   8.587  1.00  0.00     0.059 A 
ATOM     70  F   UNL     1       5.213  -9.145   7.531  1.00  0.00    -0.206 F 
ATOM     71  C   UNL     1       5.186 -12.139   9.421  1.00  0.00     0.060 A 
BRANCH  71  72
ATOM     72  S   UNL     1       6.392 -13.348   9.979  1.00  0.00     0.124 S 
ATOM     73  O   UNL     1       6.485 -13.026  11.398  1.00  0.00    -0.237 OA
ATOM     74  O   UNL     1       5.728 -14.603   9.645  1.00  0.00    -0.237 OA
ATOM     75  O   UNL     1       7.572 -13.037   9.179  1.00  0.00    -0.744 OA
ENDBRANCH  71  72
ENDBRANCH  50  64
BRANCH  51  76
ATOM     76  C   UNL     1       7.742  -4.481  13.108  1.00  0.00     0.058 A 
ATOM     77  C   UNL     1       8.274  -5.081  14.268  1.00  0.00     0.135 A 
ATOM     78  C   UNL     1       8.686  -3.925  12.221  1.00  0.00     0.135 A 
ATOM     79  F   UNL     1       7.457  -5.653  15.165  1.00  0.00    -0.206 F 
ATOM     80  C   UNL     1       9.653  -5.173  14.502  1.00  0.00     0.059 A 
ATOM     81  C   UNL     1      10.062  -3.993  12.440  1.00  0.00     0.059 A 
ATOM     82  F   UNL     1       8.309  -3.373  11.059  1.00  0.00    -0.206 F 
ATOM     83  C   UNL     1      10.542  -4.643  13.568  1.00  0.00     0.060 A 
BRANCH  83  84
ATOM     84  S   UNL     1      12.321  -4.908  13.767  1.00  0.00     0.124 S 
ATOM     85  O   UNL     1      12.626  -4.065  14.918  1.00  0.00    -0.237 OA
ATOM     86  O   UNL     1      12.398  -6.347  13.993  1.00  0.00    -0.237 OA
ATOM     87  O   UNL     1      12.876  -4.450  12.495  1.00  0.00    -0.744 OA
ENDBRANCH  83  84
ENDBRANCH  51  76
BRANCH  63  88
ATOM     88  C   UNL     1       1.565  -5.874  13.635  1.00  0.00     0.058 A 
ATOM     89  C   UNL     1       1.714  -4.476  13.590  1.00  0.00     0.135 A 
ATOM     90  C   UNL     1       0.533  -6.381  14.440  1.00  0.00     0.135 A 
ATOM     91  F   UNL     1       2.604  -3.904  12.765  1.00  0.00    -0.206 F 
ATOM     92  C   UNL     1       0.907  -3.627  14.354  1.00  0.00     0.059 A 
ATOM     93  C   UNL     1      -0.303  -5.555  15.180  1.00  0.00     0.059 A 
ATOM     94  F   UNL     1       0.299  -7.704  14.477  1.00  0.00    -0.206 F 
ATOM     95  C   UNL     1      -0.099  -4.179  15.149  1.00  0.00     0.060 A 
BRANCH  95  96
ATOM     96  S   UNL     1      -1.171  -3.088  16.108  1.00  0.00     0.124 S 
ATOM     97  O   UNL     1      -0.259  -2.580  17.127  1.00  0.00    -0.237 OA
ATOM     98  O   UNL     1      -1.612  -2.119  15.110  1.00  0.00    -0.237 OA
ATOM     99  O   UNL     1      -2.217  -3.982  16.599  1.00  0.00    -0.744 OA
ENDBRANCH  95  96
ENDBRANCH  63  88
ENDBRANCH  37  38
ENDBRANCH  30  32
ENDBRANCH  29  30
ENDBRANCH  28  29
ENDBRANCH  27  28
ENDBRANCH  26  27
ENDBRANCH   1  26
TORSDOF 22
