REMARK SMILES Cc1c(C(=O)Nc2ccc(C(=O)Nc3ccccc3C(=O)OCCOCCOCCOC(=O)c3ccc(-c4c5nc(c(-c6c(F)cc(S(=O)(=O)[O-])cc6F)c6ccc([nH]6)c(-c6c(F)cc(S(=O)(=O)[O-])cc6F)c6nc(c(-c7c(F)cc(S(=O)(=O)[O-])cc7F)c7ccc4[nH]7)C=C6)C=C5)cc3)cc2)cccc1[N+](=O)[O-]
REMARK SMILES IDX 26 1 25 2 24 3 23 4 22 5 20 6 21 7 19 8 14 9 15 10 16 11
REMARK SMILES IDX 18 12 17 13 13 14 11 15 12 16 10 18 7 19 8 20 101 21 9 22
REMARK SMILES IDX 100 23 6 24 4 25 5 26 3 28 1 29 2 30 105 31 102 32 104 33
REMARK SMILES IDX 103 34 106 35 107 36 108 37 27 38 28 39 29 40 30 41 31 42
REMARK SMILES IDX 32 43 33 44 34 45 35 46 99 47 36 48 98 49 37 50 38 51 39 52
REMARK SMILES IDX 92 53 40 54 97 55 91 56 93 57 41 58 96 59 90 60 89 61 42 63
REMARK SMILES IDX 76 64 55 65 75 66 56 67 59 68 74 69 94 70 57 71 58 72 73 74
REMARK SMILES IDX 95 75 60 76 43 77 44 78 53 79 45 80 46 81 52 82 54 83 47 84
REMARK SMILES IDX 48 85 49 86 50 87 51 88 77 89 78 90 87 91 79 92 80 93 86 94
REMARK SMILES IDX 88 95 81 96 82 97 83 98 84 99 85 100 61 101 62 102 71 103
REMARK SMILES IDX 63 104 64 105 70 106 72 107 65 108 66 109 67 110 68 111
REMARK SMILES IDX 69 112
REMARK H PARENT 13 17 6 27 93 62 59 73
REMARK Flexibility Score: inf
ROOT
ATOM      1  C   UNL     1       8.090  -1.284  -0.066  1.00  0.00     0.188 C 
ENDROOT
BRANCH   1   2
ATOM      2  O   UNL     1       8.656  -1.415   1.210  1.00  0.00    -0.376 OA
BRANCH   2   3
ATOM      3  C   UNL     1       7.777  -1.617   2.276  1.00  0.00     0.202 C 
BRANCH   3   4
ATOM      4  C   UNL     1       6.404  -0.904   2.423  1.00  0.00     0.261 C 
BRANCH   4   5
ATOM      5  O   UNL     1       5.741   0.580   1.736  1.00  0.00    -0.460 OA
BRANCH   5   6
ATOM      6  C   UNL     1       5.567   2.197   1.930  1.00  0.00     0.340 C 
ATOM      7  O   UNL     1       6.370   2.783   1.205  1.00  0.00    -0.246 OA
BRANCH   6   8
ATOM      8  C   UNL     1       4.526   3.251   2.429  1.00  0.00     0.083 A 
ATOM      9  C   UNL     1       4.009   3.978   1.351  1.00  0.00     0.056 A 
ATOM     10  C   UNL     1       3.036   4.998   1.565  1.00  0.00     0.027 A 
ATOM     11  C   UNL     1       2.410   5.175   2.806  1.00  0.00     0.002 A 
ATOM     12  C   UNL     1       4.001   3.608   3.710  1.00  0.00     0.018 A 
ATOM     13  C   UNL     1       2.885   4.461   3.888  1.00  0.00     0.001 A 
BRANCH   9  14
ATOM     14  N   UNL     1       4.242   3.602  -0.007  1.00  0.00    -0.321 N 
ATOM     15  C   UNL     1       4.293   2.339  -0.723  1.00  0.00     0.255 C 
ATOM     16  O   UNL     1       3.784   2.524  -1.833  1.00  0.00    -0.269 OA
ATOM     17  H   UNL     1       4.406   4.376  -0.592  1.00  0.00     0.170 HD
BRANCH  15  18
ATOM     18  C   UNL     1       4.456   0.784  -0.107  1.00  0.00     0.040 A 
ATOM     19  C   UNL     1       1.839  -1.947   0.692  1.00  0.00     0.041 A 
ATOM     20  C   UNL     1       1.941  -0.483   1.611  1.00  0.00     0.027 A 
ATOM     21  C   UNL     1       3.145  -2.146  -0.456  1.00  0.00     0.027 A 
ATOM     22  C   UNL     1       3.410   0.813   1.144  1.00  0.00     0.016 A 
ATOM     23  C   UNL     1       4.455  -0.807  -0.796  1.00  0.00     0.016 A 
BRANCH  19  24
ATOM     24  N   UNL     1       0.742  -2.760   0.453  1.00  0.00    -0.322 N 
ATOM     25  C   UNL     1      -0.508  -2.460  -0.054  1.00  0.00     0.256 C 
ATOM     26  O   UNL     1      -1.156  -3.403  -0.517  1.00  0.00    -0.269 OA
ATOM     27  H   UNL     1       0.876  -3.708   0.682  1.00  0.00     0.170 HD
BRANCH  25  28
ATOM     28  C   UNL     1      -1.173  -1.121  -0.032  1.00  0.00     0.049 A 
ATOM     29  C   UNL     1      -0.038  -0.139  -2.024  1.00  0.00     0.053 C 
ATOM     30  C   UNL     1      -0.842   0.019  -0.788  1.00  0.00     0.039 A 
ATOM     31  C   UNL     1      -1.504   1.245  -0.533  1.00  0.00     0.273 A 
ATOM     32  C   UNL     1      -2.413  -1.111   0.608  1.00  0.00     0.014 A 
ATOM     33  C   UNL     1      -2.682   1.253   0.201  1.00  0.00     0.086 A 
ATOM     34  C   UNL     1      -3.183   0.051   0.680  1.00  0.00     0.008 A 
BRANCH  31  35
ATOM     35  N   UNL     1      -0.994   2.572  -0.943  1.00  0.00     0.063 N 
ATOM     36  O   UNL     1      -1.077   3.477  -0.094  1.00  0.00    -0.258 OA
ATOM     37  O   UNL     1      -0.534   2.722  -2.077  1.00  0.00    -0.258 OA
ENDBRANCH  31  35
ENDBRANCH  25  28
ENDBRANCH  19  24
ENDBRANCH  15  18
ENDBRANCH   9  14
ENDBRANCH   6   8
ENDBRANCH   5   6
ENDBRANCH   4   5
ENDBRANCH   3   4
ENDBRANCH   2   3
ENDBRANCH   1   2
BRANCH   1  38
ATOM     38  C   UNL     1       6.884  -2.101  -0.473  1.00  0.00     0.188 C 
BRANCH  38  39
ATOM     39  O   UNL     1       6.698  -3.495  -0.422  1.00  0.00    -0.376 OA
BRANCH  39  40
ATOM     40  C   UNL     1       5.303  -3.801  -0.782  1.00  0.00     0.202 C 
BRANCH  40  41
ATOM     41  C   UNL     1       4.675  -3.202  -2.251  1.00  0.00     0.261 C 
BRANCH  41  42
ATOM     42  O   UNL     1       3.568  -1.878  -2.623  1.00  0.00    -0.460 OA
BRANCH  42  43
ATOM     43  C   UNL     1       2.742  -0.591  -2.081  1.00  0.00     0.338 C 
ATOM     44  O   UNL     1       2.331   0.092  -3.013  1.00  0.00    -0.246 OA
BRANCH  43  45
ATOM     45  C   UNL     1       2.512  -0.147  -0.229  1.00  0.00     0.060 A 
ATOM     46  C   UNL     1       1.569   1.256   0.562  1.00  0.00     0.016 A 
ATOM     47  C   UNL     1       3.693  -1.053   1.146  1.00  0.00     0.016 A 
ATOM     48  C   UNL     1       1.957   1.595   2.379  1.00  0.00     0.010 A 
ATOM     49  C   UNL     1       3.791  -0.690   2.810  1.00  0.00     0.010 A 
ATOM     50  C   UNL     1       3.287   0.702   3.325  1.00  0.00    -0.014 A 
BRANCH  50  51
ATOM     51  C   UNL     1       4.942   0.969   4.169  1.00  0.00     0.031 A 
ATOM     52  C   UNL     1       4.504   0.944   5.568  1.00  0.00     0.074 A 
ATOM     53  C   UNL     1       6.504   1.105   3.938  1.00  0.00     0.049 A 
ATOM     54  N   UNL     1       4.800   1.860   6.433  1.00  0.00    -0.248 NA
ATOM     55  C   UNL     1       3.355   0.097   5.981  1.00  0.00     0.031 C 
ATOM     56  C   UNL     1       7.730   0.629   4.676  1.00  0.00     0.029 A 
ATOM     57  N   UNL     1       7.399   1.303   2.750  1.00  0.00    -0.354 N 
ATOM     58  C   UNL     1       4.343   1.269   7.576  1.00  0.00     0.074 A 
ATOM     59  C   UNL     1       3.108   0.688   7.149  1.00  0.00     0.031 C 
ATOM     60  C   UNL     1       8.945   0.893   4.051  1.00  0.00     0.029 A 
ATOM     61  C   UNL     1       8.749   1.462   2.729  1.00  0.00     0.049 A 
ATOM     62  H   UNL     1       6.951   1.320   1.874  1.00  0.00     0.167 HD
ATOM     63  C   UNL     1       5.284   0.668   8.370  1.00  0.00     0.037 A 
ATOM     64  C   UNL     1       9.256   2.528   2.000  1.00  0.00     0.037 A 
ATOM     65  C   UNL     1       6.675   1.016   7.947  1.00  0.00     0.049 A 
ATOM     66  C   UNL     1       9.251   3.573   3.086  1.00  0.00     0.074 A 
ATOM     67  C   UNL     1       7.835   0.291   7.732  1.00  0.00     0.029 A 
ATOM     68  N   UNL     1       6.963   2.294   7.426  1.00  0.00    -0.354 N 
ATOM     69  N   UNL     1       8.433   3.506   4.112  1.00  0.00    -0.248 NA
ATOM     70  C   UNL     1      10.362   4.485   3.290  1.00  0.00     0.031 C 
ATOM     71  C   UNL     1       8.836   1.180   7.206  1.00  0.00     0.029 A 
ATOM     72  C   UNL     1       8.245   2.411   6.921  1.00  0.00     0.049 A 
ATOM     73  H   UNL     1       6.312   3.033   7.423  1.00  0.00     0.167 HD
ATOM     74  C   UNL     1       9.088   3.999   5.195  1.00  0.00     0.074 A 
ATOM     75  C   UNL     1      10.244   4.687   4.613  1.00  0.00     0.031 C 
ATOM     76  C   UNL     1       8.768   3.722   6.499  1.00  0.00     0.037 A 
BRANCH  63  77
ATOM     77  C   UNL     1       4.926  -0.444   9.366  1.00  0.00     0.058 A 
ATOM     78  C   UNL     1       5.922  -0.918  10.239  1.00  0.00     0.135 A 
ATOM     79  C   UNL     1       3.656  -1.060   9.571  1.00  0.00     0.135 A 
ATOM     80  F   UNL     1       7.184  -0.477  10.165  1.00  0.00    -0.206 F 
ATOM     81  C   UNL     1       5.674  -1.843  11.253  1.00  0.00     0.059 A 
ATOM     82  C   UNL     1       3.379  -1.960  10.594  1.00  0.00     0.059 A 
ATOM     83  F   UNL     1       2.585  -0.862   8.801  1.00  0.00    -0.206 F 
ATOM     84  C   UNL     1       4.390  -2.325  11.451  1.00  0.00     0.060 A 
BRANCH  84  85
ATOM     85  S   UNL     1       4.043  -3.365  12.868  1.00  0.00     0.124 S 
ATOM     86  O   UNL     1       4.867  -4.536  12.587  1.00  0.00    -0.237 OA
ATOM     87  O   UNL     1       4.482  -2.518  13.971  1.00  0.00    -0.237 OA
ATOM     88  O   UNL     1       2.601  -3.583  12.787  1.00  0.00    -0.744 OA
ENDBRANCH  84  85
ENDBRANCH  63  77
BRANCH  64  89
ATOM     89  C   UNL     1       8.936   2.769   0.470  1.00  0.00     0.058 A 
ATOM     90  C   UNL     1       9.305   1.788  -0.475  1.00  0.00     0.135 A 
ATOM     91  C   UNL     1       8.102   3.768  -0.098  1.00  0.00     0.135 A 
ATOM     92  F   UNL     1      10.282   0.917  -0.183  1.00  0.00    -0.206 F 
ATOM     93  C   UNL     1       8.673   1.615  -1.730  1.00  0.00     0.059 A 
ATOM     94  C   UNL     1       7.384   3.572  -1.330  1.00  0.00     0.059 A 
ATOM     95  F   UNL     1       7.803   4.869   0.612  1.00  0.00    -0.206 F 
ATOM     96  C   UNL     1       7.618   2.431  -2.098  1.00  0.00     0.060 A 
BRANCH  96  97
ATOM     97  S   UNL     1       6.610   1.936  -3.547  1.00  0.00     0.124 S 
ATOM     98  O   UNL     1       6.269   3.212  -4.166  1.00  0.00    -0.237 OA
ATOM     99  O   UNL     1       7.518   1.090  -4.318  1.00  0.00    -0.237 OA
ATOM    100  O   UNL     1       5.549   1.164  -2.926  1.00  0.00    -0.744 OA
ENDBRANCH  96  97
ENDBRANCH  64  89
BRANCH  76 101
ATOM    101  C   UNL     1       9.011   4.731   7.574  1.00  0.00     0.058 A 
ATOM    102  C   UNL     1       9.399   6.054   7.321  1.00  0.00     0.135 A 
ATOM    103  C   UNL     1       8.694   4.429   8.921  1.00  0.00     0.135 A 
ATOM    104  F   UNL     1       9.504   6.557   6.085  1.00  0.00    -0.206 F 
ATOM    105  C   UNL     1       9.638   6.949   8.342  1.00  0.00     0.059 A 
ATOM    106  C   UNL     1       8.803   5.348   9.938  1.00  0.00     0.059 A 
ATOM    107  F   UNL     1       8.226   3.240   9.320  1.00  0.00    -0.206 F 
ATOM    108  C   UNL     1       9.334   6.586   9.645  1.00  0.00     0.060 A 
BRANCH 108 109
ATOM    109  S   UNL     1       9.604   7.774  10.943  1.00  0.00     0.124 S 
ATOM    110  O   UNL     1      11.061   7.769  11.028  1.00  0.00    -0.237 OA
ATOM    111  O   UNL     1       9.001   8.977  10.379  1.00  0.00    -0.237 OA
ATOM    112  O   UNL     1       8.900   7.197  12.083  1.00  0.00    -0.744 OA
ENDBRANCH 108 109
ENDBRANCH  76 101
ENDBRANCH  50  51
ENDBRANCH  43  45
ENDBRANCH  42  43
ENDBRANCH  41  42
ENDBRANCH  40  41
ENDBRANCH  39  40
ENDBRANCH  38  39
ENDBRANCH   1  38
TORSDOF 25
