REMARK SMILES C[C@@H](C(=O)NCc1ccc(F)cc1)n1cc(C(=O)OCCOCCOCCOC(=O)c2ccc(-c3c4nc(c(-c5c(F)cc(S(=O)(=O)[O-])cc5F)c5ccc([nH]5)c(-c5c(F)cc(S(=O)(=O)[O-])cc5F)c5nc(c(-c6c(F)cc(S(=O)(=O)[O-])cc6F)c6ccc3[nH]6)C=C5)C=C4)cc2)cn1
REMARK SMILES IDX 23 1 22 2 21 3 20 4 19 5 17 6 18 7 16 8 14 9 15 10 98 11
REMARK SMILES IDX 97 12 2 13 1 14 3 15 4 16 5 17 6 19 7 20 8 21 13 22 9 23
REMARK SMILES IDX 12 24 10 25 11 26 24 27 25 28 26 29 27 30 28 31 29 32 30 33
REMARK SMILES IDX 31 34 32 35 96 36 33 37 95 38 34 39 35 40 36 41 89 42 37 43
REMARK SMILES IDX 94 44 88 45 90 46 38 47 93 48 87 49 86 50 39 52 73 53 52 54
REMARK SMILES IDX 72 55 53 56 56 57 71 58 91 59 54 60 55 61 70 63 92 64 57 65
REMARK SMILES IDX 40 66 41 67 50 68 42 69 43 70 49 71 51 72 44 73 45 74 46 75
REMARK SMILES IDX 47 76 48 77 74 78 75 79 84 80 76 81 77 82 83 83 85 84 78 85
REMARK SMILES IDX 79 86 80 87 81 88 82 89 58 90 59 91 68 92 60 93 61 94 67 95
REMARK SMILES IDX 69 96 62 97 63 98 64 99 65 100 66 101
REMARK H PARENT 5 18 90 51 56 62
REMARK Flexibility Score: inf
ROOT
ATOM      1  C   UNL     1      -5.595  -1.952   2.649  1.00  0.00     0.188 C 
ENDROOT
BRANCH   1   2
ATOM      2  O   UNL     1      -6.734  -2.705   2.249  1.00  0.00    -0.376 OA
BRANCH   2   3
ATOM      3  C   UNL     1      -6.587  -3.974   1.630  1.00  0.00     0.202 C 
BRANCH   3   4
ATOM      4  C   UNL     1      -5.669  -4.168   0.404  1.00  0.00     0.261 C 
BRANCH   4   5
ATOM      5  O   UNL     1      -4.359  -3.584   0.491  1.00  0.00    -0.460 OA
BRANCH   5   6
ATOM      6  C   UNL     1      -4.178  -2.433  -0.221  1.00  0.00     0.341 C 
ATOM      7  O   UNL     1      -4.962  -1.995  -1.039  1.00  0.00    -0.246 OA
BRANCH   6   8
ATOM      8  C   UNL     1      -3.010  -1.683   0.209  1.00  0.00     0.098 A 
ATOM      9  N   UNL     1      -1.041  -0.962   0.908  1.00  0.00    -0.260 N 
ATOM     10  C   UNL     1      -1.760  -2.102   0.630  1.00  0.00     0.125 A 
ATOM     11  N   UNL     1      -1.778   0.162   0.760  1.00  0.00    -0.180 NA
ATOM     12  C   UNL     1      -2.961  -0.279   0.337  1.00  0.00     0.150 A 
BRANCH   9  13
ATOM     13  C   UNL     1       0.426  -0.846   0.995  1.00  0.00     0.193 C 
ATOM     14  C   UNL     1       0.896   0.144  -0.077  1.00  0.00     0.044 C 
BRANCH  13  15
ATOM     15  C   UNL     1       0.901  -0.478   2.402  1.00  0.00     0.244 C 
ATOM     16  O   UNL     1       0.138  -0.262   3.345  1.00  0.00    -0.273 OA
ATOM     17  N   UNL     1       2.241  -0.437   2.691  1.00  0.00    -0.350 N 
ATOM     18  H   UNL     1       2.452  -0.166   3.613  1.00  0.00     0.163 HD
BRANCH  17  19
ATOM     19  C   UNL     1       3.399  -0.723   1.868  1.00  0.00     0.151 C 
BRANCH  19  20
ATOM     20  C   UNL     1       4.198   0.504   1.482  1.00  0.00    -0.029 A 
ATOM     21  C   UNL     1       3.698   1.813   1.611  1.00  0.00     0.008 A 
ATOM     22  C   UNL     1       5.484   0.331   0.939  1.00  0.00     0.008 A 
ATOM     23  C   UNL     1       4.467   2.913   1.223  1.00  0.00     0.039 A 
ATOM     24  C   UNL     1       6.253   1.433   0.553  1.00  0.00     0.039 A 
ATOM     25  C   UNL     1       5.738   2.714   0.700  1.00  0.00     0.123 A 
ATOM     26  F   UNL     1       6.475   3.769   0.330  1.00  0.00    -0.207 F 
ENDBRANCH  19  20
ENDBRANCH  17  19
ENDBRANCH  13  15
ENDBRANCH   9  13
ENDBRANCH   6   8
ENDBRANCH   5   6
ENDBRANCH   4   5
ENDBRANCH   3   4
ENDBRANCH   2   3
ENDBRANCH   1   2
BRANCH   1  27
ATOM     27  C   UNL     1      -4.359  -2.634   3.279  1.00  0.00     0.188 C 
BRANCH  27  28
ATOM     28  O   UNL     1      -4.334  -4.042   3.136  1.00  0.00    -0.376 OA
BRANCH  28  29
ATOM     29  C   UNL     1      -4.526  -4.873   4.269  1.00  0.00     0.202 C 
BRANCH  29  30
ATOM     30  C   UNL     1      -5.671  -4.632   5.252  1.00  0.00     0.261 C 
BRANCH  30  31
ATOM     31  O   UNL     1      -6.145  -3.303   5.325  1.00  0.00    -0.460 OA
BRANCH  31  32
ATOM     32  C   UNL     1      -5.439  -2.509   6.154  1.00  0.00     0.338 C 
ATOM     33  O   UNL     1      -4.325  -2.723   6.601  1.00  0.00    -0.246 OA
BRANCH  32  34
ATOM     34  C   UNL     1      -6.290  -1.384   6.540  1.00  0.00     0.060 A 
ATOM     35  C   UNL     1      -5.671  -0.342   7.230  1.00  0.00     0.016 A 
ATOM     36  C   UNL     1      -7.675  -1.597   6.569  1.00  0.00     0.016 A 
ATOM     37  C   UNL     1      -6.413   0.322   8.176  1.00  0.00     0.010 A 
ATOM     38  C   UNL     1      -8.403  -0.962   7.538  1.00  0.00     0.010 A 
ATOM     39  C   UNL     1      -7.734  -0.087   8.388  1.00  0.00    -0.014 A 
BRANCH  39  40
ATOM     40  C   UNL     1      -8.445   0.479   9.508  1.00  0.00     0.031 A 
ATOM     41  C   UNL     1      -8.940   1.838   9.221  1.00  0.00     0.074 A 
ATOM     42  C   UNL     1      -8.704  -0.236  10.618  1.00  0.00     0.049 A 
ATOM     43  N   UNL     1      -8.517   2.953   9.711  1.00  0.00    -0.248 NA
ATOM     44  C   UNL     1      -9.872   1.990   8.089  1.00  0.00     0.031 C 
ATOM     45  C   UNL     1      -8.499  -1.671  10.839  1.00  0.00     0.029 A 
ATOM     46  N   UNL     1      -9.317   0.162  11.762  1.00  0.00    -0.354 N 
ATOM     47  C   UNL     1      -9.321   3.924   9.130  1.00  0.00     0.074 A 
ATOM     48  C   UNL     1      -9.937   3.316   7.983  1.00  0.00     0.031 C 
ATOM     49  C   UNL     1      -9.192  -2.053  11.938  1.00  0.00     0.029 A 
ATOM     50  C   UNL     1      -9.782  -0.878  12.558  1.00  0.00     0.049 A 
ATOM     51  H   UNL     1      -9.424   1.109  12.007  1.00  0.00     0.167 HD
ATOM     52  C   UNL     1      -9.668   5.043   9.818  1.00  0.00     0.037 A 
ATOM     53  C   UNL     1     -10.664  -0.758  13.584  1.00  0.00     0.037 A 
ATOM     54  C   UNL     1      -8.784   5.269  10.933  1.00  0.00     0.049 A 
ATOM     55  C   UNL     1     -10.656   0.675  13.993  1.00  0.00     0.074 A 
ATOM     56  C   UNL     1      -7.422   5.453  11.066  1.00  0.00     0.029 A 
ATOM     57  N   UNL     1      -9.247   4.937  12.184  1.00  0.00    -0.354 N 
ATOM     58  N   UNL     1      -9.633   1.276  14.539  1.00  0.00    -0.248 NA
ATOM     59  C   UNL     1     -11.637   1.559  13.380  1.00  0.00     0.031 C 
ATOM     60  C   UNL     1      -7.071   4.789  12.277  1.00  0.00     0.029 A 
ATOM     61  C   UNL     1      -8.240   4.284  12.848  1.00  0.00     0.049 A 
ATOM     62  H   UNL     1     -10.143   5.133  12.540  1.00  0.00     0.167 HD
ATOM     63  C   UNL     1      -9.622   2.546  13.979  1.00  0.00     0.074 A 
ATOM     64  C   UNL     1     -10.931   2.692  13.347  1.00  0.00     0.031 C 
ATOM     65  C   UNL     1      -8.457   3.244  13.833  1.00  0.00     0.037 A 
BRANCH  52  66
ATOM     66  C   UNL     1     -11.034   5.677   9.714  1.00  0.00     0.058 A 
ATOM     67  C   UNL     1     -12.197   4.987   9.299  1.00  0.00     0.135 A 
ATOM     68  C   UNL     1     -11.252   6.936  10.304  1.00  0.00     0.135 A 
ATOM     69  F   UNL     1     -12.170   3.733   8.834  1.00  0.00    -0.206 F 
ATOM     70  C   UNL     1     -13.473   5.509   9.437  1.00  0.00     0.059 A 
ATOM     71  C   UNL     1     -12.533   7.451  10.513  1.00  0.00     0.059 A 
ATOM     72  F   UNL     1     -10.220   7.662  10.761  1.00  0.00    -0.206 F 
ATOM     73  C   UNL     1     -13.636   6.727  10.074  1.00  0.00     0.060 A 
BRANCH  73  74
ATOM     74  S   UNL     1     -15.319   7.270  10.403  1.00  0.00     0.124 S 
ATOM     75  O   UNL     1     -15.796   7.563   9.055  1.00  0.00    -0.237 OA
ATOM     76  O   UNL     1     -15.895   6.091  11.040  1.00  0.00    -0.237 OA
ATOM     77  O   UNL     1     -15.133   8.426  11.273  1.00  0.00    -0.744 OA
ENDBRANCH  73  74
ENDBRANCH  52  66
BRANCH  53  78
ATOM     78  C   UNL     1     -11.777  -1.679  13.953  1.00  0.00     0.058 A 
ATOM     79  C   UNL     1     -12.334  -2.585  13.027  1.00  0.00     0.135 A 
ATOM     80  C   UNL     1     -12.515  -1.478  15.136  1.00  0.00     0.135 A 
ATOM     81  F   UNL     1     -11.745  -2.828  11.848  1.00  0.00    -0.206 F 
ATOM     82  C   UNL     1     -13.566  -3.203  13.231  1.00  0.00     0.059 A 
ATOM     83  C   UNL     1     -13.760  -2.079  15.358  1.00  0.00     0.059 A 
ATOM     84  F   UNL     1     -12.068  -0.625  16.071  1.00  0.00    -0.206 F 
ATOM     85  C   UNL     1     -14.291  -2.917  14.382  1.00  0.00     0.060 A 
BRANCH  85  86
ATOM     86  S   UNL     1     -15.964  -3.588  14.515  1.00  0.00     0.124 S 
ATOM     87  O   UNL     1     -16.627  -2.966  13.373  1.00  0.00    -0.237 OA
ATOM     88  O   UNL     1     -15.726  -5.024  14.400  1.00  0.00    -0.237 OA
ATOM     89  O   UNL     1     -16.413  -3.133  15.827  1.00  0.00    -0.744 OA
ENDBRANCH  85  86
ENDBRANCH  53  78
BRANCH  65  90
ATOM     90  C   UNL     1      -7.238   2.768  14.582  1.00  0.00     0.058 A 
ATOM     91  C   UNL     1      -6.616   3.673  15.456  1.00  0.00     0.135 A 
ATOM     92  C   UNL     1      -6.581   1.546  14.349  1.00  0.00     0.135 A 
ATOM     93  F   UNL     1      -7.167   4.877  15.681  1.00  0.00    -0.206 F 
ATOM     94  C   UNL     1      -5.396   3.393  16.061  1.00  0.00     0.059 A 
ATOM     95  C   UNL     1      -5.371   1.228  14.974  1.00  0.00     0.059 A 
ATOM     96  F   UNL     1      -7.060   0.665  13.459  1.00  0.00    -0.206 F 
ATOM     97  C   UNL     1      -4.779   2.168  15.816  1.00  0.00     0.060 A 
BRANCH  97  98
ATOM     98  S   UNL     1      -3.180   1.854  16.594  1.00  0.00     0.124 S 
ATOM     99  O   UNL     1      -2.320   2.822  15.919  1.00  0.00    -0.237 OA
ATOM    100  O   UNL     1      -3.458   2.134  18.000  1.00  0.00    -0.237 OA
ATOM    101  O   UNL     1      -2.907   0.454  16.282  1.00  0.00    -0.744 OA
ENDBRANCH  97  98
ENDBRANCH  65  90
ENDBRANCH  39  40
ENDBRANCH  32  34
ENDBRANCH  31  32
ENDBRANCH  30  31
ENDBRANCH  29  30
ENDBRANCH  28  29
ENDBRANCH  27  28
ENDBRANCH   1  27
TORSDOF 24
