REMARK SMILES C[C@H]1[C@H](C)CC[C@@]2(C(=O)OCCOCCOCCOC(=O)c3ccc(-c4c5nc(c(-c6c(F)cc(S(=O)(=O)[O-])cc6F)c6ccc([nH]6)c(-c6c(F)cc(S(=O)(=O)[O-])cc6F)c6nc(c(-c7c(F)cc(S(=O)(=O)[O-])cc7F)c7ccc4[nH]7)C=C6)C=C5)cc3)CC[C@@]3(C)C(=CC[C@@H]4[C@@]5(C)CC[C@H](O)C(C)(C)[C@@H]5CC[C@]43C)[C@H]12
REMARK SMILES IDX 15 1 14 2 13 3 12 4 11 5 10 6 8 7 9 8 7 9 1 10 2 11 3 12
REMARK SMILES IDX 110 13 4 14 5 15 92 16 6 17 88 18 90 19 93 20 89 21 91 22
REMARK SMILES IDX 108 23 94 24 95 25 107 26 109 27 96 28 106 29 97 30 98 31
REMARK SMILES IDX 105 32 99 33 102 34 100 35 103 36 104 37 101 38 16 40 17 41
REMARK SMILES IDX 18 42 19 43 20 44 21 45 22 46 23 47 87 48 24 49 86 50 25 51
REMARK SMILES IDX 26 52 27 53 80 54 28 55 85 56 79 57 81 58 29 59 84 60 78 61
REMARK SMILES IDX 77 62 30 64 64 65 43 66 63 67 44 68 47 69 62 70 82 71 45 72
REMARK SMILES IDX 46 73 61 75 83 76 48 77 31 78 32 79 41 80 33 81 34 82 40 83
REMARK SMILES IDX 42 84 35 85 36 86 37 87 38 88 39 89 65 90 66 91 75 92 67 93
REMARK SMILES IDX 68 94 74 95 76 96 69 97 70 98 71 99 72 100 73 101 49 102
REMARK SMILES IDX 50 103 59 104 51 105 52 106 58 107 60 108 53 109 54 110
REMARK SMILES IDX 55 111 56 112 57 113
REMARK H PARENT 101 39 81 63 47 74
REMARK Flexibility Score: inf
ROOT
ATOM      1  C   UNL     1       2.958   0.652  -4.612  1.00  0.00     0.188 C 
ENDROOT
BRANCH   1   2
ATOM      2  C   UNL     1       3.686   1.851  -3.915  1.00  0.00     0.188 C 
BRANCH   2   3
ATOM      3  O   UNL     1       4.738   1.444  -3.068  1.00  0.00    -0.376 OA
BRANCH   3   4
ATOM      4  C   UNL     1       4.285   1.095  -1.783  1.00  0.00     0.202 C 
BRANCH   4   5
ATOM      5  C   UNL     1       2.906   0.447  -1.670  1.00  0.00     0.261 C 
BRANCH   5   6
ATOM      6  O   UNL     1       1.610   1.147  -1.956  1.00  0.00    -0.463 OA
BRANCH   6   7
ATOM      7  C   UNL     1       0.762   1.832  -2.765  1.00  0.00     0.312 C 
ATOM      8  O   UNL     1       1.001   2.330  -3.858  1.00  0.00    -0.252 OA
BRANCH   7   9
ATOM      9  C   UNL     1      -0.677   1.836  -2.192  1.00  0.00     0.075 C 
ATOM     10  C   UNL     1      -0.160  -0.011   1.294  1.00  0.00     0.008 C 
ATOM     11  C   UNL     1      -0.220   0.240  -0.213  1.00  0.00    -0.003 C 
ATOM     12  C   UNL     1      -0.986  -0.897  -0.979  1.00  0.00    -0.011 C 
ATOM     13  C   UNL     1      -0.615   1.752  -0.637  1.00  0.00     0.036 C 
ATOM     14  C   UNL     1      -0.350  -2.292  -0.791  1.00  0.00     0.008 C 
ATOM     15  C   UNL     1      -1.032  -0.682  -2.495  1.00  0.00     0.005 C 
ATOM     16  C   UNL     1       0.275   3.027  -0.259  1.00  0.00    -0.063 C 
ATOM     17  C   UNL     1      -1.468   0.707  -2.877  1.00  0.00     0.020 C 
ATOM     18  C   UNL     1      -1.410   3.133  -2.612  1.00  0.00     0.020 C 
ATOM     19  C   UNL     1      -0.195   4.464  -0.752  1.00  0.00    -0.006 C 
ATOM     20  C   UNL     1       1.534   2.879   0.203  1.00  0.00    -0.027 C 
ATOM     21  C   UNL     1      -0.673   4.404  -2.230  1.00  0.00     0.013 C 
ATOM     22  C   UNL     1      -1.428   4.855   0.097  1.00  0.00     0.017 C 
ATOM     23  C   UNL     1       0.999   5.616  -0.612  1.00  0.00    -0.020 C 
ATOM     24  C   UNL     1       2.644   3.872  -0.051  1.00  0.00     0.032 C 
ATOM     25  C   UNL     1       2.321   4.943  -1.125  1.00  0.00     0.006 C 
ATOM     26  C   UNL     1       0.748   6.904  -1.423  1.00  0.00     0.008 C 
ATOM     27  C   UNL     1       1.109   6.085   0.868  1.00  0.00     0.012 C 
ATOM     28  C   UNL     1       3.573   5.858  -1.595  1.00  0.00    -0.025 C 
ATOM     29  C   UNL     1       1.960   7.860  -1.473  1.00  0.00     0.005 C 
ATOM     30  C   UNL     1       4.553   6.003  -0.417  1.00  0.00     0.012 C 
ATOM     31  C   UNL     1       4.359   5.156  -2.761  1.00  0.00     0.010 C 
ATOM     32  C   UNL     1       3.119   7.219  -2.244  1.00  0.00     0.003 C 
ATOM     33  C   UNL     1       5.536   5.974  -3.325  1.00  0.00     0.033 C 
ATOM     34  C   UNL     1       4.304   8.185  -2.689  1.00  0.00    -0.006 C 
ATOM     35  C   UNL     1       5.188   7.413  -3.716  1.00  0.00     0.120 C 
ATOM     36  C   UNL     1       5.114   8.795  -1.519  1.00  0.00     0.014 C 
ATOM     37  C   UNL     1       3.760   9.426  -3.437  1.00  0.00     0.014 C 
BRANCH  35  38
ATOM     38  O   UNL     1       6.400   8.106  -4.027  1.00  0.00    -0.393 OA
ATOM     39  H   UNL     1       6.962   8.144  -3.238  1.00  0.00     0.210 HD
ENDBRANCH  35  38
ENDBRANCH   7   9
ENDBRANCH   6   7
ENDBRANCH   5   6
ENDBRANCH   4   5
ENDBRANCH   3   4
ENDBRANCH   2   3
ENDBRANCH   1   2
BRANCH   1  40
ATOM     40  O   UNL     1       3.610  -0.607  -4.686  1.00  0.00    -0.376 OA
BRANCH  40  41
ATOM     41  C   UNL     1       4.992  -0.595  -4.960  1.00  0.00     0.202 C 
BRANCH  41  42
ATOM     42  C   UNL     1       5.475   0.204  -6.189  1.00  0.00     0.261 C 
BRANCH  42  43
ATOM     43  O   UNL     1       5.033   1.585  -6.324  1.00  0.00    -0.460 OA
BRANCH  43  44
ATOM     44  C   UNL     1       4.043   1.857  -7.232  1.00  0.00     0.338 C 
ATOM     45  O   UNL     1       3.571   1.051  -8.008  1.00  0.00    -0.246 OA
BRANCH  44  46
ATOM     46  C   UNL     1       3.438   3.229  -7.041  1.00  0.00     0.060 A 
ATOM     47  C   UNL     1       2.045   3.356  -6.869  1.00  0.00     0.016 A 
ATOM     48  C   UNL     1       4.198   4.396  -7.103  1.00  0.00     0.016 A 
ATOM     49  C   UNL     1       1.412   4.620  -6.829  1.00  0.00     0.010 A 
ATOM     50  C   UNL     1       3.559   5.661  -7.088  1.00  0.00     0.010 A 
ATOM     51  C   UNL     1       2.154   5.794  -6.995  1.00  0.00    -0.014 A 
BRANCH  51  52
ATOM     52  C   UNL     1       1.503   7.123  -7.294  1.00  0.00     0.031 A 
ATOM     53  C   UNL     1       1.537   7.633  -8.717  1.00  0.00     0.074 A 
ATOM     54  C   UNL     1       0.856   7.894  -6.390  1.00  0.00     0.049 A 
ATOM     55  N   UNL     1       1.208   8.809  -9.190  1.00  0.00    -0.248 NA
ATOM     56  C   UNL     1       1.972   6.673  -9.743  1.00  0.00     0.031 C 
ATOM     57  C   UNL     1       0.545   7.509  -5.023  1.00  0.00     0.029 A 
ATOM     58  N   UNL     1       0.359   9.184  -6.482  1.00  0.00    -0.354 N 
ATOM     59  C   UNL     1       1.383   8.730 -10.566  1.00  0.00     0.074 A 
ATOM     60  C   UNL     1       1.892   7.403 -10.847  1.00  0.00     0.031 C 
ATOM     61  C   UNL     1      -0.011   8.556  -4.383  1.00  0.00     0.029 A 
ATOM     62  C   UNL     1      -0.063   9.706  -5.275  1.00  0.00     0.049 A 
ATOM     63  H   UNL     1       0.310   9.682  -7.329  1.00  0.00     0.167 HD
ATOM     64  C   UNL     1       1.124   9.662 -11.514  1.00  0.00     0.037 A 
ATOM     65  C   UNL     1      -0.403  10.961  -4.900  1.00  0.00     0.037 A 
ATOM     66  C   UNL     1       0.615  10.986 -11.253  1.00  0.00     0.049 A 
ATOM     67  C   UNL     1      -0.448  12.056  -5.926  1.00  0.00     0.074 A 
ATOM     68  C   UNL     1       0.312  11.983 -12.166  1.00  0.00     0.029 A 
ATOM     69  N   UNL     1       0.342  11.506  -9.998  1.00  0.00    -0.354 N 
ATOM     70  N   UNL     1      -0.241  11.977  -7.215  1.00  0.00    -0.248 NA
ATOM     71  C   UNL     1      -0.795  13.405  -5.451  1.00  0.00     0.031 C 
ATOM     72  C   UNL     1      -0.080  13.125 -11.461  1.00  0.00     0.029 A 
ATOM     73  C   UNL     1      -0.084  12.822 -10.111  1.00  0.00     0.049 A 
ATOM     74  H   UNL     1       0.437  11.014  -9.150  1.00  0.00     0.167 HD
ATOM     75  C   UNL     1      -0.482  13.251  -7.714  1.00  0.00     0.074 A 
ATOM     76  C   UNL     1      -0.836  14.087  -6.587  1.00  0.00     0.031 C 
ATOM     77  C   UNL     1      -0.437  13.670  -9.001  1.00  0.00     0.037 A 
BRANCH  64  78
ATOM     78  C   UNL     1       1.406   9.294 -12.944  1.00  0.00     0.058 A 
ATOM     79  C   UNL     1       0.595   8.389 -13.647  1.00  0.00     0.135 A 
ATOM     80  C   UNL     1       2.462   9.905 -13.639  1.00  0.00     0.135 A 
ATOM     81  F   UNL     1      -0.418   7.764 -13.027  1.00  0.00    -0.206 F 
ATOM     82  C   UNL     1       0.832   8.091 -14.985  1.00  0.00     0.059 A 
ATOM     83  C   UNL     1       2.700   9.644 -14.984  1.00  0.00     0.059 A 
ATOM     84  F   UNL     1       3.267  10.778 -13.012  1.00  0.00    -0.206 F 
ATOM     85  C   UNL     1       1.884   8.728 -15.646  1.00  0.00     0.060 A 
BRANCH  85  86
ATOM     86  S   UNL     1       2.158   8.352 -17.390  1.00  0.00     0.124 S 
ATOM     87  O   UNL     1       2.655   6.981 -17.319  1.00  0.00    -0.237 OA
ATOM     88  O   UNL     1       0.822   8.513 -17.956  1.00  0.00    -0.237 OA
ATOM     89  O   UNL     1       3.136   9.352 -17.806  1.00  0.00    -0.744 OA
ENDBRANCH  85  86
ENDBRANCH  64  78
BRANCH  65  90
ATOM     90  C   UNL     1      -0.623  11.311  -3.464  1.00  0.00     0.058 A 
ATOM     91  C   UNL     1      -1.887  11.562  -2.917  1.00  0.00     0.135 A 
ATOM     92  C   UNL     1       0.484  11.504  -2.627  1.00  0.00     0.135 A 
ATOM     93  F   UNL     1      -2.977  11.491  -3.694  1.00  0.00    -0.206 F 
ATOM     94  C   UNL     1      -2.042  11.948  -1.584  1.00  0.00     0.059 A 
ATOM     95  C   UNL     1       0.359  11.837  -1.282  1.00  0.00     0.059 A 
ATOM     96  F   UNL     1       1.714  11.425  -3.145  1.00  0.00    -0.206 F 
ATOM     97  C   UNL     1      -0.913  12.065  -0.768  1.00  0.00     0.060 A 
BRANCH  97  98
ATOM     98  S   UNL     1      -1.117  12.501   0.974  1.00  0.00     0.124 S 
ATOM     99  O   UNL     1      -1.353  13.938   0.895  1.00  0.00    -0.237 OA
ATOM    100  O   UNL     1      -2.263  11.686   1.365  1.00  0.00    -0.237 OA
ATOM    101  O   UNL     1       0.155  12.101   1.569  1.00  0.00    -0.744 OA
ENDBRANCH  97  98
ENDBRANCH  65  90
BRANCH  77 102
ATOM    102  C   UNL     1      -0.839  15.091  -9.283  1.00  0.00     0.058 A 
ATOM    103  C   UNL     1      -0.032  16.180  -8.918  1.00  0.00     0.135 A 
ATOM    104  C   UNL     1      -2.042  15.366  -9.954  1.00  0.00     0.135 A 
ATOM    105  F   UNL     1       1.120  15.976  -8.259  1.00  0.00    -0.206 F 
ATOM    106  C   UNL     1      -0.413  17.491  -9.190  1.00  0.00     0.059 A 
ATOM    107  C   UNL     1      -2.428  16.666 -10.263  1.00  0.00     0.059 A 
ATOM    108  F   UNL     1      -2.853  14.363 -10.326  1.00  0.00    -0.206 F 
ATOM    109  C   UNL     1      -1.611  17.724  -9.867  1.00  0.00     0.060 A 
BRANCH 109 110
ATOM    110  S   UNL     1      -2.076  19.427 -10.243  1.00  0.00     0.124 S 
ATOM    111  O   UNL     1      -2.436  19.933  -8.922  1.00  0.00    -0.237 OA
ATOM    112  O   UNL     1      -0.846  19.966 -10.815  1.00  0.00    -0.237 OA
ATOM    113  O   UNL     1      -3.184  19.279 -11.181  1.00  0.00    -0.744 OA
ENDBRANCH 109 110
ENDBRANCH  77 102
ENDBRANCH  51  52
ENDBRANCH  44  46
ENDBRANCH  43  44
ENDBRANCH  42  43
ENDBRANCH  41  42
ENDBRANCH  40  41
ENDBRANCH   1  40
TORSDOF 21
