REMARK SMILES O=C(/C=C/c1cc(C(=O)NCCn2cccn2)cs1)OCCOCCOCCOC(=O)c1ccc(-c2c3nc(c(-c4c(F)cc(S(=O)(=O)[O-])cc4F)c4ccc([nH]4)c(-c4c(F)cc(S(=O)(=O)[O-])cc4F)c4nc(c(-c5c(F)cc(S(=O)(=O)[O-])cc5F)c5ccc2[nH]5)C=C4)C=C3)cc1
REMARK SMILES IDX 24 1 23 2 22 3 21 4 20 5 2 6 1 7 3 8 4 9 5 10 6 11 19 12
REMARK SMILES IDX 7 13 18 14 8 15 9 16 10 17 11 19 12 20 13 21 14 22 17 23
REMARK SMILES IDX 15 24 16 25 25 26 26 27 27 28 28 29 29 30 30 31 31 32 32 33
REMARK SMILES IDX 33 34 97 35 34 36 96 37 35 38 36 39 37 40 90 41 38 42 95 43
REMARK SMILES IDX 89 44 91 45 39 46 94 47 88 48 87 49 40 51 74 52 53 53 73 54
REMARK SMILES IDX 54 55 57 56 72 57 92 58 55 59 56 60 71 62 93 63 58 64 41 65
REMARK SMILES IDX 42 66 51 67 43 68 44 69 50 70 52 71 45 72 46 73 47 74 48 75
REMARK SMILES IDX 49 76 75 77 76 78 85 79 77 80 78 81 84 82 86 83 79 84 80 85
REMARK SMILES IDX 81 86 82 87 83 88 59 89 60 90 69 91 61 92 62 93 68 94 70 95
REMARK SMILES IDX 63 96 64 97 65 98 66 99 67 100
REMARK H PARENT 10 18 91 50 57 61
REMARK Flexibility Score: inf
ROOT
ATOM      1  C   UNL     1       3.018  -1.784  -0.432  1.00  0.00     0.188 C 
ENDROOT
BRANCH   1   2
ATOM      2  O   UNL     1       4.341  -1.913   0.035  1.00  0.00    -0.376 OA
BRANCH   2   3
ATOM      3  C   UNL     1       5.050  -0.777   0.482  1.00  0.00     0.202 C 
BRANCH   3   4
ATOM      4  C   UNL     1       4.368   0.202   1.449  1.00  0.00     0.261 C 
BRANCH   4   5
ATOM      5  O   UNL     1       3.110   0.795   1.058  1.00  0.00    -0.460 OA
BRANCH   5   6
ATOM      6  C   UNL     1       3.002   1.849   0.216  1.00  0.00     0.330 C 
ATOM      7  O   UNL     1       2.253   2.794   0.424  1.00  0.00    -0.247 OA
BRANCH   6   8
ATOM      8  C   UNL     1       3.517   1.603  -1.135  1.00  0.00     0.095 C 
ATOM      9  C   UNL     1       4.821   1.685  -1.421  1.00  0.00     0.026 C 
BRANCH   9  10
ATOM     10  C   UNL     1       5.323   1.352  -2.708  1.00  0.00     0.028 A 
ATOM     11  C   UNL     1       4.667   1.173  -3.911  1.00  0.00     0.033 A 
ATOM     12  S   UNL     1       7.002   1.043  -2.940  1.00  0.00    -0.144 S 
ATOM     13  C   UNL     1       5.540   1.484  -4.997  1.00  0.00     0.051 A 
ATOM     14  C   UNL     1       6.835   1.154  -4.639  1.00  0.00     0.079 A 
BRANCH  13  15
ATOM     15  C   UNL     1       5.198   2.012  -6.306  1.00  0.00     0.252 C 
ATOM     16  O   UNL     1       5.857   1.736  -7.315  1.00  0.00    -0.269 OA
ATOM     17  N   UNL     1       4.192   2.941  -6.424  1.00  0.00    -0.350 N 
ATOM     18  H   UNL     1       4.038   3.243  -7.348  1.00  0.00     0.163 HD
BRANCH  17  19
ATOM     19  C   UNL     1       3.303   3.568  -5.441  1.00  0.00     0.140 C 
BRANCH  19  20
ATOM     20  C   UNL     1       3.721   4.965  -4.985  1.00  0.00     0.165 C 
BRANCH  20  21
ATOM     21  N   UNL     1       3.466   6.045  -5.918  1.00  0.00    -0.271 N 
ATOM     22  C   UNL     1       2.857   6.000  -7.140  1.00  0.00     0.108 A 
ATOM     23  N   UNL     1       3.806   7.298  -5.550  1.00  0.00    -0.181 NA
ATOM     24  C   UNL     1       2.834   7.292  -7.607  1.00  0.00     0.042 A 
ATOM     25  C   UNL     1       3.429   8.050  -6.586  1.00  0.00     0.135 A 
ENDBRANCH  20  21
ENDBRANCH  19  20
ENDBRANCH  17  19
ENDBRANCH  13  15
ENDBRANCH   9  10
ENDBRANCH   6   8
ENDBRANCH   5   6
ENDBRANCH   4   5
ENDBRANCH   3   4
ENDBRANCH   2   3
ENDBRANCH   1   2
BRANCH   1  26
ATOM     26  C   UNL     1       1.998  -2.595   0.382  1.00  0.00     0.188 C 
BRANCH  26  27
ATOM     27  O   UNL     1       2.347  -3.178   1.632  1.00  0.00    -0.376 OA
BRANCH  27  28
ATOM     28  C   UNL     1       3.632  -3.741   1.851  1.00  0.00     0.202 C 
BRANCH  28  29
ATOM     29  C   UNL     1       4.176  -4.854   0.953  1.00  0.00     0.261 C 
BRANCH  29  30
ATOM     30  O   UNL     1       4.103  -4.638  -0.453  1.00  0.00    -0.460 OA
BRANCH  30  31
ATOM     31  C   UNL     1       3.055  -5.241  -1.037  1.00  0.00     0.338 C 
ATOM     32  O   UNL     1       2.033  -5.641  -0.466  1.00  0.00    -0.246 OA
BRANCH  31  33
ATOM     33  C   UNL     1       3.330  -5.521  -2.449  1.00  0.00     0.060 A 
ATOM     34  C   UNL     1       2.291  -6.104  -3.179  1.00  0.00     0.016 A 
ATOM     35  C   UNL     1       4.635  -5.453  -2.964  1.00  0.00     0.016 A 
ATOM     36  C   UNL     1       2.592  -6.772  -4.346  1.00  0.00     0.010 A 
ATOM     37  C   UNL     1       4.935  -6.128  -4.137  1.00  0.00     0.010 A 
ATOM     38  C   UNL     1       3.923  -6.843  -4.776  1.00  0.00    -0.014 A 
BRANCH  38  39
ATOM     39  C   UNL     1       4.188  -7.720  -5.901  1.00  0.00     0.031 A 
ATOM     40  C   UNL     1       3.721  -7.232  -7.214  1.00  0.00     0.074 A 
ATOM     41  C   UNL     1       4.804  -8.910  -5.779  1.00  0.00     0.049 A 
ATOM     42  N   UNL     1       2.762  -7.704  -7.940  1.00  0.00    -0.248 NA
ATOM     43  C   UNL     1       4.340  -6.010  -7.739  1.00  0.00     0.031 C 
ATOM     44  C   UNL     1       5.564  -9.416  -4.635  1.00  0.00     0.029 A 
ATOM     45  N   UNL     1       4.942  -9.894  -6.713  1.00  0.00    -0.354 N 
ATOM     46  C   UNL     1       2.790  -6.968  -9.118  1.00  0.00     0.074 A 
ATOM     47  C   UNL     1       3.672  -5.853  -8.882  1.00  0.00     0.031 C 
ATOM     48  C   UNL     1       6.247 -10.519  -5.016  1.00  0.00     0.029 A 
ATOM     49  C   UNL     1       5.875 -10.863  -6.380  1.00  0.00     0.049 A 
ATOM     50  H   UNL     1       4.425  -9.914  -7.551  1.00  0.00     0.167 HD
ATOM     51  C   UNL     1       2.257  -7.449 -10.273  1.00  0.00     0.037 A 
ATOM     52  C   UNL     1       6.358 -11.831  -7.196  1.00  0.00     0.037 A 
ATOM     53  C   UNL     1       1.330  -8.525 -10.033  1.00  0.00     0.049 A 
ATOM     54  C   UNL     1       5.381 -12.030  -8.298  1.00  0.00     0.074 A 
ATOM     55  C   UNL     1       0.166  -8.661  -9.301  1.00  0.00     0.029 A 
ATOM     56  N   UNL     1       1.720  -9.802 -10.354  1.00  0.00    -0.354 N 
ATOM     57  N   UNL     1       4.205 -12.576  -8.159  1.00  0.00    -0.248 NA
ATOM     58  C   UNL     1       5.580 -11.296  -9.540  1.00  0.00     0.031 C 
ATOM     59  C   UNL     1       0.156 -10.012  -8.848  1.00  0.00     0.029 A 
ATOM     60  C   UNL     1       1.305 -10.628  -9.341  1.00  0.00     0.049 A 
ATOM     61  H   UNL     1       2.208 -10.074 -11.165  1.00  0.00     0.167 HD
ATOM     62  C   UNL     1       3.398 -11.927  -9.080  1.00  0.00     0.074 A 
ATOM     63  C   UNL     1       4.321 -11.250  -9.981  1.00  0.00     0.031 C 
ATOM     64  C   UNL     1       2.059 -11.770  -8.866  1.00  0.00     0.037 A 
BRANCH  51  65
ATOM     65  C   UNL     1       2.836  -7.167 -11.638  1.00  0.00     0.058 A 
ATOM     66  C   UNL     1       2.109  -7.528 -12.790  1.00  0.00     0.135 A 
ATOM     67  C   UNL     1       4.190  -6.821 -11.853  1.00  0.00     0.135 A 
ATOM     68  F   UNL     1       0.819  -7.887 -12.699  1.00  0.00    -0.206 F 
ATOM     69  C   UNL     1       2.703  -7.614 -14.049  1.00  0.00     0.059 A 
ATOM     70  C   UNL     1       4.785  -6.841 -13.107  1.00  0.00     0.059 A 
ATOM     71  F   UNL     1       5.026  -6.547 -10.844  1.00  0.00    -0.206 F 
ATOM     72  C   UNL     1       4.049  -7.288 -14.191  1.00  0.00     0.060 A 
BRANCH  72  73
ATOM     73  S   UNL     1       4.861  -7.530 -15.780  1.00  0.00     0.124 S 
ATOM     74  O   UNL     1       5.012  -8.980 -15.804  1.00  0.00    -0.237 OA
ATOM     75  O   UNL     1       3.887  -6.972 -16.712  1.00  0.00    -0.237 OA
ATOM     76  O   UNL     1       6.097  -6.765 -15.641  1.00  0.00    -0.744 OA
ENDBRANCH  72  73
ENDBRANCH  51  65
BRANCH  52  77
ATOM     77  C   UNL     1       7.727 -12.406  -7.231  1.00  0.00     0.058 A 
ATOM     78  C   UNL     1       8.009 -13.556  -7.990  1.00  0.00     0.135 A 
ATOM     79  C   UNL     1       8.843 -11.693  -6.747  1.00  0.00     0.135 A 
ATOM     80  F   UNL     1       7.011 -14.285  -8.511  1.00  0.00    -0.206 F 
ATOM     81  C   UNL     1       9.316 -13.943  -8.299  1.00  0.00     0.059 A 
ATOM     82  C   UNL     1      10.154 -12.071  -7.024  1.00  0.00     0.059 A 
ATOM     83  F   UNL     1       8.696 -10.545  -6.069  1.00  0.00    -0.206 F 
ATOM     84  C   UNL     1      10.383 -13.181  -7.827  1.00  0.00     0.060 A 
BRANCH  84  85
ATOM     85  S   UNL     1      12.061 -13.565  -8.376  1.00  0.00     0.124 S 
ATOM     86  O   UNL     1      12.330 -14.814  -7.673  1.00  0.00    -0.237 OA
ATOM     87  O   UNL     1      11.896 -13.666  -9.822  1.00  0.00    -0.237 OA
ATOM     88  O   UNL     1      12.838 -12.414  -7.921  1.00  0.00    -0.744 OA
ENDBRANCH  84  85
ENDBRANCH  52  77
BRANCH  64  89
ATOM     89  C   UNL     1       1.381 -12.666  -7.865  1.00  0.00     0.058 A 
ATOM     90  C   UNL     1       1.682 -12.699  -6.492  1.00  0.00     0.135 A 
ATOM     91  C   UNL     1       0.284 -13.428  -8.300  1.00  0.00     0.135 A 
ATOM     92  F   UNL     1       2.643 -11.918  -5.977  1.00  0.00    -0.206 F 
ATOM     93  C   UNL     1       0.953 -13.490  -5.603  1.00  0.00     0.059 A 
ATOM     94  C   UNL     1      -0.477 -14.198  -7.425  1.00  0.00     0.059 A 
ATOM     95  F   UNL     1      -0.093 -13.391  -9.590  1.00  0.00    -0.206 F 
ATOM     96  C   UNL     1      -0.127 -14.236  -6.078  1.00  0.00     0.060 A 
BRANCH  96  97
ATOM     97  S   UNL     1      -1.127 -15.186  -4.910  1.00  0.00     0.124 S 
ATOM     98  O   UNL     1      -0.279 -16.344  -4.653  1.00  0.00    -0.237 OA
ATOM     99  O   UNL     1      -1.287 -14.256  -3.795  1.00  0.00    -0.237 OA
ATOM    100  O   UNL     1      -2.352 -15.462  -5.657  1.00  0.00    -0.744 OA
ENDBRANCH  96  97
ENDBRANCH  64  89
ENDBRANCH  38  39
ENDBRANCH  31  33
ENDBRANCH  30  31
ENDBRANCH  29  30
ENDBRANCH  28  29
ENDBRANCH  27  28
ENDBRANCH  26  27
ENDBRANCH   1  26
TORSDOF 25
