REMARK SMILES O=C(OCCOCCOCCOC(=O)c1nnn(-c2ccc(C(F)(F)F)cc2)c1-c1cccc(Cl)c1)c1ccc(-c2c3nc(c(-c4c(F)cc(S(=O)(=O)[O-])cc4F)c4ccc([nH]4)c(-c4c(F)cc(S(=O)(=O)[O-])cc4F)c4nc(c(-c5c(F)cc(S(=O)(=O)[O-])cc5F)c5ccc2[nH]5)C=C4)C=C3)cc1
REMARK SMILES IDX 7 1 6 2 5 3 4 4 3 5 2 6 1 7 37 8 38 9 102 10 39 11 101 12
REMARK SMILES IDX 40 13 41 14 42 15 95 16 43 17 100 18 94 19 96 20 44 21 99 22
REMARK SMILES IDX 93 23 92 24 45 26 79 27 58 28 78 29 59 30 62 31 77 32 97 33
REMARK SMILES IDX 60 34 61 35 76 37 98 38 63 39 46 40 47 41 56 42 48 43 49 44
REMARK SMILES IDX 55 45 57 46 50 47 51 48 52 49 53 50 54 51 80 52 81 53 90 54
REMARK SMILES IDX 82 55 83 56 89 57 91 58 84 59 85 60 86 61 87 62 88 63 64 64
REMARK SMILES IDX 65 65 74 66 66 67 67 68 73 69 75 70 68 71 69 72 70 73 71 74
REMARK SMILES IDX 72 75 8 76 9 77 10 78 11 79 12 80 13 81 14 82 15 83 16 84
REMARK SMILES IDX 29 85 17 86 18 87 30 88 31 89 36 90 32 91 34 92 33 93 35 94
REMARK SMILES IDX 19 95 20 96 28 97 21 98 27 99 22 100 23 101 24 102 25 103
REMARK SMILES IDX 26 104
REMARK H PARENT 96 25 62 36
REMARK Flexibility Score: inf
ROOT
ATOM      1  C   UNL     1       3.304   1.362  -0.689  1.00  0.00     0.188 C 
ENDROOT
BRANCH   1   2
ATOM      2  O   UNL     1       4.603   0.909  -1.042  1.00  0.00    -0.376 OA
BRANCH   2   3
ATOM      3  C   UNL     1       5.155  -0.104  -0.220  1.00  0.00     0.202 C 
BRANCH   3   4
ATOM      4  C   UNL     1       4.609  -1.509  -0.482  1.00  0.00     0.261 C 
BRANCH   4   5
ATOM      5  O   UNL     1       3.205  -1.602  -0.778  1.00  0.00    -0.460 OA
BRANCH   5   6
ATOM      6  C   UNL     1       2.114  -1.694   0.005  1.00  0.00     0.338 C 
ATOM      7  O   UNL     1       1.050  -2.050  -0.499  1.00  0.00    -0.246 OA
BRANCH   6   8
ATOM      8  C   UNL     1       2.084  -1.231   1.411  1.00  0.00     0.060 A 
ATOM      9  C   UNL     1       3.132  -1.385   2.315  1.00  0.00     0.016 A 
ATOM     10  C   UNL     1       0.846  -0.722   1.858  1.00  0.00     0.016 A 
ATOM     11  C   UNL     1       2.903  -1.177   3.666  1.00  0.00     0.010 A 
ATOM     12  C   UNL     1       0.614  -0.514   3.208  1.00  0.00     0.010 A 
ATOM     13  C   UNL     1       1.623  -0.835   4.107  1.00  0.00    -0.014 A 
BRANCH  13  14
ATOM     14  C   UNL     1       1.369  -0.952   5.535  1.00  0.00     0.031 A 
ATOM     15  C   UNL     1       2.063   0.028   6.402  1.00  0.00     0.074 A 
ATOM     16  C   UNL     1       0.548  -1.906   6.019  1.00  0.00     0.049 A 
ATOM     17  N   UNL     1       2.993  -0.190   7.275  1.00  0.00    -0.248 NA
ATOM     18  C   UNL     1       1.767   1.450   6.183  1.00  0.00     0.031 C 
ATOM     19  C   UNL     1      -0.382  -2.759   5.270  1.00  0.00     0.029 A 
ATOM     20  N   UNL     1       0.301  -2.249   7.313  1.00  0.00    -0.354 N 
ATOM     21  C   UNL     1       3.241   1.042   7.879  1.00  0.00     0.074 A 
ATOM     22  C   UNL     1       2.592   2.028   7.056  1.00  0.00     0.031 C 
ATOM     23  C   UNL     1      -1.244  -3.339   6.131  1.00  0.00     0.029 A 
ATOM     24  C   UNL     1      -0.847  -3.009   7.488  1.00  0.00     0.049 A 
ATOM     25  H   UNL     1       0.886  -1.982   8.059  1.00  0.00     0.167 HD
ATOM     26  C   UNL     1       3.760   1.128   9.136  1.00  0.00     0.037 A 
ATOM     27  C   UNL     1      -1.473  -3.268   8.663  1.00  0.00     0.037 A 
ATOM     28  C   UNL     1       4.421  -0.095   9.517  1.00  0.00     0.049 A 
ATOM     29  C   UNL     1      -0.480  -3.062   9.749  1.00  0.00     0.074 A 
ATOM     30  C   UNL     1       5.473  -0.833   9.008  1.00  0.00     0.029 A 
ATOM     31  N   UNL     1       3.788  -0.925  10.411  1.00  0.00    -0.354 N 
ATOM     32  N   UNL     1       0.568  -3.819   9.935  1.00  0.00    -0.248 NA
ATOM     33  C   UNL     1      -0.414  -1.749  10.374  1.00  0.00     0.031 C 
ATOM     34  C   UNL     1       5.129  -2.194   9.255  1.00  0.00     0.029 A 
ATOM     35  C   UNL     1       3.912  -2.205   9.938  1.00  0.00     0.049 A 
ATOM     36  H   UNL     1       3.331  -0.650  11.239  1.00  0.00     0.167 HD
ATOM     37  C   UNL     1       1.574  -2.947  10.329  1.00  0.00     0.074 A 
ATOM     38  C   UNL     1       0.886  -1.708  10.677  1.00  0.00     0.031 C 
ATOM     39  C   UNL     1       2.889  -3.218  10.073  1.00  0.00     0.037 A 
BRANCH  26  40
ATOM     40  C   UNL     1       3.338   2.167  10.158  1.00  0.00     0.058 A 
ATOM     41  C   UNL     1       3.979   2.192  11.416  1.00  0.00     0.135 A 
ATOM     42  C   UNL     1       2.142   2.916  10.077  1.00  0.00     0.135 A 
ATOM     43  F   UNL     1       5.137   1.540  11.608  1.00  0.00    -0.206 F 
ATOM     44  C   UNL     1       3.409   2.800  12.536  1.00  0.00     0.059 A 
ATOM     45  C   UNL     1       1.584   3.574  11.167  1.00  0.00     0.059 A 
ATOM     46  F   UNL     1       1.396   2.970   8.969  1.00  0.00    -0.206 F 
ATOM     47  C   UNL     1       2.192   3.461  12.404  1.00  0.00     0.060 A 
BRANCH  47  48
ATOM     48  S   UNL     1       1.364   4.098  13.870  1.00  0.00     0.124 S 
ATOM     49  O   UNL     1       0.961   2.861  14.530  1.00  0.00    -0.237 OA
ATOM     50  O   UNL     1       2.432   4.852  14.518  1.00  0.00    -0.237 OA
ATOM     51  O   UNL     1       0.280   4.904  13.317  1.00  0.00    -0.744 OA
ENDBRANCH  47  48
ENDBRANCH  26  40
BRANCH  27  52
ATOM     52  C   UNL     1      -2.941  -3.311   8.898  1.00  0.00     0.058 A 
ATOM     53  C   UNL     1      -3.476  -3.813  10.097  1.00  0.00     0.135 A 
ATOM     54  C   UNL     1      -3.842  -2.618   8.061  1.00  0.00     0.135 A 
ATOM     55  F   UNL     1      -2.687  -4.462  10.967  1.00  0.00    -0.206 F 
ATOM     56  C   UNL     1      -4.811  -3.605  10.462  1.00  0.00     0.059 A 
ATOM     57  C   UNL     1      -5.178  -2.414   8.395  1.00  0.00     0.059 A 
ATOM     58  F   UNL     1      -3.429  -2.032   6.927  1.00  0.00    -0.206 F 
ATOM     59  C   UNL     1      -5.652  -2.888   9.610  1.00  0.00     0.060 A 
BRANCH  59  60
ATOM     60  S   UNL     1      -7.327  -2.471  10.147  1.00  0.00     0.124 S 
ATOM     61  O   UNL     1      -7.985  -3.773  10.120  1.00  0.00    -0.237 OA
ATOM     62  O   UNL     1      -7.094  -1.902  11.470  1.00  0.00    -0.237 OA
ATOM     63  O   UNL     1      -7.782  -1.521   9.135  1.00  0.00    -0.744 OA
ENDBRANCH  59  60
ENDBRANCH  27  52
BRANCH  39  64
ATOM     64  C   UNL     1       3.264  -4.614   9.651  1.00  0.00     0.058 A 
ATOM     65  C   UNL     1       2.848  -5.213   8.449  1.00  0.00     0.135 A 
ATOM     66  C   UNL     1       4.215  -5.305  10.417  1.00  0.00     0.135 A 
ATOM     67  F   UNL     1       2.026  -4.571   7.607  1.00  0.00    -0.206 F 
ATOM     68  C   UNL     1       3.329  -6.460   8.046  1.00  0.00     0.059 A 
ATOM     69  C   UNL     1       4.732  -6.536  10.019  1.00  0.00     0.059 A 
ATOM     70  F   UNL     1       4.702  -4.755  11.542  1.00  0.00    -0.206 F 
ATOM     71  C   UNL     1       4.275  -7.113   8.836  1.00  0.00     0.060 A 
BRANCH  71  72
ATOM     72  S   UNL     1       4.971  -8.677   8.261  1.00  0.00     0.124 S 
ATOM     73  O   UNL     1       3.861  -9.601   8.466  1.00  0.00    -0.237 OA
ATOM     74  O   UNL     1       5.305  -8.384   6.870  1.00  0.00    -0.237 OA
ATOM     75  O   UNL     1       6.123  -8.880   9.136  1.00  0.00    -0.744 OA
ENDBRANCH  71  72
ENDBRANCH  39  64
ENDBRANCH  13  14
ENDBRANCH   6   8
ENDBRANCH   5   6
ENDBRANCH   4   5
ENDBRANCH   3   4
ENDBRANCH   2   3
ENDBRANCH   1   2
BRANCH   1  76
ATOM     76  C   UNL     1       2.235   1.154  -1.790  1.00  0.00     0.188 C 
BRANCH  76  77
ATOM     77  O   UNL     1       2.504   1.321  -3.183  1.00  0.00    -0.376 OA
BRANCH  77  78
ATOM     78  C   UNL     1       3.831   1.478  -3.643  1.00  0.00     0.202 C 
BRANCH  78  79
ATOM     79  C   UNL     1       4.270   2.941  -3.654  1.00  0.00     0.261 C 
BRANCH  79  80
ATOM     80  O   UNL     1       3.976   3.645  -2.441  1.00  0.00    -0.458 OA
BRANCH  80  81
ATOM     81  C   UNL     1       2.723   4.191  -2.345  1.00  0.00     0.361 C 
ATOM     82  O   UNL     1       1.865   4.167  -3.209  1.00  0.00    -0.244 OA
BRANCH  81  83
ATOM     83  C   UNL     1       2.595   4.971  -1.130  1.00  0.00     0.198 A 
ATOM     84  N   UNL     1       1.932   4.605   0.013  1.00  0.00    -0.122 NA
ATOM     85  C   UNL     1       3.211   6.188  -0.935  1.00  0.00     0.109 A 
ATOM     86  N   UNL     1       2.122   5.563   0.921  1.00  0.00    -0.061 NA
ATOM     87  N   UNL     1       2.755   6.587   0.306  1.00  0.00    -0.212 N 
BRANCH  85  88
ATOM     88  C   UNL     1       4.178   6.868  -1.784  1.00  0.00     0.004 A 
ATOM     89  C   UNL     1       5.467   7.143  -1.308  1.00  0.00     0.010 A 
ATOM     90  C   UNL     1       3.856   7.147  -3.116  1.00  0.00     0.031 A 
ATOM     91  C   UNL     1       6.426   7.689  -2.161  1.00  0.00     0.002 A 
ATOM     92  C   UNL     1       4.819   7.685  -3.962  1.00  0.00     0.041 A 
ATOM     93  C   UNL     1       6.102   7.955  -3.491  1.00  0.00     0.020 A 
ATOM     94  Cl  UNL     1       4.425   7.993  -5.607  1.00  0.00    -0.084 Cl
ENDBRANCH  85  88
BRANCH  87  95
ATOM     95  C   UNL     1       2.852   7.883   0.849  1.00  0.00     0.067 A 
ATOM     96  C   UNL     1       3.251   8.081   2.170  1.00  0.00     0.029 A 
ATOM     97  C   UNL     1       2.646   8.972  -0.009  1.00  0.00     0.029 A 
ATOM     98  C   UNL     1       3.576   9.379   2.583  1.00  0.00     0.015 A 
ATOM     99  C   UNL     1       2.937  10.259   0.417  1.00  0.00     0.015 A 
ATOM    100  C   UNL     1       3.451  10.473   1.701  1.00  0.00     0.056 A 
BRANCH 100 101
ATOM    101  C   UNL     1       3.912  11.852   2.104  1.00  0.00     0.416 C 
ATOM    102  F   UNL     1       3.288  12.322   3.215  1.00  0.00    -0.166 F 
ATOM    103  F   UNL     1       5.248  11.889   2.372  1.00  0.00    -0.166 F 
ATOM    104  F   UNL     1       3.710  12.792   1.135  1.00  0.00    -0.166 F 
ENDBRANCH 100 101
ENDBRANCH  87  95
ENDBRANCH  81  83
ENDBRANCH  80  81
ENDBRANCH  79  80
ENDBRANCH  78  79
ENDBRANCH  77  78
ENDBRANCH  76  77
ENDBRANCH   1  76
TORSDOF 23
