REMARK SMILES Cc1cccc2[nH]cc(C[C@H](NC(=O)OC(C)(C)C)C(=O)OCCOCCOCCOC(=O)c3ccc(-c4c5nc(c(-c6c(F)cc(S(=O)(=O)[O-])cc6F)c6ccc([nH]6)c(-c6c(F)cc(S(=O)(=O)[O-])cc6F)c6nc(c(-c7c(F)cc(S(=O)(=O)[O-])cc7F)c7ccc4[nH]7)C=C6)C=C5)cc3)c12
REMARK SMILES IDX 26 1 25 2 24 3 23 4 22 5 20 6 21 7 11 8 10 9 9 10 1 11 2 12
REMARK SMILES IDX 3 13 100 14 4 15 6 16 5 17 7 18 8 19 12 21 13 22 14 24 15 25
REMARK SMILES IDX 16 26 17 27 18 28 19 29 27 30 28 31 29 32 30 33 31 34 32 35
REMARK SMILES IDX 33 36 34 37 35 38 99 39 36 40 98 41 37 42 38 43 39 44 92 45
REMARK SMILES IDX 40 46 97 47 91 48 93 49 41 50 96 51 90 52 89 53 42 55 76 56
REMARK SMILES IDX 55 57 75 58 56 59 59 60 74 61 94 62 57 63 58 64 73 66 95 67
REMARK SMILES IDX 60 68 43 69 44 70 53 71 45 72 46 73 52 74 54 75 47 76 48 77
REMARK SMILES IDX 49 78 50 79 51 80 77 81 78 82 87 83 79 84 80 85 86 86 88 87
REMARK SMILES IDX 81 88 82 89 83 90 84 91 85 92 61 93 62 94 71 95 63 96 64 97
REMARK SMILES IDX 70 98 72 99 65 100 66 101 67 102 68 103 69 104
REMARK H PARENT 7 20 12 23 93 54 59 65
REMARK Flexibility Score: inf
ROOT
ATOM      1  C   UNL     1      -1.176  -4.136   1.292  1.00  0.00     0.188 C 
ENDROOT
BRANCH   1   2
ATOM      2  O   UNL     1      -1.357  -5.522   1.516  1.00  0.00    -0.376 OA
BRANCH   2   3
ATOM      3  C   UNL     1      -1.299  -6.405   0.405  1.00  0.00     0.202 C 
BRANCH   3   4
ATOM      4  C   UNL     1      -2.005  -6.055  -0.924  1.00  0.00     0.261 C 
BRANCH   4   5
ATOM      5  O   UNL     1      -1.688  -4.767  -1.494  1.00  0.00    -0.462 OA
BRANCH   5   6
ATOM      6  C   UNL     1      -2.681  -3.844  -1.604  1.00  0.00     0.329 C 
ATOM      7  O   UNL     1      -3.841  -4.042  -1.253  1.00  0.00    -0.250 OA
BRANCH   6   8
ATOM      8  C   UNL     1      -2.241  -2.549  -2.345  1.00  0.00     0.200 C 
BRANCH   8   9
ATOM      9  C   UNL     1      -2.660  -2.701  -3.825  1.00  0.00     0.075 C 
BRANCH   9  10
ATOM     10  C   UNL     1      -2.140  -3.978  -4.444  1.00  0.00    -0.020 A 
ATOM     11  C   UNL     1      -5.339  -4.931  -3.996  1.00  0.00     0.045 C 
ATOM     12  C   UNL     1      -4.151  -5.728  -4.474  1.00  0.00    -0.041 A 
ATOM     13  C   UNL     1      -4.412  -7.078  -4.810  1.00  0.00     0.004 A 
ATOM     14  C   UNL     1      -2.824  -5.237  -4.654  1.00  0.00     0.006 A 
ATOM     15  C   UNL     1      -3.415  -7.936  -5.257  1.00  0.00     0.002 A 
ATOM     16  C   UNL     1      -1.850  -6.139  -5.105  1.00  0.00     0.046 A 
ATOM     17  C   UNL     1      -2.111  -7.482  -5.401  1.00  0.00     0.027 A 
ATOM     18  N   UNL     1      -0.652  -5.469  -5.172  1.00  0.00    -0.361 N 
ATOM     19  C   UNL     1      -0.822  -4.164  -4.824  1.00  0.00     0.087 A 
ATOM     20  H   UNL     1       0.205  -5.875  -5.434  1.00  0.00     0.166 HD
ENDBRANCH   9  10
ENDBRANCH   8   9
BRANCH   8  21
ATOM     21  N   UNL     1      -0.816  -2.176  -2.304  1.00  0.00    -0.308 N 
ATOM     22  C   UNL     1      -0.220  -1.009  -1.905  1.00  0.00     0.408 C 
ATOM     23  H   UNL     1      -0.195  -2.876  -2.610  1.00  0.00     0.168 HD
ATOM     24  O   UNL     1       0.978  -0.852  -2.073  1.00  0.00    -0.225 OA
BRANCH  22  25
ATOM     25  O   UNL     1      -1.054  -0.123  -1.297  1.00  0.00    -0.444 OA
BRANCH  25  26
ATOM     26  C   UNL     1      -0.522   1.133  -0.760  1.00  0.00     0.106 C 
ATOM     27  C   UNL     1       0.523   0.919   0.343  1.00  0.00     0.056 C 
ATOM     28  C   UNL     1       0.033   2.030  -1.873  1.00  0.00     0.056 C 
ATOM     29  C   UNL     1      -1.719   1.851  -0.110  1.00  0.00     0.056 C 
ENDBRANCH  25  26
ENDBRANCH  22  25
ENDBRANCH   8  21
ENDBRANCH   6   8
ENDBRANCH   5   6
ENDBRANCH   4   5
ENDBRANCH   3   4
ENDBRANCH   2   3
ENDBRANCH   1   2
BRANCH   1  30
ATOM     30  C   UNL     1      -0.003  -3.645   0.420  1.00  0.00     0.188 C 
BRANCH  30  31
ATOM     31  O   UNL     1       0.618  -4.575  -0.441  1.00  0.00    -0.376 OA
BRANCH  31  32
ATOM     32  C   UNL     1       1.861  -5.203  -0.171  1.00  0.00     0.202 C 
BRANCH  32  33
ATOM     33  C   UNL     1       2.426  -5.458   1.228  1.00  0.00     0.261 C 
BRANCH  33  34
ATOM     34  O   UNL     1       1.761  -4.777   2.264  1.00  0.00    -0.460 OA
BRANCH  34  35
ATOM     35  C   UNL     1       2.181  -3.502   2.353  1.00  0.00     0.338 C 
ATOM     36  O   UNL     1       3.006  -2.937   1.658  1.00  0.00    -0.246 OA
BRANCH  35  37
ATOM     37  C   UNL     1       1.393  -2.842   3.389  1.00  0.00     0.060 A 
ATOM     38  C   UNL     1       1.290  -1.457   3.239  1.00  0.00     0.016 A 
ATOM     39  C   UNL     1       1.377  -3.496   4.615  1.00  0.00     0.016 A 
ATOM     40  C   UNL     1       1.589  -0.692   4.326  1.00  0.00     0.010 A 
ATOM     41  C   UNL     1       1.740  -2.740   5.686  1.00  0.00     0.010 A 
ATOM     42  C   UNL     1       1.954  -1.373   5.484  1.00  0.00    -0.014 A 
BRANCH  42  43
ATOM     43  C   UNL     1       2.563  -0.611   6.539  1.00  0.00     0.031 A 
ATOM     44  C   UNL     1       1.532   0.007   7.384  1.00  0.00     0.074 A 
ATOM     45  C   UNL     1       3.896  -0.634   6.722  1.00  0.00     0.049 A 
ATOM     46  N   UNL     1       1.163   1.244   7.401  1.00  0.00    -0.248 NA
ATOM     47  C   UNL     1       0.605  -0.905   8.079  1.00  0.00     0.031 C 
ATOM     48  C   UNL     1       4.881  -1.479   6.034  1.00  0.00     0.029 A 
ATOM     49  N   UNL     1       4.640   0.003   7.662  1.00  0.00    -0.354 N 
ATOM     50  C   UNL     1       0.156   1.279   8.357  1.00  0.00     0.074 A 
ATOM     51  C   UNL     1      -0.348  -0.060   8.469  1.00  0.00     0.031 C 
ATOM     52  C   UNL     1       6.033  -1.483   6.743  1.00  0.00     0.029 A 
ATOM     53  C   UNL     1       5.906  -0.547   7.846  1.00  0.00     0.049 A 
ATOM     54  H   UNL     1       4.315   0.783   8.167  1.00  0.00     0.167 HD
ATOM     55  C   UNL     1       0.124   2.275   9.281  1.00  0.00     0.037 A 
ATOM     56  C   UNL     1       6.706  -0.301   8.914  1.00  0.00     0.037 A 
ATOM     57  C   UNL     1       0.975   3.368   8.887  1.00  0.00     0.049 A 
ATOM     58  C   UNL     1       6.249   0.991   9.496  1.00  0.00     0.074 A 
ATOM     59  C   UNL     1       0.927   4.380   7.954  1.00  0.00     0.029 A 
ATOM     60  N   UNL     1       2.288   3.209   9.255  1.00  0.00    -0.354 N 
ATOM     61  N   UNL     1       6.318   2.131   8.859  1.00  0.00    -0.248 NA
ATOM     62  C   UNL     1       5.352   0.982  10.648  1.00  0.00     0.031 C 
ATOM     63  C   UNL     1       2.281   4.727   7.669  1.00  0.00     0.029 A 
ATOM     64  C   UNL     1       3.125   3.947   8.459  1.00  0.00     0.049 A 
ATOM     65  H   UNL     1       2.590   2.637   9.997  1.00  0.00     0.167 HD
ATOM     66  C   UNL     1       5.193   2.827   9.262  1.00  0.00     0.074 A 
ATOM     67  C   UNL     1       4.738   2.156  10.472  1.00  0.00     0.031 C 
ATOM     68  C   UNL     1       4.546   3.668   8.403  1.00  0.00     0.037 A 
BRANCH  55  69
ATOM     69  C   UNL     1      -0.259   2.051  10.727  1.00  0.00     0.058 A 
ATOM     70  C   UNL     1      -0.520   3.162  11.547  1.00  0.00     0.135 A 
ATOM     71  C   UNL     1      -0.138   0.812  11.405  1.00  0.00     0.135 A 
ATOM     72  F   UNL     1      -0.611   4.392  11.017  1.00  0.00    -0.206 F 
ATOM     73  C   UNL     1      -0.638   3.052  12.935  1.00  0.00     0.059 A 
ATOM     74  C   UNL     1      -0.319   0.670  12.773  1.00  0.00     0.059 A 
ATOM     75  F   UNL     1       0.260  -0.310  10.797  1.00  0.00    -0.206 F 
ATOM     76  C   UNL     1      -0.539   1.799  13.537  1.00  0.00     0.060 A 
BRANCH  76  77
ATOM     77  S   UNL     1      -0.644   1.653  15.326  1.00  0.00     0.124 S 
ATOM     78  O   UNL     1       0.581   2.323  15.748  1.00  0.00    -0.237 OA
ATOM     79  O   UNL     1      -1.891   2.355  15.611  1.00  0.00    -0.237 OA
ATOM     80  O   UNL     1      -0.682   0.210  15.545  1.00  0.00    -0.744 OA
ENDBRANCH  76  77
ENDBRANCH  55  69
BRANCH  56  81
ATOM     81  C   UNL     1       7.511  -1.283   9.693  1.00  0.00     0.058 A 
ATOM     82  C   UNL     1       8.375  -0.842  10.713  1.00  0.00     0.135 A 
ATOM     83  C   UNL     1       7.220  -2.662   9.682  1.00  0.00     0.135 A 
ATOM     84  F   UNL     1       8.709   0.455  10.799  1.00  0.00    -0.206 F 
ATOM     85  C   UNL     1       8.842  -1.696  11.717  1.00  0.00     0.059 A 
ATOM     86  C   UNL     1       7.684  -3.534  10.665  1.00  0.00     0.059 A 
ATOM     87  F   UNL     1       6.392  -3.193   8.770  1.00  0.00    -0.206 F 
ATOM     88  C   UNL     1       8.461  -3.036  11.703  1.00  0.00     0.060 A 
BRANCH  88  89
ATOM     89  S   UNL     1       8.870  -4.089  13.115  1.00  0.00     0.124 S 
ATOM     90  O   UNL     1      10.322  -4.191  13.006  1.00  0.00    -0.237 OA
ATOM     91  O   UNL     1       8.368  -3.304  14.237  1.00  0.00    -0.237 OA
ATOM     92  O   UNL     1       8.137  -5.322  12.842  1.00  0.00    -0.744 OA
ENDBRANCH  88  89
ENDBRANCH  56  81
BRANCH  68  93
ATOM     93  C   UNL     1       5.340   4.231   7.257  1.00  0.00     0.058 A 
ATOM     94  C   UNL     1       5.847   3.485   6.180  1.00  0.00     0.135 A 
ATOM     95  C   UNL     1       5.544   5.618   7.229  1.00  0.00     0.135 A 
ATOM     96  F   UNL     1       5.618   2.167   6.088  1.00  0.00    -0.206 F 
ATOM     97  C   UNL     1       6.571   4.087   5.147  1.00  0.00     0.059 A 
ATOM     98  C   UNL     1       6.232   6.244   6.196  1.00  0.00     0.059 A 
ATOM     99  F   UNL     1       5.040   6.392   8.205  1.00  0.00    -0.206 F 
ATOM    100  C   UNL     1       6.761   5.470   5.168  1.00  0.00     0.060 A 
BRANCH 100 101
ATOM    101  S   UNL     1       7.676   6.257   3.825  1.00  0.00     0.124 S 
ATOM    102  O   UNL     1       9.025   5.739   4.025  1.00  0.00    -0.237 OA
ATOM    103  O   UNL     1       6.977   5.768   2.639  1.00  0.00    -0.237 OA
ATOM    104  O   UNL     1       7.512   7.684   4.090  1.00  0.00    -0.744 OA
ENDBRANCH 100 101
ENDBRANCH  68  93
ENDBRANCH  42  43
ENDBRANCH  35  37
ENDBRANCH  34  35
ENDBRANCH  33  34
ENDBRANCH  32  33
ENDBRANCH  31  32
ENDBRANCH  30  31
ENDBRANCH   1  30
TORSDOF 25
