REMARK SMILES Nc1nc(Nc2ccc(C(=O)OCCOCCOCCOC(=O)c3ccc(-c4c5nc(c(-c6c(F)cc(S(=O)(=O)[O-])cc6F)c6ccc([nH]6)c(-c6c(F)cc(S(=O)(=O)[O-])cc6F)c6nc(c(-c7c(F)cc(S(=O)(=O)[O-])cc7F)c7ccc4[nH]7)C=C6)C=C5)cc3)cc2)ccc1[N+](=O)[O-]
REMARK SMILES IDX 16 1 15 2 14 3 13 4 12 5 10 6 11 7 9 8 6 9 7 10 91 11 8 12
REMARK SMILES IDX 90 13 5 14 4 16 2 17 3 18 94 19 93 20 92 21 1 22 95 25 96 26
REMARK SMILES IDX 97 27 17 28 18 29 19 30 20 31 21 32 22 33 23 34 24 35 25 36
REMARK SMILES IDX 89 37 26 38 88 39 27 40 28 41 29 42 82 43 30 44 87 45 81 46
REMARK SMILES IDX 83 47 31 48 86 49 80 50 79 51 32 53 66 54 45 55 65 56 46 57
REMARK SMILES IDX 49 58 64 59 84 60 47 61 48 62 63 64 85 65 50 66 33 67 34 68
REMARK SMILES IDX 43 69 35 70 36 71 42 72 44 73 37 74 38 75 39 76 40 77 41 78
REMARK SMILES IDX 67 79 68 80 77 81 69 82 70 83 76 84 78 85 71 86 72 87 73 88
REMARK SMILES IDX 74 89 75 90 51 91 52 92 61 93 53 94 54 95 60 96 62 97 55 98
REMARK SMILES IDX 56 99 57 100 58 101 59 102
REMARK H PARENT 5 15 1 23 1 24 83 52 49 63
REMARK Flexibility Score: inf
ROOT
ATOM      1  C   UNL     1       0.674   9.187   0.357  1.00  0.00     0.188 C 
ENDROOT
BRANCH   1   2
ATOM      2  O   UNL     1       1.734  10.118   0.388  1.00  0.00    -0.376 OA
BRANCH   2   3
ATOM      3  C   UNL     1       3.038   9.764  -0.040  1.00  0.00     0.202 C 
BRANCH   3   4
ATOM      4  C   UNL     1       3.621   8.347   0.036  1.00  0.00     0.261 C 
BRANCH   4   5
ATOM      5  O   UNL     1       2.713   7.281  -0.241  1.00  0.00    -0.460 OA
BRANCH   5   6
ATOM      6  C   UNL     1       2.470   6.463   0.820  1.00  0.00     0.338 C 
ATOM      7  O   UNL     1       2.966   6.528   1.921  1.00  0.00    -0.246 OA
BRANCH   6   8
ATOM      8  C   UNL     1       1.358   5.545   0.492  1.00  0.00     0.060 A 
ATOM      9  C   UNL     1      -0.669   3.667   0.068  1.00  0.00     0.040 A 
ATOM     10  C   UNL     1      -0.658   4.436   1.238  1.00  0.00     0.027 A 
ATOM     11  C   UNL     1       0.301   3.909  -0.918  1.00  0.00     0.027 A 
ATOM     12  C   UNL     1       0.361   5.362   1.457  1.00  0.00     0.018 A 
ATOM     13  C   UNL     1       1.309   4.854  -0.718  1.00  0.00     0.018 A 
BRANCH   9  14
ATOM     14  N   UNL     1      -1.488   2.517   0.008  1.00  0.00    -0.340 N 
ATOM     15  H   UNL     1      -2.465   2.633  -0.011  1.00  0.00     0.168 HD
BRANCH  14  16
ATOM     16  C   UNL     1      -0.961   1.209  -0.027  1.00  0.00     0.133 A 
ATOM     17  C   UNL     1       0.923  -0.193  -0.058  1.00  0.00     0.204 A 
ATOM     18  N   UNL     1       0.382   1.038  -0.077  1.00  0.00    -0.207 NA
ATOM     19  C   UNL     1       0.117  -1.321  -0.016  1.00  0.00     0.311 A 
ATOM     20  C   UNL     1      -1.276  -1.166  -0.004  1.00  0.00     0.093 A 
ATOM     21  C   UNL     1      -1.819   0.118  -0.020  1.00  0.00     0.054 A 
BRANCH  17  22
ATOM     22  N   UNL     1       2.296  -0.186  -0.176  1.00  0.00    -0.378 N 
ATOM     23  H   UNL     1       2.784   0.669  -0.198  1.00  0.00     0.158 HD
ATOM     24  H   UNL     1       2.789  -1.036  -0.240  1.00  0.00     0.158 HD
ENDBRANCH  17  22
BRANCH  19  25
ATOM     25  N   UNL     1       0.689  -2.659   0.037  1.00  0.00     0.066 N 
ATOM     26  O   UNL     1      -0.052  -3.607  -0.264  1.00  0.00    -0.258 OA
ATOM     27  O   UNL     1       1.866  -2.789   0.408  1.00  0.00    -0.258 OA
ENDBRANCH  19  25
ENDBRANCH  14  16
ENDBRANCH   9  14
ENDBRANCH   6   8
ENDBRANCH   5   6
ENDBRANCH   4   5
ENDBRANCH   3   4
ENDBRANCH   2   3
ENDBRANCH   1   2
BRANCH   1  28
ATOM     28  C   UNL     1       0.164   8.639  -0.992  1.00  0.00     0.188 C 
BRANCH  28  29
ATOM     29  O   UNL     1       0.799   8.992  -2.203  1.00  0.00    -0.376 OA
BRANCH  29  30
ATOM     30  C   UNL     1       0.859  10.346  -2.613  1.00  0.00     0.202 C 
BRANCH  30  31
ATOM     31  C   UNL     1      -0.246  11.380  -2.347  1.00  0.00     0.261 C 
BRANCH  31  32
ATOM     32  O   UNL     1      -0.942  11.276  -1.103  1.00  0.00    -0.460 OA
BRANCH  32  33
ATOM     33  C   UNL     1      -2.236  10.880  -1.205  1.00  0.00     0.338 C 
ATOM     34  O   UNL     1      -2.842  10.587  -2.220  1.00  0.00    -0.246 OA
BRANCH  33  35
ATOM     35  C   UNL     1      -2.788  10.687   0.147  1.00  0.00     0.060 A 
ATOM     36  C   UNL     1      -3.164   9.395   0.537  1.00  0.00     0.016 A 
ATOM     37  C   UNL     1      -2.984  11.775   0.998  1.00  0.00     0.016 A 
ATOM     38  C   UNL     1      -3.759   9.190   1.781  1.00  0.00     0.010 A 
ATOM     39  C   UNL     1      -3.601  11.570   2.234  1.00  0.00     0.010 A 
ATOM     40  C   UNL     1      -4.015  10.282   2.620  1.00  0.00    -0.014 A 
BRANCH  40  41
ATOM     41  C   UNL     1      -4.864  10.106   3.822  1.00  0.00     0.031 A 
ATOM     42  C   UNL     1      -6.325  10.454   3.728  1.00  0.00     0.074 A 
ATOM     43  C   UNL     1      -4.350   9.636   4.973  1.00  0.00     0.049 A 
ATOM     44  N   UNL     1      -7.242  10.443   4.660  1.00  0.00    -0.248 NA
ATOM     45  C   UNL     1      -6.816  10.871   2.404  1.00  0.00     0.031 C 
ATOM     46  C   UNL     1      -2.961   9.228   5.175  1.00  0.00     0.029 A 
ATOM     47  N   UNL     1      -4.941   9.438   6.196  1.00  0.00    -0.354 N 
ATOM     48  C   UNL     1      -8.415  10.856   4.039  1.00  0.00     0.074 A 
ATOM     49  C   UNL     1      -8.089  11.136   2.658  1.00  0.00     0.031 C 
ATOM     50  C   UNL     1      -2.802   8.842   6.454  1.00  0.00     0.029 A 
ATOM     51  C   UNL     1      -4.068   9.009   7.167  1.00  0.00     0.049 A 
ATOM     52  H   UNL     1      -5.900   9.588   6.362  1.00  0.00     0.167 HD
ATOM     53  C   UNL     1      -9.653  10.983   4.571  1.00  0.00     0.037 A 
ATOM     54  C   UNL     1      -4.264   8.803   8.485  1.00  0.00     0.037 A 
ATOM     55  C   UNL     1      -9.971  10.710   5.948  1.00  0.00     0.049 A 
ATOM     56  C   UNL     1      -5.636   9.027   9.072  1.00  0.00     0.074 A 
ATOM     57  C   UNL     1     -11.198  10.801   6.582  1.00  0.00     0.029 A 
ATOM     58  N   UNL     1      -9.056  10.302   6.907  1.00  0.00    -0.354 N 
ATOM     59  N   UNL     1      -6.742   9.397   8.471  1.00  0.00    -0.248 NA
ATOM     60  C   UNL     1      -5.787   8.803  10.517  1.00  0.00     0.031 C 
ATOM     61  C   UNL     1     -11.015  10.494   7.934  1.00  0.00     0.029 A 
ATOM     62  C   UNL     1      -9.686  10.157   8.132  1.00  0.00     0.049 A 
ATOM     63  H   UNL     1      -8.099  10.138   6.741  1.00  0.00     0.167 HD
ATOM     64  C   UNL     1      -7.724   9.419   9.457  1.00  0.00     0.074 A 
ATOM     65  C   UNL     1      -7.084   9.015  10.692  1.00  0.00     0.031 C 
ATOM     66  C   UNL     1      -9.038   9.740   9.351  1.00  0.00     0.037 A 
BRANCH  53  67
ATOM     67  C   UNL     1     -10.754  11.460   3.666  1.00  0.00     0.058 A 
ATOM     68  C   UNL     1     -11.286  10.642   2.656  1.00  0.00     0.135 A 
ATOM     69  C   UNL     1     -11.311  12.738   3.834  1.00  0.00     0.135 A 
ATOM     70  F   UNL     1     -10.777   9.419   2.438  1.00  0.00    -0.206 F 
ATOM     71  C   UNL     1     -12.315  11.083   1.831  1.00  0.00     0.059 A 
ATOM     72  C   UNL     1     -12.359  13.190   3.038  1.00  0.00     0.059 A 
ATOM     73  F   UNL     1     -10.837  13.562   4.782  1.00  0.00    -0.206 F 
ATOM     74  C   UNL     1     -12.847  12.358   2.031  1.00  0.00     0.060 A 
BRANCH  74  75
ATOM     75  S   UNL     1     -14.192  12.909   0.961  1.00  0.00     0.124 S 
ATOM     76  O   UNL     1     -13.489  13.128  -0.300  1.00  0.00    -0.237 OA
ATOM     77  O   UNL     1     -15.100  11.767   0.990  1.00  0.00    -0.237 OA
ATOM     78  O   UNL     1     -14.683  14.113   1.623  1.00  0.00    -0.744 OA
ENDBRANCH  74  75
ENDBRANCH  53  67
BRANCH  54  79
ATOM     79  C   UNL     1      -3.133   8.374   9.352  1.00  0.00     0.058 A 
ATOM     80  C   UNL     1      -3.109   7.097   9.933  1.00  0.00     0.135 A 
ATOM     81  C   UNL     1      -2.065   9.240   9.636  1.00  0.00     0.135 A 
ATOM     82  F   UNL     1      -4.113   6.237   9.702  1.00  0.00    -0.206 F 
ATOM     83  C   UNL     1      -2.079   6.700  10.780  1.00  0.00     0.059 A 
ATOM     84  C   UNL     1      -1.010   8.856  10.457  1.00  0.00     0.059 A 
ATOM     85  F   UNL     1      -2.036  10.470   9.100  1.00  0.00    -0.206 F 
ATOM     86  C   UNL     1      -1.033   7.588  11.036  1.00  0.00     0.060 A 
BRANCH  86  87
ATOM     87  S   UNL     1       0.315   7.050  12.111  1.00  0.00     0.124 S 
ATOM     88  O   UNL     1      -0.326   7.077  13.420  1.00  0.00    -0.237 OA
ATOM     89  O   UNL     1       0.622   5.727  11.576  1.00  0.00    -0.237 OA
ATOM     90  O   UNL     1       1.344   8.062  11.890  1.00  0.00    -0.744 OA
ENDBRANCH  86  87
ENDBRANCH  54  79
BRANCH  66  91
ATOM     91  C   UNL     1      -9.889   9.624  10.587  1.00  0.00     0.058 A 
ATOM     92  C   UNL     1      -9.786  10.538  11.647  1.00  0.00     0.135 A 
ATOM     93  C   UNL     1     -10.863   8.616  10.685  1.00  0.00     0.135 A 
ATOM     94  F   UNL     1      -8.868  11.518  11.608  1.00  0.00    -0.206 F 
ATOM     95  C   UNL     1     -10.602  10.444  12.771  1.00  0.00     0.059 A 
ATOM     96  C   UNL     1     -11.709   8.520  11.785  1.00  0.00     0.059 A 
ATOM     97  F   UNL     1     -11.012   7.723   9.694  1.00  0.00    -0.206 F 
ATOM     98  C   UNL     1     -11.563   9.432  12.829  1.00  0.00     0.060 A 
BRANCH  98  99
ATOM     99  S   UNL     1     -12.639   9.341  14.276  1.00  0.00     0.124 S 
ATOM    100  O   UNL     1     -11.727   8.822  15.289  1.00  0.00    -0.237 OA
ATOM    101  O   UNL     1     -13.052  10.731  14.446  1.00  0.00    -0.237 OA
ATOM    102  O   UNL     1     -13.698   8.427  13.856  1.00  0.00    -0.744 OA
ENDBRANCH  98  99
ENDBRANCH  66  91
ENDBRANCH  40  41
ENDBRANCH  33  35
ENDBRANCH  32  33
ENDBRANCH  31  32
ENDBRANCH  30  31
ENDBRANCH  29  30
ENDBRANCH  28  29
ENDBRANCH   1  28
TORSDOF 24
