REMARK SMILES CC1(C)[C@@]2(C(=O)OCCOCCOCCOC(=O)c3ccc(-c4c5nc(c(-c6c(F)cc(S(=O)(=O)[O-])cc6F)c6ccc([nH]6)c(-c6c(F)cc(S(=O)(=O)[O-])cc6F)c6nc(c(-c7c(F)cc(S(=O)(=O)[O-])cc7F)c7ccc4[nH]7)C=C6)C=C5)cc3)CC[C@]1(C)/C(=N/NC(=O)c1ccc(Cl)cc1)C2
REMARK SMILES IDX 12 1 11 2 10 3 9 4 8 5 7 6 5 7 6 8 4 9 1 10 2 11 3 12 87 13
REMARK SMILES IDX 85 14 101 15 86 16 88 17 89 18 90 19 91 20 92 21 93 23 94 24
REMARK SMILES IDX 95 25 100 26 96 27 99 28 97 29 98 30 13 31 14 32 15 33 16 34
REMARK SMILES IDX 17 35 18 36 19 37 20 38 84 39 21 40 83 41 22 42 23 43 24 44
REMARK SMILES IDX 77 45 25 46 82 47 76 48 78 49 26 50 81 51 75 52 74 53 27 55
REMARK SMILES IDX 61 56 40 57 60 58 41 59 44 60 59 61 79 62 42 63 43 64 58 66
REMARK SMILES IDX 80 67 45 68 28 69 29 70 38 71 30 72 31 73 37 74 39 75 32 76
REMARK SMILES IDX 33 77 34 78 35 79 36 80 62 81 63 82 72 83 64 84 65 85 71 86
REMARK SMILES IDX 73 87 66 88 67 89 68 90 69 91 70 92 46 93 47 94 56 95 48 96
REMARK SMILES IDX 49 97 55 98 57 99 50 100 51 101 52 102 53 103 54 104
REMARK H PARENT 91 22 78 54 44 65
REMARK Flexibility Score: inf
ROOT
ATOM      1  C   UNL     1       1.088   4.482   2.264  1.00  0.00     0.188 C 
ENDROOT
BRANCH   1   2
ATOM      2  C   UNL     1       1.909   4.419   0.968  1.00  0.00     0.188 C 
BRANCH   2   3
ATOM      3  O   UNL     1       1.537   5.264  -0.114  1.00  0.00    -0.376 OA
BRANCH   3   4
ATOM      4  C   UNL     1       0.158   5.473  -0.382  1.00  0.00     0.202 C 
BRANCH   4   5
ATOM      5  C   UNL     1      -0.739   4.259  -0.660  1.00  0.00     0.261 C 
BRANCH   5   6
ATOM      6  O   UNL     1      -0.648   3.152   0.258  1.00  0.00    -0.463 OA
BRANCH   6   7
ATOM      7  C   UNL     1      -0.059   2.017  -0.221  1.00  0.00     0.313 C 
ATOM      8  O   UNL     1       0.480   1.936  -1.315  1.00  0.00    -0.252 OA
BRANCH   7   9
ATOM      9  C   UNL     1      -0.265   0.825   0.708  1.00  0.00     0.079 C 
ATOM     10  C   UNL     1       1.300  -0.864  -0.516  1.00  0.00     0.013 C 
ATOM     11  C   UNL     1       0.864  -0.242   0.832  1.00  0.00    -0.008 C 
ATOM     12  C   UNL     1       2.140   0.235   1.558  1.00  0.00     0.013 C 
ATOM     13  C   UNL     1      -0.045  -1.183   1.711  1.00  0.00     0.014 C 
ATOM     14  C   UNL     1      -1.472  -0.023   0.176  1.00  0.00     0.021 C 
ATOM     15  C   UNL     1      -0.537   1.177   2.188  1.00  0.00     0.073 C 
ATOM     16  C   UNL     1      -1.282  -1.407   0.828  1.00  0.00     0.014 C 
ATOM     17  C   UNL     1       0.611  -2.428   2.268  1.00  0.00     0.018 C 
ATOM     18  C   UNL     1      -0.562  -0.197   2.781  1.00  0.00     0.046 C 
ATOM     19  N   UNL     1      -0.895  -0.606   3.964  1.00  0.00    -0.181 NA
BRANCH  19  20
ATOM     20  N   UNL     1      -1.243   0.184   5.018  1.00  0.00    -0.243 N 
ATOM     21  C   UNL     1      -2.060   1.279   5.204  1.00  0.00     0.271 C 
ATOM     22  H   UNL     1      -0.803  -0.097   5.853  1.00  0.00     0.194 HD
ATOM     23  O   UNL     1      -2.133   1.811   6.313  1.00  0.00    -0.267 OA
BRANCH  21  24
ATOM     24  C   UNL     1      -2.881   1.854   4.132  1.00  0.00     0.041 A 
ATOM     25  C   UNL     1      -2.742   3.229   3.874  1.00  0.00     0.015 A 
ATOM     26  C   UNL     1      -3.713   1.060   3.338  1.00  0.00     0.015 A 
ATOM     27  C   UNL     1      -3.343   3.785   2.745  1.00  0.00     0.021 A 
ATOM     28  C   UNL     1      -4.333   1.629   2.221  1.00  0.00     0.021 A 
ATOM     29  C   UNL     1      -4.118   2.977   1.912  1.00  0.00     0.041 A 
ATOM     30  Cl  UNL     1      -4.764   3.629   0.457  1.00  0.00    -0.084 Cl
ENDBRANCH  21  24
ENDBRANCH  19  20
ENDBRANCH   7   9
ENDBRANCH   6   7
ENDBRANCH   5   6
ENDBRANCH   4   5
ENDBRANCH   3   4
ENDBRANCH   2   3
ENDBRANCH   1   2
BRANCH   1  31
ATOM     31  O   UNL     1       0.271   5.623   2.335  1.00  0.00    -0.376 OA
BRANCH  31  32
ATOM     32  C   UNL     1       0.271   6.456   3.470  1.00  0.00     0.202 C 
BRANCH  32  33
ATOM     33  C   UNL     1       1.591   7.025   4.016  1.00  0.00     0.261 C 
BRANCH  33  34
ATOM     34  O   UNL     1       2.741   6.169   3.995  1.00  0.00    -0.460 OA
BRANCH  34  35
ATOM     35  C   UNL     1       2.814   5.201   4.951  1.00  0.00     0.338 C 
ATOM     36  O   UNL     1       2.027   5.010   5.843  1.00  0.00    -0.246 OA
BRANCH  35  37
ATOM     37  C   UNL     1       3.874   4.245   4.508  1.00  0.00     0.060 A 
ATOM     38  C   UNL     1       3.562   2.877   4.459  1.00  0.00     0.016 A 
ATOM     39  C   UNL     1       5.117   4.693   4.056  1.00  0.00     0.016 A 
ATOM     40  C   UNL     1       4.500   1.956   3.979  1.00  0.00     0.010 A 
ATOM     41  C   UNL     1       6.061   3.769   3.594  1.00  0.00     0.010 A 
ATOM     42  C   UNL     1       5.770   2.393   3.577  1.00  0.00    -0.014 A 
BRANCH  42  43
ATOM     43  C   UNL     1       6.875   1.416   3.389  1.00  0.00     0.031 A 
ATOM     44  C   UNL     1       7.778   1.157   4.566  1.00  0.00     0.074 A 
ATOM     45  C   UNL     1       7.095   0.777   2.224  1.00  0.00     0.049 A 
ATOM     46  N   UNL     1       8.873   0.448   4.639  1.00  0.00    -0.248 NA
ATOM     47  C   UNL     1       7.387   1.797   5.833  1.00  0.00     0.031 C 
ATOM     48  C   UNL     1       6.270   0.886   1.024  1.00  0.00     0.029 A 
ATOM     49  N   UNL     1       8.104  -0.086   1.863  1.00  0.00    -0.354 N 
ATOM     50  C   UNL     1       9.310   0.568   5.953  1.00  0.00     0.074 A 
ATOM     51  C   UNL     1       8.376   1.437   6.634  1.00  0.00     0.031 C 
ATOM     52  C   UNL     1       6.818   0.134   0.050  1.00  0.00     0.029 A 
ATOM     53  C   UNL     1       8.054  -0.476   0.544  1.00  0.00     0.049 A 
ATOM     54  H   UNL     1       8.797  -0.396   2.489  1.00  0.00     0.167 HD
ATOM     55  C   UNL     1      10.391   0.005   6.543  1.00  0.00     0.037 A 
ATOM     56  C   UNL     1       8.922  -1.210  -0.185  1.00  0.00     0.037 A 
ATOM     57  C   UNL     1      11.329  -0.848   5.864  1.00  0.00     0.049 A 
ATOM     58  C   UNL     1      10.171  -1.757   0.468  1.00  0.00     0.074 A 
ATOM     59  C   UNL     1      12.455  -1.466   6.377  1.00  0.00     0.029 A 
ATOM     60  N   UNL     1      11.259  -1.192   4.523  1.00  0.00    -0.354 N 
ATOM     61  N   UNL     1      10.572  -1.643   1.713  1.00  0.00    -0.248 NA
ATOM     62  C   UNL     1      11.087  -2.530  -0.384  1.00  0.00     0.031 C 
ATOM     63  C   UNL     1      13.098  -2.137   5.333  1.00  0.00     0.029 A 
ATOM     64  C   UNL     1      12.337  -1.993   4.183  1.00  0.00     0.049 A 
ATOM     65  H   UNL     1      10.548  -0.910   3.903  1.00  0.00     0.167 HD
ATOM     66  C   UNL     1      11.767  -2.354   1.798  1.00  0.00     0.074 A 
ATOM     67  C   UNL     1      12.021  -2.901   0.482  1.00  0.00     0.031 C 
ATOM     68  C   UNL     1      12.578  -2.541   2.871  1.00  0.00     0.037 A 
BRANCH  55  69
ATOM     69  C   UNL     1      10.636   0.343   7.988  1.00  0.00     0.058 A 
ATOM     70  C   UNL     1       9.802  -0.130   9.014  1.00  0.00     0.135 A 
ATOM     71  C   UNL     1      11.720   1.159   8.349  1.00  0.00     0.135 A 
ATOM     72  F   UNL     1       8.737  -0.894   8.722  1.00  0.00    -0.206 F 
ATOM     73  C   UNL     1      10.011   0.227  10.342  1.00  0.00     0.059 A 
ATOM     74  C   UNL     1      11.967   1.501   9.675  1.00  0.00     0.059 A 
ATOM     75  F   UNL     1      12.546   1.642   7.408  1.00  0.00    -0.206 F 
ATOM     76  C   UNL     1      11.095   1.046  10.662  1.00  0.00     0.060 A 
BRANCH  76  77
ATOM     77  S   UNL     1      11.343   1.514  12.386  1.00  0.00     0.124 S 
ATOM     78  O   UNL     1      10.246   2.457  12.591  1.00  0.00    -0.237 OA
ATOM     79  O   UNL     1      11.216   0.236  13.078  1.00  0.00    -0.237 OA
ATOM     80  O   UNL     1      12.680   2.098  12.392  1.00  0.00    -0.744 OA
ENDBRANCH  76  77
ENDBRANCH  55  69
BRANCH  56  81
ATOM     81  C   UNL     1       8.659  -1.458  -1.631  1.00  0.00     0.058 A 
ATOM     82  C   UNL     1       8.353  -2.742  -2.106  1.00  0.00     0.135 A 
ATOM     83  C   UNL     1       8.718  -0.415  -2.570  1.00  0.00     0.135 A 
ATOM     84  F   UNL     1       8.308  -3.779  -1.255  1.00  0.00    -0.206 F 
ATOM     85  C   UNL     1       8.117  -2.986  -3.456  1.00  0.00     0.059 A 
ATOM     86  C   UNL     1       8.459  -0.628  -3.921  1.00  0.00     0.059 A 
ATOM     87  F   UNL     1       9.010   0.832  -2.171  1.00  0.00    -0.206 F 
ATOM     88  C   UNL     1       8.164  -1.919  -4.356  1.00  0.00     0.060 A 
BRANCH  88  89
ATOM     89  S   UNL     1       7.786  -2.236  -6.094  1.00  0.00     0.124 S 
ATOM     90  O   UNL     1       8.962  -2.986  -6.520  1.00  0.00    -0.237 OA
ATOM     91  O   UNL     1       6.543  -2.996  -6.001  1.00  0.00    -0.237 OA
ATOM     92  O   UNL     1       7.653  -0.897  -6.659  1.00  0.00    -0.744 OA
ENDBRANCH  88  89
ENDBRANCH  56  81
BRANCH  68  93
ATOM     93  C   UNL     1      13.797  -3.409   2.694  1.00  0.00     0.058 A 
ATOM     94  C   UNL     1      14.916  -2.982   1.962  1.00  0.00     0.135 A 
ATOM     95  C   UNL     1      13.874  -4.660   3.330  1.00  0.00     0.135 A 
ATOM     96  F   UNL     1      14.899  -1.798   1.331  1.00  0.00    -0.206 F 
ATOM     97  C   UNL     1      16.058  -3.772   1.850  1.00  0.00     0.059 A 
ATOM     98  C   UNL     1      15.016  -5.452   3.257  1.00  0.00     0.059 A 
ATOM     99  F   UNL     1      12.839  -5.114   4.055  1.00  0.00    -0.206 F 
ATOM    100  C   UNL     1      16.100  -5.005   2.505  1.00  0.00     0.060 A 
BRANCH 100 101
ATOM    101  S   UNL     1      17.601  -6.001   2.383  1.00  0.00     0.124 S 
ATOM    102  O   UNL     1      17.532  -6.470   1.003  1.00  0.00    -0.237 OA
ATOM    103  O   UNL     1      18.648  -5.026   2.671  1.00  0.00    -0.237 OA
ATOM    104  O   UNL     1      17.412  -7.028   3.404  1.00  0.00    -0.744 OA
ENDBRANCH 100 101
ENDBRANCH  68  93
ENDBRANCH  42  43
ENDBRANCH  35  37
ENDBRANCH  34  35
ENDBRANCH  33  34
ENDBRANCH  32  33
ENDBRANCH  31  32
ENDBRANCH   1  31
TORSDOF 22
