REMARK SMILES COc1cc(C)c(S(=O)(=O)Nc2cc(C(=O)OCCOCCOCCOC(=O)c3ccc(-c4c5nc(c(-c6c(F)cc(S(=O)(=O)[O-])cc6F)c6ccc([nH]6)c(-c6c(F)cc(S(=O)(=O)[O-])cc6F)c6nc(c(-c7c(F)cc(S(=O)(=O)[O-])cc7F)c7ccc4[nH]7)C=C6)C=C5)cc3)ccc2F)cc1OC
REMARK SMILES IDX 21 1 20 2 19 3 18 4 17 5 15 6 16 7 14 8 12 9 13 10 97 11
REMARK SMILES IDX 96 12 98 13 95 14 11 15 8 17 9 18 10 19 7 20 3 21 4 22
REMARK SMILES IDX 100 23 5 24 99 25 6 26 2 27 1 28 101 29 102 30 22 31 23 32
REMARK SMILES IDX 24 33 25 34 26 35 27 36 28 37 29 38 30 39 94 40 31 41 93 42
REMARK SMILES IDX 32 43 33 44 34 45 87 46 35 47 92 48 86 49 88 50 36 51 91 52
REMARK SMILES IDX 85 53 84 54 37 56 71 57 50 58 70 59 51 60 54 61 69 62 89 63
REMARK SMILES IDX 52 64 53 65 68 67 90 68 55 69 38 70 39 71 48 72 40 73 41 74
REMARK SMILES IDX 47 75 49 76 42 77 43 78 44 79 45 80 46 81 72 82 73 83 82 84
REMARK SMILES IDX 74 85 75 86 81 87 83 88 76 89 77 90 78 91 79 92 80 93 56 94
REMARK SMILES IDX 57 95 66 96 58 97 59 98 65 99 67 100 60 101 61 102 62 103
REMARK SMILES IDX 63 104 64 105
REMARK H PARENT 11 16 88 55 54 66
REMARK Flexibility Score: inf
ROOT
ATOM      1  C   UNL     1       6.251   0.965  -4.321  1.00  0.00     0.188 C 
ENDROOT
BRANCH   1   2
ATOM      2  O   UNL     1       4.827   1.171  -4.227  1.00  0.00    -0.376 OA
BRANCH   2   3
ATOM      3  C   UNL     1       4.081   2.018  -5.113  1.00  0.00     0.202 C 
BRANCH   3   4
ATOM      4  C   UNL     1       2.817   2.938  -4.558  1.00  0.00     0.261 C 
BRANCH   4   5
ATOM      5  O   UNL     1       2.904   4.334  -3.784  1.00  0.00    -0.460 OA
BRANCH   5   6
ATOM      6  C   UNL     1       3.505   4.209  -2.567  1.00  0.00     0.338 C 
ATOM      7  O   UNL     1       3.980   3.091  -2.567  1.00  0.00    -0.246 OA
BRANCH   6   8
ATOM      8  C   UNL     1       3.943   5.087  -1.217  1.00  0.00     0.062 A 
ATOM      9  C   UNL     1       3.800   6.637   0.656  1.00  0.00     0.085 A 
ATOM     10  C   UNL     1       3.397   6.227  -0.678  1.00  0.00     0.045 A 
ATOM     11  C   UNL     1       4.956   6.181   1.315  1.00  0.00     0.147 A 
ATOM     12  C   UNL     1       5.449   4.999   0.927  1.00  0.00     0.042 A 
ATOM     13  F   UNL     1       5.334   6.687   2.501  1.00  0.00    -0.205 F 
ATOM     14  C   UNL     1       4.833   4.488  -0.215  1.00  0.00     0.019 A 
BRANCH   9  15
ATOM     15  N   UNL     1       2.940   7.319   1.565  1.00  0.00    -0.277 N 
ATOM     16  H   UNL     1       3.273   8.116   2.038  1.00  0.00     0.180 HD
BRANCH  15  17
ATOM     17  S   UNL     1       1.365   6.791   1.848  1.00  0.00     0.262 S 
ATOM     18  O   UNL     1       0.712   6.845   0.577  1.00  0.00    -0.201 OA
ATOM     19  O   UNL     1       0.909   7.615   2.973  1.00  0.00    -0.201 OA
BRANCH  17  20
ATOM     20  C   UNL     1       1.242   5.090   2.429  1.00  0.00     0.094 A 
ATOM     21  C   UNL     1       0.940   2.322   2.695  1.00  0.00     0.161 A 
ATOM     22  C   UNL     1       1.944   2.999   3.380  1.00  0.00     0.055 A 
ATOM     23  C   UNL     1      -0.116   3.040   2.155  1.00  0.00     0.162 A 
ATOM     24  C   UNL     1       2.122   4.387   3.260  1.00  0.00    -0.027 A 
ATOM     25  C   UNL     1       0.071   4.422   1.993  1.00  0.00     0.073 A 
ATOM     26  C   UNL     1       3.281   4.919   4.029  1.00  0.00     0.046 C 
BRANCH  21  27
ATOM     27  O   UNL     1       1.132   0.990   2.465  1.00  0.00    -0.493 OA
ATOM     28  C   UNL     1       2.450   0.712   1.921  1.00  0.00     0.278 C 
ENDBRANCH  21  27
BRANCH  23  29
ATOM     29  O   UNL     1      -1.246   2.564   1.560  1.00  0.00    -0.493 OA
ATOM     30  C   UNL     1      -1.918   1.446   2.132  1.00  0.00     0.278 C 
ENDBRANCH  23  29
ENDBRANCH  17  20
ENDBRANCH  15  17
ENDBRANCH   9  15
ENDBRANCH   6   8
ENDBRANCH   5   6
ENDBRANCH   4   5
ENDBRANCH   3   4
ENDBRANCH   2   3
ENDBRANCH   1   2
BRANCH   1  31
ATOM     31  C   UNL     1       7.166   1.961  -5.016  1.00  0.00     0.188 C 
BRANCH  31  32
ATOM     32  O   UNL     1       6.597   3.246  -4.909  1.00  0.00    -0.376 OA
BRANCH  32  33
ATOM     33  C   UNL     1       7.052   4.229  -5.799  1.00  0.00     0.202 C 
BRANCH  33  34
ATOM     34  C   UNL     1       8.556   4.502  -5.694  1.00  0.00     0.261 C 
BRANCH  34  35
ATOM     35  O   UNL     1       8.940   5.332  -4.553  1.00  0.00    -0.460 OA
BRANCH  35  36
ATOM     36  C   UNL     1       9.557   4.789  -3.434  1.00  0.00     0.338 C 
ATOM     37  O   UNL     1      10.746   4.956  -3.217  1.00  0.00    -0.246 OA
BRANCH  36  38
ATOM     38  C   UNL     1       8.563   4.244  -2.442  1.00  0.00     0.060 A 
ATOM     39  C   UNL     1       8.688   3.278  -1.439  1.00  0.00     0.016 A 
ATOM     40  C   UNL     1       7.306   4.678  -2.607  1.00  0.00     0.016 A 
ATOM     41  C   UNL     1       7.543   2.480  -0.940  1.00  0.00     0.010 A 
ATOM     42  C   UNL     1       6.303   3.741  -2.329  1.00  0.00     0.010 A 
ATOM     43  C   UNL     1       6.263   2.565  -1.493  1.00  0.00    -0.014 A 
BRANCH  43  44
ATOM     44  C   UNL     1       4.859   1.521  -1.182  1.00  0.00     0.031 A 
ATOM     45  C   UNL     1       3.126   1.836  -1.004  1.00  0.00     0.074 A 
ATOM     46  C   UNL     1       4.995   0.212  -1.450  1.00  0.00     0.049 A 
ATOM     47  N   UNL     1       2.102   1.257  -1.621  1.00  0.00    -0.248 NA
ATOM     48  C   UNL     1       2.530   2.929  -0.191  1.00  0.00     0.031 C 
ATOM     49  C   UNL     1       3.955  -0.743  -1.834  1.00  0.00     0.029 A 
ATOM     50  N   UNL     1       6.130  -0.565  -1.330  1.00  0.00    -0.354 N 
ATOM     51  C   UNL     1       0.913   1.970  -1.394  1.00  0.00     0.074 A 
ATOM     52  C   UNL     1       1.319   3.153  -0.713  1.00  0.00     0.031 C 
ATOM     53  C   UNL     1       4.412  -1.985  -1.677  1.00  0.00     0.029 A 
ATOM     54  C   UNL     1       5.680  -1.857  -1.017  1.00  0.00     0.049 A 
ATOM     55  H   UNL     1       7.063  -0.272  -1.442  1.00  0.00     0.167 HD
ATOM     56  C   UNL     1      -0.369   1.481  -1.294  1.00  0.00     0.037 A 
ATOM     57  C   UNL     1       5.996  -2.367   0.200  1.00  0.00     0.037 A 
ATOM     58  C   UNL     1      -0.288   0.032  -0.927  1.00  0.00     0.049 A 
ATOM     59  C   UNL     1       4.748  -2.648   1.036  1.00  0.00     0.074 A 
ATOM     60  C   UNL     1      -0.042  -1.114  -1.665  1.00  0.00     0.029 A 
ATOM     61  N   UNL     1       0.037  -0.357   0.396  1.00  0.00    -0.354 N 
ATOM     62  N   UNL     1       3.514  -2.326   0.688  1.00  0.00    -0.248 NA
ATOM     63  C   UNL     1       4.774  -3.364   2.304  1.00  0.00     0.031 C 
ATOM     64  C   UNL     1       0.577  -2.098  -0.806  1.00  0.00     0.029 A 
ATOM     65  C   UNL     1       0.683  -1.609   0.493  1.00  0.00     0.049 A 
ATOM     66  H   UNL     1      -0.170   0.200   1.181  1.00  0.00     0.167 HD
ATOM     67  C   UNL     1       2.627  -2.639   1.687  1.00  0.00     0.074 A 
ATOM     68  C   UNL     1       3.464  -3.400   2.614  1.00  0.00     0.031 C 
ATOM     69  C   UNL     1       1.340  -2.127   1.771  1.00  0.00     0.037 A 
BRANCH  56  70
ATOM     70  C   UNL     1      -1.673   2.443  -1.423  1.00  0.00     0.058 A 
ATOM     71  C   UNL     1      -2.993   2.004  -1.159  1.00  0.00     0.135 A 
ATOM     72  C   UNL     1      -1.670   3.803  -1.897  1.00  0.00     0.135 A 
ATOM     73  F   UNL     1      -3.205   0.810  -0.589  1.00  0.00    -0.206 F 
ATOM     74  C   UNL     1      -4.171   2.774  -1.408  1.00  0.00     0.059 A 
ATOM     75  C   UNL     1      -2.832   4.626  -2.062  1.00  0.00     0.059 A 
ATOM     76  F   UNL     1      -0.522   4.411  -2.237  1.00  0.00    -0.206 F 
ATOM     77  C   UNL     1      -4.093   4.087  -1.859  1.00  0.00     0.060 A 
BRANCH  77  78
ATOM     78  S   UNL     1      -5.628   5.068  -2.047  1.00  0.00     0.124 S 
ATOM     79  O   UNL     1      -6.181   4.559  -3.300  1.00  0.00    -0.237 OA
ATOM     80  O   UNL     1      -6.380   4.715  -0.846  1.00  0.00    -0.237 OA
ATOM     81  O   UNL     1      -5.161   6.451  -2.096  1.00  0.00    -0.744 OA
ENDBRANCH  77  78
ENDBRANCH  56  70
BRANCH  57  82
ATOM     82  C   UNL     1       7.448  -2.021   0.480  1.00  0.00     0.058 A 
ATOM     83  C   UNL     1       8.339  -2.511  -0.520  1.00  0.00     0.135 A 
ATOM     84  C   UNL     1       7.863  -0.840   1.129  1.00  0.00     0.135 A 
ATOM     85  F   UNL     1       8.011  -3.620  -1.206  1.00  0.00    -0.206 F 
ATOM     86  C   UNL     1       9.408  -1.764  -1.018  1.00  0.00     0.059 A 
ATOM     87  C   UNL     1       9.012  -0.125   0.707  1.00  0.00     0.059 A 
ATOM     88  F   UNL     1       7.076  -0.265   2.052  1.00  0.00    -0.206 F 
ATOM     89  C   UNL     1       9.710  -0.545  -0.432  1.00  0.00     0.060 A 
BRANCH  89  90
ATOM     90  S   UNL     1      10.920   0.505  -1.291  1.00  0.00     0.124 S 
ATOM     91  O   UNL     1      12.035  -0.408  -1.512  1.00  0.00    -0.237 OA
ATOM     92  O   UNL     1      10.182   0.884  -2.495  1.00  0.00    -0.237 OA
ATOM     93  O   UNL     1      11.173   1.570  -0.327  1.00  0.00    -0.744 OA
ENDBRANCH  89  90
ENDBRANCH  57  82
BRANCH  69  94
ATOM     94  C   UNL     1       0.690  -2.016   3.180  1.00  0.00     0.058 A 
ATOM     95  C   UNL     1       1.421  -1.986   4.402  1.00  0.00     0.135 A 
ATOM     96  C   UNL     1      -0.692  -1.815   3.356  1.00  0.00     0.135 A 
ATOM     97  F   UNL     1       2.759  -1.899   4.427  1.00  0.00    -0.206 F 
ATOM     98  C   UNL     1       0.832  -1.979   5.671  1.00  0.00     0.059 A 
ATOM     99  C   UNL     1      -1.300  -1.693   4.621  1.00  0.00     0.059 A 
ATOM    100  F   UNL     1      -1.506  -1.704   2.297  1.00  0.00    -0.206 F 
ATOM    101  C   UNL     1      -0.540  -1.852   5.774  1.00  0.00     0.060 A 
BRANCH 101 102
ATOM    102  S   UNL     1      -1.300  -1.881   7.412  1.00  0.00     0.124 S 
ATOM    103  O   UNL     1      -1.409  -3.317   7.652  1.00  0.00    -0.237 OA
ATOM    104  O   UNL     1      -0.322  -1.181   8.241  1.00  0.00    -0.237 OA
ATOM    105  O   UNL     1      -2.561  -1.176   7.212  1.00  0.00    -0.744 OA
ENDBRANCH 101 102
ENDBRANCH  69  94
ENDBRANCH  43  44
ENDBRANCH  36  38
ENDBRANCH  35  36
ENDBRANCH  34  35
ENDBRANCH  33  34
ENDBRANCH  32  33
ENDBRANCH  31  32
ENDBRANCH   1  31
TORSDOF 25
