REMARK SMILES COc1ccc(OCCNc2c(Cl)cccc2C(=O)OCCOCCOCCOC(=O)c2ccc(-c3c4nc(c(-c5c(F)cc(S(=O)(=O)[O-])cc5F)c5ccc([nH]5)c(-c5c(F)cc(S(=O)(=O)[O-])cc5F)c5nc(c(-c6c(F)cc(S(=O)(=O)[O-])cc6F)c6ccc3[nH]6)C=C5)C=C4)cc2)cc1
REMARK SMILES IDX 23 1 22 2 21 3 20 4 18 5 19 6 17 7 11 8 12 9 13 10 14 11
REMARK SMILES IDX 16 12 15 13 10 14 9 16 8 17 7 18 6 19 3 20 4 21 99 22 5 23
REMARK SMILES IDX 98 24 2 25 1 26 24 27 25 28 26 29 27 30 28 31 29 32 30 33
REMARK SMILES IDX 31 34 32 35 33 36 97 37 34 38 96 39 35 40 36 41 37 42 90 43
REMARK SMILES IDX 38 44 95 45 89 46 91 47 39 48 94 49 88 50 87 51 40 53 74 54
REMARK SMILES IDX 53 55 73 56 54 57 57 58 72 59 92 60 55 61 56 62 71 64 93 65
REMARK SMILES IDX 58 66 41 67 42 68 51 69 43 70 44 71 50 72 52 73 45 74 46 75
REMARK SMILES IDX 47 76 48 77 49 78 75 79 76 80 85 81 77 82 78 83 84 84 86 85
REMARK SMILES IDX 79 86 80 87 81 88 82 89 83 90 59 91 60 92 69 93 61 94 62 95
REMARK SMILES IDX 68 96 70 97 63 98 64 99 65 100 66 101 67 102
REMARK H PARENT 10 15 91 52 57 63
REMARK Flexibility Score: inf
ROOT
ATOM      1  O   UNL     1       4.463  -2.912  -8.352  1.00  0.00    -0.376 OA
ENDROOT
BRANCH   1   2
ATOM      2  C   UNL     1       3.960  -4.216  -8.067  1.00  0.00     0.202 C 
BRANCH   2   3
ATOM      3  C   UNL     1       4.717  -5.052  -7.032  1.00  0.00     0.261 C 
BRANCH   3   4
ATOM      4  O   UNL     1       4.781  -4.393  -5.757  1.00  0.00    -0.460 OA
BRANCH   4   5
ATOM      5  C   UNL     1       5.946  -4.537  -5.085  1.00  0.00     0.340 C 
ATOM      6  O   UNL     1       6.870  -5.276  -5.390  1.00  0.00    -0.246 OA
BRANCH   5   7
ATOM      7  C   UNL     1       6.059  -3.522  -4.019  1.00  0.00     0.084 A 
ATOM      8  C   UNL     1       5.215  -3.412  -2.900  1.00  0.00     0.068 A 
ATOM      9  C   UNL     1       5.627  -2.454  -1.925  1.00  0.00     0.065 A 
ATOM     10  Cl  UNL     1       4.830  -2.339  -0.387  1.00  0.00    -0.082 Cl
ATOM     11  C   UNL     1       6.702  -1.577  -2.110  1.00  0.00     0.023 A 
ATOM     12  C   UNL     1       7.137  -2.622  -4.211  1.00  0.00     0.018 A 
ATOM     13  C   UNL     1       7.439  -1.637  -3.277  1.00  0.00     0.003 A 
BRANCH   8  14
ATOM     14  N   UNL     1       4.088  -4.167  -2.608  1.00  0.00    -0.380 N 
ATOM     15  H   UNL     1       3.604  -3.881  -1.800  1.00  0.00     0.160 HD
BRANCH  14  16
ATOM     16  C   UNL     1       3.497  -5.310  -3.291  1.00  0.00     0.154 C 
BRANCH  16  17
ATOM     17  C   UNL     1       2.664  -6.179  -2.317  1.00  0.00     0.250 C 
BRANCH  17  18
ATOM     18  O   UNL     1       1.296  -5.769  -2.174  1.00  0.00    -0.492 OA
BRANCH  18  19
ATOM     19  C   UNL     1       0.981  -4.734  -1.342  1.00  0.00     0.119 A 
ATOM     20  C   UNL     1       0.211  -2.399  -0.006  1.00  0.00     0.119 A 
ATOM     21  C   UNL     1      -0.700  -3.055  -0.825  1.00  0.00     0.050 A 
ATOM     22  C   UNL     1       1.447  -2.978   0.257  1.00  0.00     0.050 A 
ATOM     23  C   UNL     1      -0.308  -4.215  -1.502  1.00  0.00     0.050 A 
ATOM     24  C   UNL     1       1.819  -4.161  -0.391  1.00  0.00     0.050 A 
BRANCH  20  25
ATOM     25  O   UNL     1      -0.164  -1.214   0.563  1.00  0.00    -0.497 OA
ATOM     26  C   UNL     1       0.673  -0.142   0.116  1.00  0.00     0.278 C 
ENDBRANCH  20  25
ENDBRANCH  18  19
ENDBRANCH  17  18
ENDBRANCH  16  17
ENDBRANCH  14  16
ENDBRANCH   8  14
ENDBRANCH   5   7
ENDBRANCH   4   5
ENDBRANCH   3   4
ENDBRANCH   2   3
ENDBRANCH   1   2
BRANCH   1  27
ATOM     27  C   UNL     1       4.707  -2.019  -7.264  1.00  0.00     0.188 C 
BRANCH  27  28
ATOM     28  C   UNL     1       3.573  -1.776  -6.242  1.00  0.00     0.188 C 
BRANCH  28  29
ATOM     29  O   UNL     1       2.384  -2.470  -6.556  1.00  0.00    -0.376 OA
BRANCH  29  30
ATOM     30  C   UNL     1       1.305  -1.756  -7.129  1.00  0.00     0.202 C 
BRANCH  30  31
ATOM     31  C   UNL     1       1.499  -0.759  -8.287  1.00  0.00     0.261 C 
BRANCH  31  32
ATOM     32  O   UNL     1       2.729  -0.029  -8.341  1.00  0.00    -0.460 OA
BRANCH  32  33
ATOM     33  C   UNL     1       2.816   1.103  -7.606  1.00  0.00     0.338 C 
ATOM     34  O   UNL     1       1.973   1.552  -6.852  1.00  0.00    -0.246 OA
BRANCH  33  35
ATOM     35  C   UNL     1       4.203   1.608  -7.728  1.00  0.00     0.060 A 
ATOM     36  C   UNL     1       4.967   1.768  -6.565  1.00  0.00     0.016 A 
ATOM     37  C   UNL     1       4.755   1.895  -8.980  1.00  0.00     0.016 A 
ATOM     38  C   UNL     1       6.277   2.246  -6.651  1.00  0.00     0.010 A 
ATOM     39  C   UNL     1       6.061   2.390  -9.062  1.00  0.00     0.010 A 
ATOM     40  C   UNL     1       6.818   2.594  -7.896  1.00  0.00    -0.014 A 
BRANCH  40  41
ATOM     41  C   UNL     1       8.099   3.341  -7.968  1.00  0.00     0.031 A 
ATOM     42  C   UNL     1       8.044   4.843  -8.047  1.00  0.00     0.074 A 
ATOM     43  C   UNL     1       9.286   2.708  -7.965  1.00  0.00     0.049 A 
ATOM     44  N   UNL     1       9.021   5.705  -8.162  1.00  0.00    -0.248 NA
ATOM     45  C   UNL     1       6.705   5.453  -7.988  1.00  0.00     0.031 C 
ATOM     46  C   UNL     1       9.474   1.262  -7.869  1.00  0.00     0.029 A 
ATOM     47  N   UNL     1      10.562   3.208  -8.059  1.00  0.00    -0.354 N 
ATOM     48  C   UNL     1       8.416   6.957  -8.194  1.00  0.00     0.074 A 
ATOM     49  C   UNL     1       6.988   6.741  -8.111  1.00  0.00     0.031 C 
ATOM     50  C   UNL     1      10.790   0.989  -7.927  1.00  0.00     0.029 A 
ATOM     51  C   UNL     1      11.535   2.238  -8.091  1.00  0.00     0.049 A 
ATOM     52  H   UNL     1      10.760   4.172  -8.100  1.00  0.00     0.167 HD
ATOM     53  C   UNL     1       8.998   8.176  -8.278  1.00  0.00     0.037 A 
ATOM     54  C   UNL     1      12.869   2.346  -8.258  1.00  0.00     0.037 A 
ATOM     55  C   UNL     1      10.417   8.391  -8.371  1.00  0.00     0.049 A 
ATOM     56  C   UNL     1      13.491   3.712  -8.413  1.00  0.00     0.074 A 
ATOM     57  C   UNL     1      11.102   9.591  -8.444  1.00  0.00     0.029 A 
ATOM     58  N   UNL     1      11.368   7.383  -8.417  1.00  0.00    -0.354 N 
ATOM     59  N   UNL     1      12.910   4.889  -8.407  1.00  0.00    -0.248 NA
ATOM     60  C   UNL     1      14.949   3.765  -8.597  1.00  0.00     0.031 C 
ATOM     61  C   UNL     1      12.466   9.307  -8.578  1.00  0.00     0.029 A 
ATOM     62  C   UNL     1      12.633   7.932  -8.540  1.00  0.00     0.049 A 
ATOM     63  H   UNL     1      11.172   6.419  -8.370  1.00  0.00     0.167 HD
ATOM     64  C   UNL     1      13.934   5.821  -8.558  1.00  0.00     0.074 A 
ATOM     65  C   UNL     1      15.170   5.072  -8.646  1.00  0.00     0.031 C 
ATOM     66  C   UNL     1      13.857   7.174  -8.616  1.00  0.00     0.037 A 
BRANCH  53  67
ATOM     67  C   UNL     1       8.090   9.373  -8.299  1.00  0.00     0.058 A 
ATOM     68  C   UNL     1       7.411   9.803  -7.147  1.00  0.00     0.135 A 
ATOM     69  C   UNL     1       7.913  10.111  -9.479  1.00  0.00     0.135 A 
ATOM     70  F   UNL     1       7.530   9.119  -5.998  1.00  0.00    -0.206 F 
ATOM     71  C   UNL     1       6.568  10.908  -7.172  1.00  0.00     0.059 A 
ATOM     72  C   UNL     1       7.094  11.235  -9.521  1.00  0.00     0.059 A 
ATOM     73  F   UNL     1       8.535   9.739 -10.609  1.00  0.00    -0.206 F 
ATOM     74  C   UNL     1       6.414  11.617  -8.365  1.00  0.00     0.060 A 
BRANCH  74  75
ATOM     75  S   UNL     1       5.317  13.050  -8.382  1.00  0.00     0.124 S 
ATOM     76  O   UNL     1       4.005  12.411  -8.345  1.00  0.00    -0.237 OA
ATOM     77  O   UNL     1       5.710  13.759  -7.169  1.00  0.00    -0.237 OA
ATOM     78  O   UNL     1       5.653  13.721  -9.634  1.00  0.00    -0.744 OA
ENDBRANCH  74  75
ENDBRANCH  53  67
BRANCH  54  79
ATOM     79  C   UNL     1      13.716   1.124  -8.300  1.00  0.00     0.058 A 
ATOM     80  C   UNL     1      14.605   0.821  -7.258  1.00  0.00     0.135 A 
ATOM     81  C   UNL     1      13.662   0.241  -9.390  1.00  0.00     0.135 A 
ATOM     82  F   UNL     1      14.703   1.641  -6.201  1.00  0.00    -0.206 F 
ATOM     83  C   UNL     1      15.419  -0.307  -7.299  1.00  0.00     0.059 A 
ATOM     84  C   UNL     1      14.448  -0.905  -9.443  1.00  0.00     0.059 A 
ATOM     85  F   UNL     1      12.824   0.483 -10.410  1.00  0.00    -0.206 F 
ATOM     86  C   UNL     1      15.332  -1.166  -8.396  1.00  0.00     0.060 A 
BRANCH  86  87
ATOM     87  S   UNL     1      16.358  -2.652  -8.418  1.00  0.00     0.124 S 
ATOM     88  O   UNL     1      17.673  -2.096  -8.713  1.00  0.00    -0.237 OA
ATOM     89  O   UNL     1      16.172  -3.172  -7.067  1.00  0.00    -0.237 OA
ATOM     90  O   UNL     1      15.759  -3.456  -9.479  1.00  0.00    -0.744 OA
ENDBRANCH  86  87
ENDBRANCH  54  79
BRANCH  66  91
ATOM     91  C   UNL     1      15.144   7.942  -8.743  1.00  0.00     0.058 A 
ATOM     92  C   UNL     1      15.862   7.988  -9.947  1.00  0.00     0.135 A 
ATOM     93  C   UNL     1      15.630   8.695  -7.661  1.00  0.00     0.135 A 
ATOM     94  F   UNL     1      15.444   7.284 -11.011  1.00  0.00    -0.206 F 
ATOM     95  C   UNL     1      17.028   8.739 -10.070  1.00  0.00     0.059 A 
ATOM     96  C   UNL     1      16.779   9.473  -7.769  1.00  0.00     0.059 A 
ATOM     97  F   UNL     1      14.975   8.696  -6.489  1.00  0.00    -0.206 F 
ATOM     98  C   UNL     1      17.478   9.480  -8.975  1.00  0.00     0.060 A 
BRANCH  98  99
ATOM     99  S   UNL     1      18.970  10.481  -9.157  1.00  0.00     0.124 S 
ATOM    100  O   UNL     1      20.013   9.462  -9.118  1.00  0.00    -0.237 OA
ATOM    101  O   UNL     1      18.760  11.124 -10.450  1.00  0.00    -0.237 OA
ATOM    102  O   UNL     1      18.921  11.375  -8.004  1.00  0.00    -0.744 OA
ENDBRANCH  98  99
ENDBRANCH  66  91
ENDBRANCH  40  41
ENDBRANCH  33  35
ENDBRANCH  32  33
ENDBRANCH  31  32
ENDBRANCH  30  31
ENDBRANCH  29  30
ENDBRANCH  28  29
ENDBRANCH  27  28
ENDBRANCH   1  27
TORSDOF 26
