REMARK SMILES C[C@]12C(=O)N(c3ccc(C(=O)OCCOCCOCCOC(=O)c4ccc(-c5c6nc(c(-c7c(F)cc(S(=O)(=O)[O-])cc7F)c7ccc([nH]7)c(-c7c(F)cc(S(=O)(=O)[O-])cc7F)c7nc(c(-c8c(F)cc(S(=O)(=O)[O-])cc8F)c8ccc5[nH]8)C=C7)C=C6)cc4)cc3)C(=O)[C@H]1[C@H]1c3ccccc3[C@@H]2c2ccccc21
REMARK SMILES IDX 17 1 16 2 15 3 14 4 13 5 12 6 10 7 11 8 9 9 6 10 7 11 91 12
REMARK SMILES IDX 8 13 90 14 5 15 1 16 2 17 3 18 94 19 102 20 4 21 92 22 95 23
REMARK SMILES IDX 101 24 103 25 93 26 96 27 108 28 100 29 104 30 97 31 107 32
REMARK SMILES IDX 99 33 105 34 98 35 106 36 18 37 19 38 20 39 21 40 22 41
REMARK SMILES IDX 23 42 24 43 25 44 89 45 26 46 88 47 27 48 28 49 29 50 82 51
REMARK SMILES IDX 30 52 87 53 81 54 83 55 31 56 86 57 80 58 79 59 32 61 66 62
REMARK SMILES IDX 45 63 65 64 46 65 49 66 64 67 84 68 47 69 48 70 63 72 85 73
REMARK SMILES IDX 50 74 33 75 34 76 43 77 35 78 36 79 42 80 44 81 37 82 38 83
REMARK SMILES IDX 39 84 40 85 41 86 67 87 68 88 77 89 69 90 70 91 76 92 78 93
REMARK SMILES IDX 71 94 72 95 73 96 74 97 75 98 51 99 52 100 61 101 53 102
REMARK SMILES IDX 54 103 60 104 62 105 55 106 56 107 57 108 58 109 59 110
REMARK H PARENT 83 60 49 71
REMARK Flexibility Score: inf
ROOT
ATOM      1  C   UNL     1      -4.569  -5.529  -5.376  1.00  0.00     0.188 C 
ENDROOT
BRANCH   1   2
ATOM      2  C   UNL     1      -3.966  -6.886  -5.799  1.00  0.00     0.188 C 
BRANCH   2   3
ATOM      3  O   UNL     1      -4.822  -7.965  -6.138  1.00  0.00    -0.376 OA
BRANCH   3   4
ATOM      4  C   UNL     1      -5.787  -8.405  -5.188  1.00  0.00     0.202 C 
BRANCH   4   5
ATOM      5  C   UNL     1      -5.273  -8.768  -3.797  1.00  0.00     0.261 C 
BRANCH   5   6
ATOM      6  O   UNL     1      -4.910  -7.579  -3.073  1.00  0.00    -0.460 OA
BRANCH   6   7
ATOM      7  C   UNL     1      -3.760  -7.679  -2.368  1.00  0.00     0.338 C 
ATOM      8  O   UNL     1      -3.094  -8.681  -2.179  1.00  0.00    -0.246 OA
BRANCH   7   9
ATOM      9  C   UNL     1      -3.292  -6.331  -2.006  1.00  0.00     0.060 A 
ATOM     10  C   UNL     1      -2.167  -3.886  -1.180  1.00  0.00     0.052 A 
ATOM     11  C   UNL     1      -1.533  -4.693  -2.144  1.00  0.00     0.028 A 
ATOM     12  C   UNL     1      -3.429  -4.289  -0.718  1.00  0.00     0.028 A 
ATOM     13  C   UNL     1      -2.066  -5.923  -2.524  1.00  0.00     0.018 A 
ATOM     14  C   UNL     1      -4.005  -5.497  -1.147  1.00  0.00     0.018 A 
BRANCH  10  15
ATOM     15  N   UNL     1      -1.424  -2.827  -0.579  1.00  0.00    -0.250 N 
ATOM     16  C   UNL     1       1.029  -0.300  -0.445  1.00  0.00     0.024 C 
ATOM     17  C   UNL     1       0.598  -1.733  -0.100  1.00  0.00     0.071 C 
ATOM     18  C   UNL     1      -0.318  -2.260  -1.172  1.00  0.00     0.241 C 
ATOM     19  C   UNL     1      -0.276  -1.773   1.189  1.00  0.00     0.107 C 
ATOM     20  C   UNL     1       1.804  -2.731   0.035  1.00  0.00     0.066 C 
ATOM     21  O   UNL     1      -0.064  -2.173  -2.367  1.00  0.00    -0.273 OA
ATOM     22  C   UNL     1      -1.582  -2.392   0.722  1.00  0.00     0.238 C 
ATOM     23  C   UNL     1       0.411  -2.669   2.274  1.00  0.00     0.063 C 
ATOM     24  C   UNL     1       1.249  -4.103   0.453  1.00  0.00    -0.036 A 
ATOM     25  C   UNL     1       2.609  -2.228   1.226  1.00  0.00    -0.036 A 
ATOM     26  O   UNL     1      -2.552  -2.502   1.462  1.00  0.00    -0.274 OA
ATOM     27  C   UNL     1       0.506  -4.069   1.664  1.00  0.00    -0.036 A 
ATOM     28  C   UNL     1       1.857  -2.173   2.432  1.00  0.00    -0.036 A 
ATOM     29  C   UNL     1       1.365  -5.284  -0.264  1.00  0.00     0.005 A 
ATOM     30  C   UNL     1       3.958  -1.908   1.196  1.00  0.00     0.005 A 
ATOM     31  C   UNL     1      -0.133  -5.204   2.144  1.00  0.00     0.004 A 
ATOM     32  C   UNL     1       2.480  -1.806   3.615  1.00  0.00     0.004 A 
ATOM     33  C   UNL     1       0.713  -6.423   0.217  1.00  0.00     0.000 A 
ATOM     34  C   UNL     1       4.574  -1.535   2.388  1.00  0.00     0.000 A 
ATOM     35  C   UNL     1      -0.030  -6.383   1.407  1.00  0.00     0.000 A 
ATOM     36  C   UNL     1       3.843  -1.486   3.586  1.00  0.00     0.000 A 
ENDBRANCH  10  15
ENDBRANCH   7   9
ENDBRANCH   6   7
ENDBRANCH   5   6
ENDBRANCH   4   5
ENDBRANCH   3   4
ENDBRANCH   2   3
ENDBRANCH   1   2
BRANCH   1  37
ATOM     37  O   UNL     1      -5.951  -5.263  -5.556  1.00  0.00    -0.376 OA
BRANCH  37  38
ATOM     38  C   UNL     1      -6.537  -5.487  -6.830  1.00  0.00     0.202 C 
BRANCH  38  39
ATOM     39  C   UNL     1      -5.994  -4.699  -8.020  1.00  0.00     0.261 C 
BRANCH  39  40
ATOM     40  O   UNL     1      -4.633  -5.034  -8.322  1.00  0.00    -0.460 OA
BRANCH  40  41
ATOM     41  C   UNL     1      -3.749  -4.005  -8.234  1.00  0.00     0.338 C 
ATOM     42  O   UNL     1      -3.985  -2.851  -7.955  1.00  0.00    -0.246 OA
BRANCH  41  43
ATOM     43  C   UNL     1      -2.383  -4.551  -8.366  1.00  0.00     0.060 A 
ATOM     44  C   UNL     1      -2.018  -5.302  -9.484  1.00  0.00     0.016 A 
ATOM     45  C   UNL     1      -1.455  -4.275  -7.354  1.00  0.00     0.016 A 
ATOM     46  C   UNL     1      -0.703  -5.753  -9.603  1.00  0.00     0.010 A 
ATOM     47  C   UNL     1      -0.144  -4.739  -7.469  1.00  0.00     0.010 A 
ATOM     48  C   UNL     1       0.244  -5.463  -8.605  1.00  0.00    -0.014 A 
BRANCH  48  49
ATOM     49  C   UNL     1       1.672  -5.784  -8.836  1.00  0.00     0.031 A 
ATOM     50  C   UNL     1       2.303  -7.016  -8.267  1.00  0.00     0.074 A 
ATOM     51  C   UNL     1       2.394  -4.935  -9.592  1.00  0.00     0.049 A 
ATOM     52  N   UNL     1       3.506  -7.487  -8.470  1.00  0.00    -0.248 NA
ATOM     53  C   UNL     1       1.484  -7.824  -7.352  1.00  0.00     0.031 C 
ATOM     54  C   UNL     1       1.885  -3.691 -10.174  1.00  0.00     0.029 A 
ATOM     55  N   UNL     1       3.697  -4.992 -10.011  1.00  0.00    -0.354 N 
ATOM     56  C   UNL     1       3.585  -8.662  -7.736  1.00  0.00     0.074 A 
ATOM     57  C   UNL     1       2.321  -8.806  -7.041  1.00  0.00     0.031 C 
ATOM     58  C   UNL     1       2.858  -3.115 -10.895  1.00  0.00     0.029 A 
ATOM     59  C   UNL     1       4.061  -3.940 -10.816  1.00  0.00     0.049 A 
ATOM     60  H   UNL     1       4.314  -5.718  -9.759  1.00  0.00     0.167 HD
ATOM     61  C   UNL     1       4.610  -9.546  -7.671  1.00  0.00     0.037 A 
ATOM     62  C   UNL     1       5.227  -3.675 -11.435  1.00  0.00     0.037 A 
ATOM     63  C   UNL     1       5.871  -9.380  -8.353  1.00  0.00     0.049 A 
ATOM     64  C   UNL     1       6.364  -4.648 -11.307  1.00  0.00     0.074 A 
ATOM     65  C   UNL     1       6.957 -10.238  -8.373  1.00  0.00     0.029 A 
ATOM     66  N   UNL     1       6.222  -8.279  -9.122  1.00  0.00    -0.354 N 
ATOM     67  N   UNL     1       6.399  -5.792 -10.666  1.00  0.00    -0.248 NA
ATOM     68  C   UNL     1       7.616  -4.300 -11.990  1.00  0.00     0.031 C 
ATOM     69  C   UNL     1       7.980  -9.638  -9.117  1.00  0.00     0.029 A 
ATOM     70  C   UNL     1       7.516  -8.424  -9.598  1.00  0.00     0.049 A 
ATOM     71  H   UNL     1       5.637  -7.508  -9.304  1.00  0.00     0.167 HD
ATOM     72  C   UNL     1       7.670  -6.309 -10.883  1.00  0.00     0.074 A 
ATOM     73  C   UNL     1       8.369  -5.359 -11.726  1.00  0.00     0.031 C 
ATOM     74  C   UNL     1       8.207  -7.467 -10.427  1.00  0.00     0.037 A 
BRANCH  61  75
ATOM     75  C   UNL     1       4.415 -10.788  -6.848  1.00  0.00     0.058 A 
ATOM     76  C   UNL     1       3.588 -11.832  -7.294  1.00  0.00     0.135 A 
ATOM     77  C   UNL     1       5.118 -10.977  -5.648  1.00  0.00     0.135 A 
ATOM     78  F   UNL     1       2.886 -11.700  -8.430  1.00  0.00    -0.206 F 
ATOM     79  C   UNL     1       3.458 -13.015  -6.573  1.00  0.00     0.059 A 
ATOM     80  C   UNL     1       5.019 -12.161  -4.921  1.00  0.00     0.059 A 
ATOM     81  F   UNL     1       5.923 -10.011  -5.178  1.00  0.00    -0.206 F 
ATOM     82  C   UNL     1       4.180 -13.172  -5.389  1.00  0.00     0.060 A 
BRANCH  82  83
ATOM     83  S   UNL     1       4.018 -14.725  -4.482  1.00  0.00     0.124 S 
ATOM     84  O   UNL     1       2.660 -14.616  -3.958  1.00  0.00    -0.237 OA
ATOM     85  O   UNL     1       4.213 -15.720  -5.532  1.00  0.00    -0.237 OA
ATOM     86  O   UNL     1       5.082 -14.651  -3.486  1.00  0.00    -0.744 OA
ENDBRANCH  82  83
ENDBRANCH  61  75
BRANCH  62  87
ATOM     87  C   UNL     1       5.352  -2.452 -12.266  1.00  0.00     0.058 A 
ATOM     88  C   UNL     1       5.388  -2.536 -13.665  1.00  0.00     0.135 A 
ATOM     89  C   UNL     1       5.394  -1.177 -11.682  1.00  0.00     0.135 A 
ATOM     90  F   UNL     1       5.353  -3.735 -14.266  1.00  0.00    -0.206 F 
ATOM     91  C   UNL     1       5.468  -1.398 -14.459  1.00  0.00     0.059 A 
ATOM     92  C   UNL     1       5.452  -0.023 -12.455  1.00  0.00     0.059 A 
ATOM     93  F   UNL     1       5.346  -1.047 -10.347  1.00  0.00    -0.206 F 
ATOM     94  C   UNL     1       5.495  -0.144 -13.844  1.00  0.00     0.060 A 
BRANCH  94  95
ATOM     95  S   UNL     1       5.539   1.328 -14.887  1.00  0.00     0.124 S 
ATOM     96  O   UNL     1       6.905   1.285 -15.398  1.00  0.00    -0.237 OA
ATOM     97  O   UNL     1       4.485   1.047 -15.857  1.00  0.00    -0.237 OA
ATOM     98  O   UNL     1       5.248   2.412 -13.953  1.00  0.00    -0.744 OA
ENDBRANCH  94  95
ENDBRANCH  62  87
BRANCH  74  99
ATOM     99  C   UNL     1       9.623  -7.778 -10.828  1.00  0.00     0.058 A 
ATOM    100  C   UNL     1      10.710  -7.101 -10.255  1.00  0.00     0.135 A 
ATOM    101  C   UNL     1       9.898  -8.799 -11.751  1.00  0.00     0.135 A 
ATOM    102  F   UNL     1      10.501  -6.109  -9.374  1.00  0.00    -0.206 F 
ATOM    103  C   UNL     1      12.022  -7.416 -10.593  1.00  0.00     0.059 A 
ATOM    104  C   UNL     1      11.204  -9.147 -12.086  1.00  0.00     0.059 A 
ATOM    105  F   UNL     1       8.894  -9.482 -12.323  1.00  0.00    -0.206 F 
ATOM    106  C   UNL     1      12.259  -8.444 -11.508  1.00  0.00     0.060 A 
BRANCH 106 107
ATOM    107  S   UNL     1      13.969  -8.870 -11.904  1.00  0.00     0.124 S 
ATOM    108  O   UNL     1      14.372  -7.735 -12.727  1.00  0.00    -0.237 OA
ATOM    109  O   UNL     1      14.585  -8.945 -10.583  1.00  0.00    -0.237 OA
ATOM    110  O   UNL     1      13.848 -10.144 -12.606  1.00  0.00    -0.744 OA
ENDBRANCH 106 107
ENDBRANCH  74  99
ENDBRANCH  48  49
ENDBRANCH  41  43
ENDBRANCH  40  41
ENDBRANCH  39  40
ENDBRANCH  38  39
ENDBRANCH  37  38
ENDBRANCH   1  37
TORSDOF 21
