REMARK SMILES O=C(/C=C\C(F)(C(F)(F)F)C(F)(F)F)OCCOCCOCCOC(=O)c1ccc(-c2c3nc(c(-c4c(F)cc(S(=O)(=O)[O-])cc4F)c4ccc([nH]4)c(-c4c(F)cc(S(=O)(=O)[O-])cc4F)c4nc(c(-c5c(F)cc(S(=O)(=O)[O-])cc5F)c5ccc2[nH]5)C=C4)C=C3)cc1
REMARK SMILES IDX 20 1 19 2 18 3 17 4 16 5 15 6 2 7 1 8 3 9 4 10 5 11 6 12
REMARK SMILES IDX 7 13 8 14 9 15 10 16 11 17 12 18 13 19 14 20 21 21 22 22
REMARK SMILES IDX 23 23 24 24 25 25 26 26 27 27 28 28 92 29 29 30 91 31 30 32
REMARK SMILES IDX 31 33 32 34 85 35 33 36 90 37 84 38 86 39 34 40 89 41 83 42
REMARK SMILES IDX 82 43 35 45 69 46 48 47 68 48 49 49 52 50 67 51 87 52 50 53
REMARK SMILES IDX 51 54 66 56 88 57 53 58 36 59 37 60 46 61 38 62 39 63 45 64
REMARK SMILES IDX 47 65 40 66 41 67 42 68 43 69 44 70 70 71 71 72 80 73 72 74
REMARK SMILES IDX 73 75 79 76 81 77 74 78 75 79 76 80 77 81 78 82 54 83 55 84
REMARK SMILES IDX 64 85 56 86 57 87 63 88 65 89 58 90 59 91 60 92 61 93 62 94
REMARK H PARENT 86 44 52 55
REMARK Flexibility Score: inf
ROOT
ATOM      1  C   UNL     1       2.357   1.606   2.442  1.00  0.00     0.188 C 
ENDROOT
BRANCH   1   2
ATOM      2  C   UNL     1       2.965   0.223   2.164  1.00  0.00     0.188 C 
BRANCH   2   3
ATOM      3  O   UNL     1       4.071   0.056   1.289  1.00  0.00    -0.376 OA
BRANCH   3   4
ATOM      4  C   UNL     1       4.739   1.191   0.794  1.00  0.00     0.202 C 
BRANCH   4   5
ATOM      5  C   UNL     1       4.053   1.870  -0.387  1.00  0.00     0.261 C 
BRANCH   5   6
ATOM      6  O   UNL     1       2.788   1.351  -0.858  1.00  0.00    -0.460 OA
BRANCH   6   7
ATOM      7  C   UNL     1       2.400   0.140  -1.288  1.00  0.00     0.330 C 
ATOM      8  O   UNL     1       1.262  -0.021  -1.723  1.00  0.00    -0.247 OA
BRANCH   7   9
ATOM      9  C   UNL     1       3.221  -1.064  -1.099  1.00  0.00     0.093 C 
ATOM     10  C   UNL     1       4.450  -1.456  -1.471  1.00  0.00     0.040 C 
BRANCH  10  11
ATOM     11  C   UNL     1       5.558  -0.795  -2.281  1.00  0.00     0.317 C 
ATOM     12  F   UNL     1       6.211   0.086  -1.455  1.00  0.00    -0.219 F 
BRANCH  11  13
ATOM     13  C   UNL     1       6.582  -1.823  -2.750  1.00  0.00     0.435 C 
ATOM     14  F   UNL     1       6.064  -2.707  -3.631  1.00  0.00    -0.167 F 
ATOM     15  F   UNL     1       7.661  -1.254  -3.331  1.00  0.00    -0.167 F 
ATOM     16  F   UNL     1       7.054  -2.551  -1.703  1.00  0.00    -0.167 F 
ENDBRANCH  11  13
BRANCH  11  17
ATOM     17  C   UNL     1       5.142  -0.057  -3.541  1.00  0.00     0.435 C 
ATOM     18  F   UNL     1       4.562  -0.865  -4.453  1.00  0.00    -0.167 F 
ATOM     19  F   UNL     1       4.255   0.931  -3.274  1.00  0.00    -0.167 F 
ATOM     20  F   UNL     1       6.195   0.544  -4.144  1.00  0.00    -0.167 F 
ENDBRANCH  11  17
ENDBRANCH  10  11
ENDBRANCH   7   9
ENDBRANCH   6   7
ENDBRANCH   5   6
ENDBRANCH   4   5
ENDBRANCH   3   4
ENDBRANCH   2   3
ENDBRANCH   1   2
BRANCH   1  21
ATOM     21  O   UNL     1       3.307   2.625   2.750  1.00  0.00    -0.376 OA
BRANCH  21  22
ATOM     22  C   UNL     1       3.504   2.913   4.132  1.00  0.00     0.202 C 
BRANCH  22  23
ATOM     23  C   UNL     1       4.506   1.981   4.830  1.00  0.00     0.261 C 
BRANCH  23  24
ATOM     24  O   UNL     1       4.071   0.625   5.016  1.00  0.00    -0.460 OA
BRANCH  24  25
ATOM     25  C   UNL     1       2.908   0.435   5.681  1.00  0.00     0.338 C 
ATOM     26  O   UNL     1       2.209   1.282   6.194  1.00  0.00    -0.246 OA
BRANCH  25  27
ATOM     27  C   UNL     1       2.519  -0.983   5.537  1.00  0.00     0.060 A 
ATOM     28  C   UNL     1       1.237  -1.275   5.053  1.00  0.00     0.016 A 
ATOM     29  C   UNL     1       3.392  -2.007   5.912  1.00  0.00     0.016 A 
ATOM     30  C   UNL     1       0.792  -2.596   5.027  1.00  0.00     0.010 A 
ATOM     31  C   UNL     1       2.940  -3.328   5.900  1.00  0.00     0.010 A 
ATOM     32  C   UNL     1       1.619  -3.616   5.517  1.00  0.00    -0.014 A 
BRANCH  32  33
ATOM     33  C   UNL     1       1.009  -4.904   5.923  1.00  0.00     0.031 A 
ATOM     34  C   UNL     1       0.537  -5.028   7.349  1.00  0.00     0.074 A 
ATOM     35  C   UNL     1       0.859  -5.927   5.065  1.00  0.00     0.049 A 
ATOM     36  N   UNL     1      -0.020  -6.040   7.959  1.00  0.00    -0.248 NA
ATOM     37  C   UNL     1       0.727  -3.842   8.204  1.00  0.00     0.031 C 
ATOM     38  C   UNL     1       1.248  -5.918   3.657  1.00  0.00     0.029 A 
ATOM     39  N   UNL     1       0.336  -7.179   5.265  1.00  0.00    -0.354 N 
ATOM     40  C   UNL     1      -0.240  -5.617   9.265  1.00  0.00     0.074 A 
ATOM     41  C   UNL     1       0.271  -4.269   9.370  1.00  0.00     0.031 C 
ATOM     42  C   UNL     1       0.953  -7.115   3.118  1.00  0.00     0.029 A 
ATOM     43  C   UNL     1       0.372  -7.977   4.148  1.00  0.00     0.049 A 
ATOM     44  H   UNL     1      -0.031  -7.478   6.128  1.00  0.00     0.167 HD
ATOM     45  C   UNL     1      -0.824  -6.286  10.287  1.00  0.00     0.037 A 
ATOM     46  C   UNL     1      -0.016  -9.258   3.984  1.00  0.00     0.037 A 
ATOM     47  C   UNL     1      -1.326  -7.628  10.184  1.00  0.00     0.049 A 
ATOM     48  C   UNL     1      -0.623 -10.002   5.147  1.00  0.00     0.074 A 
ATOM     49  C   UNL     1      -1.945  -8.394  11.154  1.00  0.00     0.029 A 
ATOM     50  N   UNL     1      -1.256  -8.407   9.039  1.00  0.00    -0.354 N 
ATOM     51  N   UNL     1      -0.852  -9.581   6.369  1.00  0.00    -0.248 NA
ATOM     52  C   UNL     1      -1.032 -11.393   4.904  1.00  0.00     0.031 C 
ATOM     53  C   UNL     1      -2.217  -9.652  10.605  1.00  0.00     0.029 A 
ATOM     54  C   UNL     1      -1.808  -9.653   9.281  1.00  0.00     0.049 A 
ATOM     55  H   UNL     1      -0.872  -8.117   8.180  1.00  0.00     0.167 HD
ATOM     56  C   UNL     1      -1.466 -10.642   7.029  1.00  0.00     0.074 A 
ATOM     57  C   UNL     1      -1.569 -11.724   6.071  1.00  0.00     0.031 C 
ATOM     58  C   UNL     1      -1.913 -10.711   8.308  1.00  0.00     0.037 A 
BRANCH  45  59
ATOM     59  C   UNL     1      -0.909  -5.572  11.606  1.00  0.00     0.058 A 
ATOM     60  C   UNL     1      -1.790  -4.496  11.808  1.00  0.00     0.135 A 
ATOM     61  C   UNL     1      -0.076  -5.947  12.671  1.00  0.00     0.135 A 
ATOM     62  F   UNL     1      -2.590  -4.081  10.813  1.00  0.00    -0.206 F 
ATOM     63  C   UNL     1      -1.811  -3.791  13.006  1.00  0.00     0.059 A 
ATOM     64  C   UNL     1      -0.099  -5.272  13.887  1.00  0.00     0.059 A 
ATOM     65  F   UNL     1       0.788  -6.964  12.527  1.00  0.00    -0.206 F 
ATOM     66  C   UNL     1      -0.954  -4.181  14.037  1.00  0.00     0.060 A 
BRANCH  66  67
ATOM     67  S   UNL     1      -0.964  -3.238  15.576  1.00  0.00     0.124 S 
ATOM     68  O   UNL     1      -0.210  -2.048  15.190  1.00  0.00    -0.237 OA
ATOM     69  O   UNL     1      -2.389  -3.035  15.813  1.00  0.00    -0.237 OA
ATOM     70  O   UNL     1      -0.294  -4.126  16.521  1.00  0.00    -0.744 OA
ENDBRANCH  66  67
ENDBRANCH  45  59
BRANCH  46  71
ATOM     71  C   UNL     1       0.135  -9.914   2.659  1.00  0.00     0.058 A 
ATOM     72  C   UNL     1      -0.984 -10.187   1.858  1.00  0.00     0.135 A 
ATOM     73  C   UNL     1       1.398 -10.270   2.162  1.00  0.00     0.135 A 
ATOM     74  F   UNL     1      -2.213  -9.876   2.297  1.00  0.00    -0.206 F 
ATOM     75  C   UNL     1      -0.859 -10.794   0.613  1.00  0.00     0.059 A 
ATOM     76  C   UNL     1       1.550 -10.861   0.911  1.00  0.00     0.059 A 
ATOM     77  F   UNL     1       2.500 -10.023   2.887  1.00  0.00    -0.206 F 
ATOM     78  C   UNL     1       0.415 -11.124   0.146  1.00  0.00     0.060 A 
BRANCH  78  79
ATOM     79  S   UNL     1       0.573 -11.850  -1.500  1.00  0.00     0.124 S 
ATOM     80  O   UNL     1       0.101 -13.210  -1.268  1.00  0.00    -0.237 OA
ATOM     81  O   UNL     1      -0.302 -10.996  -2.298  1.00  0.00    -0.237 OA
ATOM     82  O   UNL     1       1.998 -11.716  -1.789  1.00  0.00    -0.744 OA
ENDBRANCH  78  79
ENDBRANCH  46  71
BRANCH  58  83
ATOM     83  C   UNL     1      -2.601 -11.978   8.735  1.00  0.00     0.058 A 
ATOM     84  C   UNL     1      -1.889 -13.159   8.989  1.00  0.00     0.135 A 
ATOM     85  C   UNL     1      -3.990 -11.989   8.945  1.00  0.00     0.135 A 
ATOM     86  F   UNL     1      -0.560 -13.201   8.802  1.00  0.00    -0.206 F 
ATOM     87  C   UNL     1      -2.533 -14.318   9.412  1.00  0.00     0.059 A 
ATOM     88  C   UNL     1      -4.651 -13.129   9.390  1.00  0.00     0.059 A 
ATOM     89  F   UNL     1      -4.715 -10.880   8.731  1.00  0.00    -0.206 F 
ATOM     90  C   UNL     1      -3.916 -14.293   9.608  1.00  0.00     0.060 A 
BRANCH  90  91
ATOM     91  S   UNL     1      -4.741 -15.793  10.182  1.00  0.00     0.124 S 
ATOM     92  O   UNL     1      -4.796 -16.584   8.958  1.00  0.00    -0.237 OA
ATOM     93  O   UNL     1      -3.828 -16.281  11.212  1.00  0.00    -0.237 OA
ATOM     94  O   UNL     1      -6.026 -15.305  10.675  1.00  0.00    -0.744 OA
ENDBRANCH  90  91
ENDBRANCH  58  83
ENDBRANCH  32  33
ENDBRANCH  25  27
ENDBRANCH  24  25
ENDBRANCH  23  24
ENDBRANCH  22  23
ENDBRANCH  21  22
ENDBRANCH   1  21
TORSDOF 23
