REMARK SMILES C=CC[NH2+]CC(=O)N1CCC[C@@H]1C(=O)OCCOCCOCCOC(=O)c1ccc(-c2c3nc(c(-c4c(F)cc(S(=O)(=O)[O-])cc4F)c4ccc([nH]4)c(-c4c(F)cc(S(=O)(=O)[O-])cc4F)c4nc(c(-c5c(F)cc(S(=O)(=O)[O-])cc5F)c5ccc2[nH]5)C=C4)C=C3)cc1
REMARK SMILES IDX 19 1 18 2 17 3 16 4 15 5 13 6 14 7 12 8 8 9 9 10 10 11 11 12
REMARK SMILES IDX 6 13 7 14 5 15 4 16 3 19 2 20 1 21 20 22 21 23 22 24 23 25
REMARK SMILES IDX 24 26 25 27 26 28 27 29 28 30 92 31 29 32 91 33 30 34 31 35
REMARK SMILES IDX 32 36 85 37 33 38 90 39 84 40 86 41 34 42 89 43 83 44 82 45
REMARK SMILES IDX 35 47 69 48 48 49 68 50 49 51 52 52 67 53 87 54 50 55 51 56
REMARK SMILES IDX 66 58 88 59 53 60 36 61 37 62 46 63 38 64 39 65 45 66 47 67
REMARK SMILES IDX 40 68 41 69 42 70 43 71 44 72 70 73 71 74 80 75 72 76 73 77
REMARK SMILES IDX 79 78 81 79 74 80 75 81 76 82 77 83 78 84 54 85 55 86 64 87
REMARK SMILES IDX 56 88 57 89 63 90 65 91 58 92 59 93 60 94 61 95 62 96
REMARK H PARENT 4 17 4 18 86 46 52 57
REMARK Flexibility Score: inf
ROOT
ATOM      1  C   UNL     1      -7.965   0.569   2.361  1.00  0.00     0.188 C 
ENDROOT
BRANCH   1   2
ATOM      2  O   UNL     1      -8.854  -0.499   2.079  1.00  0.00    -0.376 OA
BRANCH   2   3
ATOM      3  C   UNL     1      -8.318  -1.759   1.675  1.00  0.00     0.202 C 
BRANCH   3   4
ATOM      4  C   UNL     1      -7.144  -1.818   0.679  1.00  0.00     0.261 C 
BRANCH   4   5
ATOM      5  O   UNL     1      -5.933  -1.185   1.147  1.00  0.00    -0.462 OA
BRANCH   5   6
ATOM      6  C   UNL     1      -5.292  -0.395   0.257  1.00  0.00     0.328 C 
ATOM      7  O   UNL     1      -5.622  -0.300  -0.923  1.00  0.00    -0.250 OA
BRANCH   6   8
ATOM      8  C   UNL     1      -4.112   0.413   0.832  1.00  0.00     0.195 C 
ATOM      9  N   UNL     1      -2.859   0.153   0.134  1.00  0.00    -0.324 N 
ATOM     10  C   UNL     1      -1.798   0.668   0.983  1.00  0.00     0.121 C 
ATOM     11  C   UNL     1      -2.188   0.127   2.332  1.00  0.00     0.024 C 
ATOM     12  C   UNL     1      -3.701   0.293   2.320  1.00  0.00     0.039 C 
BRANCH   9  13
ATOM     13  C   UNL     1      -2.815   0.298  -1.251  1.00  0.00     0.278 C 
ATOM     14  O   UNL     1      -2.635   1.374  -1.810  1.00  0.00    -0.268 OA
BRANCH  13  15
ATOM     15  C   UNL     1      -2.762  -1.076  -1.982  1.00  0.00     0.362 C 
BRANCH  15  16
ATOM     16  N   UNL     1      -1.364  -1.448  -2.389  1.00  0.00    -0.335 N 
ATOM     17  H   UNL     1      -1.329  -2.436  -2.641  1.00  0.00     0.347 HD
ATOM     18  H   UNL     1      -1.073  -0.895  -3.196  1.00  0.00     0.347 HD
BRANCH  16  19
ATOM     19  C   UNL     1      -0.478  -1.196  -1.262  1.00  0.00     0.289 C 
BRANCH  19  20
ATOM     20  C   UNL     1       0.967  -1.538  -1.375  1.00  0.00     0.025 C 
ATOM     21  C   UNL     1       1.894  -0.716  -0.852  1.00  0.00     0.010 C 
ENDBRANCH  19  20
ENDBRANCH  16  19
ENDBRANCH  15  16
ENDBRANCH  13  15
ENDBRANCH   9  13
ENDBRANCH   6   8
ENDBRANCH   5   6
ENDBRANCH   4   5
ENDBRANCH   3   4
ENDBRANCH   2   3
ENDBRANCH   1   2
BRANCH   1  22
ATOM     22  C   UNL     1      -6.816   0.303   3.330  1.00  0.00     0.188 C 
BRANCH  22  23
ATOM     23  O   UNL     1      -6.638  -1.042   3.709  1.00  0.00    -0.376 OA
BRANCH  23  24
ATOM     24  C   UNL     1      -6.902  -1.419   5.050  1.00  0.00     0.202 C 
BRANCH  24  25
ATOM     25  C   UNL     1      -8.139  -0.868   5.782  1.00  0.00     0.261 C 
BRANCH  25  26
ATOM     26  O   UNL     1      -8.382   0.547   5.690  1.00  0.00    -0.460 OA
BRANCH  26  27
ATOM     27  C   UNL     1      -7.500   1.382   6.292  1.00  0.00     0.338 C 
ATOM     28  O   UNL     1      -6.538   1.056   6.970  1.00  0.00    -0.246 OA
BRANCH  27  29
ATOM     29  C   UNL     1      -7.732   2.742   5.735  1.00  0.00     0.060 A 
ATOM     30  C   UNL     1      -6.670   3.408   5.100  1.00  0.00     0.016 A 
ATOM     31  C   UNL     1      -9.001   3.322   5.765  1.00  0.00     0.016 A 
ATOM     32  C   UNL     1      -6.872   4.661   4.514  1.00  0.00     0.010 A 
ATOM     33  C   UNL     1      -9.194   4.589   5.203  1.00  0.00     0.010 A 
ATOM     34  C   UNL     1      -8.127   5.278   4.598  1.00  0.00    -0.014 A 
BRANCH  34  35
ATOM     35  C   UNL     1      -8.286   6.711   4.240  1.00  0.00     0.031 A 
ATOM     36  C   UNL     1      -8.261   7.726   5.352  1.00  0.00     0.074 A 
ATOM     37  C   UNL     1      -8.462   7.113   2.969  1.00  0.00     0.049 A 
ATOM     38  N   UNL     1      -8.476   9.014   5.310  1.00  0.00    -0.248 NA
ATOM     39  C   UNL     1      -7.957   7.208   6.696  1.00  0.00     0.031 C 
ATOM     40  C   UNL     1      -8.463   6.241   1.796  1.00  0.00     0.029 A 
ATOM     41  N   UNL     1      -8.694   8.367   2.456  1.00  0.00    -0.354 N 
ATOM     42  C   UNL     1      -8.348   9.460   6.620  1.00  0.00     0.074 A 
ATOM     43  C   UNL     1      -8.066   8.299   7.437  1.00  0.00     0.031 C 
ATOM     44  C   UNL     1      -8.707   6.984   0.702  1.00  0.00     0.029 A 
ATOM     45  C   UNL     1      -8.918   8.377   1.100  1.00  0.00     0.049 A 
ATOM     46  H   UNL     1      -8.699   9.182   3.009  1.00  0.00     0.167 HD
ATOM     47  C   UNL     1      -8.452  10.722   7.101  1.00  0.00     0.037 A 
ATOM     48  C   UNL     1      -9.284   9.384   0.280  1.00  0.00     0.037 A 
ATOM     49  C   UNL     1      -8.744  11.873   6.286  1.00  0.00     0.049 A 
ATOM     50  C   UNL     1      -9.473  10.771   0.845  1.00  0.00     0.074 A 
ATOM     51  C   UNL     1      -8.852  13.196   6.675  1.00  0.00     0.029 A 
ATOM     52  N   UNL     1      -8.990  11.837   4.920  1.00  0.00    -0.354 N 
ATOM     53  N   UNL     1      -9.329  11.186   2.082  1.00  0.00    -0.248 NA
ATOM     54  C   UNL     1      -9.874  11.826  -0.097  1.00  0.00     0.031 C 
ATOM     55  C   UNL     1      -9.225  13.951   5.558  1.00  0.00     0.029 A 
ATOM     56  C   UNL     1      -9.282  13.110   4.458  1.00  0.00     0.049 A 
ATOM     57  H   UNL     1      -8.961  11.027   4.363  1.00  0.00     0.167 HD
ATOM     58  C   UNL     1      -9.595  12.553   2.061  1.00  0.00     0.074 A 
ATOM     59  C   UNL     1      -9.898  12.896   0.687  1.00  0.00     0.031 C 
ATOM     60  C   UNL     1      -9.585  13.443   3.086  1.00  0.00     0.037 A 
BRANCH  47  61
ATOM     61  C   UNL     1      -8.289  10.913   8.585  1.00  0.00     0.058 A 
ATOM     62  C   UNL     1      -7.052  10.734   9.227  1.00  0.00     0.135 A 
ATOM     63  C   UNL     1      -9.387  11.286   9.377  1.00  0.00     0.135 A 
ATOM     64  F   UNL     1      -5.972  10.359   8.523  1.00  0.00    -0.206 F 
ATOM     65  C   UNL     1      -6.920  10.879  10.604  1.00  0.00     0.059 A 
ATOM     66  C   UNL     1      -9.270  11.469  10.751  1.00  0.00     0.059 A 
ATOM     67  F   UNL     1     -10.594  11.468   8.817  1.00  0.00    -0.206 F 
ATOM     68  C   UNL     1      -8.036  11.243  11.358  1.00  0.00     0.060 A 
BRANCH  68  69
ATOM     69  S   UNL     1      -7.852  11.408  13.146  1.00  0.00     0.124 S 
ATOM     70  O   UNL     1      -7.700  10.014  13.553  1.00  0.00    -0.237 OA
ATOM     71  O   UNL     1      -6.654  12.235  13.261  1.00  0.00    -0.237 OA
ATOM     72  O   UNL     1      -9.096  12.050  13.560  1.00  0.00    -0.744 OA
ENDBRANCH  68  69
ENDBRANCH  47  61
BRANCH  48  73
ATOM     73  C   UNL     1      -9.513   9.115  -1.166  1.00  0.00     0.058 A 
ATOM     74  C   UNL     1      -8.646   9.621  -2.147  1.00  0.00     0.135 A 
ATOM     75  C   UNL     1     -10.598   8.334  -1.596  1.00  0.00     0.135 A 
ATOM     76  F   UNL     1      -7.606  10.390  -1.790  1.00  0.00    -0.206 F 
ATOM     77  C   UNL     1      -8.845   9.363  -3.500  1.00  0.00     0.059 A 
ATOM     78  C   UNL     1     -10.803   8.040  -2.941  1.00  0.00     0.059 A 
ATOM     79  F   UNL     1     -11.457   7.825  -0.699  1.00  0.00    -0.206 F 
ATOM     80  C   UNL     1      -9.922   8.563  -3.886  1.00  0.00     0.060 A 
BRANCH  80  81
ATOM     81  S   UNL     1     -10.128   8.176  -5.639  1.00  0.00     0.124 S 
ATOM     82  O   UNL     1     -10.552   9.463  -6.177  1.00  0.00    -0.237 OA
ATOM     83  O   UNL     1      -8.787   7.737  -6.013  1.00  0.00    -0.237 OA
ATOM     84  O   UNL     1     -11.144   7.128  -5.635  1.00  0.00    -0.744 OA
ENDBRANCH  80  81
ENDBRANCH  48  73
BRANCH  60  85
ATOM     85  C   UNL     1      -9.877  14.886   2.765  1.00  0.00     0.058 A 
ATOM     86  C   UNL     1     -11.164  15.324   2.412  1.00  0.00     0.135 A 
ATOM     87  C   UNL     1      -8.866  15.857   2.870  1.00  0.00     0.135 A 
ATOM     88  F   UNL     1     -12.168  14.441   2.293  1.00  0.00    -0.206 F 
ATOM     89  C   UNL     1     -11.431  16.665   2.151  1.00  0.00     0.059 A 
ATOM     90  C   UNL     1      -9.117  17.207   2.645  1.00  0.00     0.059 A 
ATOM     91  F   UNL     1      -7.619  15.498   3.217  1.00  0.00    -0.206 F 
ATOM     92  C   UNL     1     -10.402  17.600   2.273  1.00  0.00     0.060 A 
BRANCH  92  93
ATOM     93  S   UNL     1     -10.771  19.340   1.964  1.00  0.00     0.124 S 
ATOM     94  O   UNL     1     -10.944  19.352   0.515  1.00  0.00    -0.237 OA
ATOM     95  O   UNL     1     -11.983  19.546   2.749  1.00  0.00    -0.237 OA
ATOM     96  O   UNL     1      -9.585  20.034   2.459  1.00  0.00    -0.744 OA
ENDBRANCH  92  93
ENDBRANCH  60  85
ENDBRANCH  34  35
ENDBRANCH  27  29
ENDBRANCH  26  27
ENDBRANCH  25  26
ENDBRANCH  24  25
ENDBRANCH  23  24
ENDBRANCH  22  23
ENDBRANCH   1  22
TORSDOF 25
