REMARK SMILES O=C(OCCOCCOCCOC(=O)[C@H]1C=NC2=C(CCCC2)C1=O)c1ccc(-c2c3nc(c(-c4c(F)cc(S(=O)(=O)[O-])cc4F)c4ccc([nH]4)c(-c4c(F)cc(S(=O)(=O)[O-])cc4F)c4nc(c(-c5c(F)cc(S(=O)(=O)[O-])cc5F)c5ccc2[nH]5)C=C4)C=C3)cc1
REMARK SMILES IDX 6 1 5 2 4 3 3 4 2 5 1 6 26 7 27 8 91 9 28 10 90 11 29 12
REMARK SMILES IDX 30 13 31 14 84 15 32 16 89 17 83 18 85 19 33 20 88 21 82 22
REMARK SMILES IDX 81 23 34 25 68 26 47 27 67 28 48 29 51 30 66 31 86 32 49 33
REMARK SMILES IDX 50 34 65 36 87 37 52 38 35 39 36 40 45 41 37 42 38 43 44 44
REMARK SMILES IDX 46 45 39 46 40 47 41 48 42 49 43 50 69 51 70 52 79 53 71 54
REMARK SMILES IDX 72 55 78 56 80 57 73 58 74 59 75 60 76 61 77 62 53 63 54 64
REMARK SMILES IDX 63 65 55 66 56 67 62 68 64 69 57 70 58 71 59 72 60 73 61 74
REMARK SMILES IDX 7 75 8 76 9 77 10 78 11 79 12 80 13 81 14 82 15 83 16 84
REMARK SMILES IDX 24 85 17 86 19 87 25 88 18 89 20 90 23 91 21 92 22 93
REMARK H PARENT 85 24 51 35
REMARK Flexibility Score: inf
ROOT
ATOM      1  O   UNL     1       3.963  -1.411  -0.890  1.00  0.00    -0.376 OA
ENDROOT
BRANCH   1   2
ATOM      2  C   UNL     1       4.913  -1.272   0.172  1.00  0.00     0.202 C 
BRANCH   2   3
ATOM      3  C   UNL     1       4.536  -0.339   1.337  1.00  0.00     0.261 C 
BRANCH   3   4
ATOM      4  O   UNL     1       3.161   0.085   1.361  1.00  0.00    -0.460 OA
BRANCH   4   5
ATOM      5  C   UNL     1       2.578   1.152   0.760  1.00  0.00     0.338 C 
ATOM      6  O   UNL     1       1.397   1.391   1.004  1.00  0.00    -0.246 OA
BRANCH   5   7
ATOM      7  C   UNL     1       3.318   2.062  -0.156  1.00  0.00     0.060 A 
ATOM      8  C   UNL     1       4.340   1.669  -1.018  1.00  0.00     0.016 A 
ATOM      9  C   UNL     1       2.909   3.394  -0.204  1.00  0.00     0.016 A 
ATOM     10  C   UNL     1       5.090   2.585  -1.752  1.00  0.00     0.010 A 
ATOM     11  C   UNL     1       3.581   4.301  -1.028  1.00  0.00     0.010 A 
ATOM     12  C   UNL     1       4.734   3.921  -1.751  1.00  0.00    -0.014 A 
BRANCH  12  13
ATOM     13  C   UNL     1       5.590   4.983  -2.344  1.00  0.00     0.031 A 
ATOM     14  C   UNL     1       5.949   6.120  -1.434  1.00  0.00     0.074 A 
ATOM     15  C   UNL     1       6.022   4.992  -3.624  1.00  0.00     0.049 A 
ATOM     16  N   UNL     1       6.293   7.340  -1.723  1.00  0.00    -0.248 NA
ATOM     17  C   UNL     1       5.904   5.829   0.014  1.00  0.00     0.031 C 
ATOM     18  C   UNL     1       6.003   3.878  -4.571  1.00  0.00     0.029 A 
ATOM     19  N   UNL     1       6.451   6.056  -4.396  1.00  0.00    -0.354 N 
ATOM     20  C   UNL     1       6.542   7.947  -0.500  1.00  0.00     0.074 A 
ATOM     21  C   UNL     1       6.162   7.016   0.536  1.00  0.00     0.031 C 
ATOM     22  C   UNL     1       6.241   4.345  -5.809  1.00  0.00     0.029 A 
ATOM     23  C   UNL     1       6.339   5.788  -5.751  1.00  0.00     0.049 A 
ATOM     24  H   UNL     1       6.795   6.901  -4.028  1.00  0.00     0.167 HD
ATOM     25  C   UNL     1       7.123   9.146  -0.276  1.00  0.00     0.037 A 
ATOM     26  C   UNL     1       6.191   6.628  -6.797  1.00  0.00     0.037 A 
ATOM     27  C   UNL     1       7.502  10.025  -1.345  1.00  0.00     0.049 A 
ATOM     28  C   UNL     1       6.423   8.078  -6.532  1.00  0.00     0.074 A 
ATOM     29  C   UNL     1       8.167  11.232  -1.288  1.00  0.00     0.029 A 
ATOM     30  N   UNL     1       7.225   9.776  -2.683  1.00  0.00    -0.354 N 
ATOM     31  N   UNL     1       6.630   8.675  -5.385  1.00  0.00    -0.248 NA
ATOM     32  C   UNL     1       6.516   8.946  -7.709  1.00  0.00     0.031 C 
ATOM     33  C   UNL     1       8.240  11.741  -2.590  1.00  0.00     0.029 A 
ATOM     34  C   UNL     1       7.673  10.822  -3.462  1.00  0.00     0.049 A 
ATOM     35  H   UNL     1       6.775   8.970  -3.026  1.00  0.00     0.167 HD
ATOM     36  C   UNL     1       7.028   9.959  -5.710  1.00  0.00     0.074 A 
ATOM     37  C   UNL     1       6.910  10.082  -7.152  1.00  0.00     0.031 C 
ATOM     38  C   UNL     1       7.548  10.906  -4.895  1.00  0.00     0.037 A 
BRANCH  25  39
ATOM     39  C   UNL     1       7.384   9.521   1.154  1.00  0.00     0.058 A 
ATOM     40  C   UNL     1       8.292   8.800   1.950  1.00  0.00     0.135 A 
ATOM     41  C   UNL     1       6.679  10.572   1.757  1.00  0.00     0.135 A 
ATOM     42  F   UNL     1       8.979   7.769   1.431  1.00  0.00    -0.206 F 
ATOM     43  C   UNL     1       8.445   9.066   3.306  1.00  0.00     0.059 A 
ATOM     44  C   UNL     1       6.842  10.879   3.105  1.00  0.00     0.059 A 
ATOM     45  F   UNL     1       5.797  11.292   1.046  1.00  0.00    -0.206 F 
ATOM     46  C   UNL     1       7.707  10.103   3.876  1.00  0.00     0.060 A 
BRANCH  46  47
ATOM     47  S   UNL     1       7.881  10.406   5.646  1.00  0.00     0.124 S 
ATOM     48  O   UNL     1       7.177   9.257   6.208  1.00  0.00    -0.237 OA
ATOM     49  O   UNL     1       9.330  10.408   5.822  1.00  0.00    -0.237 OA
ATOM     50  O   UNL     1       7.227  11.697   5.836  1.00  0.00    -0.744 OA
ENDBRANCH  46  47
ENDBRANCH  25  39
BRANCH  26  51
ATOM     51  C   UNL     1       5.736   6.175  -8.145  1.00  0.00     0.058 A 
ATOM     52  C   UNL     1       6.564   5.494  -9.042  1.00  0.00     0.135 A 
ATOM     53  C   UNL     1       4.413   6.427  -8.558  1.00  0.00     0.135 A 
ATOM     54  F   UNL     1       7.853   5.286  -8.735  1.00  0.00    -0.206 F 
ATOM     55  C   UNL     1       6.084   5.017 -10.263  1.00  0.00     0.059 A 
ATOM     56  C   UNL     1       3.897   5.926  -9.750  1.00  0.00     0.059 A 
ATOM     57  F   UNL     1       3.587   7.125  -7.762  1.00  0.00    -0.206 F 
ATOM     58  C   UNL     1       4.742   5.215 -10.597  1.00  0.00     0.060 A 
BRANCH  58  59
ATOM     59  S   UNL     1       4.073   4.468 -12.104  1.00  0.00     0.124 S 
ATOM     60  O   UNL     1       4.355   5.501 -13.093  1.00  0.00    -0.237 OA
ATOM     61  O   UNL     1       4.854   3.241 -12.223  1.00  0.00    -0.237 OA
ATOM     62  O   UNL     1       2.664   4.272 -11.773  1.00  0.00    -0.744 OA
ENDBRANCH  58  59
ENDBRANCH  26  51
BRANCH  38  63
ATOM     63  C   UNL     1       8.170  12.085  -5.566  1.00  0.00     0.058 A 
ATOM     64  C   UNL     1       7.411  13.113  -6.135  1.00  0.00     0.135 A 
ATOM     65  C   UNL     1       9.570  12.193  -5.585  1.00  0.00     0.135 A 
ATOM     66  F   UNL     1       6.072  13.028  -6.170  1.00  0.00    -0.206 F 
ATOM     67  C   UNL     1       8.024  14.222  -6.699  1.00  0.00     0.059 A 
ATOM     68  C   UNL     1      10.202  13.307  -6.111  1.00  0.00     0.059 A 
ATOM     69  F   UNL     1      10.333  11.218  -5.062  1.00  0.00    -0.206 F 
ATOM     70  C   UNL     1       9.419  14.317  -6.666  1.00  0.00     0.060 A 
BRANCH  70  71
ATOM     71  S   UNL     1      10.196  15.809  -7.309  1.00  0.00     0.124 S 
ATOM     72  O   UNL     1      10.041  15.624  -8.748  1.00  0.00    -0.237 OA
ATOM     73  O   UNL     1       9.381  16.862  -6.712  1.00  0.00    -0.237 OA
ATOM     74  O   UNL     1      11.564  15.723  -6.806  1.00  0.00    -0.744 OA
ENDBRANCH  70  71
ENDBRANCH  38  63
ENDBRANCH  12  13
ENDBRANCH   5   7
ENDBRANCH   4   5
ENDBRANCH   3   4
ENDBRANCH   2   3
ENDBRANCH   1   2
BRANCH   1  75
ATOM     75  C   UNL     1       2.680  -1.898  -0.506  1.00  0.00     0.188 C 
BRANCH  75  76
ATOM     76  C   UNL     1       2.015  -2.755  -1.582  1.00  0.00     0.188 C 
BRANCH  76  77
ATOM     77  O   UNL     1       2.688  -3.937  -1.992  1.00  0.00    -0.376 OA
BRANCH  77  78
ATOM     78  C   UNL     1       4.046  -3.800  -2.396  1.00  0.00     0.202 C 
BRANCH  78  79
ATOM     79  C   UNL     1       4.381  -2.974  -3.654  1.00  0.00     0.261 C 
BRANCH  79  80
ATOM     80  O   UNL     1       3.707  -1.712  -3.802  1.00  0.00    -0.462 OA
BRANCH  80  81
ATOM     81  C   UNL     1       2.691  -1.698  -4.708  1.00  0.00     0.322 C 
ATOM     82  O   UNL     1       2.236  -2.705  -5.256  1.00  0.00    -0.251 OA
BRANCH  81  83
ATOM     83  C   UNL     1       2.115  -0.336  -4.932  1.00  0.00     0.212 C 
ATOM     84  C   UNL     1       1.500   0.283  -3.720  1.00  0.00     0.107 C 
ATOM     85  C   UNL     1       3.071   0.601  -5.585  1.00  0.00     0.180 C 
ATOM     86  N   UNL     1       1.453   1.555  -3.474  1.00  0.00    -0.264 NA
ATOM     87  C   UNL     1       2.738   2.038  -5.454  1.00  0.00     0.018 C 
ATOM     88  O   UNL     1       4.028   0.231  -6.255  1.00  0.00    -0.293 OA
ATOM     89  C   UNL     1       1.986   2.413  -4.406  1.00  0.00     0.047 C 
ATOM     90  C   UNL     1       3.229   2.939  -6.529  1.00  0.00     0.041 C 
ATOM     91  C   UNL     1       1.635   3.869  -4.187  1.00  0.00     0.056 C 
ATOM     92  C   UNL     1       2.732   4.372  -6.395  1.00  0.00     0.005 C 
ATOM     93  C   UNL     1       2.507   4.839  -4.969  1.00  0.00     0.007 C 
ENDBRANCH  81  83
ENDBRANCH  80  81
ENDBRANCH  79  80
ENDBRANCH  78  79
ENDBRANCH  77  78
ENDBRANCH  76  77
ENDBRANCH  75  76
ENDBRANCH   1  75
TORSDOF 20
