REMARK SMILES O=C(OCCOCCOCCOC(=O)[C@H]1Cc2c([nH]c3ccccc23)[C@@H](c2ccc(OC(F)(F)F)cc2)[NH2+]1)c1ccc(-c2c3nc(c(-c4c(F)cc(S(=O)(=O)[O-])cc4F)c4ccc([nH]4)c(-c4c(F)cc(S(=O)(=O)[O-])cc4F)c4nc(c(-c5c(F)cc(S(=O)(=O)[O-])cc5F)c5ccc2[nH]5)C=C4)C=C3)cc1
REMARK SMILES IDX 7 1 6 2 5 3 4 4 3 5 2 6 1 7 39 8 40 9 104 10 41 11 103 12
REMARK SMILES IDX 42 13 43 14 44 15 97 16 45 17 102 18 96 19 98 20 46 21
REMARK SMILES IDX 101 22 95 23 94 24 47 26 81 27 60 28 80 29 61 30 64 31 79 32
REMARK SMILES IDX 99 33 62 34 63 35 78 37 100 38 65 39 48 40 49 41 58 42 50 43
REMARK SMILES IDX 51 44 57 45 59 46 52 47 53 48 54 49 55 50 56 51 82 52 83 53
REMARK SMILES IDX 92 54 84 55 85 56 91 57 93 58 86 59 87 60 88 61 89 62 90 63
REMARK SMILES IDX 66 64 67 65 76 66 68 67 69 68 75 69 77 70 70 71 71 72 72 73
REMARK SMILES IDX 73 74 74 75 8 76 9 77 10 78 11 79 12 80 13 81 14 82 15 83
REMARK SMILES IDX 16 84 38 85 17 86 26 87 18 90 25 91 19 92 20 93 24 94 21 96
REMARK SMILES IDX 23 97 22 98 27 99 28 100 37 101 29 102 36 103 30 104 31 105
REMARK SMILES IDX 32 106 33 107 34 108 35 109
REMARK H PARENT 98 25 64 36 38 88 38 89 19 95
REMARK Flexibility Score: inf
ROOT
ATOM      1  C   UNL     1       2.694  -1.822  -0.354  1.00  0.00     0.188 C 
ENDROOT
BRANCH   1   2
ATOM      2  O   UNL     1       4.072  -1.691  -0.676  1.00  0.00    -0.376 OA
BRANCH   2   3
ATOM      3  C   UNL     1       4.980  -1.326   0.363  1.00  0.00     0.202 C 
BRANCH   3   4
ATOM      4  C   UNL     1       4.550  -0.379   1.499  1.00  0.00     0.261 C 
BRANCH   4   5
ATOM      5  O   UNL     1       3.203   0.113   1.469  1.00  0.00    -0.460 OA
BRANCH   5   6
ATOM      6  C   UNL     1       2.651   1.150   0.805  1.00  0.00     0.338 C 
ATOM      7  O   UNL     1       1.468   1.415   1.013  1.00  0.00    -0.246 OA
BRANCH   6   8
ATOM      8  C   UNL     1       3.383   1.974  -0.191  1.00  0.00     0.060 A 
ATOM      9  C   UNL     1       4.322   1.505  -1.114  1.00  0.00     0.016 A 
ATOM     10  C   UNL     1       2.970   3.301  -0.299  1.00  0.00     0.016 A 
ATOM     11  C   UNL     1       4.940   2.355  -2.041  1.00  0.00     0.010 A 
ATOM     12  C   UNL     1       3.519   4.130  -1.276  1.00  0.00     0.010 A 
ATOM     13  C   UNL     1       4.544   3.683  -2.136  1.00  0.00    -0.014 A 
BRANCH  13  14
ATOM     14  C   UNL     1       5.225   4.689  -3.002  1.00  0.00     0.031 A 
ATOM     15  C   UNL     1       5.754   5.902  -2.310  1.00  0.00     0.074 A 
ATOM     16  C   UNL     1       5.316   4.605  -4.345  1.00  0.00     0.049 A 
ATOM     17  N   UNL     1       6.070   7.063  -2.806  1.00  0.00    -0.248 NA
ATOM     18  C   UNL     1       5.909   5.799  -0.847  1.00  0.00     0.031 C 
ATOM     19  C   UNL     1       4.970   3.433  -5.126  1.00  0.00     0.029 A 
ATOM     20  N   UNL     1       5.658   5.536  -5.307  1.00  0.00    -0.354 N 
ATOM     21  C   UNL     1       6.437   7.831  -1.715  1.00  0.00     0.074 A 
ATOM     22  C   UNL     1       6.190   7.048  -0.526  1.00  0.00     0.031 C 
ATOM     23  C   UNL     1       5.003   3.746  -6.429  1.00  0.00     0.029 A 
ATOM     24  C   UNL     1       5.374   5.123  -6.595  1.00  0.00     0.049 A 
ATOM     25  H   UNL     1       6.064   6.408  -5.096  1.00  0.00     0.167 HD
ATOM     26  C   UNL     1       6.990   9.062  -1.720  1.00  0.00     0.037 A 
ATOM     27  C   UNL     1       5.359   5.751  -7.789  1.00  0.00     0.037 A 
ATOM     28  C   UNL     1       7.254   9.786  -2.931  1.00  0.00     0.049 A 
ATOM     29  C   UNL     1       5.815   7.165  -7.778  1.00  0.00     0.074 A 
ATOM     30  C   UNL     1       7.848  11.020  -3.086  1.00  0.00     0.029 A 
ATOM     31  N   UNL     1       6.936   9.325  -4.206  1.00  0.00    -0.354 N 
ATOM     32  N   UNL     1       6.129   7.897  -6.738  1.00  0.00    -0.248 NA
ATOM     33  C   UNL     1       5.979   7.823  -9.074  1.00  0.00     0.031 C 
ATOM     34  C   UNL     1       7.848  11.328  -4.450  1.00  0.00     0.029 A 
ATOM     35  C   UNL     1       7.306  10.260  -5.154  1.00  0.00     0.049 A 
ATOM     36  H   UNL     1       6.509   8.459  -4.404  1.00  0.00     0.167 HD
ATOM     37  C   UNL     1       6.615   9.081  -7.252  1.00  0.00     0.074 A 
ATOM     38  C   UNL     1       6.494   8.987  -8.698  1.00  0.00     0.031 C 
ATOM     39  C   UNL     1       7.160  10.124  -6.584  1.00  0.00     0.037 A 
BRANCH  26  40
ATOM     40  C   UNL     1       7.307   9.651  -0.377  1.00  0.00     0.058 A 
ATOM     41  C   UNL     1       8.276   9.082   0.470  1.00  0.00     0.135 A 
ATOM     42  C   UNL     1       6.548  10.719   0.121  1.00  0.00     0.135 A 
ATOM     43  F   UNL     1       9.007   8.033   0.057  1.00  0.00    -0.206 F 
ATOM     44  C   UNL     1       8.427   9.502   1.787  1.00  0.00     0.059 A 
ATOM     45  C   UNL     1       6.709  11.180   1.423  1.00  0.00     0.059 A 
ATOM     46  F   UNL     1       5.603  11.291  -0.641  1.00  0.00    -0.206 F 
ATOM     47  C   UNL     1       7.627  10.544   2.258  1.00  0.00     0.060 A 
BRANCH  47  48
ATOM     48  S   UNL     1       7.783  11.030   3.988  1.00  0.00     0.124 S 
ATOM     49  O   UNL     1       7.103   9.930   4.662  1.00  0.00    -0.237 OA
ATOM     50  O   UNL     1       9.228  11.089   4.168  1.00  0.00    -0.237 OA
ATOM     51  O   UNL     1       7.094  12.320   4.038  1.00  0.00    -0.744 OA
ENDBRANCH  47  48
ENDBRANCH  26  40
BRANCH  27  52
ATOM     52  C   UNL     1       4.961   5.049  -9.054  1.00  0.00     0.058 A 
ATOM     53  C   UNL     1       5.889   4.332  -9.824  1.00  0.00     0.135 A 
ATOM     54  C   UNL     1       3.630   5.025  -9.499  1.00  0.00     0.135 A 
ATOM     55  F   UNL     1       7.189   4.363  -9.495  1.00  0.00    -0.206 F 
ATOM     56  C   UNL     1       5.506   3.581 -10.941  1.00  0.00     0.059 A 
ATOM     57  C   UNL     1       3.212   4.251 -10.582  1.00  0.00     0.059 A 
ATOM     58  F   UNL     1       2.707   5.779  -8.893  1.00  0.00    -0.206 F 
ATOM     59  C   UNL     1       4.159   3.527 -11.300  1.00  0.00     0.060 A 
BRANCH  59  60
ATOM     60  S   UNL     1       3.623   2.482 -12.678  1.00  0.00     0.124 S 
ATOM     61  O   UNL     1       3.792   3.382 -13.812  1.00  0.00    -0.237 OA
ATOM     62  O   UNL     1       4.547   1.355 -12.616  1.00  0.00    -0.237 OA
ATOM     63  O   UNL     1       2.243   2.163 -12.320  1.00  0.00    -0.744 OA
ENDBRANCH  59  60
ENDBRANCH  27  52
BRANCH  39  64
ATOM     64  C   UNL     1       7.729  11.217  -7.425  1.00  0.00     0.058 A 
ATOM     65  C   UNL     1       6.910  12.159  -8.058  1.00  0.00     0.135 A 
ATOM     66  C   UNL     1       9.121  11.361  -7.515  1.00  0.00     0.135 A 
ATOM     67  F   UNL     1       5.574  12.035  -8.016  1.00  0.00    -0.206 F 
ATOM     68  C   UNL     1       7.459  13.228  -8.749  1.00  0.00     0.059 A 
ATOM     69  C   UNL     1       9.691  12.438  -8.174  1.00  0.00     0.059 A 
ATOM     70  F   UNL     1       9.935  10.470  -6.926  1.00  0.00    -0.206 F 
ATOM     71  C   UNL     1       8.850  13.368  -8.785  1.00  0.00     0.060 A 
BRANCH  71  72
ATOM     72  S   UNL     1       9.544  14.823  -9.588  1.00  0.00     0.124 S 
ATOM     73  O   UNL     1       9.334  14.507 -10.996  1.00  0.00    -0.237 OA
ATOM     74  O   UNL     1       8.717  15.897  -9.046  1.00  0.00    -0.237 OA
ATOM     75  O   UNL     1      10.934  14.824  -9.143  1.00  0.00    -0.744 OA
ENDBRANCH  71  72
ENDBRANCH  39  64
ENDBRANCH  13  14
ENDBRANCH   6   8
ENDBRANCH   5   6
ENDBRANCH   4   5
ENDBRANCH   3   4
ENDBRANCH   2   3
ENDBRANCH   1   2
BRANCH   1  76
ATOM     76  C   UNL     1       1.876  -2.701  -1.301  1.00  0.00     0.188 C 
BRANCH  76  77
ATOM     77  O   UNL     1       2.379  -3.983  -1.642  1.00  0.00    -0.376 OA
BRANCH  77  78
ATOM     78  C   UNL     1       3.733  -4.072  -2.063  1.00  0.00     0.202 C 
BRANCH  78  79
ATOM     79  C   UNL     1       4.223  -3.264  -3.280  1.00  0.00     0.261 C 
BRANCH  79  80
ATOM     80  O   UNL     1       3.556  -2.032  -3.578  1.00  0.00    -0.459 OA
BRANCH  80  81
ATOM     81  C   UNL     1       2.503  -2.163  -4.434  1.00  0.00     0.365 C 
ATOM     82  O   UNL     1       2.006  -3.240  -4.757  1.00  0.00    -0.245 OA
BRANCH  81  83
ATOM     83  C   UNL     1       2.120  -0.857  -5.133  1.00  0.00     0.298 C 
ATOM     84  C   UNL     1       2.343   0.428  -4.304  1.00  0.00     0.115 C 
ATOM     85  N   UNL     1       2.885  -0.889  -6.389  1.00  0.00    -0.323 N 
ATOM     86  C   UNL     1       2.109   1.605  -5.194  1.00  0.00    -0.006 A 
ATOM     87  C   UNL     1       2.749   0.245  -7.304  1.00  0.00     0.262 C 
ATOM     88  H   UNL     1       2.599  -1.726  -6.898  1.00  0.00     0.347 HD
ATOM     89  H   UNL     1       3.861  -0.863  -6.095  1.00  0.00     0.347 HD
ATOM     90  C   UNL     1       2.357   1.500  -6.556  1.00  0.00     0.083 A 
ATOM     91  C   UNL     1       1.726   2.949  -4.907  1.00  0.00     0.003 A 
ATOM     92  N   UNL     1       2.045   2.720  -7.114  1.00  0.00    -0.353 N 
ATOM     93  C   UNL     1       1.768   3.643  -6.117  1.00  0.00     0.046 A 
ATOM     94  C   UNL     1       1.419   3.673  -3.735  1.00  0.00     0.010 A 
ATOM     95  H   UNL     1       2.021   2.909  -8.080  1.00  0.00     0.166 HD
ATOM     96  C   UNL     1       1.611   5.038  -6.174  1.00  0.00     0.026 A 
ATOM     97  C   UNL     1       1.321   5.073  -3.780  1.00  0.00     0.001 A 
ATOM     98  C   UNL     1       1.451   5.748  -4.983  1.00  0.00     0.002 A 
BRANCH  87  99
ATOM     99  C   UNL     1       4.054   0.233  -8.100  1.00  0.00     0.016 A 
ATOM    100  C   UNL     1       5.262   0.732  -7.601  1.00  0.00     0.014 A 
ATOM    101  C   UNL     1       4.128  -0.499  -9.296  1.00  0.00     0.014 A 
ATOM    102  C   UNL     1       6.441   0.700  -8.355  1.00  0.00     0.047 A 
ATOM    103  C   UNL     1       5.332  -0.628 -10.009  1.00  0.00     0.047 A 
ATOM    104  C   UNL     1       6.485   0.007  -9.560  1.00  0.00     0.129 A 
BRANCH 104 105
ATOM    105  O   UNL     1       7.670   0.069 -10.232  1.00  0.00    -0.406 OA
BRANCH 105 106
ATOM    106  C   UNL     1       8.086  -1.119 -10.880  1.00  0.00     0.573 C 
ATOM    107  F   UNL     1       8.145  -2.154 -10.009  1.00  0.00    -0.132 F 
ATOM    108  F   UNL     1       7.297  -1.458 -11.920  1.00  0.00    -0.132 F 
ATOM    109  F   UNL     1       9.340  -0.930 -11.362  1.00  0.00    -0.132 F 
ENDBRANCH 105 106
ENDBRANCH 104 105
ENDBRANCH  87  99
ENDBRANCH  81  83
ENDBRANCH  80  81
ENDBRANCH  79  80
ENDBRANCH  78  79
ENDBRANCH  77  78
ENDBRANCH  76  77
ENDBRANCH   1  76
TORSDOF 23
