REMARK SMILES O=C(OCCOCCOCCOC(=O)[C@@H]1CC=CC[C@H]1C(=O)N1CC[NH+](Cc2ccc3c(c2)OCO3)CC1)c1ccc(-c2c3nc(c(-c4c(F)cc(S(=O)(=O)[O-])cc4F)c4ccc([nH]4)c(-c4c(F)cc(S(=O)(=O)[O-])cc4F)c4nc(c(-c5c(F)cc(S(=O)(=O)[O-])cc5F)c5ccc2[nH]5)C=C4)C=C3)cc1
REMARK SMILES IDX 7 1 6 2 5 3 4 4 3 5 2 6 1 7 39 8 40 9 104 10 41 11 103 12
REMARK SMILES IDX 42 13 43 14 44 15 97 16 45 17 102 18 96 19 98 20 46 21
REMARK SMILES IDX 101 22 95 23 94 24 47 26 81 27 60 28 80 29 61 30 64 31 79 32
REMARK SMILES IDX 99 33 62 34 63 35 78 37 100 38 65 39 48 40 49 41 58 42 50 43
REMARK SMILES IDX 51 44 57 45 59 46 52 47 53 48 54 49 55 50 56 51 82 52 83 53
REMARK SMILES IDX 92 54 84 55 85 56 91 57 93 58 86 59 87 60 88 61 89 62 90 63
REMARK SMILES IDX 66 64 67 65 76 66 68 67 69 68 75 69 77 70 70 71 71 72 72 73
REMARK SMILES IDX 73 74 74 75 8 76 9 77 10 78 11 79 12 80 13 81 14 82 15 83
REMARK SMILES IDX 16 84 20 85 17 86 19 87 18 88 21 89 22 90 23 91 24 92 38 93
REMARK SMILES IDX 25 94 37 95 26 96 27 98 28 99 29 100 33 101 30 102 32 103
REMARK SMILES IDX 31 104 34 105 36 106 35 107
REMARK H PARENT 98 25 64 36 26 97
REMARK Flexibility Score: inf
ROOT
ATOM      1  C   UNL     1       1.595  -0.945   1.496  1.00  0.00     0.188 C 
ENDROOT
BRANCH   1   2
ATOM      2  O   UNL     1       0.176  -1.046   1.622  1.00  0.00    -0.376 OA
BRANCH   2   3
ATOM      3  C   UNL     1      -0.504  -1.656   0.531  1.00  0.00     0.202 C 
BRANCH   3   4
ATOM      4  C   UNL     1      -0.863  -0.741  -0.642  1.00  0.00     0.261 C 
BRANCH   4   5
ATOM      5  O   UNL     1       0.148   0.195  -0.972  1.00  0.00    -0.460 OA
BRANCH   5   6
ATOM      6  C   UNL     1       0.529   1.194  -0.142  1.00  0.00     0.338 C 
ATOM      7  O   UNL     1       1.709   1.550  -0.218  1.00  0.00    -0.246 OA
BRANCH   6   8
ATOM      8  C   UNL     1      -0.438   1.935   0.755  1.00  0.00     0.060 A 
ATOM      9  C   UNL     1      -1.668   1.600   1.326  1.00  0.00     0.016 A 
ATOM     10  C   UNL     1       0.050   3.176   1.104  1.00  0.00     0.016 A 
ATOM     11  C   UNL     1      -2.370   2.512   2.165  1.00  0.00     0.010 A 
ATOM     12  C   UNL     1      -0.631   4.088   1.890  1.00  0.00     0.010 A 
ATOM     13  C   UNL     1      -1.852   3.777   2.447  1.00  0.00    -0.014 A 
BRANCH  13  14
ATOM     14  C   UNL     1      -2.379   4.782   3.405  1.00  0.00     0.031 A 
ATOM     15  C   UNL     1      -2.791   6.161   2.947  1.00  0.00     0.074 A 
ATOM     16  C   UNL     1      -2.130   4.592   4.712  1.00  0.00     0.049 A 
ATOM     17  N   UNL     1      -3.204   7.209   3.610  1.00  0.00    -0.248 NA
ATOM     18  C   UNL     1      -2.651   6.408   1.514  1.00  0.00     0.031 C 
ATOM     19  C   UNL     1      -1.478   3.417   5.293  1.00  0.00     0.029 A 
ATOM     20  N   UNL     1      -2.313   5.434   5.771  1.00  0.00    -0.354 N 
ATOM     21  C   UNL     1      -3.460   8.182   2.642  1.00  0.00     0.074 A 
ATOM     22  C   UNL     1      -2.939   7.698   1.394  1.00  0.00     0.031 C 
ATOM     23  C   UNL     1      -1.265   3.638   6.601  1.00  0.00     0.029 A 
ATOM     24  C   UNL     1      -1.808   4.945   6.947  1.00  0.00     0.049 A 
ATOM     25  H   UNL     1      -2.763   6.306   5.697  1.00  0.00     0.167 HD
ATOM     26  C   UNL     1      -4.194   9.317   2.759  1.00  0.00     0.037 A 
ATOM     27  C   UNL     1      -1.824   5.496   8.171  1.00  0.00     0.037 A 
ATOM     28  C   UNL     1      -4.660   9.782   4.032  1.00  0.00     0.049 A 
ATOM     29  C   UNL     1      -2.629   6.754   8.356  1.00  0.00     0.074 A 
ATOM     30  C   UNL     1      -5.489  10.841   4.344  1.00  0.00     0.029 A 
ATOM     31  N   UNL     1      -4.293   9.185   5.228  1.00  0.00    -0.354 N 
ATOM     32  N   UNL     1      -3.151   7.544   7.444  1.00  0.00    -0.248 NA
ATOM     33  C   UNL     1      -2.932   7.141   9.736  1.00  0.00     0.031 C 
ATOM     34  C   UNL     1      -5.583  10.907   5.742  1.00  0.00     0.029 A 
ATOM     35  C   UNL     1      -4.850   9.861   6.288  1.00  0.00     0.049 A 
ATOM     36  H   UNL     1      -3.716   8.391   5.308  1.00  0.00     0.167 HD
ATOM     37  C   UNL     1      -3.908   8.479   8.140  1.00  0.00     0.074 A 
ATOM     38  C   UNL     1      -3.758   8.161   9.548  1.00  0.00     0.031 C 
ATOM     39  C   UNL     1      -4.677   9.494   7.669  1.00  0.00     0.037 A 
BRANCH  26  40
ATOM     40  C   UNL     1      -4.618  10.005   1.486  1.00  0.00     0.058 A 
ATOM     41  C   UNL     1      -5.462   9.340   0.573  1.00  0.00     0.135 A 
ATOM     42  C   UNL     1      -4.214  11.306   1.156  1.00  0.00     0.135 A 
ATOM     43  F   UNL     1      -5.884   8.091   0.827  1.00  0.00    -0.206 F 
ATOM     44  C   UNL     1      -5.848   9.917  -0.632  1.00  0.00     0.059 A 
ATOM     45  C   UNL     1      -4.612  11.916  -0.036  1.00  0.00     0.059 A 
ATOM     46  F   UNL     1      -3.413  11.996   1.982  1.00  0.00    -0.206 F 
ATOM     47  C   UNL     1      -5.416  11.208  -0.930  1.00  0.00     0.060 A 
BRANCH  47  48
ATOM     48  S   UNL     1      -5.937  11.934  -2.500  1.00  0.00     0.124 S 
ATOM     49  O   UNL     1      -5.171  11.146  -3.458  1.00  0.00    -0.237 OA
ATOM     50  O   UNL     1      -7.375  11.700  -2.490  1.00  0.00    -0.237 OA
ATOM     51  O   UNL     1      -5.531  13.335  -2.376  1.00  0.00    -0.744 OA
ENDBRANCH  47  48
ENDBRANCH  26  40
BRANCH  27  52
ATOM     52  C   UNL     1      -1.203   4.776   9.307  1.00  0.00     0.058 A 
ATOM     53  C   UNL     1      -1.991   4.070  10.227  1.00  0.00     0.135 A 
ATOM     54  C   UNL     1       0.190   4.742   9.472  1.00  0.00     0.135 A 
ATOM     55  F   UNL     1      -3.325   4.046  10.087  1.00  0.00    -0.206 F 
ATOM     56  C   UNL     1      -1.426   3.405  11.308  1.00  0.00     0.059 A 
ATOM     57  C   UNL     1       0.781   4.067  10.536  1.00  0.00     0.059 A 
ATOM     58  F   UNL     1       0.989   5.354   8.583  1.00  0.00    -0.206 F 
ATOM     59  C   UNL     1      -0.039   3.419  11.460  1.00  0.00     0.060 A 
BRANCH  59  60
ATOM     60  S   UNL     1       0.673   2.572  12.886  1.00  0.00     0.124 S 
ATOM     61  O   UNL     1       0.206   3.409  13.986  1.00  0.00    -0.237 OA
ATOM     62  O   UNL     1       0.065   1.249  12.787  1.00  0.00    -0.237 OA
ATOM     63  O   UNL     1       2.108   2.620  12.624  1.00  0.00    -0.744 OA
ENDBRANCH  59  60
ENDBRANCH  27  52
BRANCH  39  64
ATOM     64  C   UNL     1      -5.445  10.288   8.678  1.00  0.00     0.058 A 
ATOM     65  C   UNL     1      -4.807  11.189   9.541  1.00  0.00     0.135 A 
ATOM     66  C   UNL     1      -6.843  10.181   8.735  1.00  0.00     0.135 A 
ATOM     67  F   UNL     1      -3.471  11.319   9.519  1.00  0.00    -0.206 F 
ATOM     68  C   UNL     1      -5.531  11.937  10.457  1.00  0.00     0.059 A 
ATOM     69  C   UNL     1      -7.590  10.946   9.619  1.00  0.00     0.059 A 
ATOM     70  F   UNL     1      -7.495   9.342   7.914  1.00  0.00    -0.206 F 
ATOM     71  C   UNL     1      -6.922  11.809  10.487  1.00  0.00     0.060 A 
BRANCH  71  72
ATOM     72  S   UNL     1      -7.852  12.810  11.662  1.00  0.00     0.124 S 
ATOM     73  O   UNL     1      -7.582  12.112  12.915  1.00  0.00    -0.237 OA
ATOM     74  O   UNL     1      -7.227  14.121  11.518  1.00  0.00    -0.237 OA
ATOM     75  O   UNL     1      -9.224  12.719  11.172  1.00  0.00    -0.744 OA
ENDBRANCH  71  72
ENDBRANCH  39  64
ENDBRANCH  13  14
ENDBRANCH   6   8
ENDBRANCH   5   6
ENDBRANCH   4   5
ENDBRANCH   3   4
ENDBRANCH   2   3
ENDBRANCH   1   2
BRANCH   1  76
ATOM     76  C   UNL     1       2.498  -2.067   2.025  1.00  0.00     0.188 C 
BRANCH  76  77
ATOM     77  O   UNL     1       1.981  -3.275   2.547  1.00  0.00    -0.376 OA
BRANCH  77  78
ATOM     78  C   UNL     1       0.742  -3.257   3.228  1.00  0.00     0.202 C 
BRANCH  78  79
ATOM     79  C   UNL     1       0.522  -2.339   4.445  1.00  0.00     0.261 C 
BRANCH  79  80
ATOM     80  O   UNL     1       1.168  -1.047   4.433  1.00  0.00    -0.463 OA
BRANCH  80  81
ATOM     81  C   UNL     1       2.282  -0.956   5.208  1.00  0.00     0.310 C 
ATOM     82  O   UNL     1       2.743  -1.931   5.797  1.00  0.00    -0.252 OA
BRANCH  81  83
ATOM     83  C   UNL     1       3.003   0.415   5.135  1.00  0.00     0.115 C 
ATOM     84  C   UNL     1       4.283   0.264   5.990  1.00  0.00     0.043 C 
ATOM     85  C   UNL     1       2.133   1.674   5.442  1.00  0.00     0.097 C 
ATOM     86  C   UNL     1       4.760   1.455   6.740  1.00  0.00    -0.030 C 
ATOM     87  C   UNL     1       2.561   2.606   6.581  1.00  0.00     0.041 C 
ATOM     88  C   UNL     1       3.980   2.500   7.022  1.00  0.00    -0.030 C 
BRANCH  85  89
ATOM     89  C   UNL     1       1.833   2.436   4.132  1.00  0.00     0.227 C 
ATOM     90  O   UNL     1       0.963   1.942   3.411  1.00  0.00    -0.275 OA
ATOM     91  N   UNL     1       2.639   3.494   3.676  1.00  0.00    -0.331 N 
ATOM     92  C   UNL     1       2.094   4.877   3.748  1.00  0.00     0.181 C 
ATOM     93  C   UNL     1       3.485   3.183   2.514  1.00  0.00     0.181 C 
ATOM     94  C   UNL     1       2.239   5.813   2.473  1.00  0.00     0.284 C 
ATOM     95  C   UNL     1       3.632   4.255   1.392  1.00  0.00     0.284 C 
ATOM     96  N   UNL     1       2.427   5.069   1.219  1.00  0.00    -0.328 N 
ATOM     97  H   UNL     1       1.602   4.483   1.089  1.00  0.00     0.348 HD
BRANCH  96  98
ATOM     98  C   UNL     1       2.275   5.766  -0.084  1.00  0.00     0.299 C 
BRANCH  98  99
ATOM     99  C   UNL     1       1.087   5.274  -0.964  1.00  0.00     0.010 A 
ATOM    100  C   UNL     1      -0.180   5.898  -0.861  1.00  0.00     0.013 A 
ATOM    101  C   UNL     1       1.169   4.132  -1.801  1.00  0.00     0.060 A 
ATOM    102  C   UNL     1      -1.340   5.336  -1.438  1.00  0.00     0.051 A 
ATOM    103  C   UNL     1      -0.004   3.578  -2.326  1.00  0.00     0.166 A 
ATOM    104  C   UNL     1      -1.232   4.139  -2.097  1.00  0.00     0.165 A 
ATOM    105  O   UNL     1      -0.122   2.404  -3.016  1.00  0.00    -0.454 OA
ATOM    106  O   UNL     1      -2.270   3.375  -2.530  1.00  0.00    -0.454 OA
ATOM    107  C   UNL     1      -1.560   2.249  -3.072  1.00  0.00     0.468 C 
ENDBRANCH  98  99
ENDBRANCH  96  98
ENDBRANCH  85  89
ENDBRANCH  81  83
ENDBRANCH  80  81
ENDBRANCH  79  80
ENDBRANCH  78  79
ENDBRANCH  77  78
ENDBRANCH  76  77
ENDBRANCH   1  76
TORSDOF 23
