REMARK SMILES Cc1cccc(NC(=O)[C@H]2CCCCC[C@@H]2[NH3+])c1C(=O)OCCOCCOCCOC(=O)c1ccc(-c2c3nc(c(-c4c(F)cc(S(=O)(=O)[O-])cc4F)c4ccc([nH]4)c(-c4c(F)cc(S(=O)(=O)[O-])cc4F)c4nc(c(-c5c(F)cc(S(=O)(=O)[O-])cc5F)c5ccc2[nH]5)C=C4)C=C3)cc1
REMARK SMILES IDX 24 1 23 2 22 3 21 4 19 5 20 6 18 7 1 8 2 9 3 10 4 11 6 12
REMARK SMILES IDX 5 13 7 14 8 15 9 17 10 18 11 19 12 20 13 21 14 22 16 24
REMARK SMILES IDX 15 25 17 27 25 31 26 32 27 33 28 34 29 35 30 36 31 37 32 38
REMARK SMILES IDX 33 39 34 40 98 41 35 42 97 43 36 44 37 45 38 46 91 47 39 48
REMARK SMILES IDX 96 49 90 50 92 51 40 52 95 53 89 54 88 55 41 57 75 58 54 59
REMARK SMILES IDX 74 60 55 61 58 62 73 63 93 64 56 65 57 66 72 68 94 69 59 70
REMARK SMILES IDX 42 71 43 72 52 73 44 74 45 75 51 76 53 77 46 78 47 79 48 80
REMARK SMILES IDX 49 81 50 82 76 83 77 84 86 85 78 86 79 87 85 88 87 89 80 90
REMARK SMILES IDX 81 91 82 92 83 93 84 94 60 95 61 96 70 97 62 98 63 99 69 100
REMARK SMILES IDX 71 101 64 102 65 103 66 104 67 105 68 106
REMARK H PARENT 7 16 17 28 17 29 17 30 92 56 58 67
REMARK Flexibility Score: 90.00
ROOT
ATOM      1  O   UNL     1      -8.944   5.262   5.851  1.00  0.00    -0.376 OA
ENDROOT
BRANCH   1   2
ATOM      2  C   UNL     1      -8.844   6.577   5.257  1.00  0.00     0.202 C 
BRANCH   2   3
ATOM      3  C   UNL     1      -7.616   7.232   4.164  1.00  0.00     0.261 C 
BRANCH   3   4
ATOM      4  O   UNL     1      -7.038   6.771   2.613  1.00  0.00    -0.460 OA
BRANCH   4   5
ATOM      5  C   UNL     1      -6.029   5.912   2.013  1.00  0.00     0.340 C 
ATOM      6  O   UNL     1      -5.207   5.215   2.614  1.00  0.00    -0.246 OA
BRANCH   5   7
ATOM      7  C   UNL     1      -5.639   5.802   0.580  1.00  0.00     0.086 A 
ATOM      8  C   UNL     1      -6.336   8.236   0.292  1.00  0.00     0.045 C 
ATOM      9  C   UNL     1      -5.728   6.958  -0.208  1.00  0.00    -0.034 A 
ATOM     10  C   UNL     1      -5.064   6.971  -1.443  1.00  0.00     0.004 A 
ATOM     11  C   UNL     1      -4.330   5.875  -1.897  1.00  0.00     0.002 A 
ATOM     12  C   UNL     1      -4.848   4.635   0.108  1.00  0.00     0.056 A 
ATOM     13  C   UNL     1      -4.226   4.720  -1.132  1.00  0.00     0.027 A 
BRANCH  12  14
ATOM     14  N   UNL     1      -4.526   3.504   0.945  1.00  0.00    -0.325 N 
ATOM     15  C   UNL     1      -3.920   2.271   0.811  1.00  0.00     0.233 C 
ATOM     16  H   UNL     1      -4.820   3.655   1.872  1.00  0.00     0.169 HD
ATOM     17  O   UNL     1      -3.467   1.770   1.849  1.00  0.00    -0.274 OA
BRANCH  15  18
ATOM     18  C   UNL     1      -3.696   1.492  -0.509  1.00  0.00     0.137 C 
BRANCH  18  19
ATOM     19  C   UNL     1      -2.992   0.104  -0.311  1.00  0.00     0.020 C 
BRANCH  19  20
ATOM     20  C   UNL     1      -3.817  -1.040   0.293  1.00  0.00     0.001 C 
BRANCH  20  21
ATOM     21  C   UNL     1      -4.589  -1.885  -0.717  1.00  0.00     0.000 C 
BRANCH  21  22
ATOM     22  C   UNL     1      -5.331  -1.107  -1.793  1.00  0.00     0.006 CG0
ATOM     23  G   UNL     1      -5.879   0.241  -1.322  1.00  0.00     0.000 G0
ENDBRANCH  21  22
ENDBRANCH  20  21
ENDBRANCH  19  20
ENDBRANCH  18  19
BRANCH  18  24
ATOM     24  C   UNL     1      -4.929   1.451  -1.434  1.00  0.00     0.193 C 
BRANCH  24  25
ATOM     25  C   UNL     1      -5.879   0.241  -1.322  1.00  0.00     0.066 CG0
ATOM     26  G   UNL     1      -5.331  -1.107  -1.793  1.00  0.00     0.000 G0
ENDBRANCH  24  25
BRANCH  24  27
ATOM     27  N   UNL     1      -4.471   1.605  -2.835  1.00  0.00    -0.354 N 
ATOM     28  H   UNL     1      -3.897   0.804  -3.095  1.00  0.00     0.344 HD
ATOM     29  H   UNL     1      -3.921   2.460  -2.921  1.00  0.00     0.344 HD
ATOM     30  H   UNL     1      -5.281   1.658  -3.453  1.00  0.00     0.344 HD
ENDBRANCH  24  27
ENDBRANCH  18  24
ENDBRANCH  15  18
ENDBRANCH  12  14
ENDBRANCH   5   7
ENDBRANCH   4   5
ENDBRANCH   3   4
ENDBRANCH   2   3
ENDBRANCH   1   2
BRANCH   1  31
ATOM     31  C   UNL     1      -9.770   4.146   5.439  1.00  0.00     0.188 C 
BRANCH  31  32
ATOM     32  C   UNL     1     -11.149   4.218   4.756  1.00  0.00     0.188 C 
BRANCH  32  33
ATOM     33  O   UNL     1     -11.269   5.295   3.839  1.00  0.00    -0.376 OA
BRANCH  33  34
ATOM     34  C   UNL     1     -12.422   5.243   2.998  1.00  0.00     0.202 C 
BRANCH  34  35
ATOM     35  C   UNL     1     -12.436   4.148   1.893  1.00  0.00     0.261 C 
BRANCH  35  36
ATOM     36  O   UNL     1     -11.551   4.398   0.762  1.00  0.00    -0.460 OA
BRANCH  36  37
ATOM     37  C   UNL     1     -10.582   3.459   0.435  1.00  0.00     0.338 C 
ATOM     38  O   UNL     1     -10.652   2.794  -0.591  1.00  0.00    -0.246 OA
BRANCH  37  39
ATOM     39  C   UNL     1      -9.350   3.590   1.277  1.00  0.00     0.060 A 
ATOM     40  C   UNL     1      -8.275   2.724   1.528  1.00  0.00     0.016 A 
ATOM     41  C   UNL     1      -9.269   4.761   1.928  1.00  0.00     0.016 A 
ATOM     42  C   UNL     1      -7.259   2.991   2.572  1.00  0.00     0.010 A 
ATOM     43  C   UNL     1      -8.410   4.853   3.011  1.00  0.00     0.010 A 
ATOM     44  C   UNL     1      -7.308   4.094   3.427  1.00  0.00    -0.014 A 
BRANCH  44  45
ATOM     45  C   UNL     1      -6.339   4.540   4.704  1.00  0.00     0.031 A 
ATOM     46  C   UNL     1      -5.193   5.812   4.967  1.00  0.00     0.074 A 
ATOM     47  C   UNL     1      -6.478   3.754   5.797  1.00  0.00     0.049 A 
ATOM     48  N   UNL     1      -4.444   5.903   6.051  1.00  0.00    -0.248 NA
ATOM     49  C   UNL     1      -4.775   7.009   4.123  1.00  0.00     0.031 C 
ATOM     50  C   UNL     1      -6.035   4.005   7.167  1.00  0.00     0.029 A 
ATOM     51  N   UNL     1      -6.963   2.442   5.847  1.00  0.00    -0.354 N 
ATOM     52  C   UNL     1      -3.757   7.120   6.070  1.00  0.00     0.074 A 
ATOM     53  C   UNL     1      -3.878   7.698   4.800  1.00  0.00     0.031 C 
ATOM     54  C   UNL     1      -5.951   2.837   7.817  1.00  0.00     0.029 A 
ATOM     55  C   UNL     1      -6.233   1.791   6.857  1.00  0.00     0.049 A 
ATOM     56  H   UNL     1      -7.673   2.053   5.287  1.00  0.00     0.167 HD
ATOM     57  C   UNL     1      -3.138   7.648   7.155  1.00  0.00     0.037 A 
ATOM     58  C   UNL     1      -5.423   0.745   6.542  1.00  0.00     0.037 A 
ATOM     59  C   UNL     1      -2.744   6.568   8.021  1.00  0.00     0.049 A 
ATOM     60  C   UNL     1      -3.954   1.031   6.820  1.00  0.00     0.074 A 
ATOM     61  C   UNL     1      -3.270   6.007   9.163  1.00  0.00     0.029 A 
ATOM     62  N   UNL     1      -1.870   5.629   7.478  1.00  0.00    -0.354 N 
ATOM     63  N   UNL     1      -3.483   2.145   7.326  1.00  0.00    -0.248 NA
ATOM     64  C   UNL     1      -2.891   0.068   6.549  1.00  0.00     0.031 C 
ATOM     65  C   UNL     1      -2.860   4.638   9.177  1.00  0.00     0.029 A 
ATOM     66  C   UNL     1      -2.026   4.401   8.092  1.00  0.00     0.049 A 
ATOM     67  H   UNL     1      -1.229   5.815   6.755  1.00  0.00     0.167 HD
ATOM     68  C   UNL     1      -2.109   2.127   7.293  1.00  0.00     0.074 A 
ATOM     69  C   UNL     1      -1.796   0.768   6.891  1.00  0.00     0.031 C 
ATOM     70  C   UNL     1      -1.335   3.232   7.541  1.00  0.00     0.037 A 
BRANCH  57  71
ATOM     71  C   UNL     1      -2.938   9.153   7.352  1.00  0.00     0.058 A 
ATOM     72  C   UNL     1      -2.099   9.669   8.357  1.00  0.00     0.135 A 
ATOM     73  C   UNL     1      -3.673  10.151   6.649  1.00  0.00     0.135 A 
ATOM     74  F   UNL     1      -1.400   8.843   9.148  1.00  0.00    -0.206 F 
ATOM     75  C   UNL     1      -1.979  11.050   8.621  1.00  0.00     0.059 A 
ATOM     76  C   UNL     1      -3.518  11.527   6.844  1.00  0.00     0.059 A 
ATOM     77  F   UNL     1      -4.646   9.839   5.779  1.00  0.00    -0.206 F 
ATOM     78  C   UNL     1      -2.689  11.973   7.856  1.00  0.00     0.060 A 
BRANCH  78  79
ATOM     79  S   UNL     1      -2.588  13.744   8.211  1.00  0.00     0.124 S 
ATOM     80  O   UNL     1      -3.414  13.856   9.409  1.00  0.00    -0.237 OA
ATOM     81  O   UNL     1      -1.157  13.954   8.402  1.00  0.00    -0.237 OA
ATOM     82  O   UNL     1      -3.148  14.365   7.012  1.00  0.00    -0.744 OA
ENDBRANCH  78  79
ENDBRANCH  57  71
BRANCH  58  83
ATOM     83  C   UNL     1      -6.023  -0.104   5.458  1.00  0.00     0.058 A 
ATOM     84  C   UNL     1      -7.227  -0.786   5.734  1.00  0.00     0.135 A 
ATOM     85  C   UNL     1      -5.732   0.110   4.109  1.00  0.00     0.135 A 
ATOM     86  F   UNL     1      -7.576  -1.030   7.007  1.00  0.00    -0.206 F 
ATOM     87  C   UNL     1      -8.159  -1.098   4.739  1.00  0.00     0.059 A 
ATOM     88  C   UNL     1      -6.639  -0.221   3.088  1.00  0.00     0.059 A 
ATOM     89  F   UNL     1      -4.638   0.804   3.787  1.00  0.00    -0.206 F 
ATOM     90  C   UNL     1      -7.883  -0.751   3.422  1.00  0.00     0.060 A 
BRANCH  90  91
ATOM     91  S   UNL     1      -9.228  -0.848   2.209  1.00  0.00     0.124 S 
ATOM     92  O   UNL     1      -9.695  -2.221   2.370  1.00  0.00    -0.237 OA
ATOM     93  O   UNL     1     -10.141   0.188   2.691  1.00  0.00    -0.237 OA
ATOM     94  O   UNL     1      -8.567  -0.562   0.941  1.00  0.00    -0.744 OA
ENDBRANCH  90  91
ENDBRANCH  58  83
BRANCH  70  95
ATOM     95  C   UNL     1       0.166   3.311   7.287  1.00  0.00     0.058 A 
ATOM     96  C   UNL     1       0.853   2.567   6.309  1.00  0.00     0.135 A 
ATOM     97  C   UNL     1       0.960   4.261   7.978  1.00  0.00     0.135 A 
ATOM     98  F   UNL     1       0.206   1.740   5.476  1.00  0.00    -0.206 F 
ATOM     99  C   UNL     1       2.235   2.665   6.115  1.00  0.00     0.059 A 
ATOM    100  C   UNL     1       2.325   4.430   7.746  1.00  0.00     0.059 A 
ATOM    101  F   UNL     1       0.429   5.071   8.907  1.00  0.00    -0.206 F 
ATOM    102  C   UNL     1       2.966   3.591   6.848  1.00  0.00     0.060 A 
BRANCH 102 103
ATOM    103  S   UNL     1       4.751   3.723   6.635  1.00  0.00     0.124 S 
ATOM    104  O   UNL     1       5.236   2.927   7.758  1.00  0.00    -0.237 OA
ATOM    105  O   UNL     1       4.975   3.143   5.314  1.00  0.00    -0.237 OA
ATOM    106  O   UNL     1       4.987   5.160   6.729  1.00  0.00    -0.744 OA
ENDBRANCH 102 103
ENDBRANCH  70  95
ENDBRANCH  44  45
ENDBRANCH  37  39
ENDBRANCH  36  37
ENDBRANCH  35  36
ENDBRANCH  34  35
ENDBRANCH  33  34
ENDBRANCH  32  33
ENDBRANCH  31  32
ENDBRANCH   1  31
TORSDOF 23
