REMARK SMILES O=C(OCCOCCOCCOC(=O)[C@H]1CC2(CC[NH+](C(=O)c3cccc(O)c3)CC2)CN1C(=O)C1CC1)c1ccc(-c2c3nc(c(-c4c(F)cc(S(=O)(=O)[O-])cc4F)c4ccc([nH]4)c(-c4c(F)cc(S(=O)(=O)[O-])cc4F)c4nc(c(-c5c(F)cc(S(=O)(=O)[O-])cc5F)c5ccc2[nH]5)C=C4)C=C3)cc1
REMARK SMILES IDX 7 1 6 2 5 3 4 4 3 5 2 6 1 7 39 8 40 9 104 10 41 11 103 12
REMARK SMILES IDX 42 13 43 14 44 15 97 16 45 17 102 18 96 19 98 20 46 21
REMARK SMILES IDX 101 22 95 23 94 24 47 26 81 27 60 28 80 29 61 30 64 31 79 32
REMARK SMILES IDX 99 33 62 34 63 35 78 37 100 38 65 39 48 40 49 41 58 42 50 43
REMARK SMILES IDX 51 44 57 45 59 46 52 47 53 48 54 49 55 50 56 51 82 52 83 53
REMARK SMILES IDX 92 54 84 55 85 56 91 57 93 58 86 59 87 60 88 61 89 62 90 63
REMARK SMILES IDX 66 64 67 65 76 66 68 67 69 68 75 69 77 70 70 71 71 72 72 73
REMARK SMILES IDX 73 74 74 75 8 76 9 77 10 78 11 79 12 80 13 81 14 82 15 83
REMARK SMILES IDX 16 84 33 85 17 86 32 87 18 88 31 89 19 90 30 91 20 92 34 94
REMARK SMILES IDX 35 95 36 96 37 97 38 98 21 99 22 100 23 101 24 102 29 103
REMARK SMILES IDX 25 104 27 105 26 106 28 107
REMARK H PARENT 98 25 64 36 20 93 28 108
REMARK Flexibility Score: inf
ROOT
ATOM      1  C   UNL     1      -0.091   2.001  -0.701  1.00  0.00     0.188 C 
ENDROOT
BRANCH   1   2
ATOM      2  O   UNL     1      -0.547   1.714   0.621  1.00  0.00    -0.376 OA
BRANCH   2   3
ATOM      3  C   UNL     1       0.251   0.678   1.201  1.00  0.00     0.202 C 
BRANCH   3   4
ATOM      4  C   UNL     1       0.496   0.955   2.686  1.00  0.00     0.261 C 
BRANCH   4   5
ATOM      5  O   UNL     1       1.225   2.190   2.885  1.00  0.00    -0.460 OA
BRANCH   5   6
ATOM      6  C   UNL     1       2.498   2.224   3.367  1.00  0.00     0.338 C 
ATOM      7  O   UNL     1       2.801   2.854   4.371  1.00  0.00    -0.246 OA
BRANCH   6   8
ATOM      8  C   UNL     1       3.537   1.832   2.376  1.00  0.00     0.060 A 
ATOM      9  C   UNL     1       3.489   0.602   1.729  1.00  0.00     0.016 A 
ATOM     10  C   UNL     1       4.584   2.731   2.084  1.00  0.00     0.016 A 
ATOM     11  C   UNL     1       4.423   0.287   0.757  1.00  0.00     0.010 A 
ATOM     12  C   UNL     1       5.558   2.402   1.134  1.00  0.00     0.010 A 
ATOM     13  C   UNL     1       5.492   1.154   0.501  1.00  0.00    -0.014 A 
BRANCH  13  14
ATOM     14  C   UNL     1       6.676   0.493  -0.086  1.00  0.00     0.031 A 
ATOM     15  C   UNL     1       7.577  -0.199   0.902  1.00  0.00     0.074 A 
ATOM     16  C   UNL     1       6.747   0.251  -1.406  1.00  0.00     0.049 A 
ATOM     17  N   UNL     1       8.467  -1.130   0.705  1.00  0.00    -0.248 NA
ATOM     18  C   UNL     1       7.380   0.153   2.322  1.00  0.00     0.031 C 
ATOM     19  C   UNL     1       5.810   0.762  -2.408  1.00  0.00     0.029 A 
ATOM     20  N   UNL     1       7.601  -0.548  -2.120  1.00  0.00    -0.354 N 
ATOM     21  C   UNL     1       8.902  -1.498   1.973  1.00  0.00     0.074 A 
ATOM     22  C   UNL     1       8.196  -0.686   2.932  1.00  0.00     0.031 C 
ATOM     23  C   UNL     1       6.122   0.235  -3.605  1.00  0.00     0.029 A 
ATOM     24  C   UNL     1       7.295  -0.626  -3.459  1.00  0.00     0.049 A 
ATOM     25  H   UNL     1       8.361  -1.023  -1.713  1.00  0.00     0.167 HD
ATOM     26  C   UNL     1       9.821  -2.429   2.311  1.00  0.00     0.037 A 
ATOM     27  C   UNL     1       7.902  -1.322  -4.442  1.00  0.00     0.037 A 
ATOM     28  C   UNL     1      10.578  -3.156   1.335  1.00  0.00     0.049 A 
ATOM     29  C   UNL     1       9.060  -2.214  -4.059  1.00  0.00     0.074 A 
ATOM     30  C   UNL     1      11.643  -4.011   1.528  1.00  0.00     0.029 A 
ATOM     31  N   UNL     1      10.361  -3.074  -0.035  1.00  0.00    -0.354 N 
ATOM     32  N   UNL     1       9.504  -2.519  -2.860  1.00  0.00    -0.248 NA
ATOM     33  C   UNL     1       9.805  -2.848  -5.154  1.00  0.00     0.031 C 
ATOM     34  C   UNL     1      12.115  -4.393   0.267  1.00  0.00     0.029 A 
ATOM     35  C   UNL     1      11.297  -3.834  -0.707  1.00  0.00     0.049 A 
ATOM     36  H   UNL     1       9.645  -2.551  -0.464  1.00  0.00     0.167 HD
ATOM     37  C   UNL     1      10.567  -3.394  -3.054  1.00  0.00     0.074 A 
ATOM     38  C   UNL     1      10.688  -3.580  -4.488  1.00  0.00     0.031 C 
ATOM     39  C   UNL     1      11.373  -3.991  -2.140  1.00  0.00     0.037 A 
BRANCH  26  40
ATOM     40  C   UNL     1      10.118  -2.574   3.776  1.00  0.00     0.058 A 
ATOM     41  C   UNL     1       9.207  -3.164   4.669  1.00  0.00     0.135 A 
ATOM     42  C   UNL     1      11.282  -2.001   4.311  1.00  0.00     0.135 A 
ATOM     43  F   UNL     1       8.055  -3.685   4.215  1.00  0.00    -0.206 F 
ATOM     44  C   UNL     1       9.421  -3.142   6.045  1.00  0.00     0.059 A 
ATOM     45  C   UNL     1      11.527  -1.989   5.680  1.00  0.00     0.059 A 
ATOM     46  F   UNL     1      12.171  -1.402   3.505  1.00  0.00    -0.206 F 
ATOM     47  C   UNL     1      10.579  -2.540   6.541  1.00  0.00     0.060 A 
BRANCH  47  48
ATOM     48  S   UNL     1      10.817  -2.458   8.329  1.00  0.00     0.124 S 
ATOM     49  O   UNL     1       9.833  -1.448   8.707  1.00  0.00    -0.237 OA
ATOM     50  O   UNL     1      10.517  -3.823   8.746  1.00  0.00    -0.237 OA
ATOM     51  O   UNL     1      12.213  -2.056   8.467  1.00  0.00    -0.744 OA
ENDBRANCH  47  48
ENDBRANCH  26  40
BRANCH  27  52
ATOM     52  C   UNL     1       7.460  -1.183  -5.860  1.00  0.00     0.058 A 
ATOM     53  C   UNL     1       6.952  -2.269  -6.588  1.00  0.00     0.135 A 
ATOM     54  C   UNL     1       7.553   0.053  -6.527  1.00  0.00     0.135 A 
ATOM     55  F   UNL     1       6.847  -3.475  -6.010  1.00  0.00    -0.206 F 
ATOM     56  C   UNL     1       6.564  -2.141  -7.920  1.00  0.00     0.059 A 
ATOM     57  C   UNL     1       7.148   0.213  -7.849  1.00  0.00     0.059 A 
ATOM     58  F   UNL     1       8.025   1.131  -5.880  1.00  0.00    -0.206 F 
ATOM     59  C   UNL     1       6.661  -0.894  -8.541  1.00  0.00     0.060 A 
BRANCH  59  60
ATOM     60  S   UNL     1       6.104  -0.735 -10.252  1.00  0.00     0.124 S 
ATOM     61  O   UNL     1       7.122  -1.497 -10.966  1.00  0.00    -0.237 OA
ATOM     62  O   UNL     1       4.777  -1.339 -10.193  1.00  0.00    -0.237 OA
ATOM     63  O   UNL     1       6.117   0.706 -10.476  1.00  0.00    -0.744 OA
ENDBRANCH  59  60
ENDBRANCH  27  52
BRANCH  39  64
ATOM     64  C   UNL     1      12.436  -4.918  -2.655  1.00  0.00     0.058 A 
ATOM     65  C   UNL     1      13.588  -4.436  -3.295  1.00  0.00     0.135 A 
ATOM     66  C   UNL     1      12.342  -6.298  -2.413  1.00  0.00     0.135 A 
ATOM     67  F   UNL     1      13.722  -3.125  -3.549  1.00  0.00    -0.206 F 
ATOM     68  C   UNL     1      14.605  -5.295  -3.692  1.00  0.00     0.059 A 
ATOM     69  C   UNL     1      13.361  -7.170  -2.773  1.00  0.00     0.059 A 
ATOM     70  F   UNL     1      11.266  -6.803  -1.789  1.00  0.00    -0.206 F 
ATOM     71  C   UNL     1      14.485  -6.660  -3.420  1.00  0.00     0.060 A 
BRANCH  71  72
ATOM     72  S   UNL     1      15.839  -7.756  -3.889  1.00  0.00     0.124 S 
ATOM     73  O   UNL     1      15.677  -7.819  -5.337  1.00  0.00    -0.237 OA
ATOM     74  O   UNL     1      17.010  -7.026  -3.412  1.00  0.00    -0.237 OA
ATOM     75  O   UNL     1      15.541  -8.990  -3.168  1.00  0.00    -0.744 OA
ENDBRANCH  71  72
ENDBRANCH  39  64
ENDBRANCH  13  14
ENDBRANCH   6   8
ENDBRANCH   5   6
ENDBRANCH   4   5
ENDBRANCH   3   4
ENDBRANCH   2   3
ENDBRANCH   1   2
BRANCH   1  76
ATOM     76  C   UNL     1      -0.927   3.122  -1.338  1.00  0.00     0.188 C 
BRANCH  76  77
ATOM     77  O   UNL     1      -2.073   2.766  -2.104  1.00  0.00    -0.376 OA
BRANCH  77  78
ATOM     78  C   UNL     1      -2.104   1.458  -2.646  1.00  0.00     0.202 C 
BRANCH  78  79
ATOM     79  C   UNL     1      -1.152   1.200  -3.825  1.00  0.00     0.261 C 
BRANCH  79  80
ATOM     80  O   UNL     1       0.215   1.615  -3.602  1.00  0.00    -0.462 OA
BRANCH  80  81
ATOM     81  C   UNL     1       0.510   2.900  -3.986  1.00  0.00     0.328 C 
ATOM     82  O   UNL     1      -0.295   3.665  -4.474  1.00  0.00    -0.250 OA
BRANCH  81  83
ATOM     83  C   UNL     1       2.002   3.242  -3.714  1.00  0.00     0.195 C 
ATOM     84  C   UNL     1       2.444   3.869  -5.042  1.00  0.00     0.046 C 
ATOM     85  N   UNL     1       2.487   4.259  -2.745  1.00  0.00    -0.328 N 
ATOM     86  C   UNL     1       3.732   4.654  -4.749  1.00  0.00     0.001 C 
ATOM     87  C   UNL     1       3.816   4.642  -3.222  1.00  0.00     0.128 C 
ATOM     88  C   UNL     1       3.626   6.115  -5.221  1.00  0.00     0.071 C 
ATOM     89  C   UNL     1       4.927   3.980  -5.458  1.00  0.00     0.071 C 
ATOM     90  C   UNL     1       3.476   6.188  -6.730  1.00  0.00     0.271 C 
ATOM     91  C   UNL     1       4.848   4.137  -6.988  1.00  0.00     0.271 C 
ATOM     92  N   UNL     1       4.612   5.531  -7.370  1.00  0.00    -0.267 N 
ATOM     93  H   UNL     1       4.483   4.930  -8.139  1.00  0.00     0.357 HD
BRANCH  85  94
ATOM     94  C   UNL     1       2.506   4.001  -1.376  1.00  0.00     0.226 C 
ATOM     95  O   UNL     1       3.023   2.977  -0.943  1.00  0.00    -0.275 OA
BRANCH  94  96
ATOM     96  C   UNL     1       2.055   5.101  -0.438  1.00  0.00     0.079 C 
ATOM     97  C   UNL     1       0.828   5.109   0.478  1.00  0.00     0.014 C 
ATOM     98  C   UNL     1       2.151   4.768   1.038  1.00  0.00     0.014 C 
ENDBRANCH  94  96
ENDBRANCH  85  94
BRANCH  92  99
ATOM     99  C   UNL     1       5.337   6.069  -8.427  1.00  0.00     0.344 C 
ATOM    100  O   UNL     1       6.152   5.451  -9.102  1.00  0.00    -0.226 OA
BRANCH  99 101
ATOM    101  C   UNL     1       5.136   7.492  -8.753  1.00  0.00     0.083 A 
ATOM    102  C   UNL     1       5.466   8.476  -7.811  1.00  0.00     0.018 A 
ATOM    103  C   UNL     1       4.637   7.839 -10.008  1.00  0.00     0.064 A 
ATOM    104  C   UNL     1       5.251   9.818  -8.115  1.00  0.00     0.005 A 
ATOM    105  C   UNL     1       4.444   9.182 -10.302  1.00  0.00     0.116 A 
ATOM    106  C   UNL     1       4.738  10.173  -9.365  1.00  0.00     0.046 A 
BRANCH 105 107
ATOM    107  O   UNL     1       3.958   9.501 -11.535  1.00  0.00    -0.508 OA
ATOM    108  H   UNL     1       3.816  10.398 -11.765  1.00  0.00     0.293 HD
ENDBRANCH 105 107
ENDBRANCH  99 101
ENDBRANCH  92  99
ENDBRANCH  81  83
ENDBRANCH  80  81
ENDBRANCH  79  80
ENDBRANCH  78  79
ENDBRANCH  77  78
ENDBRANCH  76  77
ENDBRANCH   1  76
TORSDOF 25
