REMARK SMILES O=C(OCCOCCOCCOC(=O)C1(C/C=C/c2ccccc2)Cc2ccccc2C1)c1ccc(-c2c3nc(c(-c4c(F)cc(S(=O)(=O)[O-])cc4F)c4ccc([nH]4)c(-c4c(F)cc(S(=O)(=O)[O-])cc4F)c4nc(c(-c5c(F)cc(S(=O)(=O)[O-])cc5F)c5ccc2[nH]5)C=C4)C=C3)cc1
REMARK SMILES IDX 7 1 6 2 5 3 4 4 3 5 2 6 1 7 33 8 34 9 98 10 35 11 97 12
REMARK SMILES IDX 36 13 37 14 38 15 91 16 39 17 96 18 90 19 92 20 40 21 95 22
REMARK SMILES IDX 89 23 88 24 41 26 75 27 54 28 74 29 55 30 58 31 73 32 93 33
REMARK SMILES IDX 56 34 57 35 72 37 94 38 59 39 42 40 43 41 52 42 44 43 45 44
REMARK SMILES IDX 51 45 53 46 46 47 47 48 48 49 49 50 50 51 76 52 77 53 86 54
REMARK SMILES IDX 78 55 79 56 85 57 87 58 80 59 81 60 82 61 83 62 84 63 60 64
REMARK SMILES IDX 61 65 70 66 62 67 63 68 69 69 71 70 64 71 65 72 66 73 67 74
REMARK SMILES IDX 68 75 8 76 9 77 10 78 11 79 12 80 13 81 14 82 15 83 25 84
REMARK SMILES IDX 32 85 26 86 31 87 27 88 30 89 28 90 29 91 16 92 17 93 18 94
REMARK SMILES IDX 19 95 20 96 24 97 21 98 23 99 22 100
REMARK H PARENT 92 25 58 36
REMARK Flexibility Score: inf
ROOT
ATOM      1  C   UNL     1       2.484  -1.772   0.723  1.00  0.00     0.188 C 
ENDROOT
BRANCH   1   2
ATOM      2  O   UNL     1       3.785  -1.567   0.155  1.00  0.00    -0.376 OA
BRANCH   2   3
ATOM      3  C   UNL     1       4.745  -1.064   1.093  1.00  0.00     0.202 C 
BRANCH   3   4
ATOM      4  C   UNL     1       4.628   0.433   1.421  1.00  0.00     0.261 C 
BRANCH   4   5
ATOM      5  O   UNL     1       3.285   0.929   1.337  1.00  0.00    -0.460 OA
BRANCH   5   6
ATOM      6  C   UNL     1       2.639   1.448   0.264  1.00  0.00     0.338 C 
ATOM      7  O   UNL     1       1.486   1.846   0.432  1.00  0.00    -0.246 OA
BRANCH   6   8
ATOM      8  C   UNL     1       3.224   1.565  -1.114  1.00  0.00     0.060 A 
ATOM      9  C   UNL     1       4.364   0.908  -1.588  1.00  0.00     0.016 A 
ATOM     10  C   UNL     1       2.530   2.390  -2.019  1.00  0.00     0.016 A 
ATOM     11  C   UNL     1       4.846   1.115  -2.877  1.00  0.00     0.010 A 
ATOM     12  C   UNL     1       2.996   2.592  -3.322  1.00  0.00     0.010 A 
ATOM     13  C   UNL     1       4.175   1.970  -3.744  1.00  0.00    -0.014 A 
BRANCH  13  14
ATOM     14  C   UNL     1       4.834   2.346  -5.009  1.00  0.00     0.031 A 
ATOM     15  C   UNL     1       5.566   3.645  -5.035  1.00  0.00     0.074 A 
ATOM     16  C   UNL     1       4.862   1.506  -6.058  1.00  0.00     0.049 A 
ATOM     17  N   UNL     1       6.205   4.207  -6.019  1.00  0.00    -0.248 NA
ATOM     18  C   UNL     1       5.586   4.410  -3.776  1.00  0.00     0.031 C 
ATOM     19  C   UNL     1       4.247   0.189  -6.064  1.00  0.00     0.029 A 
ATOM     20  N   UNL     1       5.424   1.605  -7.301  1.00  0.00    -0.354 N 
ATOM     21  C   UNL     1       6.680   5.405  -5.511  1.00  0.00     0.074 A 
ATOM     22  C   UNL     1       6.252   5.495  -4.134  1.00  0.00     0.031 C 
ATOM     23  C   UNL     1       4.460  -0.411  -7.241  1.00  0.00     0.029 A 
ATOM     24  C   UNL     1       5.178   0.512  -8.103  1.00  0.00     0.049 A 
ATOM     25  H   UNL     1       5.953   2.382  -7.595  1.00  0.00     0.167 HD
ATOM     26  C   UNL     1       7.398   6.348  -6.158  1.00  0.00     0.037 A 
ATOM     27  C   UNL     1       5.462   0.297  -9.401  1.00  0.00     0.037 A 
ATOM     28  C   UNL     1       7.772   6.226  -7.540  1.00  0.00     0.049 A 
ATOM     29  C   UNL     1       6.199   1.385 -10.123  1.00  0.00     0.074 A 
ATOM     30  C   UNL     1       8.452   7.128  -8.333  1.00  0.00     0.029 A 
ATOM     31  N   UNL     1       7.474   5.126  -8.340  1.00  0.00    -0.354 N 
ATOM     32  N   UNL     1       6.617   2.536  -9.646  1.00  0.00    -0.248 NA
ATOM     33  C   UNL     1       6.495   1.172 -11.541  1.00  0.00     0.031 C 
ATOM     34  C   UNL     1       8.515   6.597  -9.626  1.00  0.00     0.029 A 
ATOM     35  C   UNL     1       7.933   5.337  -9.626  1.00  0.00     0.049 A 
ATOM     36  H   UNL     1       7.006   4.316  -8.033  1.00  0.00     0.167 HD
ATOM     37  C   UNL     1       7.234   3.185 -10.702  1.00  0.00     0.074 A 
ATOM     38  C   UNL     1       7.147   2.289 -11.842  1.00  0.00     0.031 C 
ATOM     39  C   UNL     1       7.817   4.409 -10.729  1.00  0.00     0.037 A 
BRANCH  26  40
ATOM     40  C   UNL     1       7.705   7.600  -5.389  1.00  0.00     0.058 A 
ATOM     41  C   UNL     1       8.596   7.613  -4.302  1.00  0.00     0.135 A 
ATOM     42  C   UNL     1       7.018   8.787  -5.685  1.00  0.00     0.135 A 
ATOM     43  F   UNL     1       9.248   6.494  -3.948  1.00  0.00    -0.206 F 
ATOM     44  C   UNL     1       8.755   8.744  -3.507  1.00  0.00     0.059 A 
ATOM     45  C   UNL     1       7.184   9.938  -4.922  1.00  0.00     0.059 A 
ATOM     46  F   UNL     1       6.141   8.825  -6.701  1.00  0.00    -0.206 F 
ATOM     47  C   UNL     1       8.035   9.898  -3.819  1.00  0.00     0.060 A 
BRANCH  47  48
ATOM     48  S   UNL     1       8.206  11.340  -2.747  1.00  0.00     0.124 S 
ATOM     49  O   UNL     1       7.457  10.915  -1.568  1.00  0.00    -0.237 OA
ATOM     50  O   UNL     1       9.652  11.433  -2.578  1.00  0.00    -0.237 OA
ATOM     51  O   UNL     1       7.598  12.415  -3.524  1.00  0.00    -0.744 OA
ENDBRANCH  47  48
ENDBRANCH  26  40
BRANCH  27  52
ATOM     52  C   UNL     1       4.999  -0.953 -10.069  1.00  0.00     0.058 A 
ATOM     53  C   UNL     1       5.897  -1.943 -10.493  1.00  0.00     0.135 A 
ATOM     54  C   UNL     1       3.626  -1.217 -10.226  1.00  0.00     0.135 A 
ATOM     55  F   UNL     1       7.218  -1.745 -10.377  1.00  0.00    -0.206 F 
ATOM     56  C   UNL     1       5.453  -3.148 -11.038  1.00  0.00     0.059 A 
ATOM     57  C   UNL     1       3.158  -2.423 -10.740  1.00  0.00     0.059 A 
ATOM     58  F   UNL     1       2.719  -0.310  -9.831  1.00  0.00    -0.206 F 
ATOM     59  C   UNL     1       4.081  -3.384 -11.147  1.00  0.00     0.060 A 
BRANCH  59  60
ATOM     60  S   UNL     1       3.516  -4.980 -11.781  1.00  0.00     0.124 S 
ATOM     61  O   UNL     1       3.861  -4.875 -13.195  1.00  0.00    -0.237 OA
ATOM     62  O   UNL     1       4.312  -5.920 -10.999  1.00  0.00    -0.237 OA
ATOM     63  O   UNL     1       2.087  -4.977 -11.479  1.00  0.00    -0.744 OA
ENDBRANCH  59  60
ENDBRANCH  27  52
BRANCH  39  64
ATOM     64  C   UNL     1       8.425   4.837 -12.030  1.00  0.00     0.058 A 
ATOM     65  C   UNL     1       7.633   5.267 -13.103  1.00  0.00     0.135 A 
ATOM     66  C   UNL     1       9.821   4.908 -12.160  1.00  0.00     0.135 A 
ATOM     67  F   UNL     1       6.294   5.205 -13.025  1.00  0.00    -0.206 F 
ATOM     68  C   UNL     1       8.207   5.758 -14.268  1.00  0.00     0.059 A 
ATOM     69  C   UNL     1      10.415   5.420 -13.305  1.00  0.00     0.059 A 
ATOM     70  F   UNL     1      10.615   4.512 -11.153  1.00  0.00    -0.206 F 
ATOM     71  C   UNL     1       9.598   5.841 -14.354  1.00  0.00     0.060 A 
BRANCH  71  72
ATOM     72  S   UNL     1      10.329   6.556 -15.840  1.00  0.00     0.124 S 
ATOM     73  O   UNL     1      10.118   5.489 -16.812  1.00  0.00    -0.237 OA
ATOM     74  O   UNL     1       9.525   7.759 -16.033  1.00  0.00    -0.237 OA
ATOM     75  O   UNL     1      11.717   6.792 -15.456  1.00  0.00    -0.744 OA
ENDBRANCH  71  72
ENDBRANCH  39  64
ENDBRANCH  13  14
ENDBRANCH   6   8
ENDBRANCH   5   6
ENDBRANCH   4   5
ENDBRANCH   3   4
ENDBRANCH   2   3
ENDBRANCH   1   2
BRANCH   1  76
ATOM     76  C   UNL     1       1.824  -3.082   0.283  1.00  0.00     0.188 C 
BRANCH  76  77
ATOM     77  O   UNL     1       2.438  -4.292   0.722  1.00  0.00    -0.376 OA
BRANCH  77  78
ATOM     78  C   UNL     1       3.815  -4.473   0.414  1.00  0.00     0.202 C 
BRANCH  78  79
ATOM     79  C   UNL     1       4.213  -4.643  -1.056  1.00  0.00     0.261 C 
BRANCH  79  80
ATOM     80  O   UNL     1       3.632  -3.694  -1.960  1.00  0.00    -0.463 OA
BRANCH  80  81
ATOM     81  C   UNL     1       2.673  -4.198  -2.787  1.00  0.00     0.313 C 
ATOM     82  O   UNL     1       2.187  -5.321  -2.677  1.00  0.00    -0.252 OA
BRANCH  81  83
ATOM     83  C   UNL     1       2.343  -3.254  -3.930  1.00  0.00     0.079 C 
ATOM     84  C   UNL     1       0.946  -3.655  -4.496  1.00  0.00     0.055 C 
ATOM     85  C   UNL     1       2.136  -1.773  -3.513  1.00  0.00     0.055 C 
ATOM     86  C   UNL     1       0.476  -2.372  -5.107  1.00  0.00    -0.044 A 
ATOM     87  C   UNL     1       1.173  -1.292  -4.565  1.00  0.00    -0.044 A 
ATOM     88  C   UNL     1      -0.490  -2.195  -6.083  1.00  0.00     0.004 A 
ATOM     89  C   UNL     1       0.935  -0.009  -5.027  1.00  0.00     0.004 A 
ATOM     90  C   UNL     1      -0.717  -0.906  -6.566  1.00  0.00     0.000 A 
ATOM     91  C   UNL     1       0.003   0.180  -6.052  1.00  0.00     0.000 A 
BRANCH  83  92
ATOM     92  C   UNL     1       3.447  -3.457  -5.011  1.00  0.00     0.047 C 
BRANCH  92  93
ATOM     93  C   UNL     1       4.830  -3.013  -4.592  1.00  0.00    -0.025 C 
ATOM     94  C   UNL     1       5.878  -3.829  -4.401  1.00  0.00     0.004 C 
BRANCH  94  95
ATOM     95  C   UNL     1       7.198  -3.343  -3.967  1.00  0.00    -0.026 A 
ATOM     96  C   UNL     1       8.350  -3.943  -4.485  1.00  0.00     0.008 A 
ATOM     97  C   UNL     1       7.340  -2.320  -3.017  1.00  0.00     0.008 A 
ATOM     98  C   UNL     1       9.618  -3.507  -4.090  1.00  0.00     0.001 A 
ATOM     99  C   UNL     1       8.607  -1.879  -2.627  1.00  0.00     0.001 A 
ATOM    100  C   UNL     1       9.746  -2.471  -3.167  1.00  0.00     0.000 A 
ENDBRANCH  94  95
ENDBRANCH  92  93
ENDBRANCH  83  92
ENDBRANCH  81  83
ENDBRANCH  80  81
ENDBRANCH  79  80
ENDBRANCH  78  79
ENDBRANCH  77  78
ENDBRANCH  76  77
ENDBRANCH   1  76
TORSDOF 23
