REMARK SMILES Cc1nn(C)c(N[C@@H]2C=C[C@H](C(=O)OCCOCCOCCOC(=O)c3ccc(-c4c5nc(c(-c6c(F)cc(S(=O)(=O)[O-])cc6F)c6ccc([nH]6)c(-c6c(F)cc(S(=O)(=O)[O-])cc6F)c6nc(c(-c7c(F)cc(S(=O)(=O)[O-])cc7F)c7ccc4[nH]7)C=C6)C=C5)cc3)C2)c1C#N
REMARK SMILES IDX 18 1 17 2 16 3 15 4 14 5 12 6 13 7 11 8 8 9 9 10 92 11 10 12
REMARK SMILES IDX 7 13 6 15 1 16 2 17 3 18 93 19 4 20 5 21 94 22 95 23 19 24
REMARK SMILES IDX 20 25 21 26 22 27 23 28 24 29 25 30 26 31 27 32 91 33 28 34
REMARK SMILES IDX 90 35 29 36 30 37 31 38 84 39 32 40 89 41 83 42 85 43 33 44
REMARK SMILES IDX 88 45 82 46 81 47 34 49 68 50 47 51 67 52 48 53 51 54 66 55
REMARK SMILES IDX 86 56 49 57 50 58 65 60 87 61 52 62 35 63 36 64 45 65 37 66
REMARK SMILES IDX 38 67 44 68 46 69 39 70 40 71 41 72 42 73 43 74 69 75 70 76
REMARK SMILES IDX 79 77 71 78 72 79 78 80 80 81 73 82 74 83 75 84 76 85 77 86
REMARK SMILES IDX 53 87 54 88 63 89 55 90 56 91 62 92 64 93 57 94 58 95 59 96
REMARK SMILES IDX 60 97 61 98
REMARK H PARENT 7 14 85 48 51 59
REMARK Flexibility Score: inf
ROOT
ATOM      1  C   UNL     1      -2.143   9.390  -5.006  1.00  0.00     0.188 C 
ENDROOT
BRANCH   1   2
ATOM      2  O   UNL     1      -3.374  10.019  -5.234  1.00  0.00    -0.376 OA
BRANCH   2   3
ATOM      3  C   UNL     1      -4.378   9.206  -5.820  1.00  0.00     0.202 C 
BRANCH   3   4
ATOM      4  C   UNL     1      -4.197   7.682  -6.067  1.00  0.00     0.261 C 
BRANCH   4   5
ATOM      5  O   UNL     1      -3.590   6.885  -5.010  1.00  0.00    -0.463 OA
BRANCH   5   6
ATOM      6  C   UNL     1      -2.806   5.845  -5.432  1.00  0.00     0.312 C 
ATOM      7  O   UNL     1      -2.699   5.543  -6.622  1.00  0.00    -0.252 OA
BRANCH   6   8
ATOM      8  C   UNL     1      -2.163   4.970  -4.320  1.00  0.00     0.124 C 
ATOM      9  C   UNL     1      -0.096   5.548  -3.007  1.00  0.00     0.104 C 
ATOM     10  C   UNL     1       0.188   4.575  -4.085  1.00  0.00    -0.006 C 
ATOM     11  C   UNL     1      -1.646   5.546  -2.989  1.00  0.00     0.048 C 
ATOM     12  C   UNL     1      -0.909   4.255  -4.791  1.00  0.00    -0.014 C 
BRANCH   9  13
ATOM     13  N   UNL     1       0.678   6.802  -3.066  1.00  0.00    -0.363 N 
ATOM     14  H   UNL     1       1.045   7.043  -2.185  1.00  0.00     0.162 HD
BRANCH  13  15
ATOM     15  C   UNL     1       1.023   7.728  -4.033  1.00  0.00     0.142 A 
ATOM     16  C   UNL     1       1.186  11.220  -5.155  1.00  0.00     0.070 C 
ATOM     17  C   UNL     1       1.247   9.740  -4.999  1.00  0.00     0.079 A 
ATOM     18  N   UNL     1       0.767   8.949  -5.953  1.00  0.00    -0.175 NA
ATOM     19  C   UNL     1       1.663   8.965  -3.897  1.00  0.00     0.117 A 
ATOM     20  N   UNL     1       0.786   7.717  -5.396  1.00  0.00    -0.251 N 
ATOM     21  C   UNL     1       0.473   6.648  -6.294  1.00  0.00     0.176 C 
BRANCH  19  22
ATOM     22  C   UNL     1       2.517   9.475  -2.879  1.00  0.00     0.105 C 
ATOM     23  N   UNL     1       3.310   9.971  -2.211  1.00  0.00    -0.192 NA
ENDBRANCH  19  22
ENDBRANCH  13  15
ENDBRANCH   9  13
ENDBRANCH   6   8
ENDBRANCH   5   6
ENDBRANCH   4   5
ENDBRANCH   3   4
ENDBRANCH   2   3
ENDBRANCH   1   2
BRANCH   1  24
ATOM     24  C   UNL     1      -1.996   8.878  -3.588  1.00  0.00     0.188 C 
BRANCH  24  25
ATOM     25  O   UNL     1      -3.167   8.544  -2.865  1.00  0.00    -0.376 OA
BRANCH  25  26
ATOM     26  C   UNL     1      -3.907   9.580  -2.254  1.00  0.00     0.202 C 
BRANCH  26  27
ATOM     27  C   UNL     1      -3.169  10.767  -1.679  1.00  0.00     0.261 C 
BRANCH  27  28
ATOM     28  O   UNL     1      -1.931  10.585  -0.995  1.00  0.00    -0.460 OA
BRANCH  28  29
ATOM     29  C   UNL     1      -1.235   9.513  -0.588  1.00  0.00     0.338 C 
ATOM     30  O   UNL     1      -1.583   8.362  -0.440  1.00  0.00    -0.246 OA
BRANCH  29  31
ATOM     31  C   UNL     1       0.121  10.080  -0.362  1.00  0.00     0.060 A 
ATOM     32  C   UNL     1       1.090   9.391   0.372  1.00  0.00     0.016 A 
ATOM     33  C   UNL     1       0.371  11.386  -0.831  1.00  0.00     0.016 A 
ATOM     34  C   UNL     1       2.189  10.106   0.838  1.00  0.00     0.010 A 
ATOM     35  C   UNL     1       1.440  12.087  -0.368  1.00  0.00     0.010 A 
ATOM     36  C   UNL     1       2.273  11.476   0.553  1.00  0.00    -0.014 A 
BRANCH  36  37
ATOM     37  C   UNL     1       3.294  12.345   1.095  1.00  0.00     0.031 A 
ATOM     38  C   UNL     1       4.613  12.104   0.462  1.00  0.00     0.074 A 
ATOM     39  C   UNL     1       2.945  13.403   1.864  1.00  0.00     0.049 A 
ATOM     40  N   UNL     1       5.550  11.333   0.907  1.00  0.00    -0.248 NA
ATOM     41  C   UNL     1       4.815  12.512  -0.942  1.00  0.00     0.031 C 
ATOM     42  C   UNL     1       1.606  13.848   2.274  1.00  0.00     0.029 A 
ATOM     43  N   UNL     1       3.744  14.362   2.407  1.00  0.00    -0.354 N 
ATOM     44  C   UNL     1       6.586  11.472  -0.008  1.00  0.00     0.074 A 
ATOM     45  C   UNL     1       5.964  11.892  -1.229  1.00  0.00     0.031 C 
ATOM     46  C   UNL     1       1.670  15.097   2.797  1.00  0.00     0.029 A 
ATOM     47  C   UNL     1       3.063  15.481   2.913  1.00  0.00     0.049 A 
ATOM     48  H   UNL     1       4.724  14.278   2.443  1.00  0.00     0.167 HD
ATOM     49  C   UNL     1       7.869  11.629   0.430  1.00  0.00     0.037 A 
ATOM     50  C   UNL     1       3.651  16.615   3.395  1.00  0.00     0.037 A 
ATOM     51  C   UNL     1       7.938  11.332   1.846  1.00  0.00     0.049 A 
ATOM     52  C   UNL     1       5.051  16.224   3.750  1.00  0.00     0.074 A 
ATOM     53  C   UNL     1       7.642  10.231   2.626  1.00  0.00     0.029 A 
ATOM     54  N   UNL     1       7.906  12.419   2.690  1.00  0.00    -0.354 N 
ATOM     55  N   UNL     1       5.325  15.347   4.683  1.00  0.00    -0.248 NA
ATOM     56  C   UNL     1       6.050  16.349   2.697  1.00  0.00     0.031 C 
ATOM     57  C   UNL     1       6.987  10.762   3.777  1.00  0.00     0.029 A 
ATOM     58  C   UNL     1       7.041  12.157   3.721  1.00  0.00     0.049 A 
ATOM     59  H   UNL     1       8.421  13.250   2.573  1.00  0.00     0.167 HD
ATOM     60  C   UNL     1       6.272  14.504   4.112  1.00  0.00     0.074 A 
ATOM     61  C   UNL     1       6.701  15.196   2.891  1.00  0.00     0.031 C 
ATOM     62  C   UNL     1       6.371  13.190   4.487  1.00  0.00     0.037 A 
BRANCH  49  63
ATOM     63  C   UNL     1       8.929  12.476  -0.249  1.00  0.00     0.058 A 
ATOM     64  C   UNL     1      10.234  12.467   0.290  1.00  0.00     0.135 A 
ATOM     65  C   UNL     1       8.686  13.481  -1.213  1.00  0.00     0.135 A 
ATOM     66  F   UNL     1      10.589  11.554   1.209  1.00  0.00    -0.206 F 
ATOM     67  C   UNL     1      11.190  13.428  -0.039  1.00  0.00     0.059 A 
ATOM     68  C   UNL     1       9.640  14.421  -1.589  1.00  0.00     0.059 A 
ATOM     69  F   UNL     1       7.495  13.668  -1.788  1.00  0.00    -0.206 F 
ATOM     70  C   UNL     1      10.879  14.408  -0.975  1.00  0.00     0.060 A 
BRANCH  70  71
ATOM     71  S   UNL     1      12.099  15.669  -1.372  1.00  0.00     0.124 S 
ATOM     72  O   UNL     1      12.191  16.397  -0.112  1.00  0.00    -0.237 OA
ATOM     73  O   UNL     1      13.258  14.859  -1.730  1.00  0.00    -0.237 OA
ATOM     74  O   UNL     1      11.484  16.396  -2.479  1.00  0.00    -0.744 OA
ENDBRANCH  70  71
ENDBRANCH  49  63
BRANCH  50  75
ATOM     75  C   UNL     1       3.261  18.039   3.146  1.00  0.00     0.058 A 
ATOM     76  C   UNL     1       3.881  19.115   3.818  1.00  0.00     0.135 A 
ATOM     77  C   UNL     1       2.487  18.391   2.023  1.00  0.00     0.135 A 
ATOM     78  F   UNL     1       4.651  18.882   4.893  1.00  0.00    -0.206 F 
ATOM     79  C   UNL     1       3.786  20.444   3.369  1.00  0.00     0.059 A 
ATOM     80  C   UNL     1       2.378  19.705   1.558  1.00  0.00     0.059 A 
ATOM     81  F   UNL     1       1.882  17.450   1.284  1.00  0.00    -0.206 F 
ATOM     82  C   UNL     1       3.051  20.726   2.218  1.00  0.00     0.060 A 
BRANCH  82  83
ATOM     83  S   UNL     1       3.070  22.397   1.513  1.00  0.00     0.124 S 
ATOM     84  O   UNL     1       2.308  23.154   2.500  1.00  0.00    -0.237 OA
ATOM     85  O   UNL     1       4.497  22.692   1.448  1.00  0.00    -0.237 OA
ATOM     86  O   UNL     1       2.414  22.226   0.219  1.00  0.00    -0.744 OA
ENDBRANCH  82  83
ENDBRANCH  50  75
BRANCH  62  87
ATOM     87  C   UNL     1       5.620  12.731   5.718  1.00  0.00     0.058 A 
ATOM     88  C   UNL     1       4.218  12.676   5.855  1.00  0.00     0.135 A 
ATOM     89  C   UNL     1       6.376  12.170   6.755  1.00  0.00     0.135 A 
ATOM     90  F   UNL     1       3.412  13.089   4.870  1.00  0.00    -0.206 F 
ATOM     91  C   UNL     1       3.605  12.136   6.992  1.00  0.00     0.059 A 
ATOM     92  C   UNL     1       5.789  11.601   7.881  1.00  0.00     0.059 A 
ATOM     93  F   UNL     1       7.714  12.123   6.658  1.00  0.00    -0.206 F 
ATOM     94  C   UNL     1       4.403  11.607   8.005  1.00  0.00     0.060 A 
BRANCH  94  95
ATOM     95  S   UNL     1       3.629  10.905   9.479  1.00  0.00     0.124 S 
ATOM     96  O   UNL     1       3.062  12.087  10.119  1.00  0.00    -0.237 OA
ATOM     97  O   UNL     1       2.665   9.964   8.916  1.00  0.00    -0.237 OA
ATOM     98  O   UNL     1       4.747  10.288  10.191  1.00  0.00    -0.744 OA
ENDBRANCH  94  95
ENDBRANCH  62  87
ENDBRANCH  36  37
ENDBRANCH  29  31
ENDBRANCH  28  29
ENDBRANCH  27  28
ENDBRANCH  26  27
ENDBRANCH  25  26
ENDBRANCH  24  25
ENDBRANCH   1  24
TORSDOF 23
