REMARK SMILES C[C@@H]1CC[C@@]1(SC1CCCCC1)C(=O)OCCOCCOCCOC(=O)c1ccc(-c2c3nc(c(-c4c(F)cc(S(=O)(=O)[O-])cc4F)c4ccc([nH]4)c(-c4c(F)cc(S(=O)(=O)[O-])cc4F)c4nc(c(-c5c(F)cc(S(=O)(=O)[O-])cc5F)c5ccc2[nH]5)C=C4)C=C3)cc1
REMARK SMILES IDX 20 1 19 2 18 3 17 4 16 5 15 6 13 7 14 8 5 9 1 10 2 11 3 12
REMARK SMILES IDX 4 13 6 14 7 15 8 16 12 17 9 18 11 19 10 20 21 21 22 22 23 23
REMARK SMILES IDX 24 24 25 25 26 26 27 27 28 28 92 29 29 30 91 31 30 32 31 33
REMARK SMILES IDX 32 34 85 35 33 36 90 37 84 38 86 39 34 40 89 41 83 42 82 43
REMARK SMILES IDX 35 45 69 46 48 47 68 48 49 49 52 50 67 51 87 52 50 53 51 54
REMARK SMILES IDX 66 56 88 57 53 58 36 59 37 60 46 61 38 62 39 63 45 64 47 65
REMARK SMILES IDX 40 66 41 67 42 68 43 69 44 70 70 71 71 72 80 73 72 74 73 75
REMARK SMILES IDX 79 76 81 77 74 78 75 79 76 80 77 81 78 82 54 83 55 84 64 85
REMARK SMILES IDX 56 86 57 87 63 88 65 89 58 90 59 91 60 92 61 93 62 94
REMARK H PARENT 86 44 52 55
REMARK Flexibility Score: inf
ROOT
ATOM      1  C   UNL     1      -1.737   1.284  -2.190  1.00  0.00     0.188 C 
ENDROOT
BRANCH   1   2
ATOM      2  C   UNL     1      -2.229   2.503  -1.382  1.00  0.00     0.188 C 
BRANCH   2   3
ATOM      3  O   UNL     1      -2.154   3.801  -1.922  1.00  0.00    -0.376 OA
BRANCH   3   4
ATOM      4  C   UNL     1      -0.949   4.361  -2.389  1.00  0.00     0.202 C 
BRANCH   4   5
ATOM      5  C   UNL     1       0.440   4.017  -1.841  1.00  0.00     0.261 C 
BRANCH   5   6
ATOM      6  O   UNL     1       0.645   2.725  -1.269  1.00  0.00    -0.462 OA
BRANCH   6   7
ATOM      7  C   UNL     1       0.558   2.655   0.101  1.00  0.00     0.322 C 
ATOM      8  O   UNL     1       0.128   3.595   0.768  1.00  0.00    -0.251 OA
BRANCH   7   9
ATOM      9  C   UNL     1       1.077   1.268   0.661  1.00  0.00     0.116 C 
ATOM     10  C   UNL     1      -0.617   0.024   2.447  1.00  0.00     0.010 C 
ATOM     11  C   UNL     1      -0.097   0.265   1.042  1.00  0.00     0.013 C 
ATOM     12  C   UNL     1       0.725  -0.886   0.438  1.00  0.00     0.007 C 
ATOM     13  C   UNL     1       1.582   0.147  -0.305  1.00  0.00     0.030 C 
BRANCH   9  14
ATOM     14  S   UNL     1       2.265   1.515   2.078  1.00  0.00    -0.140 SA
BRANCH  14  15
ATOM     15  C   UNL     1       3.649   2.491   1.368  1.00  0.00     0.048 C 
ATOM     16  C   UNL     1       4.655   1.583   0.654  1.00  0.00     0.014 C 
ATOM     17  C   UNL     1       3.300   3.704   0.500  1.00  0.00     0.014 C 
ATOM     18  C   UNL     1       5.895   2.361   0.219  1.00  0.00     0.001 C 
ATOM     19  C   UNL     1       4.539   4.472   0.042  1.00  0.00     0.001 C 
ATOM     20  C   UNL     1       5.520   3.545  -0.667  1.00  0.00     0.000 C 
ENDBRANCH  14  15
ENDBRANCH   9  14
ENDBRANCH   7   9
ENDBRANCH   6   7
ENDBRANCH   5   6
ENDBRANCH   4   5
ENDBRANCH   3   4
ENDBRANCH   2   3
ENDBRANCH   1   2
BRANCH   1  21
ATOM     21  O   UNL     1      -1.603   1.361  -3.596  1.00  0.00    -0.376 OA
BRANCH  21  22
ATOM     22  C   UNL     1      -2.668   1.931  -4.338  1.00  0.00     0.202 C 
BRANCH  22  23
ATOM     23  C   UNL     1      -4.081   1.351  -4.175  1.00  0.00     0.261 C 
BRANCH  23  24
ATOM     24  O   UNL     1      -4.607   1.410  -2.834  1.00  0.00    -0.460 OA
BRANCH  24  25
ATOM     25  C   UNL     1      -4.843   0.222  -2.227  1.00  0.00     0.338 C 
ATOM     26  O   UNL     1      -4.686  -0.893  -2.719  1.00  0.00    -0.246 OA
BRANCH  25  27
ATOM     27  C   UNL     1      -5.141   0.418  -0.792  1.00  0.00     0.060 A 
ATOM     28  C   UNL     1      -4.261  -0.124   0.159  1.00  0.00     0.016 A 
ATOM     29  C   UNL     1      -6.296   1.079  -0.373  1.00  0.00     0.016 A 
ATOM     30  C   UNL     1      -4.540  -0.018   1.524  1.00  0.00     0.010 A 
ATOM     31  C   UNL     1      -6.586   1.161   0.997  1.00  0.00     0.010 A 
ATOM     32  C   UNL     1      -5.721   0.598   1.955  1.00  0.00    -0.014 A 
BRANCH  32  33
ATOM     33  C   UNL     1      -6.122   0.529   3.387  1.00  0.00     0.031 A 
ATOM     34  C   UNL     1      -7.140  -0.496   3.812  1.00  0.00     0.074 A 
ATOM     35  C   UNL     1      -5.590   1.355   4.307  1.00  0.00     0.049 A 
ATOM     36  N   UNL     1      -7.717  -0.664   4.974  1.00  0.00    -0.248 NA
ATOM     37  C   UNL     1      -7.558  -1.464   2.786  1.00  0.00     0.031 C 
ATOM     38  C   UNL     1      -4.548   2.347   4.049  1.00  0.00     0.029 A 
ATOM     39  N   UNL     1      -5.869   1.500   5.646  1.00  0.00    -0.354 N 
ATOM     40  C   UNL     1      -8.585  -1.739   4.814  1.00  0.00     0.074 A 
ATOM     41  C   UNL     1      -8.462  -2.178   3.440  1.00  0.00     0.031 C 
ATOM     42  C   UNL     1      -4.296   3.019   5.187  1.00  0.00     0.029 A 
ATOM     43  C   UNL     1      -5.190   2.538   6.241  1.00  0.00     0.049 A 
ATOM     44  H   UNL     1      -6.495   0.917   6.132  1.00  0.00     0.167 HD
ATOM     45  C   UNL     1      -9.412  -2.304   5.727  1.00  0.00     0.037 A 
ATOM     46  C   UNL     1      -5.305   3.071   7.476  1.00  0.00     0.037 A 
ATOM     47  C   UNL     1      -9.531  -1.867   7.095  1.00  0.00     0.049 A 
ATOM     48  C   UNL     1      -6.292   2.480   8.453  1.00  0.00     0.074 A 
ATOM     49  C   UNL     1     -10.323  -2.395   8.100  1.00  0.00     0.029 A 
ATOM     50  N   UNL     1      -8.853  -0.790   7.648  1.00  0.00    -0.354 N 
ATOM     51  N   UNL     1      -7.100   1.458   8.296  1.00  0.00    -0.248 NA
ATOM     52  C   UNL     1      -6.388   3.119   9.775  1.00  0.00     0.031 C 
ATOM     53  C   UNL     1     -10.175  -1.598   9.240  1.00  0.00     0.029 A 
ATOM     54  C   UNL     1      -9.241  -0.611   8.967  1.00  0.00     0.049 A 
ATOM     55  H   UNL     1      -8.194  -0.233   7.173  1.00  0.00     0.167 HD
ATOM     56  C   UNL     1      -7.787   1.323   9.500  1.00  0.00     0.074 A 
ATOM     57  C   UNL     1      -7.287   2.356  10.383  1.00  0.00     0.031 C 
ATOM     58  C   UNL     1      -8.745   0.424   9.841  1.00  0.00     0.037 A 
BRANCH  45  59
ATOM     59  C   UNL     1     -10.300  -3.426   5.260  1.00  0.00     0.058 A 
ATOM     60  C   UNL     1      -9.797  -4.697   4.944  1.00  0.00     0.135 A 
ATOM     61  C   UNL     1     -11.687  -3.225   5.149  1.00  0.00     0.135 A 
ATOM     62  F   UNL     1      -8.479  -4.941   5.017  1.00  0.00    -0.206 F 
ATOM     63  C   UNL     1     -10.632  -5.720   4.501  1.00  0.00     0.059 A 
ATOM     64  C   UNL     1     -12.543  -4.241   4.737  1.00  0.00     0.059 A 
ATOM     65  F   UNL     1     -12.222  -2.029   5.439  1.00  0.00    -0.206 F 
ATOM     66  C   UNL     1     -12.004  -5.481   4.398  1.00  0.00     0.060 A 
BRANCH  66  67
ATOM     67  S   UNL     1     -13.071  -6.812   3.809  1.00  0.00     0.124 S 
ATOM     68  O   UNL     1     -12.712  -6.869   2.395  1.00  0.00    -0.237 OA
ATOM     69  O   UNL     1     -12.634  -7.944   4.620  1.00  0.00    -0.237 OA
ATOM     70  O   UNL     1     -14.416  -6.322   4.094  1.00  0.00    -0.744 OA
ENDBRANCH  66  67
ENDBRANCH  45  59
BRANCH  46  71
ATOM     71  C   UNL     1      -4.498   4.268   7.843  1.00  0.00     0.058 A 
ATOM     72  C   UNL     1      -3.477   4.199   8.801  1.00  0.00     0.135 A 
ATOM     73  C   UNL     1      -4.733   5.511   7.231  1.00  0.00     0.135 A 
ATOM     74  F   UNL     1      -3.227   3.041   9.433  1.00  0.00    -0.206 F 
ATOM     75  C   UNL     1      -2.718   5.315   9.141  1.00  0.00     0.059 A 
ATOM     76  C   UNL     1      -3.969   6.634   7.532  1.00  0.00     0.059 A 
ATOM     77  F   UNL     1      -5.700   5.634   6.309  1.00  0.00    -0.206 F 
ATOM     78  C   UNL     1      -2.966   6.528   8.494  1.00  0.00     0.060 A 
BRANCH  78  79
ATOM     79  S   UNL     1      -1.931   7.954   8.893  1.00  0.00     0.124 S 
ATOM     80  O   UNL     1      -2.400   8.293  10.232  1.00  0.00    -0.237 OA
ATOM     81  O   UNL     1      -0.588   7.390   8.812  1.00  0.00    -0.237 OA
ATOM     82  O   UNL     1      -2.264   8.915   7.846  1.00  0.00    -0.744 OA
ENDBRANCH  78  79
ENDBRANCH  46  71
BRANCH  58  83
ATOM     83  C   UNL     1      -9.314   0.498  11.235  1.00  0.00     0.058 A 
ATOM     84  C   UNL     1     -10.176   1.534  11.628  1.00  0.00     0.135 A 
ATOM     85  C   UNL     1      -9.046  -0.517  12.170  1.00  0.00     0.135 A 
ATOM     86  F   UNL     1     -10.463   2.533  10.779  1.00  0.00    -0.206 F 
ATOM     87  C   UNL     1     -10.736   1.571  12.902  1.00  0.00     0.059 A 
ATOM     88  C   UNL     1      -9.618  -0.515  13.439  1.00  0.00     0.059 A 
ATOM     89  F   UNL     1      -8.237  -1.538  11.846  1.00  0.00    -0.206 F 
ATOM     90  C   UNL     1     -10.455   0.540  13.800  1.00  0.00     0.060 A 
BRANCH  90  91
ATOM     91  S   UNL     1     -11.222   0.581  15.435  1.00  0.00     0.124 S 
ATOM     92  O   UNL     1     -10.489   1.666  16.078  1.00  0.00    -0.237 OA
ATOM     93  O   UNL     1     -12.619   0.860  15.118  1.00  0.00    -0.237 OA
ATOM     94  O   UNL     1     -10.961  -0.754  15.967  1.00  0.00    -0.744 OA
ENDBRANCH  90  91
ENDBRANCH  58  83
ENDBRANCH  32  33
ENDBRANCH  25  27
ENDBRANCH  24  25
ENDBRANCH  23  24
ENDBRANCH  22  23
ENDBRANCH  21  22
ENDBRANCH   1  21
TORSDOF 22
