REMARK SMILES O=C(OCCOCCOCCOC(=O)[C@@H]1CC(=O)N(c2ccc(Cl)cc2C(=O)c2ccccc2)C1)c1ccc(-c2c3nc(c(-c4c(F)cc(S(=O)(=O)[O-])cc4F)c4ccc([nH]4)c(-c4c(F)cc(S(=O)(=O)[O-])cc4F)c4nc(c(-c5c(F)cc(S(=O)(=O)[O-])cc5F)c5ccc2[nH]5)C=C4)C=C3)cc1
REMARK SMILES IDX 7 1 6 2 5 3 4 4 3 5 2 6 1 7 36 8 37 9 101 10 38 11 100 12
REMARK SMILES IDX 39 13 40 14 41 15 94 16 42 17 99 18 93 19 95 20 43 21 98 22
REMARK SMILES IDX 92 23 91 24 44 26 78 27 57 28 77 29 58 30 61 31 76 32 96 33
REMARK SMILES IDX 59 34 60 35 75 37 97 38 62 39 45 40 46 41 55 42 47 43 48 44
REMARK SMILES IDX 54 45 56 46 49 47 50 48 51 49 52 50 53 51 79 52 80 53 89 54
REMARK SMILES IDX 81 55 82 56 88 57 90 58 83 59 84 60 85 61 86 62 87 63 63 64
REMARK SMILES IDX 64 65 73 66 65 67 66 68 72 69 74 70 67 71 68 72 69 73 70 74
REMARK SMILES IDX 71 75 8 76 9 77 10 78 11 79 12 80 13 81 14 82 15 83 16 84
REMARK SMILES IDX 35 85 17 86 19 87 18 88 20 89 21 90 26 91 22 92 25 93 23 94
REMARK SMILES IDX 24 95 27 96 28 97 29 98 30 99 34 100 31 101 33 102 32 103
REMARK H PARENT 95 25 61 36
REMARK Flexibility Score: inf
ROOT
ATOM      1  C   UNL     1       2.678   0.420  -1.272  1.00  0.00     0.188 C 
ENDROOT
BRANCH   1   2
ATOM      2  O   UNL     1       4.034   0.234  -0.878  1.00  0.00    -0.376 OA
BRANCH   2   3
ATOM      3  C   UNL     1       4.611  -1.059  -1.002  1.00  0.00     0.202 C 
BRANCH   3   4
ATOM      4  C   UNL     1       4.231  -2.054   0.103  1.00  0.00     0.261 C 
BRANCH   4   5
ATOM      5  O   UNL     1       2.869  -1.948   0.544  1.00  0.00    -0.460 OA
BRANCH   5   6
ATOM      6  C   UNL     1       2.331  -1.180   1.524  1.00  0.00     0.338 C 
ATOM      7  O   UNL     1       1.138  -1.342   1.783  1.00  0.00    -0.246 OA
BRANCH   6   8
ATOM      8  C   UNL     1       3.063  -0.119   2.292  1.00  0.00     0.060 A 
ATOM      9  C   UNL     1       4.298   0.430   1.947  1.00  0.00     0.016 A 
ATOM     10  C   UNL     1       2.425   0.398   3.437  1.00  0.00     0.016 A 
ATOM     11  C   UNL     1       4.899   1.426   2.699  1.00  0.00     0.010 A 
ATOM     12  C   UNL     1       3.036   1.377   4.230  1.00  0.00     0.010 A 
ATOM     13  C   UNL     1       4.301   1.857   3.876  1.00  0.00    -0.014 A 
BRANCH  13  14
ATOM     14  C   UNL     1       5.187   2.540   4.833  1.00  0.00     0.031 A 
ATOM     15  C   UNL     1       5.824   1.685   5.891  1.00  0.00     0.074 A 
ATOM     16  C   UNL     1       5.576   3.807   4.612  1.00  0.00     0.049 A 
ATOM     17  N   UNL     1       6.674   2.013   6.823  1.00  0.00    -0.248 NA
ATOM     18  C   UNL     1       5.476   0.251   5.875  1.00  0.00     0.031 C 
ATOM     19  C   UNL     1       5.133   4.638   3.491  1.00  0.00     0.029 A 
ATOM     20  N   UNL     1       6.463   4.600   5.285  1.00  0.00    -0.354 N 
ATOM     21  C   UNL     1       6.932   0.839   7.522  1.00  0.00     0.074 A 
ATOM     22  C   UNL     1       6.154  -0.211   6.911  1.00  0.00     0.031 C 
ATOM     23  C   UNL     1       5.764   5.822   3.546  1.00  0.00     0.029 A 
ATOM     24  C   UNL     1       6.603   5.854   4.740  1.00  0.00     0.049 A 
ATOM     25  H   UNL     1       6.954   4.302   6.085  1.00  0.00     0.167 HD
ATOM     26  C   UNL     1       7.743   0.665   8.588  1.00  0.00     0.037 A 
ATOM     27  C   UNL     1       7.309   6.909   5.187  1.00  0.00     0.037 A 
ATOM     28  C   UNL     1       8.502   1.739   9.166  1.00  0.00     0.049 A 
ATOM     29  C   UNL     1       8.110   6.724   6.450  1.00  0.00     0.074 A 
ATOM     30  C   UNL     1       9.309   1.724  10.286  1.00  0.00     0.029 A 
ATOM     31  N   UNL     1       8.537   3.032   8.656  1.00  0.00    -0.354 N 
ATOM     32  N   UNL     1       8.286   5.632   7.161  1.00  0.00    -0.248 NA
ATOM     33  C   UNL     1       8.800   7.905   6.978  1.00  0.00     0.031 C 
ATOM     34  C   UNL     1       9.783   3.024  10.489  1.00  0.00     0.029 A 
ATOM     35  C   UNL     1       9.331   3.833   9.454  1.00  0.00     0.049 A 
ATOM     36  H   UNL     1       8.066   3.332   7.846  1.00  0.00     0.167 HD
ATOM     37  C   UNL     1       9.131   5.987   8.204  1.00  0.00     0.074 A 
ATOM     38  C   UNL     1       9.439   7.393   8.021  1.00  0.00     0.031 C 
ATOM     39  C   UNL     1       9.615   5.228   9.220  1.00  0.00     0.037 A 
BRANCH  26  40
ATOM     40  C   UNL     1       7.751  -0.693   9.233  1.00  0.00     0.058 A 
ATOM     41  C   UNL     1       8.328  -1.818   8.621  1.00  0.00     0.135 A 
ATOM     42  C   UNL     1       7.116  -0.877  10.472  1.00  0.00     0.135 A 
ATOM     43  F   UNL     1       8.911  -1.710   7.417  1.00  0.00    -0.206 F 
ATOM     44  C   UNL     1       8.248  -3.082   9.202  1.00  0.00     0.059 A 
ATOM     45  C   UNL     1       7.050  -2.124  11.084  1.00  0.00     0.059 A 
ATOM     46  F   UNL     1       6.529   0.160  11.091  1.00  0.00    -0.206 F 
ATOM     47  C   UNL     1       7.604  -3.224  10.433  1.00  0.00     0.060 A 
BRANCH  47  48
ATOM     48  S   UNL     1       7.494  -4.870  11.167  1.00  0.00     0.124 S 
ATOM     49  O   UNL     1       6.525  -5.517  10.288  1.00  0.00    -0.237 OA
ATOM     50  O   UNL     1       8.868  -5.351  11.057  1.00  0.00    -0.237 OA
ATOM     51  O   UNL     1       7.031  -4.606  12.525  1.00  0.00    -0.744 OA
ENDBRANCH  47  48
ENDBRANCH  26  40
BRANCH  27  52
ATOM     52  C   UNL     1       7.251   8.218   4.480  1.00  0.00     0.058 A 
ATOM     53  C   UNL     1       8.390   8.784   3.888  1.00  0.00     0.135 A 
ATOM     54  C   UNL     1       6.048   8.939   4.389  1.00  0.00     0.135 A 
ATOM     55  F   UNL     1       9.566   8.141   3.947  1.00  0.00    -0.206 F 
ATOM     56  C   UNL     1       8.345  10.022   3.252  1.00  0.00     0.059 A 
ATOM     57  C   UNL     1       5.970  10.163   3.733  1.00  0.00     0.059 A 
ATOM     58  F   UNL     1       4.922   8.441   4.926  1.00  0.00    -0.206 F 
ATOM     59  C   UNL     1       7.128  10.703   3.179  1.00  0.00     0.060 A 
BRANCH  59  60
ATOM     60  S   UNL     1       7.075  12.295   2.328  1.00  0.00     0.124 S 
ATOM     61  O   UNL     1       7.810  13.148   3.255  1.00  0.00    -0.237 OA
ATOM     62  O   UNL     1       7.747  11.988   1.070  1.00  0.00    -0.237 OA
ATOM     63  O   UNL     1       5.644  12.568   2.219  1.00  0.00    -0.744 OA
ENDBRANCH  59  60
ENDBRANCH  27  52
BRANCH  39  64
ATOM     64  C   UNL     1      10.568   5.894  10.170  1.00  0.00     0.058 A 
ATOM     65  C   UNL     1      10.139   6.847  11.104  1.00  0.00     0.135 A 
ATOM     66  C   UNL     1      11.922   5.524  10.174  1.00  0.00     0.135 A 
ATOM     67  F   UNL     1       8.854   7.235  11.135  1.00  0.00    -0.206 F 
ATOM     68  C   UNL     1      11.030   7.439  11.991  1.00  0.00     0.059 A 
ATOM     69  C   UNL     1      12.823   6.076  11.075  1.00  0.00     0.059 A 
ATOM     70  F   UNL     1      12.376   4.603   9.308  1.00  0.00    -0.206 F 
ATOM     71  C   UNL     1      12.370   7.044  11.969  1.00  0.00     0.060 A 
BRANCH  71  72
ATOM     72  S   UNL     1      13.511   7.801  13.141  1.00  0.00     0.124 S 
ATOM     73  O   UNL     1      13.675   9.134  12.571  1.00  0.00    -0.237 OA
ATOM     74  O   UNL     1      12.763   7.732  14.393  1.00  0.00    -0.237 OA
ATOM     75  O   UNL     1      14.688   6.939  13.073  1.00  0.00    -0.744 OA
ENDBRANCH  71  72
ENDBRANCH  39  64
ENDBRANCH  13  14
ENDBRANCH   6   8
ENDBRANCH   5   6
ENDBRANCH   4   5
ENDBRANCH   3   4
ENDBRANCH   2   3
ENDBRANCH   1   2
BRANCH   1  76
ATOM     76  C   UNL     1       2.456   0.647  -2.765  1.00  0.00     0.188 C 
BRANCH  76  77
ATOM     77  O   UNL     1       3.248   1.628  -3.420  1.00  0.00    -0.376 OA
BRANCH  77  78
ATOM     78  C   UNL     1       4.631   1.625  -3.150  1.00  0.00     0.202 C 
BRANCH  78  79
ATOM     79  C   UNL     1       5.153   2.664  -2.131  1.00  0.00     0.261 C 
BRANCH  79  80
ATOM     80  O   UNL     1       4.349   3.200  -1.055  1.00  0.00    -0.463 OA
BRANCH  80  81
ATOM     81  C   UNL     1       3.205   3.874  -1.313  1.00  0.00     0.311 C 
ATOM     82  O   UNL     1       2.525   3.785  -2.324  1.00  0.00    -0.252 OA
BRANCH  81  83
ATOM     83  C   UNL     1       2.801   4.777  -0.171  1.00  0.00     0.128 C 
ATOM     84  C   UNL     1       1.440   4.353   0.351  1.00  0.00     0.117 C 
ATOM     85  C   UNL     1       2.561   6.200  -0.666  1.00  0.00     0.141 C 
ATOM     86  C   UNL     1       0.478   5.143  -0.509  1.00  0.00     0.227 C 
ATOM     87  N   UNL     1       1.179   6.212  -1.097  1.00  0.00    -0.311 N 
ATOM     88  O   UNL     1      -0.708   4.862  -0.615  1.00  0.00    -0.274 OA
BRANCH  87  89
ATOM     89  C   UNL     1       0.559   7.262  -1.838  1.00  0.00     0.055 A 
ATOM     90  C   UNL     1      -0.752   7.632  -1.464  1.00  0.00     0.028 A 
ATOM     91  C   UNL     1       1.146   7.999  -2.888  1.00  0.00     0.048 A 
ATOM     92  C   UNL     1      -1.449   8.673  -2.090  1.00  0.00     0.023 A 
ATOM     93  C   UNL     1       0.436   9.043  -3.524  1.00  0.00     0.035 A 
ATOM     94  C   UNL     1      -0.852   9.371  -3.126  1.00  0.00     0.041 A 
ATOM     95  Cl  UNL     1      -1.708  10.635  -3.918  1.00  0.00    -0.084 Cl
BRANCH  91  96
ATOM     96  C   UNL     1       2.495   7.804  -3.451  1.00  0.00     0.195 C 
ATOM     97  O   UNL     1       3.237   8.784  -3.494  1.00  0.00    -0.289 OA
BRANCH  96  98
ATOM     98  C   UNL     1       2.964   6.538  -4.056  1.00  0.00     0.023 A 
ATOM     99  C   UNL     1       4.352   6.326  -4.090  1.00  0.00     0.012 A 
ATOM    100  C   UNL     1       2.100   5.594  -4.614  1.00  0.00     0.012 A 
ATOM    101  C   UNL     1       4.877   5.183  -4.684  1.00  0.00     0.001 A 
ATOM    102  C   UNL     1       2.633   4.446  -5.208  1.00  0.00     0.001 A 
ATOM    103  C   UNL     1       4.015   4.250  -5.254  1.00  0.00     0.000 A 
ENDBRANCH  96  98
ENDBRANCH  91  96
ENDBRANCH  87  89
ENDBRANCH  81  83
ENDBRANCH  80  81
ENDBRANCH  79  80
ENDBRANCH  78  79
ENDBRANCH  77  78
ENDBRANCH  76  77
ENDBRANCH   1  76
TORSDOF 23
