REMARK SMILES Cc1ccc(NC(=O)C[C@H]([NH2+]Cc2cccnc2)C(=O)OCCOCCOCCOC(=O)c2ccc(-c3c4nc(c(-c5c(F)cc(S(=O)(=O)[O-])cc5F)c5ccc([nH]5)c(-c5c(F)cc(S(=O)(=O)[O-])cc5F)c5nc(c(-c6c(F)cc(S(=O)(=O)[O-])cc6F)c6ccc3[nH]6)C=C5)C=C4)cc2)cc1Cl
REMARK SMILES IDX 25 1 24 2 23 3 22 4 21 5 19 6 20 7 10 8 9 9 7 10 6 11 8 13
REMARK SMILES IDX 5 14 1 15 2 16 3 17 100 18 4 19 99 20 101 21 11 22 12 25
REMARK SMILES IDX 13 26 14 27 18 28 15 29 17 30 16 31 26 32 27 33 28 34 29 35
REMARK SMILES IDX 30 36 31 37 32 38 33 39 34 40 98 41 35 42 97 43 36 44 37 45
REMARK SMILES IDX 38 46 91 47 39 48 96 49 90 50 92 51 40 52 95 53 89 54 88 55
REMARK SMILES IDX 41 57 75 58 54 59 74 60 55 61 58 62 73 63 93 64 56 65 57 66
REMARK SMILES IDX 72 68 94 69 59 70 42 71 43 72 52 73 44 74 45 75 51 76 53 77
REMARK SMILES IDX 46 78 47 79 48 80 49 81 50 82 76 83 77 84 86 85 78 86 79 87
REMARK SMILES IDX 85 88 87 89 80 90 81 91 82 92 83 93 84 94 60 95 61 96 70 97
REMARK SMILES IDX 62 98 63 99 69 100 71 101 64 102 65 103 66 104 67 105 68 106
REMARK H PARENT 6 12 11 23 11 24 92 56 58 67
REMARK Flexibility Score: inf
ROOT
ATOM      1  C   UNL     1       3.076  -5.349  -1.828  1.00  0.00     0.188 C 
ENDROOT
BRANCH   1   2
ATOM      2  O   UNL     1       4.173  -4.460  -1.989  1.00  0.00    -0.376 OA
BRANCH   2   3
ATOM      3  C   UNL     1       4.311  -3.346  -1.124  1.00  0.00     0.202 C 
BRANCH   3   4
ATOM      4  C   UNL     1       3.253  -2.233  -1.194  1.00  0.00     0.261 C 
BRANCH   4   5
ATOM      5  O   UNL     1       1.881  -2.535  -0.842  1.00  0.00    -0.459 OA
BRANCH   5   6
ATOM      6  C   UNL     1       0.973  -2.612  -1.860  1.00  0.00     0.365 C 
ATOM      7  O   UNL     1       1.283  -2.752  -3.037  1.00  0.00    -0.245 OA
BRANCH   6   8
ATOM      8  C   UNL     1      -0.501  -2.372  -1.417  1.00  0.00     0.303 C 
BRANCH   8   9
ATOM      9  C   UNL     1      -0.578  -1.023  -0.715  1.00  0.00     0.177 C 
BRANCH   9  10
ATOM     10  C   UNL     1       0.119  -0.570   0.563  1.00  0.00     0.231 C 
ATOM     11  N   UNL     1       0.303  -1.162   1.764  1.00  0.00    -0.326 N 
ATOM     12  H   UNL     1       0.539  -0.481   2.435  1.00  0.00     0.169 HD
ATOM     13  O   UNL     1       0.441   0.637   0.579  1.00  0.00    -0.274 OA
BRANCH  11  14
ATOM     14  C   UNL     1       0.268  -2.428   2.372  1.00  0.00     0.042 A 
ATOM     15  C   UNL     1       0.180  -6.251   4.459  1.00  0.00     0.046 C 
ATOM     16  C   UNL     1       0.187  -4.926   3.756  1.00  0.00    -0.032 A 
ATOM     17  C   UNL     1       0.328  -3.722   4.451  1.00  0.00     0.007 A 
ATOM     18  C   UNL     1       0.083  -4.855   2.373  1.00  0.00     0.046 A 
ATOM     19  C   UNL     1       0.343  -2.491   3.768  1.00  0.00     0.026 A 
ATOM     20  C   UNL     1       0.218  -3.631   1.711  1.00  0.00     0.047 A 
ATOM     21  Cl  UNL     1      -0.254  -6.268   1.438  1.00  0.00    -0.084 Cl
ENDBRANCH  11  14
ENDBRANCH   9  10
ENDBRANCH   8   9
BRANCH   8  22
ATOM     22  N   UNL     1      -1.216  -3.522  -0.801  1.00  0.00    -0.330 N 
ATOM     23  H   UNL     1      -0.711  -3.788   0.045  1.00  0.00     0.347 HD
ATOM     24  H   UNL     1      -1.241  -4.248  -1.516  1.00  0.00     0.347 HD
BRANCH  22  25
ATOM     25  C   UNL     1      -2.622  -3.280  -0.430  1.00  0.00     0.299 C 
BRANCH  25  26
ATOM     26  C   UNL     1      -3.045  -3.947   0.863  1.00  0.00     0.024 A 
ATOM     27  C   UNL     1      -3.398  -5.296   0.936  1.00  0.00     0.013 A 
ATOM     28  C   UNL     1      -3.108  -3.225   2.058  1.00  0.00     0.120 A 
ATOM     29  C   UNL     1      -3.757  -5.860   2.164  1.00  0.00     0.021 A 
ATOM     30  N   UNL     1      -3.466  -3.738   3.263  1.00  0.00    -0.264 NA
ATOM     31  C   UNL     1      -3.769  -5.051   3.288  1.00  0.00     0.111 A 
ENDBRANCH  25  26
ENDBRANCH  22  25
ENDBRANCH   8  22
ENDBRANCH   6   8
ENDBRANCH   5   6
ENDBRANCH   4   5
ENDBRANCH   3   4
ENDBRANCH   2   3
ENDBRANCH   1   2
BRANCH   1  32
ATOM     32  C   UNL     1       2.397  -5.452  -0.463  1.00  0.00     0.188 C 
BRANCH  32  33
ATOM     33  O   UNL     1       3.260  -5.170   0.620  1.00  0.00    -0.376 OA
BRANCH  33  34
ATOM     34  C   UNL     1       3.390  -6.129   1.650  1.00  0.00     0.202 C 
BRANCH  34  35
ATOM     35  C   UNL     1       4.001  -7.474   1.249  1.00  0.00     0.261 C 
BRANCH  35  36
ATOM     36  O   UNL     1       3.424  -8.077   0.080  1.00  0.00    -0.460 OA
BRANCH  36  37
ATOM     37  C   UNL     1       2.233  -8.704   0.220  1.00  0.00     0.338 C 
ATOM     38  O   UNL     1       1.611  -8.884   1.255  1.00  0.00    -0.246 OA
BRANCH  37  39
ATOM     39  C   UNL     1       1.748  -9.007  -1.144  1.00  0.00     0.060 A 
ATOM     40  C   UNL     1       0.640  -8.331  -1.683  1.00  0.00     0.016 A 
ATOM     41  C   UNL     1       2.437  -9.946  -1.907  1.00  0.00     0.016 A 
ATOM     42  C   UNL     1       0.215  -8.600  -2.986  1.00  0.00     0.010 A 
ATOM     43  C   UNL     1       1.999 -10.231  -3.198  1.00  0.00     0.010 A 
ATOM     44  C   UNL     1       0.875  -9.578  -3.737  1.00  0.00    -0.014 A 
BRANCH  44  45
ATOM     45  C   UNL     1       0.324 -10.081  -5.018  1.00  0.00     0.031 A 
ATOM     46  C   UNL     1      -0.369 -11.412  -5.004  1.00  0.00     0.074 A 
ATOM     47  C   UNL     1       0.528  -9.429  -6.175  1.00  0.00     0.049 A 
ATOM     48  N   UNL     1      -0.692 -12.192  -5.999  1.00  0.00    -0.248 NA
ATOM     49  C   UNL     1      -0.720 -11.942  -3.677  1.00  0.00     0.031 C 
ATOM     50  C   UNL     1       1.146  -8.112  -6.307  1.00  0.00     0.029 A 
ATOM     51  N   UNL     1       0.281  -9.820  -7.468  1.00  0.00    -0.354 N 
ATOM     52  C   UNL     1      -1.241 -13.329  -5.418  1.00  0.00     0.074 A 
ATOM     53  C   UNL     1      -1.200 -13.137  -3.985  1.00  0.00     0.031 C 
ATOM     54  C   UNL     1       1.278  -7.825  -7.613  1.00  0.00     0.029 A 
ATOM     55  C   UNL     1       0.807  -8.962  -8.404  1.00  0.00     0.049 A 
ATOM     56  H   UNL     1      -0.223 -10.634  -7.701  1.00  0.00     0.167 HD
ATOM     57  C   UNL     1      -1.720 -14.438  -6.030  1.00  0.00     0.037 A 
ATOM     58  C   UNL     1       0.949  -9.105  -9.738  1.00  0.00     0.037 A 
ATOM     59  C   UNL     1      -1.748 -14.609  -7.459  1.00  0.00     0.049 A 
ATOM     60  C   UNL     1       0.457 -10.365 -10.404  1.00  0.00     0.074 A 
ATOM     61  C   UNL     1      -2.251 -15.672  -8.186  1.00  0.00     0.029 A 
ATOM     62  N   UNL     1      -1.234 -13.703  -8.376  1.00  0.00    -0.354 N 
ATOM     63  N   UNL     1      -0.084 -11.428  -9.857  1.00  0.00    -0.248 NA
ATOM     64  C   UNL     1       0.594 -10.449 -11.865  1.00  0.00     0.031 C 
ATOM     65  C   UNL     1      -1.979 -15.440  -9.538  1.00  0.00     0.029 A 
ATOM     66  C   UNL     1      -1.377 -14.197  -9.661  1.00  0.00     0.049 A 
ATOM     67  H   UNL     1      -0.827 -12.836  -8.146  1.00  0.00     0.167 HD
ATOM     68  C   UNL     1      -0.381 -12.292 -10.907  1.00  0.00     0.074 A 
ATOM     69  C   UNL     1       0.044 -11.629 -12.122  1.00  0.00     0.031 C 
ATOM     70  C   UNL     1      -0.962 -13.518 -10.866  1.00  0.00     0.037 A 
BRANCH  57  71
ATOM     71  C   UNL     1      -2.190 -15.567  -5.154  1.00  0.00     0.058 A 
ATOM     72  C   UNL     1      -3.332 -15.463  -4.344  1.00  0.00     0.135 A 
ATOM     73  C   UNL     1      -1.474 -16.775  -5.119  1.00  0.00     0.135 A 
ATOM     74  F   UNL     1      -4.047 -14.326  -4.323  1.00  0.00    -0.206 F 
ATOM     75  C   UNL     1      -3.719 -16.496  -3.495  1.00  0.00     0.059 A 
ATOM     76  C   UNL     1      -1.863 -17.835  -4.306  1.00  0.00     0.059 A 
ATOM     77  F   UNL     1      -0.374 -16.932  -5.872  1.00  0.00    -0.206 F 
ATOM     78  C   UNL     1      -2.974 -17.676  -3.480  1.00  0.00     0.060 A 
BRANCH  78  79
ATOM     79  S   UNL     1      -3.469 -18.993  -2.350  1.00  0.00     0.124 S 
ATOM     80  O   UNL     1      -3.086 -18.427  -1.059  1.00  0.00    -0.237 OA
ATOM     81  O   UNL     1      -4.904 -19.092  -2.596  1.00  0.00    -0.237 OA
ATOM     82  O   UNL     1      -2.678 -20.137  -2.792  1.00  0.00    -0.744 OA
ENDBRANCH  78  79
ENDBRANCH  57  71
BRANCH  58  83
ATOM     83  C   UNL     1       1.620  -8.030 -10.518  1.00  0.00     0.058 A 
ATOM     84  C   UNL     1       0.895  -7.200 -11.383  1.00  0.00     0.135 A 
ATOM     85  C   UNL     1       2.994  -7.775 -10.367  1.00  0.00     0.135 A 
ATOM     86  F   UNL     1      -0.416  -7.414 -11.575  1.00  0.00    -0.206 F 
ATOM     87  C   UNL     1       1.501  -6.149 -12.064  1.00  0.00     0.059 A 
ATOM     88  C   UNL     1       3.617  -6.713 -11.015  1.00  0.00     0.059 A 
ATOM     89  F   UNL     1       3.733  -8.537  -9.546  1.00  0.00    -0.206 F 
ATOM     90  C   UNL     1       2.861  -5.905 -11.862  1.00  0.00     0.060 A 
BRANCH  90  91
ATOM     91  S   UNL     1       3.612  -4.478 -12.676  1.00  0.00     0.124 S 
ATOM     92  O   UNL     1       3.618  -4.903 -14.071  1.00  0.00    -0.237 OA
ATOM     93  O   UNL     1       2.677  -3.409 -12.339  1.00  0.00    -0.237 OA
ATOM     94  O   UNL     1       4.923  -4.378 -12.042  1.00  0.00    -0.744 OA
ENDBRANCH  90  91
ENDBRANCH  58  83
BRANCH  70  95
ATOM     95  C   UNL     1      -1.236 -14.219 -12.171  1.00  0.00     0.058 A 
ATOM     96  C   UNL     1      -0.215 -14.812 -12.928  1.00  0.00     0.135 A 
ATOM     97  C   UNL     1      -2.561 -14.398 -12.604  1.00  0.00     0.135 A 
ATOM     98  F   UNL     1       1.069 -14.665 -12.565  1.00  0.00    -0.206 F 
ATOM     99  C   UNL     1      -0.498 -15.561 -14.067  1.00  0.00     0.059 A 
ATOM    100  C   UNL     1      -2.869 -15.165 -13.722  1.00  0.00     0.059 A 
ATOM    101  F   UNL     1      -3.577 -13.858 -11.911  1.00  0.00    -0.206 F 
ATOM    102  C   UNL     1      -1.829 -15.743 -14.448  1.00  0.00     0.060 A 
BRANCH 102 103
ATOM    103  S   UNL     1      -2.187 -16.786 -15.879  1.00  0.00     0.124 S 
ATOM    104  O   UNL     1      -1.717 -15.950 -16.979  1.00  0.00    -0.237 OA
ATOM    105  O   UNL     1      -1.389 -17.977 -15.602  1.00  0.00    -0.237 OA
ATOM    106  O   UNL     1      -3.632 -16.976 -15.810  1.00  0.00    -0.744 OA
ENDBRANCH 102 103
ENDBRANCH  70  95
ENDBRANCH  44  45
ENDBRANCH  37  39
ENDBRANCH  36  37
ENDBRANCH  35  36
ENDBRANCH  34  35
ENDBRANCH  33  34
ENDBRANCH  32  33
ENDBRANCH   1  32
TORSDOF 26
