REMARK SMILES CC(C)CC(=O)N[C@@H](CC(=O)OCCOCCOCCOC(=O)c1ccc(-c2c3nc(c(-c4c(F)cc(S(=O)(=O)[O-])cc4F)c4ccc([nH]4)c(-c4c(F)cc(S(=O)(=O)[O-])cc4F)c4nc(c(-c5c(F)cc(S(=O)(=O)[O-])cc5F)c5ccc2[nH]5)C=C4)C=C3)cc1)c1ccccc1Cl
REMARK SMILES IDX 16 1 15 2 14 3 13 4 12 5 10 6 11 7 9 8 8 9 7 10 5 11 6 12
REMARK SMILES IDX 4 14 2 15 1 16 3 17 90 18 91 19 95 20 92 21 94 22 96 23
REMARK SMILES IDX 93 24 17 25 18 26 19 27 20 28 21 29 22 30 23 31 24 32 25 33
REMARK SMILES IDX 89 34 26 35 88 36 27 37 28 38 29 39 82 40 30 41 87 42 81 43
REMARK SMILES IDX 83 44 31 45 86 46 80 47 79 48 32 50 66 51 45 52 65 53 46 54
REMARK SMILES IDX 49 55 64 56 84 57 47 58 48 59 63 61 85 62 50 63 33 64 34 65
REMARK SMILES IDX 43 66 35 67 36 68 42 69 44 70 37 71 38 72 39 73 40 74 41 75
REMARK SMILES IDX 67 76 68 77 77 78 69 79 70 80 76 81 78 82 71 83 72 84 73 85
REMARK SMILES IDX 74 86 75 87 51 88 52 89 61 90 53 91 54 92 60 93 62 94 55 95
REMARK SMILES IDX 56 96 57 97 58 98 59 99
REMARK H PARENT 7 13 83 49 49 60
REMARK Flexibility Score: inf
ROOT
ATOM      1  C   UNL     1       0.410  -3.026  -5.338  1.00  0.00     0.188 C 
ENDROOT
BRANCH   1   2
ATOM      2  O   UNL     1       0.503  -4.441  -5.429  1.00  0.00    -0.376 OA
BRANCH   2   3
ATOM      3  C   UNL     1      -0.128  -5.202  -4.394  1.00  0.00     0.202 C 
BRANCH   3   4
ATOM      4  C   UNL     1       0.269  -4.859  -2.947  1.00  0.00     0.261 C 
BRANCH   4   5
ATOM      5  O   UNL     1      -0.129  -3.521  -2.580  1.00  0.00    -0.463 OA
BRANCH   5   6
ATOM      6  C   UNL     1       0.790  -2.823  -1.859  1.00  0.00     0.308 C 
ATOM      7  O   UNL     1       1.749  -3.311  -1.277  1.00  0.00    -0.252 OA
BRANCH   6   8
ATOM      8  C   UNL     1       0.560  -1.339  -1.978  1.00  0.00     0.152 C 
BRANCH   8   9
ATOM      9  C   UNL     1      -0.486  -0.717  -1.052  1.00  0.00     0.125 C 
BRANCH   9  10
ATOM     10  N   UNL     1      -0.985  -1.594  -0.014  1.00  0.00    -0.349 N 
ATOM     11  C   UNL     1      -1.107  -1.347   1.321  1.00  0.00     0.220 C 
ATOM     12  O   UNL     1      -1.534  -2.235   2.059  1.00  0.00    -0.275 OA
ATOM     13  H   UNL     1      -1.275  -2.487  -0.312  1.00  0.00     0.164 HD
BRANCH  11  14
ATOM     14  C   UNL     1      -0.722   0.015   1.866  1.00  0.00     0.103 C 
BRANCH  14  15
ATOM     15  C   UNL     1       0.713   0.091   2.412  1.00  0.00    -0.008 C 
ATOM     16  C   UNL     1       1.807  -0.103   1.361  1.00  0.00     0.008 C 
ATOM     17  C   UNL     1       0.913   1.451   3.086  1.00  0.00     0.008 C 
ENDBRANCH  14  15
ENDBRANCH  11  14
ENDBRANCH   9  10
BRANCH   9  18
ATOM     18  C   UNL     1      -1.526   0.147  -1.757  1.00  0.00    -0.006 A 
ATOM     19  C   UNL     1      -1.056   1.379  -2.281  1.00  0.00     0.007 A 
ATOM     20  C   UNL     1      -2.893  -0.135  -1.898  1.00  0.00     0.046 A 
ATOM     21  C   UNL     1      -1.910   2.295  -2.895  1.00  0.00     0.000 A 
ATOM     22  C   UNL     1      -3.746   0.788  -2.521  1.00  0.00     0.021 A 
ATOM     23  Cl  UNL     1      -3.624  -1.605  -1.356  1.00  0.00    -0.084 Cl
ATOM     24  C   UNL     1      -3.258   1.996  -3.019  1.00  0.00     0.002 A 
ENDBRANCH   9  18
ENDBRANCH   8   9
ENDBRANCH   6   8
ENDBRANCH   5   6
ENDBRANCH   4   5
ENDBRANCH   3   4
ENDBRANCH   2   3
ENDBRANCH   1   2
BRANCH   1  25
ATOM     25  C   UNL     1      -0.994  -2.408  -5.436  1.00  0.00     0.188 C 
BRANCH  25  26
ATOM     26  O   UNL     1      -2.037  -3.197  -4.875  1.00  0.00    -0.376 OA
BRANCH  26  27
ATOM     27  C   UNL     1      -3.339  -2.607  -4.898  1.00  0.00     0.202 C 
BRANCH  27  28
ATOM     28  C   UNL     1      -3.914  -2.376  -6.305  1.00  0.00     0.261 C 
BRANCH  28  29
ATOM     29  O   UNL     1      -3.203  -1.361  -7.039  1.00  0.00    -0.460 OA
BRANCH  29  30
ATOM     30  C   UNL     1      -3.260  -0.115  -6.514  1.00  0.00     0.338 C 
ATOM     31  O   UNL     1      -4.008   0.275  -5.638  1.00  0.00    -0.246 OA
BRANCH  30  32
ATOM     32  C   UNL     1      -2.108   0.648  -7.031  1.00  0.00     0.060 A 
ATOM     33  C   UNL     1      -1.147   1.117  -6.127  1.00  0.00     0.016 A 
ATOM     34  C   UNL     1      -1.984   0.912  -8.391  1.00  0.00     0.016 A 
ATOM     35  C   UNL     1      -0.085   1.907  -6.566  1.00  0.00     0.010 A 
ATOM     36  C   UNL     1      -0.924   1.703  -8.833  1.00  0.00     0.010 A 
ATOM     37  C   UNL     1       0.009   2.235  -7.920  1.00  0.00    -0.014 A 
BRANCH  37  38
ATOM     38  C   UNL     1       0.955   3.267  -8.406  1.00  0.00     0.031 A 
ATOM     39  C   UNL     1       0.394   4.614  -8.765  1.00  0.00     0.074 A 
ATOM     40  C   UNL     1       2.259   3.001  -8.593  1.00  0.00     0.049 A 
ATOM     41  N   UNL     1       0.912   5.561  -9.498  1.00  0.00    -0.248 NA
ATOM     42  C   UNL     1      -0.945   4.920  -8.234  1.00  0.00     0.031 C 
ATOM     43  C   UNL     1       2.940   1.770  -8.197  1.00  0.00     0.029 A 
ATOM     44  N   UNL     1       3.235   3.745  -9.207  1.00  0.00    -0.354 N 
ATOM     45  C   UNL     1      -0.058   6.555  -9.563  1.00  0.00     0.074 A 
ATOM     46  C   UNL     1      -1.189   6.100  -8.785  1.00  0.00     0.031 C 
ATOM     47  C   UNL     1       4.217   1.826  -8.616  1.00  0.00     0.029 A 
ATOM     48  C   UNL     1       4.419   3.064  -9.367  1.00  0.00     0.049 A 
ATOM     49  H   UNL     1       3.102   4.675  -9.504  1.00  0.00     0.167 HD
ATOM     50  C   UNL     1      -0.009   7.731 -10.231  1.00  0.00     0.037 A 
ATOM     51  C   UNL     1       5.512   3.375 -10.094  1.00  0.00     0.037 A 
ATOM     52  C   UNL     1       1.133   8.169 -10.988  1.00  0.00     0.049 A 
ATOM     53  C   UNL     1       5.526   4.658 -10.888  1.00  0.00     0.074 A 
ATOM     54  C   UNL     1       1.291   9.337 -11.712  1.00  0.00     0.029 A 
ATOM     55  N   UNL     1       2.316   7.455 -11.113  1.00  0.00    -0.354 N 
ATOM     56  N   UNL     1       4.590   5.571 -10.993  1.00  0.00    -0.248 NA
ATOM     57  C   UNL     1       6.735   4.946 -11.673  1.00  0.00     0.031 C 
ATOM     58  C   UNL     1       2.557   9.311 -12.306  1.00  0.00     0.029 A 
ATOM     59  C   UNL     1       3.207   8.152 -11.909  1.00  0.00     0.049 A 
ATOM     60  H   UNL     1       2.495   6.581 -10.696  1.00  0.00     0.167 HD
ATOM     61  C   UNL     1       5.110   6.558 -11.826  1.00  0.00     0.074 A 
ATOM     62  C   UNL     1       6.441   6.127 -12.201  1.00  0.00     0.031 C 
ATOM     63  C   UNL     1       4.541   7.717 -12.239  1.00  0.00     0.037 A 
BRANCH  50  64
ATOM     64  C   UNL     1      -1.238   8.595 -10.215  1.00  0.00     0.058 A 
ATOM     65  C   UNL     1      -1.641   9.296  -9.069  1.00  0.00     0.135 A 
ATOM     66  C   UNL     1      -2.015   8.736 -11.377  1.00  0.00     0.135 A 
ATOM     67  F   UNL     1      -0.948   9.177  -7.925  1.00  0.00    -0.206 F 
ATOM     68  C   UNL     1      -2.785  10.087  -9.067  1.00  0.00     0.059 A 
ATOM     69  C   UNL     1      -3.148   9.543 -11.406  1.00  0.00     0.059 A 
ATOM     70  F   UNL     1      -1.678   8.081 -12.499  1.00  0.00    -0.206 F 
ATOM     71  C   UNL     1      -3.534  10.203 -10.240  1.00  0.00     0.060 A 
BRANCH  71  72
ATOM     72  S   UNL     1      -5.019  11.229 -10.221  1.00  0.00     0.124 S 
ATOM     73  O   UNL     1      -5.939  10.391  -9.459  1.00  0.00    -0.237 OA
ATOM     74  O   UNL     1      -4.555  12.437  -9.546  1.00  0.00    -0.237 OA
ATOM     75  O   UNL     1      -5.340  11.388 -11.636  1.00  0.00    -0.744 OA
ENDBRANCH  71  72
ENDBRANCH  50  64
BRANCH  51  76
ATOM     76  C   UNL     1       6.664   2.435 -10.144  1.00  0.00     0.058 A 
ATOM     77  C   UNL     1       7.886   2.756  -9.534  1.00  0.00     0.135 A 
ATOM     78  C   UNL     1       6.566   1.194 -10.793  1.00  0.00     0.135 A 
ATOM     79  F   UNL     1       8.035   3.937  -8.915  1.00  0.00    -0.206 F 
ATOM     80  C   UNL     1       8.970   1.885  -9.570  1.00  0.00     0.059 A 
ATOM     81  C   UNL     1       7.627   0.294 -10.820  1.00  0.00     0.059 A 
ATOM     82  F   UNL     1       5.417   0.835 -11.387  1.00  0.00    -0.206 F 
ATOM     83  C   UNL     1       8.829   0.653 -10.211  1.00  0.00     0.060 A 
BRANCH  83  84
ATOM     84  S   UNL     1      10.223  -0.496 -10.197  1.00  0.00     0.124 S 
ATOM     85  O   UNL     1      11.128   0.130 -11.153  1.00  0.00    -0.237 OA
ATOM     86  O   UNL     1      10.640  -0.454  -8.799  1.00  0.00    -0.237 OA
ATOM     87  O   UNL     1       9.622  -1.756 -10.626  1.00  0.00    -0.744 OA
ENDBRANCH  83  84
ENDBRANCH  51  76
BRANCH  63  88
ATOM     88  C   UNL     1       5.368   8.645 -13.083  1.00  0.00     0.058 A 
ATOM     89  C   UNL     1       5.589   8.409 -14.447  1.00  0.00     0.135 A 
ATOM     90  C   UNL     1       5.852   9.845 -12.534  1.00  0.00     0.135 A 
ATOM     91  F   UNL     1       5.153   7.275 -15.016  1.00  0.00    -0.206 F 
ATOM     92  C   UNL     1       6.263   9.333 -15.241  1.00  0.00     0.059 A 
ATOM     93  C   UNL     1       6.507  10.791 -13.313  1.00  0.00     0.059 A 
ATOM     94  F   UNL     1       5.656  10.120 -11.234  1.00  0.00    -0.206 F 
ATOM     95  C   UNL     1       6.710  10.525 -14.666  1.00  0.00     0.060 A 
BRANCH  95  96
ATOM     96  S   UNL     1       7.512  11.750 -15.723  1.00  0.00     0.124 S 
ATOM     97  O   UNL     1       8.821  11.143 -15.935  1.00  0.00    -0.237 OA
ATOM     98  O   UNL     1       6.631  11.784 -16.887  1.00  0.00    -0.237 OA
ATOM     99  O   UNL     1       7.505  12.960 -14.906  1.00  0.00    -0.744 OA
ENDBRANCH  95  96
ENDBRANCH  63  88
ENDBRANCH  37  38
ENDBRANCH  30  32
ENDBRANCH  29  30
ENDBRANCH  28  29
ENDBRANCH  27  28
ENDBRANCH  26  27
ENDBRANCH  25  26
ENDBRANCH   1  25
TORSDOF 25
