REMARK SMILES CN(C)c1cc(C(F)(F)F)cc(-c2cccc(/C=C/C(=O)OCCOCCOCCOC(=O)c3ccc(-c4c5nc(c(-c6c(F)cc(S(=O)(=O)[O-])cc6F)c6ccc([nH]6)c(-c6c(F)cc(S(=O)(=O)[O-])cc6F)c6nc(c(-c7c(F)cc(S(=O)(=O)[O-])cc7F)c7ccc4[nH]7)C=C6)C=C5)cc3)c2)n1
REMARK SMILES IDX 26 1 25 2 24 3 23 4 22 5 20 6 21 7 19 8 18 9 17 10 13 11
REMARK SMILES IDX 14 12 100 13 15 14 16 15 12 16 4 17 5 18 101 19 6 20 11 21
REMARK SMILES IDX 2 22 1 23 3 24 7 25 8 26 9 27 10 28 27 29 28 30 29 31 30 32
REMARK SMILES IDX 31 33 32 34 33 35 34 36 35 37 99 38 36 39 98 40 37 41 38 42
REMARK SMILES IDX 39 43 92 44 40 45 97 46 91 47 93 48 41 49 96 50 90 51 89 52
REMARK SMILES IDX 42 54 76 55 55 56 75 57 56 58 59 59 74 60 94 61 57 62 58 63
REMARK SMILES IDX 73 65 95 66 60 67 43 68 44 69 53 70 45 71 46 72 52 73 54 74
REMARK SMILES IDX 47 75 48 76 49 77 50 78 51 79 77 80 78 81 87 82 79 83 80 84
REMARK SMILES IDX 86 85 88 86 81 87 82 88 83 89 84 90 85 91 61 92 62 93 71 94
REMARK SMILES IDX 63 95 64 96 70 97 72 98 65 99 66 100 67 101 68 102 69 103
REMARK H PARENT 93 53 59 64
REMARK Flexibility Score: inf
ROOT
ATOM      1  C   UNL     1      -3.180  10.960   5.272  1.00  0.00     0.188 C 
ENDROOT
BRANCH   1   2
ATOM      2  O   UNL     1      -2.772  12.237   5.752  1.00  0.00    -0.376 OA
BRANCH   2   3
ATOM      3  C   UNL     1      -1.390  12.509   5.944  1.00  0.00     0.202 C 
BRANCH   3   4
ATOM      4  C   UNL     1      -0.531  11.546   6.777  1.00  0.00     0.261 C 
BRANCH   4   5
ATOM      5  O   UNL     1      -0.653  10.160   6.415  1.00  0.00    -0.460 OA
BRANCH   5   6
ATOM      6  C   UNL     1      -1.065   9.333   7.408  1.00  0.00     0.330 C 
ATOM      7  O   UNL     1      -1.274   9.646   8.570  1.00  0.00    -0.247 OA
BRANCH   6   8
ATOM      8  C   UNL     1      -1.354   7.966   6.924  1.00  0.00     0.094 C 
ATOM      9  C   UNL     1      -0.866   7.415   5.802  1.00  0.00     0.015 C 
BRANCH   9  10
ATOM     10  C   UNL     1      -1.192   6.049   5.356  1.00  0.00    -0.025 A 
ATOM     11  C   UNL     1      -0.479   4.010   4.182  1.00  0.00     0.001 A 
ATOM     12  C   UNL     1      -1.746   3.458   4.418  1.00  0.00     0.010 A 
ATOM     13  C   UNL     1      -0.227   5.317   4.647  1.00  0.00     0.018 A 
ATOM     14  C   UNL     1      -2.723   4.178   5.107  1.00  0.00     0.001 A 
ATOM     15  C   UNL     1      -2.448   5.467   5.569  1.00  0.00     0.008 A 
BRANCH  11  16
ATOM     16  C   UNL     1       0.563   3.233   3.494  1.00  0.00     0.073 A 
ATOM     17  C   UNL     1       1.123   1.962   1.605  1.00  0.00     0.129 A 
ATOM     18  C   UNL     1       2.397   1.742   2.124  1.00  0.00     0.060 A 
ATOM     19  N   UNL     1       0.226   2.703   2.292  1.00  0.00    -0.231 NA
ATOM     20  C   UNL     1       2.764   2.297   3.355  1.00  0.00     0.061 A 
ATOM     21  C   UNL     1       1.820   3.050   4.052  1.00  0.00     0.042 A 
BRANCH  17  22
ATOM     22  N   UNL     1       0.772   1.461   0.355  1.00  0.00    -0.363 N 
ATOM     23  C   UNL     1       1.082   0.076   0.046  1.00  0.00     0.144 C 
ATOM     24  C   UNL     1      -0.402   2.057  -0.266  1.00  0.00     0.144 C 
ENDBRANCH  17  22
BRANCH  20  25
ATOM     25  C   UNL     1       4.147   2.121   3.911  1.00  0.00     0.416 C 
ATOM     26  F   UNL     1       4.794   3.308   4.078  1.00  0.00    -0.166 F 
ATOM     27  F   UNL     1       4.148   1.521   5.133  1.00  0.00    -0.166 F 
ATOM     28  F   UNL     1       4.962   1.362   3.125  1.00  0.00    -0.166 F 
ENDBRANCH  20  25
ENDBRANCH  11  16
ENDBRANCH   9  10
ENDBRANCH   6   8
ENDBRANCH   5   6
ENDBRANCH   4   5
ENDBRANCH   3   4
ENDBRANCH   2   3
ENDBRANCH   1   2
BRANCH   1  29
ATOM     29  C   UNL     1      -2.477  10.348   4.042  1.00  0.00     0.188 C 
BRANCH  29  30
ATOM     30  O   UNL     1      -1.391  11.110   3.565  1.00  0.00    -0.376 OA
BRANCH  30  31
ATOM     31  C   UNL     1      -1.557  11.902   2.402  1.00  0.00     0.202 C 
BRANCH  31  32
ATOM     32  C   UNL     1      -2.845  12.682   2.073  1.00  0.00     0.261 C 
BRANCH  32  33
ATOM     33  O   UNL     1      -4.075  12.229   2.648  1.00  0.00    -0.460 OA
BRANCH  33  34
ATOM     34  C   UNL     1      -4.803  11.356   1.921  1.00  0.00     0.338 C 
ATOM     35  O   UNL     1      -4.489  10.846   0.852  1.00  0.00    -0.246 OA
BRANCH  34  36
ATOM     36  C   UNL     1      -5.994  10.985   2.705  1.00  0.00     0.060 A 
ATOM     37  C   UNL     1      -6.125   9.666   3.156  1.00  0.00     0.016 A 
ATOM     38  C   UNL     1      -6.985  11.932   2.979  1.00  0.00     0.016 A 
ATOM     39  C   UNL     1      -7.266   9.284   3.865  1.00  0.00     0.010 A 
ATOM     40  C   UNL     1      -8.133  11.542   3.674  1.00  0.00     0.010 A 
ATOM     41  C   UNL     1      -8.292  10.211   4.097  1.00  0.00    -0.014 A 
BRANCH  41  42
ATOM     42  C   UNL     1      -9.597   9.754   4.635  1.00  0.00     0.031 A 
ATOM     43  C   UNL     1     -10.714   9.473   3.667  1.00  0.00     0.074 A 
ATOM     44  C   UNL     1      -9.786   9.587   5.956  1.00  0.00     0.049 A 
ATOM     45  N   UNL     1     -11.949   9.117   3.906  1.00  0.00    -0.248 NA
ATOM     46  C   UNL     1     -10.394   9.616   2.237  1.00  0.00     0.031 C 
ATOM     47  C   UNL     1      -8.773   9.796   6.989  1.00  0.00     0.029 A 
ATOM     48  N   UNL     1     -10.907   9.212   6.654  1.00  0.00    -0.354 N 
ATOM     49  C   UNL     1     -12.555   8.997   2.660  1.00  0.00     0.074 A 
ATOM     50  C   UNL     1     -11.560   9.346   1.670  1.00  0.00     0.031 C 
ATOM     51  C   UNL     1      -9.324   9.561   8.193  1.00  0.00     0.029 A 
ATOM     52  C   UNL     1     -10.734   9.215   8.018  1.00  0.00     0.049 A 
ATOM     53  H   UNL     1     -11.755   8.964   6.220  1.00  0.00     0.167 HD
ATOM     54  C   UNL     1     -13.824   8.625   2.369  1.00  0.00     0.037 A 
ATOM     55  C   UNL     1     -11.620   8.988   9.009  1.00  0.00     0.037 A 
ATOM     56  C   UNL     1     -14.813   8.285   3.358  1.00  0.00     0.049 A 
ATOM     57  C   UNL     1     -13.045   8.638   8.663  1.00  0.00     0.074 A 
ATOM     58  C   UNL     1     -16.122   7.882   3.162  1.00  0.00     0.029 A 
ATOM     59  N   UNL     1     -14.605   8.319   4.729  1.00  0.00    -0.354 N 
ATOM     60  N   UNL     1     -13.599   8.503   7.481  1.00  0.00    -0.248 NA
ATOM     61  C   UNL     1     -13.967   8.407   9.785  1.00  0.00     0.031 C 
ATOM     62  C   UNL     1     -16.720   7.716   4.416  1.00  0.00     0.029 A 
ATOM     63  C   UNL     1     -15.768   7.965   5.392  1.00  0.00     0.049 A 
ATOM     64  H   UNL     1     -13.757   8.559   5.166  1.00  0.00     0.167 HD
ATOM     65  C   UNL     1     -14.922   8.143   7.717  1.00  0.00     0.074 A 
ATOM     66  C   UNL     1     -15.085   8.073   9.154  1.00  0.00     0.031 C 
ATOM     67  C   UNL     1     -15.912   7.889   6.825  1.00  0.00     0.037 A 
BRANCH  54  68
ATOM     68  C   UNL     1     -14.220   8.590   0.919  1.00  0.00     0.058 A 
ATOM     69  C   UNL     1     -13.745   7.597   0.047  1.00  0.00     0.135 A 
ATOM     70  C   UNL     1     -15.109   9.545   0.402  1.00  0.00     0.135 A 
ATOM     71  F   UNL     1     -12.877   6.671   0.486  1.00  0.00    -0.206 F 
ATOM     72  C   UNL     1     -14.117   7.568  -1.293  1.00  0.00     0.059 A 
ATOM     73  C   UNL     1     -15.516   9.520  -0.929  1.00  0.00     0.059 A 
ATOM     74  F   UNL     1     -15.591  10.518   1.191  1.00  0.00    -0.206 F 
ATOM     75  C   UNL     1     -15.003   8.534  -1.772  1.00  0.00     0.060 A 
BRANCH  75  76
ATOM     76  S   UNL     1     -15.481   8.480  -3.512  1.00  0.00     0.124 S 
ATOM     77  O   UNL     1     -14.261   8.947  -4.163  1.00  0.00    -0.237 OA
ATOM     78  O   UNL     1     -15.801   7.069  -3.704  1.00  0.00    -0.237 OA
ATOM     79  O   UNL     1     -16.618   9.393  -3.581  1.00  0.00    -0.744 OA
ENDBRANCH  75  76
ENDBRANCH  54  68
BRANCH  55  80
ATOM     80  C   UNL     1     -11.191   9.094  10.430  1.00  0.00     0.058 A 
ATOM     81  C   UNL     1     -11.105   7.959  11.249  1.00  0.00     0.135 A 
ATOM     82  C   UNL     1     -10.868  10.336  11.000  1.00  0.00     0.135 A 
ATOM     83  F   UNL     1     -11.416   6.751  10.755  1.00  0.00    -0.206 F 
ATOM     84  C   UNL     1     -10.728   8.050  12.586  1.00  0.00     0.059 A 
ATOM     85  C   UNL     1     -10.464  10.450  12.327  1.00  0.00     0.059 A 
ATOM     86  F   UNL     1     -10.928  11.453  10.258  1.00  0.00    -0.206 F 
ATOM     87  C   UNL     1     -10.408   9.302  13.115  1.00  0.00     0.060 A 
BRANCH  87  88
ATOM     88  S   UNL     1      -9.879   9.404  14.839  1.00  0.00     0.124 S 
ATOM     89  O   UNL     1     -11.138   9.193  15.545  1.00  0.00    -0.237 OA
ATOM     90  O   UNL     1      -8.908   8.318  14.927  1.00  0.00    -0.237 OA
ATOM     91  O   UNL     1      -9.317  10.748  14.939  1.00  0.00    -0.744 OA
ENDBRANCH  87  88
ENDBRANCH  55  80
BRANCH  67  92
ATOM     92  C   UNL     1     -17.252   7.470   7.369  1.00  0.00     0.058 A 
ATOM     93  C   UNL     1     -18.113   8.380   8.001  1.00  0.00     0.135 A 
ATOM     94  C   UNL     1     -17.703   6.150   7.202  1.00  0.00     0.135 A 
ATOM     95  F   UNL     1     -17.729   9.653   8.190  1.00  0.00    -0.206 F 
ATOM     96  C   UNL     1     -19.365   7.992   8.467  1.00  0.00     0.059 A 
ATOM     97  C   UNL     1     -18.962   5.747   7.636  1.00  0.00     0.059 A 
ATOM     98  F   UNL     1     -16.924   5.241   6.593  1.00  0.00    -0.206 F 
ATOM     99  C   UNL     1     -19.782   6.673   8.278  1.00  0.00     0.060 A 
BRANCH  99 100
ATOM    100  S   UNL     1     -21.423   6.189   8.856  1.00  0.00     0.124 S 
ATOM    101  O   UNL     1     -21.218   6.120  10.299  1.00  0.00    -0.237 OA
ATOM    102  O   UNL     1     -22.257   7.291   8.386  1.00  0.00    -0.237 OA
ATOM    103  O   UNL     1     -21.654   4.910   8.193  1.00  0.00    -0.744 OA
ENDBRANCH  99 100
ENDBRANCH  67  92
ENDBRANCH  41  42
ENDBRANCH  34  36
ENDBRANCH  33  34
ENDBRANCH  32  33
ENDBRANCH  31  32
ENDBRANCH  30  31
ENDBRANCH  29  30
ENDBRANCH   1  29
TORSDOF 24
