REMARK SMILES CC1=C[C@@H]([C@@H]2N=N[C@H](S)N2/N=C/c2ccc(C(=O)OCCOCCOCCOC(=O)c3ccc(-c4c5nc(c(-c6c(F)cc(S(=O)(=O)[O-])cc6F)c6ccc([nH]6)c(-c6c(F)cc(S(=O)(=O)[O-])cc6F)c6nc(c(-c7c(F)cc(S(=O)(=O)[O-])cc7F)c7ccc4[nH]7)C=C6)C=C5)cc3)cc2)N=N1
REMARK SMILES IDX 23 1 22 2 21 3 20 4 19 5 17 6 18 7 16 8 13 9 14 10 98 11
REMARK SMILES IDX 15 12 97 13 12 14 11 15 10 16 5 17 6 18 7 19 8 20 4 21 1 22
REMARK SMILES IDX 2 23 3 24 100 25 99 26 9 27 24 29 25 30 26 31 27 32 28 33
REMARK SMILES IDX 29 34 30 35 31 36 32 37 96 38 33 39 95 40 34 41 35 42 36 43
REMARK SMILES IDX 89 44 37 45 94 46 88 47 90 48 38 49 93 50 87 51 86 52 39 54
REMARK SMILES IDX 73 55 52 56 72 57 53 58 56 59 71 60 91 61 54 62 55 63 70 65
REMARK SMILES IDX 92 66 57 67 40 68 41 69 50 70 42 71 43 72 49 73 51 74 44 75
REMARK SMILES IDX 45 76 46 77 47 78 48 79 74 80 75 81 84 82 76 83 77 84 83 85
REMARK SMILES IDX 85 86 78 87 79 88 80 89 81 90 82 91 58 92 59 93 68 94 60 95
REMARK SMILES IDX 61 96 67 97 69 98 62 99 63 100 64 101 65 102 66 103
REMARK H PARENT 9 28 90 53 56 64
REMARK Flexibility Score: inf
ROOT
ATOM      1  C   UNL     1       8.800   1.729   2.573  1.00  0.00     0.188 C 
ENDROOT
BRANCH   1   2
ATOM      2  O   UNL     1       9.372   2.840   1.897  1.00  0.00    -0.376 OA
BRANCH   2   3
ATOM      3  C   UNL     1       8.531   3.890   1.444  1.00  0.00     0.202 C 
BRANCH   3   4
ATOM      4  C   UNL     1       7.340   3.555   0.525  1.00  0.00     0.261 C 
BRANCH   4   5
ATOM      5  O   UNL     1       6.518   2.456   0.960  1.00  0.00    -0.460 OA
BRANCH   5   6
ATOM      6  C   UNL     1       6.539   1.351   0.183  1.00  0.00     0.338 C 
ATOM      7  O   UNL     1       7.090   1.228  -0.907  1.00  0.00    -0.246 OA
BRANCH   6   8
ATOM      8  C   UNL     1       5.942   0.196   0.895  1.00  0.00     0.060 A 
ATOM      9  C   UNL     1       4.894  -2.076   2.131  1.00  0.00    -0.005 A 
ATOM     10  C   UNL     1       6.113  -2.162   1.457  1.00  0.00     0.010 A 
ATOM     11  C   UNL     1       4.220  -0.853   2.236  1.00  0.00     0.010 A 
ATOM     12  C   UNL     1       6.624  -1.029   0.823  1.00  0.00     0.016 A 
ATOM     13  C   UNL     1       4.754   0.292   1.630  1.00  0.00     0.016 A 
BRANCH   9  14
ATOM     14  C   UNL     1       4.306  -3.319   2.667  1.00  0.00     0.141 C 
ATOM     15  N   UNL     1       3.024  -3.494   2.648  1.00  0.00    -0.180 NA
BRANCH  15  16
ATOM     16  N   UNL     1       2.511  -4.665   3.108  1.00  0.00    -0.233 NA
ATOM     17  C   UNL     1       1.178  -5.066   2.639  1.00  0.00     0.274 C 
ATOM     18  N   UNL     1       1.127  -6.547   2.576  1.00  0.00    -0.161 NA
ATOM     19  N   UNL     1       2.237  -7.033   2.897  1.00  0.00    -0.153 NA
ATOM     20  C   UNL     1       3.183  -5.957   3.272  1.00  0.00     0.298 C 
BRANCH  17  21
ATOM     21  C   UNL     1       0.061  -4.504   3.547  1.00  0.00     0.201 C 
ATOM     22  C   UNL     1      -1.125  -6.271   6.579  1.00  0.00     0.068 C 
ATOM     23  C   UNL     1      -0.856  -5.598   5.285  1.00  0.00     0.058 C 
ATOM     24  C   UNL     1       0.198  -4.840   4.991  1.00  0.00     0.031 C 
ATOM     25  N   UNL     1      -1.708  -5.747   4.220  1.00  0.00    -0.160 NA
ATOM     26  N   UNL     1      -1.256  -5.132   3.209  1.00  0.00    -0.177 NA
ENDBRANCH  17  21
BRANCH  20  27
ATOM     27  S   UNL     1       3.815  -6.113   4.989  1.00  0.00    -0.128 SA
ATOM     28  H   UNL     1       2.778  -6.020   5.864  1.00  0.00     0.106 HD
ENDBRANCH  20  27
ENDBRANCH  15  16
ENDBRANCH   9  14
ENDBRANCH   6   8
ENDBRANCH   5   6
ENDBRANCH   4   5
ENDBRANCH   3   4
ENDBRANCH   2   3
ENDBRANCH   1   2
BRANCH   1  29
ATOM     29  C   UNL     1       7.628   1.909   3.569  1.00  0.00     0.188 C 
BRANCH  29  30
ATOM     30  O   UNL     1       7.084   3.221   3.650  1.00  0.00    -0.376 OA
BRANCH  30  31
ATOM     31  C   UNL     1       7.164   3.871   4.916  1.00  0.00     0.202 C 
BRANCH  31  32
ATOM     32  C   UNL     1       8.556   4.365   5.309  1.00  0.00     0.261 C 
BRANCH  32  33
ATOM     33  O   UNL     1       9.568   3.383   5.148  1.00  0.00    -0.460 OA
BRANCH  33  34
ATOM     34  C   UNL     1       9.502   2.329   5.971  1.00  0.00     0.338 C 
ATOM     35  O   UNL     1       8.607   2.080   6.784  1.00  0.00    -0.246 OA
BRANCH  34  36
ATOM     36  C   UNL     1      10.695   1.508   5.779  1.00  0.00     0.060 A 
ATOM     37  C   UNL     1      10.759   0.304   6.486  1.00  0.00     0.016 A 
ATOM     38  C   UNL     1      11.827   2.103   5.201  1.00  0.00     0.016 A 
ATOM     39  C   UNL     1      11.997  -0.136   6.888  1.00  0.00     0.010 A 
ATOM     40  C   UNL     1      13.057   1.687   5.635  1.00  0.00     0.010 A 
ATOM     41  C   UNL     1      13.104   0.653   6.568  1.00  0.00    -0.014 A 
BRANCH  41  42
ATOM     42  C   UNL     1      14.279   0.519   7.399  1.00  0.00     0.031 A 
ATOM     43  C   UNL     1      15.292  -0.429   6.909  1.00  0.00     0.074 A 
ATOM     44  C   UNL     1      14.443   1.340   8.455  1.00  0.00     0.049 A 
ATOM     45  N   UNL     1      15.708  -1.517   7.464  1.00  0.00    -0.248 NA
ATOM     46  C   UNL     1      15.822  -0.192   5.558  1.00  0.00     0.031 C 
ATOM     47  C   UNL     1      13.641   2.527   8.790  1.00  0.00     0.029 A 
ATOM     48  N   UNL     1      15.435   1.366   9.383  1.00  0.00    -0.354 N 
ATOM     49  C   UNL     1      16.717  -1.980   6.630  1.00  0.00     0.074 A 
ATOM     50  C   UNL     1      16.599  -1.260   5.391  1.00  0.00     0.031 C 
ATOM     51  C   UNL     1      14.302   3.263   9.709  1.00  0.00     0.029 A 
ATOM     52  C   UNL     1      15.505   2.550  10.102  1.00  0.00     0.049 A 
ATOM     53  H   UNL     1      16.049   0.611   9.532  1.00  0.00     0.167 HD
ATOM     54  C   UNL     1      17.759  -2.710   7.106  1.00  0.00     0.037 A 
ATOM     55  C   UNL     1      16.533   2.952  10.888  1.00  0.00     0.037 A 
ATOM     56  C   UNL     1      17.478  -3.273   8.399  1.00  0.00     0.049 A 
ATOM     57  C   UNL     1      17.343   1.750  11.213  1.00  0.00     0.074 A 
ATOM     58  C   UNL     1      16.558  -4.176   8.889  1.00  0.00     0.029 A 
ATOM     59  N   UNL     1      18.011  -2.628   9.488  1.00  0.00    -0.354 N 
ATOM     60  N   UNL     1      16.927   0.755  11.949  1.00  0.00    -0.248 NA
ATOM     61  C   UNL     1      18.519   1.464  10.402  1.00  0.00     0.031 C 
ATOM     62  C   UNL     1      16.309  -3.781  10.235  1.00  0.00     0.029 A 
ATOM     63  C   UNL     1      17.091  -2.656  10.506  1.00  0.00     0.049 A 
ATOM     64  H   UNL     1      18.904  -2.215   9.531  1.00  0.00     0.167 HD
ATOM     65  C   UNL     1      17.530  -0.372  11.410  1.00  0.00     0.074 A 
ATOM     66  C   UNL     1      18.597   0.140  10.562  1.00  0.00     0.031 C 
ATOM     67  C   UNL     1      16.926  -1.594  11.479  1.00  0.00     0.037 A 
BRANCH  54  68
ATOM     68  C   UNL     1      19.156  -2.587   6.556  1.00  0.00     0.058 A 
ATOM     69  C   UNL     1      20.119  -3.558   6.881  1.00  0.00     0.135 A 
ATOM     70  C   UNL     1      19.651  -1.413   5.939  1.00  0.00     0.135 A 
ATOM     71  F   UNL     1      19.757  -4.696   7.495  1.00  0.00    -0.206 F 
ATOM     72  C   UNL     1      21.481  -3.356   6.657  1.00  0.00     0.059 A 
ATOM     73  C   UNL     1      20.992  -1.220   5.644  1.00  0.00     0.059 A 
ATOM     74  F   UNL     1      18.872  -0.352   5.688  1.00  0.00    -0.206 F 
ATOM     75  C   UNL     1      21.906  -2.176   6.052  1.00  0.00     0.060 A 
BRANCH  75  76
ATOM     76  S   UNL     1      23.667  -1.844   5.880  1.00  0.00     0.124 S 
ATOM     77  O   UNL     1      24.031  -1.521   7.254  1.00  0.00    -0.237 OA
ATOM     78  O   UNL     1      24.169  -3.113   5.364  1.00  0.00    -0.237 OA
ATOM     79  O   UNL     1      23.706  -0.732   4.935  1.00  0.00    -0.744 OA
ENDBRANCH  75  76
ENDBRANCH  54  68
BRANCH  55  80
ATOM     80  C   UNL     1      17.018   4.340  11.097  1.00  0.00     0.058 A 
ATOM     81  C   UNL     1      17.877   4.661  12.160  1.00  0.00     0.135 A 
ATOM     82  C   UNL     1      16.847   5.337  10.113  1.00  0.00     0.135 A 
ATOM     83  F   UNL     1      18.123   3.761  13.124  1.00  0.00    -0.206 F 
ATOM     84  C   UNL     1      18.552   5.885  12.228  1.00  0.00     0.059 A 
ATOM     85  C   UNL     1      17.492   6.569  10.168  1.00  0.00     0.059 A 
ATOM     86  F   UNL     1      16.113   5.109   9.013  1.00  0.00    -0.206 F 
ATOM     87  C   UNL     1      18.363   6.828  11.217  1.00  0.00     0.060 A 
BRANCH  87  88
ATOM     88  S   UNL     1      19.349   8.343  11.217  1.00  0.00     0.124 S 
ATOM     89  O   UNL     1      18.801   9.059  12.364  1.00  0.00    -0.237 OA
ATOM     90  O   UNL     1      20.704   7.827  11.373  1.00  0.00    -0.237 OA
ATOM     91  O   UNL     1      19.058   8.937   9.914  1.00  0.00    -0.744 OA
ENDBRANCH  87  88
ENDBRANCH  55  80
BRANCH  67  92
ATOM     92  C   UNL     1      15.813  -1.760  12.481  1.00  0.00     0.058 A 
ATOM     93  C   UNL     1      14.556  -1.147  12.357  1.00  0.00     0.135 A 
ATOM     94  C   UNL     1      15.976  -2.690  13.518  1.00  0.00     0.135 A 
ATOM     95  F   UNL     1      14.293  -0.323  11.333  1.00  0.00    -0.206 F 
ATOM     96  C   UNL     1      13.515  -1.420  13.244  1.00  0.00     0.059 A 
ATOM     97  C   UNL     1      14.942  -3.001  14.398  1.00  0.00     0.059 A 
ATOM     98  F   UNL     1      17.136  -3.355  13.649  1.00  0.00    -0.206 F 
ATOM     99  C   UNL     1      13.715  -2.354  14.260  1.00  0.00     0.060 A 
BRANCH  99 100
ATOM    100  S   UNL     1      12.329  -2.795  15.332  1.00  0.00     0.124 S 
ATOM    101  O   UNL     1      12.254  -1.645  16.226  1.00  0.00    -0.237 OA
ATOM    102  O   UNL     1      11.225  -2.935  14.385  1.00  0.00    -0.237 OA
ATOM    103  O   UNL     1      12.764  -4.044  15.953  1.00  0.00    -0.744 OA
ENDBRANCH  99 100
ENDBRANCH  67  92
ENDBRANCH  41  42
ENDBRANCH  34  36
ENDBRANCH  33  34
ENDBRANCH  32  33
ENDBRANCH  31  32
ENDBRANCH  30  31
ENDBRANCH  29  30
ENDBRANCH   1  29
TORSDOF 24
