REMARK SMILES CCCC[C@@H](Sc1nc(OCCC2CCCCC2)cc(OCCC2CCCCC2)n1)C(=O)OCCOCCOCCOC(=O)c1ccc(-c2c3nc(c(-c4c(F)cc(S(=O)(=O)[O-])cc4F)c4ccc([nH]4)c(-c4c(F)cc(S(=O)(=O)[O-])cc4F)c4nc(c(-c5c(F)cc(S(=O)(=O)[O-])cc5F)c5ccc2[nH]5)C=C4)C=C3)cc1
REMARK SMILES IDX 36 1 35 2 34 3 33 4 31 5 32 6 5 7 4 8 3 9 2 10 1 11 6 12
REMARK SMILES IDX 7 13 8 14 30 15 9 16 20 17 19 18 10 19 11 20 12 21 13 22
REMARK SMILES IDX 14 23 18 24 15 25 17 26 16 27 21 28 22 29 23 30 24 31 25 32
REMARK SMILES IDX 29 33 26 34 28 35 27 36 37 37 38 38 39 39 40 40 41 41 42 42
REMARK SMILES IDX 43 43 44 44 45 45 46 46 110 47 47 48 109 49 48 50 49 51
REMARK SMILES IDX 50 52 103 53 51 54 108 55 102 56 104 57 52 58 107 59 101 60
REMARK SMILES IDX 100 61 53 63 87 64 66 65 86 66 67 67 70 68 85 69 105 70
REMARK SMILES IDX 68 71 69 72 84 74 106 75 71 76 54 77 55 78 64 79 56 80 57 81
REMARK SMILES IDX 63 82 65 83 58 84 59 85 60 86 61 87 62 88 88 89 89 90 98 91
REMARK SMILES IDX 90 92 91 93 97 94 99 95 92 96 93 97 94 98 95 99 96 100
REMARK SMILES IDX 72 101 73 102 82 103 74 104 75 105 81 106 83 107 76 108
REMARK SMILES IDX 77 109 78 110 79 111 80 112
REMARK H PARENT 104 62 70 73
REMARK Flexibility Score: inf
ROOT
ATOM      1  O   UNL     1      -2.183  -3.603  -4.534  1.00  0.00    -0.376 OA
ENDROOT
BRANCH   1   2
ATOM      2  C   UNL     1      -2.118  -2.861  -5.748  1.00  0.00     0.202 C 
BRANCH   2   3
ATOM      3  C   UNL     1      -2.489  -1.372  -5.702  1.00  0.00     0.261 C 
BRANCH   3   4
ATOM      4  O   UNL     1      -1.500  -0.524  -5.067  1.00  0.00    -0.462 OA
BRANCH   4   5
ATOM      5  C   UNL     1      -1.936   0.317  -4.084  1.00  0.00     0.319 C 
ATOM      6  O   UNL     1      -3.096   0.333  -3.679  1.00  0.00    -0.251 OA
BRANCH   5   7
ATOM      7  C   UNL     1      -0.859   1.295  -3.545  1.00  0.00     0.164 C 
BRANCH   7   8
ATOM      8  C   UNL     1       0.611   0.890  -3.775  1.00  0.00     0.027 C 
BRANCH   8   9
ATOM      9  C   UNL     1       1.484   0.581  -2.530  1.00  0.00     0.001 C 
BRANCH   9  10
ATOM     10  C   UNL     1       0.812   0.497  -1.156  1.00  0.00    -0.003 C 
ATOM     11  C   UNL     1       1.787   0.011  -0.089  1.00  0.00     0.004 C 
ENDBRANCH   9  10
ENDBRANCH   8   9
ENDBRANCH   7   8
BRANCH   7  12
ATOM     12  S   UNL     1      -1.245   2.929  -4.317  1.00  0.00    -0.071 SA
BRANCH  12  13
ATOM     13  C   UNL     1      -0.136   4.053  -3.505  1.00  0.00     0.195 A 
ATOM     14  N   UNL     1      -0.469   5.355  -3.607  1.00  0.00    -0.187 NA
ATOM     15  N   UNL     1       0.918   3.632  -2.788  1.00  0.00    -0.187 NA
ATOM     16  C   UNL     1       0.392   6.245  -3.103  1.00  0.00     0.221 A 
ATOM     17  C   UNL     1       1.809   4.598  -2.517  1.00  0.00     0.221 A 
ATOM     18  C   UNL     1       1.713   5.863  -3.068  1.00  0.00     0.136 A 
BRANCH  16  19
ATOM     19  O   UNL     1      -0.025   7.330  -2.091  1.00  0.00    -0.477 OA
BRANCH  19  20
ATOM     20  C   UNL     1      -0.916   8.009  -0.526  1.00  0.00     0.231 C 
BRANCH  20  21
ATOM     21  C   UNL     1      -2.270   7.674   0.467  1.00  0.00     0.045 C 
BRANCH  21  22
ATOM     22  C   UNL     1      -2.365   6.402   1.384  1.00  0.00    -0.008 C 
ATOM     23  C   UNL     1      -3.058   6.533   2.753  1.00  0.00     0.004 C 
ATOM     24  C   UNL     1      -3.053   5.175   0.718  1.00  0.00     0.004 C 
ATOM     25  C   UNL     1      -2.726   5.271   3.591  1.00  0.00     0.000 C 
ATOM     26  C   UNL     1      -2.639   3.897   1.439  1.00  0.00     0.000 C 
ATOM     27  C   UNL     1      -3.061   3.942   2.898  1.00  0.00     0.000 C 
ENDBRANCH  21  22
ENDBRANCH  20  21
ENDBRANCH  19  20
ENDBRANCH  16  19
BRANCH  17  28
ATOM     28  O   UNL     1       2.709   4.432  -1.451  1.00  0.00    -0.477 OA
BRANCH  28  29
ATOM     29  C   UNL     1       2.145   4.575  -0.090  1.00  0.00     0.231 C 
BRANCH  29  30
ATOM     30  C   UNL     1       1.981   6.056   0.471  1.00  0.00     0.045 C 
BRANCH  30  31
ATOM     31  C   UNL     1       1.103   6.835  -0.496  1.00  0.00    -0.008 C 
ATOM     32  C   UNL     1      -0.531   5.868  -0.849  1.00  0.00     0.004 C 
ATOM     33  C   UNL     1       1.291   8.616  -1.159  1.00  0.00     0.004 C 
ATOM     34  C   UNL     1      -1.926   6.665  -1.968  1.00  0.00     0.000 C 
ATOM     35  C   UNL     1       0.049   9.281  -2.437  1.00  0.00     0.000 C 
ATOM     36  C   UNL     1      -1.590   8.360  -2.780  1.00  0.00     0.000 C 
ENDBRANCH  30  31
ENDBRANCH  29  30
ENDBRANCH  28  29
ENDBRANCH  17  28
ENDBRANCH  12  13
ENDBRANCH   7  12
ENDBRANCH   5   7
ENDBRANCH   4   5
ENDBRANCH   3   4
ENDBRANCH   2   3
ENDBRANCH   1   2
BRANCH   1  37
ATOM     37  C   UNL     1      -1.491  -3.112  -3.395  1.00  0.00     0.188 C 
BRANCH  37  38
ATOM     38  C   UNL     1      -0.043  -2.647  -3.571  1.00  0.00     0.188 C 
BRANCH  38  39
ATOM     39  O   UNL     1       0.539  -2.944  -4.828  1.00  0.00    -0.376 OA
BRANCH  39  40
ATOM     40  C   UNL     1       1.703  -3.762  -4.787  1.00  0.00     0.202 C 
BRANCH  40  41
ATOM     41  C   UNL     1       1.420  -5.217  -4.385  1.00  0.00     0.261 C 
BRANCH  41  42
ATOM     42  O   UNL     1       0.922  -5.380  -3.043  1.00  0.00    -0.460 OA
BRANCH  42  43
ATOM     43  C   UNL     1       1.771  -5.038  -2.044  1.00  0.00     0.338 C 
ATOM     44  O   UNL     1       2.921  -4.662  -2.155  1.00  0.00    -0.246 OA
BRANCH  43  45
ATOM     45  C   UNL     1       0.988  -4.974  -0.793  1.00  0.00     0.060 A 
ATOM     46  C   UNL     1       0.786  -3.726  -0.192  1.00  0.00     0.016 A 
ATOM     47  C   UNL     1       0.470  -6.130  -0.213  1.00  0.00     0.016 A 
ATOM     48  C   UNL     1       0.081  -3.625   1.004  1.00  0.00     0.010 A 
ATOM     49  C   UNL     1      -0.220  -6.032   0.999  1.00  0.00     0.010 A 
ATOM     50  C   UNL     1      -0.396  -4.783   1.627  1.00  0.00    -0.014 A 
BRANCH  50  51
ATOM     51  C   UNL     1      -0.905  -4.713   3.018  1.00  0.00     0.031 A 
ATOM     52  C   UNL     1       0.007  -5.149   4.132  1.00  0.00     0.074 A 
ATOM     53  C   UNL     1      -2.134  -4.241   3.296  1.00  0.00     0.049 A 
ATOM     54  N   UNL     1      -0.246  -5.295   5.405  1.00  0.00    -0.248 NA
ATOM     55  C   UNL     1       1.395  -5.464   3.753  1.00  0.00     0.031 C 
ATOM     56  C   UNL     1      -3.081  -3.711   2.316  1.00  0.00     0.029 A 
ATOM     57  N   UNL     1      -2.796  -4.136   4.494  1.00  0.00    -0.354 N 
ATOM     58  C   UNL     1       0.939  -5.744   5.976  1.00  0.00     0.074 A 
ATOM     59  C   UNL     1       1.908  -5.859   4.908  1.00  0.00     0.031 C 
ATOM     60  C   UNL     1      -4.209  -3.348   2.953  1.00  0.00     0.029 A 
ATOM     61  C   UNL     1      -4.081  -3.663   4.374  1.00  0.00     0.049 A 
ATOM     62  H   UNL     1      -2.389  -4.378   5.357  1.00  0.00     0.167 HD
ATOM     63  C   UNL     1       1.196  -6.033   7.273  1.00  0.00     0.037 A 
ATOM     64  C   UNL     1      -5.052  -3.535   5.301  1.00  0.00     0.037 A 
ATOM     65  C   UNL     1       0.233  -5.901   8.333  1.00  0.00     0.049 A 
ATOM     66  C   UNL     1      -4.769  -3.936   6.727  1.00  0.00     0.074 A 
ATOM     67  C   UNL     1       0.391  -6.176   9.680  1.00  0.00     0.029 A 
ATOM     68  N   UNL     1      -1.070  -5.455   8.166  1.00  0.00    -0.354 N 
ATOM     69  N   UNL     1      -3.655  -4.393   7.251  1.00  0.00    -0.248 NA
ATOM     70  C   UNL     1      -5.875  -3.813   7.687  1.00  0.00     0.031 C 
ATOM     71  C   UNL     1      -0.829  -5.933  10.321  1.00  0.00     0.029 A 
ATOM     72  C   UNL     1      -1.732  -5.461   9.382  1.00  0.00     0.049 A 
ATOM     73  H   UNL     1      -1.466  -5.175   7.309  1.00  0.00     0.167 HD
ATOM     74  C   UNL     1      -3.921  -4.586   8.604  1.00  0.00     0.074 A 
ATOM     75  C   UNL     1      -5.296  -4.189   8.819  1.00  0.00     0.031 C 
ATOM     76  C   UNL     1      -3.100  -5.050   9.580  1.00  0.00     0.037 A 
BRANCH  63  77
ATOM     77  C   UNL     1       2.564  -6.559   7.604  1.00  0.00     0.058 A 
ATOM     78  C   UNL     1       3.700  -5.735   7.589  1.00  0.00     0.135 A 
ATOM     79  C   UNL     1       2.737  -7.909   7.949  1.00  0.00     0.135 A 
ATOM     80  F   UNL     1       3.594  -4.442   7.242  1.00  0.00    -0.206 F 
ATOM     81  C   UNL     1       4.965  -6.238   7.875  1.00  0.00     0.059 A 
ATOM     82  C   UNL     1       3.989  -8.428   8.265  1.00  0.00     0.059 A 
ATOM     83  F   UNL     1       1.684  -8.741   7.973  1.00  0.00    -0.206 F 
ATOM     84  C   UNL     1       5.100  -7.587   8.210  1.00  0.00     0.060 A 
BRANCH  84  85
ATOM     85  S   UNL     1       6.747  -8.228   8.573  1.00  0.00     0.124 S 
ATOM     86  O   UNL     1       7.339  -8.282   7.239  1.00  0.00    -0.237 OA
ATOM     87  O   UNL     1       7.290  -7.209   9.466  1.00  0.00    -0.237 OA
ATOM     88  O   UNL     1       6.480  -9.522   9.193  1.00  0.00    -0.744 OA
ENDBRANCH  84  85
ENDBRANCH  63  77
BRANCH  64  89
ATOM     89  C   UNL     1      -6.398  -3.035   4.909  1.00  0.00     0.058 A 
ATOM     90  C   UNL     1      -6.864  -1.786   5.345  1.00  0.00     0.135 A 
ATOM     91  C   UNL     1      -7.251  -3.802   4.100  1.00  0.00     0.135 A 
ATOM     92  F   UNL     1      -6.093  -1.021   6.135  1.00  0.00    -0.206 F 
ATOM     93  C   UNL     1      -8.130  -1.319   5.004  1.00  0.00     0.059 A 
ATOM     94  C   UNL     1      -8.510  -3.346   3.723  1.00  0.00     0.059 A 
ATOM     95  F   UNL     1      -6.853  -5.003   3.653  1.00  0.00    -0.206 F 
ATOM     96  C   UNL     1      -8.945  -2.107   4.190  1.00  0.00     0.060 A 
BRANCH  96  97
ATOM     97  S   UNL     1     -10.569  -1.473   3.715  1.00  0.00     0.124 S 
ATOM     98  O   UNL     1     -11.319  -1.630   4.956  1.00  0.00    -0.237 OA
ATOM     99  O   UNL     1     -10.261  -0.101   3.325  1.00  0.00    -0.237 OA
ATOM    100  O   UNL     1     -10.966  -2.355   2.622  1.00  0.00    -0.744 OA
ENDBRANCH  96  97
ENDBRANCH  64  89
BRANCH  76 101
ATOM    101  C   UNL     1      -3.650  -5.114  10.978  1.00  0.00     0.058 A 
ATOM    102  C   UNL     1      -4.576  -6.095  11.365  1.00  0.00     0.135 A 
ATOM    103  C   UNL     1      -3.197  -4.216  11.959  1.00  0.00     0.135 A 
ATOM    104  F   UNL     1      -5.043  -6.975  10.466  1.00  0.00    -0.206 F 
ATOM    105  C   UNL     1      -5.052  -6.170  12.671  1.00  0.00     0.059 A 
ATOM    106  C   UNL     1      -3.640  -4.288  13.276  1.00  0.00     0.059 A 
ATOM    107  F   UNL     1      -2.302  -3.266  11.645  1.00  0.00    -0.206 F 
ATOM    108  C   UNL     1      -4.577  -5.262  13.620  1.00  0.00     0.060 A 
BRANCH 108 109
ATOM    109  S   UNL     1      -5.176  -5.389  15.318  1.00  0.00     0.124 S 
ATOM    110  O   UNL     1      -6.519  -4.833  15.198  1.00  0.00    -0.237 OA
ATOM    111  O   UNL     1      -5.103  -6.825  15.570  1.00  0.00    -0.237 OA
ATOM    112  O   UNL     1      -4.226  -4.578  16.075  1.00  0.00    -0.744 OA
ENDBRANCH 108 109
ENDBRANCH  76 101
ENDBRANCH  50  51
ENDBRANCH  43  45
ENDBRANCH  42  43
ENDBRANCH  41  42
ENDBRANCH  40  41
ENDBRANCH  39  40
ENDBRANCH  38  39
ENDBRANCH  37  38
ENDBRANCH   1  37
TORSDOF 33
