REMARK SMILES Cc1cc(SCC(=O)OCCOCCOCCOC(=O)c2ccc(-c3c4nc(c(-c5c(F)cc(S(=O)(=O)[O-])cc5F)c5ccc([nH]5)c(-c5c(F)cc(S(=O)(=O)[O-])cc5F)c5nc(c(-c6c(F)cc(S(=O)(=O)[O-])cc6F)c6ccc3[nH]6)C=C5)C=C4)cc2)c2cc(I)ccc2n1
REMARK SMILES IDX 14 1 13 2 12 3 11 4 10 5 9 6 7 7 8 8 6 9 5 10 4 11 1 12 2 13
REMARK SMILES IDX 3 14 94 15 93 16 87 17 92 18 88 19 91 20 89 21 90 22 15 23
REMARK SMILES IDX 16 24 17 25 18 26 19 27 20 28 21 29 22 30 86 31 23 32 85 33
REMARK SMILES IDX 24 34 25 35 26 36 79 37 27 38 84 39 78 40 80 41 28 42 83 43
REMARK SMILES IDX 77 44 76 45 29 47 63 48 42 49 62 50 43 51 46 52 61 53 81 54
REMARK SMILES IDX 44 55 45 56 60 58 82 59 47 60 30 61 31 62 40 63 32 64 33 65
REMARK SMILES IDX 39 66 41 67 34 68 35 69 36 70 37 71 38 72 64 73 65 74 74 75
REMARK SMILES IDX 66 76 67 77 73 78 75 79 68 80 69 81 70 82 71 83 72 84 48 85
REMARK SMILES IDX 49 86 58 87 50 88 51 89 57 90 59 91 52 92 53 93 54 94 55 95
REMARK SMILES IDX 56 96
REMARK H PARENT 80 46 46 57
REMARK Flexibility Score: inf
ROOT
ATOM      1  C   UNL     1       2.514  -1.582  -2.988  1.00  0.00     0.188 C 
ENDROOT
BRANCH   1   2
ATOM      2  C   UNL     1       3.052  -2.558  -1.921  1.00  0.00     0.188 C 
BRANCH   2   3
ATOM      3  O   UNL     1       4.172  -3.370  -2.261  1.00  0.00    -0.376 OA
BRANCH   3   4
ATOM      4  C   UNL     1       4.146  -4.059  -3.510  1.00  0.00     0.202 C 
BRANCH   4   5
ATOM      5  C   UNL     1       2.973  -5.027  -3.689  1.00  0.00     0.261 C 
BRANCH   5   6
ATOM      6  O   UNL     1       1.773  -4.267  -3.920  1.00  0.00    -0.463 OA
BRANCH   6   7
ATOM      7  C   UNL     1       0.591  -4.887  -3.670  1.00  0.00     0.316 C 
ATOM      8  O   UNL     1       0.469  -6.096  -3.529  1.00  0.00    -0.251 OA
BRANCH   7   9
ATOM      9  C   UNL     1      -0.510  -3.876  -3.379  1.00  0.00     0.197 C 
BRANCH   9  10
ATOM     10  S   UNL     1      -0.833  -2.733  -4.774  1.00  0.00    -0.114 SA
BRANCH  10  11
ATOM     11  C   UNL     1      -1.076  -1.093  -4.015  1.00  0.00     0.019 A 
ATOM     12  C   UNL     1      -2.137   0.568  -0.762  1.00  0.00     0.067 C 
ATOM     13  C   UNL     1      -1.622   0.325  -2.148  1.00  0.00     0.039 A 
ATOM     14  C   UNL     1      -1.480  -0.952  -2.681  1.00  0.00     0.039 A 
ATOM     15  N   UNL     1      -1.345   1.436  -2.853  1.00  0.00    -0.253 NA
ATOM     16  C   UNL     1      -1.024   1.328  -4.140  1.00  0.00     0.072 A 
ATOM     17  C   UNL     1      -0.902   0.087  -4.805  1.00  0.00     0.015 A 
ATOM     18  C   UNL     1      -0.850   2.515  -4.835  1.00  0.00     0.030 A 
ATOM     19  C   UNL     1      -0.654   0.122  -6.205  1.00  0.00     0.026 A 
ATOM     20  C   UNL     1      -0.620   2.536  -6.209  1.00  0.00     0.017 A 
ATOM     21  C   UNL     1      -0.541   1.333  -6.894  1.00  0.00     0.014 A 
ATOM     22  I   UNL     1      -0.304   1.342  -8.958  1.00  0.00    -0.044 I 
ENDBRANCH  10  11
ENDBRANCH   9  10
ENDBRANCH   7   9
ENDBRANCH   6   7
ENDBRANCH   5   6
ENDBRANCH   4   5
ENDBRANCH   3   4
ENDBRANCH   2   3
ENDBRANCH   1   2
BRANCH   1  23
ATOM     23  O   UNL     1       3.439  -1.040  -3.919  1.00  0.00    -0.376 OA
BRANCH  23  24
ATOM     24  C   UNL     1       4.551  -0.350  -3.362  1.00  0.00     0.202 C 
BRANCH  24  25
ATOM     25  C   UNL     1       4.165   0.869  -2.526  1.00  0.00     0.261 C 
BRANCH  25  26
ATOM     26  O   UNL     1       3.556   0.447  -1.290  1.00  0.00    -0.460 OA
BRANCH  26  27
ATOM     27  C   UNL     1       2.729   1.363  -0.735  1.00  0.00     0.338 C 
ATOM     28  O   UNL     1       2.572   2.515  -1.096  1.00  0.00    -0.246 OA
BRANCH  27  29
ATOM     29  C   UNL     1       2.021   0.771   0.420  1.00  0.00     0.060 A 
ATOM     30  C   UNL     1       2.185   1.361   1.670  1.00  0.00     0.016 A 
ATOM     31  C   UNL     1       1.077  -0.245   0.248  1.00  0.00     0.016 A 
ATOM     32  C   UNL     1       1.379   0.956   2.738  1.00  0.00     0.010 A 
ATOM     33  C   UNL     1       0.239  -0.613   1.306  1.00  0.00     0.010 A 
ATOM     34  C   UNL     1       0.358   0.003   2.556  1.00  0.00    -0.014 A 
BRANCH  34  35
ATOM     35  C   UNL     1      -0.637  -0.241   3.639  1.00  0.00     0.031 A 
ATOM     36  C   UNL     1      -0.813  -1.596   4.269  1.00  0.00     0.074 A 
ATOM     37  C   UNL     1      -1.429   0.777   4.040  1.00  0.00     0.049 A 
ATOM     38  N   UNL     1      -1.510  -1.922   5.328  1.00  0.00    -0.248 NA
ATOM     39  C   UNL     1      -0.165  -2.737   3.607  1.00  0.00     0.031 C 
ATOM     40  C   UNL     1      -1.488   2.102   3.414  1.00  0.00     0.029 A 
ATOM     41  N   UNL     1      -2.319   0.868   5.083  1.00  0.00    -0.354 N 
ATOM     42  C   UNL     1      -1.367  -3.297   5.470  1.00  0.00     0.074 A 
ATOM     43  C   UNL     1      -0.602  -3.757   4.332  1.00  0.00     0.031 C 
ATOM     44  C   UNL     1      -2.307   2.891   4.127  1.00  0.00     0.029 A 
ATOM     45  C   UNL     1      -2.832   2.134   5.259  1.00  0.00     0.049 A 
ATOM     46  H   UNL     1      -2.567   0.102   5.649  1.00  0.00     0.167 HD
ATOM     47  C   UNL     1      -1.783  -4.095   6.483  1.00  0.00     0.037 A 
ATOM     48  C   UNL     1      -3.593   2.643   6.247  1.00  0.00     0.037 A 
ATOM     49  C   UNL     1      -2.514  -3.627   7.630  1.00  0.00     0.049 A 
ATOM     50  C   UNL     1      -3.977   1.766   7.408  1.00  0.00     0.074 A 
ATOM     51  C   UNL     1      -2.895  -4.333   8.758  1.00  0.00     0.029 A 
ATOM     52  N   UNL     1      -2.973  -2.329   7.797  1.00  0.00    -0.354 N 
ATOM     53  N   UNL     1      -3.699   0.500   7.610  1.00  0.00    -0.248 NA
ATOM     54  C   UNL     1      -4.755   2.391   8.488  1.00  0.00     0.031 C 
ATOM     55  C   UNL     1      -3.602  -3.465   9.599  1.00  0.00     0.029 A 
ATOM     56  C   UNL     1      -3.637  -2.213   9.006  1.00  0.00     0.049 A 
ATOM     57  H   UNL     1      -2.845  -1.597   7.151  1.00  0.00     0.167 HD
ATOM     58  C   UNL     1      -4.244   0.185   8.850  1.00  0.00     0.074 A 
ATOM     59  C   UNL     1      -4.860   1.394   9.356  1.00  0.00     0.031 C 
ATOM     60  C   UNL     1      -4.233  -1.000   9.506  1.00  0.00     0.037 A 
BRANCH  47  61
ATOM     61  C   UNL     1      -1.388  -5.545   6.427  1.00  0.00     0.058 A 
ATOM     62  C   UNL     1      -0.048  -5.932   6.596  1.00  0.00     0.135 A 
ATOM     63  C   UNL     1      -2.342  -6.556   6.234  1.00  0.00     0.135 A 
ATOM     64  F   UNL     1       0.906  -5.004   6.775  1.00  0.00    -0.206 F 
ATOM     65  C   UNL     1       0.339  -7.264   6.532  1.00  0.00     0.059 A 
ATOM     66  C   UNL     1      -1.980  -7.901   6.194  1.00  0.00     0.059 A 
ATOM     67  F   UNL     1      -3.637  -6.243   6.074  1.00  0.00    -0.206 F 
ATOM     68  C   UNL     1      -0.634  -8.242   6.325  1.00  0.00     0.060 A 
BRANCH  68  69
ATOM     69  S   UNL     1      -0.107  -9.966   6.230  1.00  0.00     0.124 S 
ATOM     70  O   UNL     1       0.525 -10.001   4.914  1.00  0.00    -0.237 OA
ATOM     71  O   UNL     1       0.798 -10.080   7.369  1.00  0.00    -0.237 OA
ATOM     72  O   UNL     1      -1.356 -10.710   6.347  1.00  0.00    -0.744 OA
ENDBRANCH  68  69
ENDBRANCH  47  61
BRANCH  48  73
ATOM     73  C   UNL     1      -3.950   4.086   6.238  1.00  0.00     0.058 A 
ATOM     74  C   UNL     1      -3.304   4.984   7.101  1.00  0.00     0.135 A 
ATOM     75  C   UNL     1      -4.919   4.598   5.364  1.00  0.00     0.135 A 
ATOM     76  F   UNL     1      -2.370   4.539   7.955  1.00  0.00    -0.206 F 
ATOM     77  C   UNL     1      -3.619   6.338   7.112  1.00  0.00     0.059 A 
ATOM     78  C   UNL     1      -5.239   5.953   5.343  1.00  0.00     0.059 A 
ATOM     79  F   UNL     1      -5.550   3.781   4.506  1.00  0.00    -0.206 F 
ATOM     80  C   UNL     1      -4.590   6.814   6.229  1.00  0.00     0.060 A 
BRANCH  80  81
ATOM     81  S   UNL     1      -4.963   8.581   6.230  1.00  0.00     0.124 S 
ATOM     82  O   UNL     1      -5.670   8.731   7.497  1.00  0.00    -0.237 OA
ATOM     83  O   UNL     1      -3.630   9.174   6.169  1.00  0.00    -0.237 OA
ATOM     84  O   UNL     1      -5.774   8.754   5.029  1.00  0.00    -0.744 OA
ENDBRANCH  80  81
ENDBRANCH  48  73
BRANCH  60  85
ATOM     85  C   UNL     1      -4.890  -1.059  10.855  1.00  0.00     0.058 A 
ATOM     86  C   UNL     1      -6.286  -1.098  10.987  1.00  0.00     0.135 A 
ATOM     87  C   UNL     1      -4.115  -1.176  12.021  1.00  0.00     0.135 A 
ATOM     88  F   UNL     1      -7.070  -0.983   9.903  1.00  0.00    -0.206 F 
ATOM     89  C   UNL     1      -6.893  -1.251  12.229  1.00  0.00     0.059 A 
ATOM     90  C   UNL     1      -4.700  -1.350  13.271  1.00  0.00     0.059 A 
ATOM     91  F   UNL     1      -2.774  -1.151  11.946  1.00  0.00    -0.206 F 
ATOM     92  C   UNL     1      -6.091  -1.386  13.364  1.00  0.00     0.060 A 
BRANCH  92  93
ATOM     93  S   UNL     1      -6.892  -1.661  14.959  1.00  0.00     0.124 S 
ATOM     94  O   UNL     1      -7.434  -0.338  15.249  1.00  0.00    -0.237 OA
ATOM     95  O   UNL     1      -7.874  -2.693  14.640  1.00  0.00    -0.237 OA
ATOM     96  O   UNL     1      -5.795  -2.094  15.820  1.00  0.00    -0.744 OA
ENDBRANCH  92  93
ENDBRANCH  60  85
ENDBRANCH  34  35
ENDBRANCH  27  29
ENDBRANCH  26  27
ENDBRANCH  25  26
ENDBRANCH  24  25
ENDBRANCH  23  24
ENDBRANCH   1  23
TORSDOF 22
