REMARK SMILES C[C@@H]1[C@@H](C(=O)OCCOCCOCCOC(=O)c2ccc(-c3c4nc(c(-c5c(F)cc(S(=O)(=O)[O-])cc5F)c5ccc([nH]5)c(-c5c(F)cc(S(=O)(=O)[O-])cc5F)c5nc(c(-c6c(F)cc(S(=O)(=O)[O-])cc6F)c6ccc3[nH]6)C=C5)C=C4)cc2)CCN1C(=O)CC[C@@H]1CCCC[NH2+]1
REMARK SMILES IDX 10 1 9 2 8 3 7 4 6 5 4 6 5 7 3 8 1 9 2 10 86 11 84 12 85 13
REMARK SMILES IDX 87 14 88 15 89 16 90 17 91 18 92 19 96 20 93 21 95 22 94 25
REMARK SMILES IDX 11 26 12 27 13 28 14 29 15 30 16 31 17 32 18 33 19 34 83 35
REMARK SMILES IDX 20 36 82 37 21 38 22 39 23 40 76 41 24 42 81 43 75 44 77 45
REMARK SMILES IDX 25 46 80 47 74 48 73 49 26 51 60 52 39 53 59 54 40 55 43 56
REMARK SMILES IDX 58 57 78 58 41 59 42 60 57 62 79 63 44 64 27 65 28 66 37 67
REMARK SMILES IDX 29 68 30 69 36 70 38 71 31 72 32 73 33 74 34 75 35 76 61 77
REMARK SMILES IDX 62 78 71 79 63 80 64 81 70 82 72 83 65 84 66 85 67 86 68 87
REMARK SMILES IDX 69 88 45 89 46 90 55 91 47 92 48 93 54 94 56 95 49 96 50 97
REMARK SMILES IDX 51 98 52 99 53 100
REMARK H PARENT 96 23 96 24 77 50 43 61
REMARK Flexibility Score: inf
ROOT
ATOM      1  C   UNL     1      -0.122   3.277  -2.884  1.00  0.00     0.188 C 
ENDROOT
BRANCH   1   2
ATOM      2  O   UNL     1      -1.123   3.380  -3.880  1.00  0.00    -0.376 OA
BRANCH   2   3
ATOM      3  C   UNL     1      -1.962   2.257  -4.089  1.00  0.00     0.202 C 
BRANCH   3   4
ATOM      4  C   UNL     1      -2.993   2.051  -2.977  1.00  0.00     0.261 C 
BRANCH   4   5
ATOM      5  O   UNL     1      -2.404   1.912  -1.669  1.00  0.00    -0.463 OA
BRANCH   5   6
ATOM      6  C   UNL     1      -1.905   0.683  -1.373  1.00  0.00     0.311 C 
ATOM      7  O   UNL     1      -2.013  -0.291  -2.107  1.00  0.00    -0.252 OA
BRANCH   6   8
ATOM      8  C   UNL     1      -1.167   0.714  -0.036  1.00  0.00     0.123 C 
ATOM      9  C   UNL     1       1.176   0.216   0.847  1.00  0.00     0.032 C 
ATOM     10  C   UNL     1       0.045  -0.229  -0.077  1.00  0.00     0.096 C 
ATOM     11  N   UNL     1      -0.497  -1.544   0.281  1.00  0.00    -0.339 N 
ATOM     12  C   UNL     1      -2.015   0.118   1.069  1.00  0.00     0.039 C 
ATOM     13  C   UNL     1      -1.823  -1.383   0.869  1.00  0.00     0.121 C 
BRANCH  11  14
ATOM     14  C   UNL     1      -0.114  -2.811  -0.146  1.00  0.00     0.223 C 
ATOM     15  O   UNL     1      -0.940  -3.732  -0.158  1.00  0.00    -0.275 OA
BRANCH  14  16
ATOM     16  C   UNL     1       1.347  -3.135  -0.480  1.00  0.00     0.106 C 
BRANCH  16  17
ATOM     17  C   UNL     1       1.734  -3.198  -1.971  1.00  0.00     0.075 C 
BRANCH  17  18
ATOM     18  C   UNL     1       1.895  -1.792  -2.536  1.00  0.00     0.182 C 
ATOM     19  C   UNL     1       0.921  -1.482  -3.675  1.00  0.00     0.065 C 
ATOM     20  N   UNL     1       3.242  -1.357  -2.900  1.00  0.00    -0.344 N 
ATOM     21  C   UNL     1       0.955   0.002  -4.034  1.00  0.00     0.012 C 
ATOM     22  C   UNL     1       3.221   0.110  -2.969  1.00  0.00     0.260 C 
ATOM     23  H   UNL     1       3.501  -1.746  -3.807  1.00  0.00     0.346 HD
ATOM     24  H   UNL     1       3.924  -1.678  -2.213  1.00  0.00     0.346 HD
ATOM     25  C   UNL     1       2.370   0.547  -4.159  1.00  0.00     0.062 C 
ENDBRANCH  17  18
ENDBRANCH  16  17
ENDBRANCH  14  16
ENDBRANCH  11  14
ENDBRANCH   6   8
ENDBRANCH   5   6
ENDBRANCH   4   5
ENDBRANCH   3   4
ENDBRANCH   2   3
ENDBRANCH   1   2
BRANCH   1  26
ATOM     26  C   UNL     1      -0.191   4.392  -1.827  1.00  0.00     0.188 C 
BRANCH  26  27
ATOM     27  O   UNL     1      -0.897   5.596  -2.091  1.00  0.00    -0.376 OA
BRANCH  27  28
ATOM     28  C   UNL     1      -0.960   6.101  -3.416  1.00  0.00     0.202 C 
BRANCH  28  29
ATOM     29  C   UNL     1       0.345   6.524  -4.103  1.00  0.00     0.261 C 
BRANCH  29  30
ATOM     30  O   UNL     1       1.384   5.528  -4.197  1.00  0.00    -0.460 OA
BRANCH  30  31
ATOM     31  C   UNL     1       2.432   5.697  -3.350  1.00  0.00     0.338 C 
ATOM     32  O   UNL     1       2.518   6.532  -2.464  1.00  0.00    -0.246 OA
BRANCH  31  33
ATOM     33  C   UNL     1       3.473   4.658  -3.556  1.00  0.00     0.060 A 
ATOM     34  C   UNL     1       3.957   3.970  -2.437  1.00  0.00     0.016 A 
ATOM     35  C   UNL     1       4.068   4.448  -4.804  1.00  0.00     0.016 A 
ATOM     36  C   UNL     1       5.051   3.100  -2.562  1.00  0.00     0.010 A 
ATOM     37  C   UNL     1       5.174   3.585  -4.923  1.00  0.00     0.010 A 
ATOM     38  C   UNL     1       5.691   2.917  -3.802  1.00  0.00    -0.014 A 
BRANCH  38  39
ATOM     39  C   UNL     1       6.985   2.165  -3.865  1.00  0.00     0.031 A 
ATOM     40  C   UNL     1       8.253   2.882  -3.500  1.00  0.00     0.074 A 
ATOM     41  C   UNL     1       7.062   0.864  -4.212  1.00  0.00     0.049 A 
ATOM     42  N   UNL     1       9.477   2.425  -3.470  1.00  0.00    -0.248 NA
ATOM     43  C   UNL     1       8.131   4.314  -3.184  1.00  0.00     0.031 C 
ATOM     44  C   UNL     1       5.950   0.072  -4.703  1.00  0.00     0.029 A 
ATOM     45  N   UNL     1       8.099  -0.041  -4.168  1.00  0.00    -0.354 N 
ATOM     46  C   UNL     1      10.280   3.518  -3.180  1.00  0.00     0.074 A 
ATOM     47  C   UNL     1       9.400   4.659  -3.025  1.00  0.00     0.031 C 
ATOM     48  C   UNL     1       6.293  -1.224  -4.732  1.00  0.00     0.029 A 
ATOM     49  C   UNL     1       7.714  -1.341  -4.433  1.00  0.00     0.049 A 
ATOM     50  H   UNL     1       9.028   0.215  -3.966  1.00  0.00     0.167 HD
ATOM     51  C   UNL     1      11.629   3.572  -3.088  1.00  0.00     0.037 A 
ATOM     52  C   UNL     1       8.426  -2.489  -4.476  1.00  0.00     0.037 A 
ATOM     53  C   UNL     1      12.505   2.444  -3.280  1.00  0.00     0.049 A 
ATOM     54  C   UNL     1       9.925  -2.404  -4.340  1.00  0.00     0.074 A 
ATOM     55  C   UNL     1      13.888   2.414  -3.229  1.00  0.00     0.029 A 
ATOM     56  N   UNL     1      12.090   1.152  -3.566  1.00  0.00    -0.354 N 
ATOM     57  N   UNL     1      10.669  -1.359  -4.069  1.00  0.00    -0.248 NA
ATOM     58  C   UNL     1      10.689  -3.637  -4.582  1.00  0.00     0.031 C 
ATOM     59  C   UNL     1      14.310   1.114  -3.524  1.00  0.00     0.029 A 
ATOM     60  C   UNL     1      13.190   0.319  -3.701  1.00  0.00     0.049 A 
ATOM     61  H   UNL     1      11.152   0.868  -3.661  1.00  0.00     0.167 HD
ATOM     62  C   UNL     1      11.985  -1.805  -4.121  1.00  0.00     0.074 A 
ATOM     63  C   UNL     1      11.936  -3.224  -4.405  1.00  0.00     0.031 C 
ATOM     64  C   UNL     1      13.131  -1.096  -3.972  1.00  0.00     0.037 A 
BRANCH  51  65
ATOM     65  C   UNL     1      12.242   4.916  -2.816  1.00  0.00     0.058 A 
ATOM     66  C   UNL     1      12.130   5.536  -1.563  1.00  0.00     0.135 A 
ATOM     67  C   UNL     1      12.962   5.585  -3.820  1.00  0.00     0.135 A 
ATOM     68  F   UNL     1      11.430   4.951  -0.578  1.00  0.00    -0.206 F 
ATOM     69  C   UNL     1      12.690   6.785  -1.320  1.00  0.00     0.059 A 
ATOM     70  C   UNL     1      13.555   6.822  -3.590  1.00  0.00     0.059 A 
ATOM     71  F   UNL     1      13.091   5.039  -5.039  1.00  0.00    -0.206 F 
ATOM     72  C   UNL     1      13.402   7.420  -2.340  1.00  0.00     0.060 A 
BRANCH  72  73
ATOM     73  S   UNL     1      14.126   9.038  -2.004  1.00  0.00     0.124 S 
ATOM     74  O   UNL     1      12.937   9.884  -1.958  1.00  0.00    -0.237 OA
ATOM     75  O   UNL     1      14.797   8.819  -0.728  1.00  0.00    -0.237 OA
ATOM     76  O   UNL     1      15.009   9.259  -3.145  1.00  0.00    -0.744 OA
ENDBRANCH  72  73
ENDBRANCH  51  65
BRANCH  52  77
ATOM     77  C   UNL     1       7.770  -3.808  -4.732  1.00  0.00     0.058 A 
ATOM     78  C   UNL     1       7.835  -4.845  -3.785  1.00  0.00     0.135 A 
ATOM     79  C   UNL     1       7.105  -4.084  -5.938  1.00  0.00     0.135 A 
ATOM     80  F   UNL     1       8.479  -4.653  -2.623  1.00  0.00    -0.206 F 
ATOM     81  C   UNL     1       7.285  -6.103  -4.029  1.00  0.00     0.059 A 
ATOM     82  C   UNL     1       6.510  -5.317  -6.188  1.00  0.00     0.059 A 
ATOM     83  F   UNL     1       7.020  -3.143  -6.891  1.00  0.00    -0.206 F 
ATOM     84  C   UNL     1       6.621  -6.328  -5.235  1.00  0.00     0.060 A 
BRANCH  84  85
ATOM     85  S   UNL     1       5.885  -7.950  -5.540  1.00  0.00     0.124 S 
ATOM     86  O   UNL     1       7.064  -8.755  -5.838  1.00  0.00    -0.237 OA
ATOM     87  O   UNL     1       5.223  -8.233  -4.271  1.00  0.00    -0.237 OA
ATOM     88  O   UNL     1       4.988  -7.704  -6.666  1.00  0.00    -0.744 OA
ENDBRANCH  84  85
ENDBRANCH  52  77
BRANCH  64  89
ATOM     89  C   UNL     1      14.430  -1.847  -4.071  1.00  0.00     0.058 A 
ATOM     90  C   UNL     1      14.923  -2.323  -5.297  1.00  0.00     0.135 A 
ATOM     91  C   UNL     1      15.220  -2.047  -2.926  1.00  0.00     0.135 A 
ATOM     92  F   UNL     1      14.205  -2.166  -6.420  1.00  0.00    -0.206 F 
ATOM     93  C   UNL     1      16.142  -2.988  -5.381  1.00  0.00     0.059 A 
ATOM     94  C   UNL     1      16.454  -2.684  -2.992  1.00  0.00     0.059 A 
ATOM     95  F   UNL     1      14.799  -1.605  -1.730  1.00  0.00    -0.206 F 
ATOM     96  C   UNL     1      16.903  -3.160  -4.223  1.00  0.00     0.060 A 
BRANCH  96  97
ATOM     97  S   UNL     1      18.502  -3.990  -4.351  1.00  0.00     0.124 S 
ATOM     98  O   UNL     1      18.098  -5.376  -4.562  1.00  0.00    -0.237 OA
ATOM     99  O   UNL     1      19.108  -3.324  -5.499  1.00  0.00    -0.237 OA
ATOM    100  O   UNL     1      19.134  -3.710  -3.065  1.00  0.00    -0.744 OA
ENDBRANCH  96  97
ENDBRANCH  64  89
ENDBRANCH  38  39
ENDBRANCH  31  33
ENDBRANCH  30  31
ENDBRANCH  29  30
ENDBRANCH  28  29
ENDBRANCH  27  28
ENDBRANCH  26  27
ENDBRANCH   1  26
TORSDOF 24
