REMARK SMILES Cc1ccc(-c2cn3c(n2)sc2cc(C(=O)OCCOCCOCCOC(=O)c4ccc(-c5c6nc(c(-c7c(F)cc(S(=O)(=O)[O-])cc7F)c7ccc([nH]7)c(-c7c(F)cc(S(=O)(=O)[O-])cc7F)c7nc(c(-c8c(F)cc(S(=O)(=O)[O-])cc8F)c8ccc5[nH]8)C=C7)C=C6)cc4)ccc23)cc1
REMARK SMILES IDX 22 1 21 2 20 3 19 4 18 5 17 6 15 7 16 8 14 9 6 10 7 11 10 12
REMARK SMILES IDX 8 13 9 14 97 15 11 16 12 17 96 18 13 19 95 20 5 21 1 22 2 23
REMARK SMILES IDX 3 24 99 25 4 26 98 27 23 28 24 29 25 30 26 31 27 32 28 33
REMARK SMILES IDX 29 34 30 35 94 36 31 37 93 38 32 39 33 40 34 41 87 42 35 43
REMARK SMILES IDX 92 44 86 45 88 46 36 47 91 48 85 49 84 50 37 52 71 53 50 54
REMARK SMILES IDX 70 55 51 56 54 57 69 58 89 59 52 60 53 61 68 63 90 64 55 65
REMARK SMILES IDX 38 66 39 67 48 68 40 69 41 70 47 71 49 72 42 73 43 74 44 75
REMARK SMILES IDX 45 76 46 77 72 78 73 79 82 80 74 81 75 82 81 83 83 84 76 85
REMARK SMILES IDX 77 86 78 87 79 88 80 89 56 90 57 91 66 92 58 93 59 94 65 95
REMARK SMILES IDX 67 96 60 97 61 98 62 99 63 100 64 101
REMARK H PARENT 88 51 54 62
REMARK Flexibility Score: inf
ROOT
ATOM      1  C   UNL     1      -6.109   3.203   7.357  1.00  0.00     0.188 C 
ENDROOT
BRANCH   1   2
ATOM      2  C   UNL     1      -5.192   2.189   8.037  1.00  0.00     0.188 C 
BRANCH   2   3
ATOM      3  O   UNL     1      -3.762   2.261   8.029  1.00  0.00    -0.376 OA
BRANCH   3   4
ATOM      4  C   UNL     1      -2.857   2.129   6.917  1.00  0.00     0.202 C 
BRANCH   4   5
ATOM      5  C   UNL     1      -1.976   0.783   6.257  1.00  0.00     0.261 C 
BRANCH   5   6
ATOM      6  O   UNL     1      -2.490  -0.903   5.927  1.00  0.00    -0.460 OA
BRANCH   6   7
ATOM      7  C   UNL     1      -3.209  -2.017   5.262  1.00  0.00     0.338 C 
ATOM      8  O   UNL     1      -3.117  -3.145   5.776  1.00  0.00    -0.246 OA
BRANCH   7   9
ATOM      9  C   UNL     1      -4.175  -2.252   3.970  1.00  0.00     0.061 A 
ATOM     10  C   UNL     1      -3.498  -1.393  -0.751  1.00  0.00     0.090 A 
ATOM     11  C   UNL     1      -4.078  -2.643  -0.550  1.00  0.00     0.123 A 
ATOM     12  N   UNL     1      -4.444  -0.389  -0.650  1.00  0.00    -0.219 NA
ATOM     13  N   UNL     1      -5.185  -2.319   0.188  1.00  0.00    -0.290 N 
ATOM     14  C   UNL     1      -5.458  -0.987  -0.066  1.00  0.00     0.195 A 
ATOM     15  C   UNL     1      -5.485  -2.776   1.497  1.00  0.00     0.065 A 
ATOM     16  S   UNL     1      -6.482  -0.303   1.175  1.00  0.00    -0.096 S 
ATOM     17  C   UNL     1      -5.861  -1.665   2.210  1.00  0.00     0.056 A 
ATOM     18  C   UNL     1      -4.781  -3.801   2.118  1.00  0.00     0.029 A 
ATOM     19  C   UNL     1      -5.134  -1.403   3.365  1.00  0.00     0.037 A 
ATOM     20  C   UNL     1      -4.145  -3.531   3.356  1.00  0.00     0.018 A 
BRANCH  10  21
ATOM     21  C   UNL     1      -2.060  -1.160  -0.748  1.00  0.00     0.002 A 
ATOM     22  C   UNL     1       2.192  -0.425  -0.448  1.00  0.00     0.044 C 
ATOM     23  C   UNL     1       0.716  -0.671  -0.550  1.00  0.00    -0.051 A 
ATOM     24  C   UNL     1       0.162  -1.813   0.027  1.00  0.00     0.004 A 
ATOM     25  C   UNL     1      -0.123   0.218  -1.235  1.00  0.00     0.004 A 
ATOM     26  C   UNL     1      -1.209  -2.051  -0.067  1.00  0.00     0.010 A 
ATOM     27  C   UNL     1      -1.506  -0.008  -1.306  1.00  0.00     0.010 A 
ENDBRANCH  10  21
ENDBRANCH   7   9
ENDBRANCH   6   7
ENDBRANCH   5   6
ENDBRANCH   4   5
ENDBRANCH   3   4
ENDBRANCH   2   3
ENDBRANCH   1   2
BRANCH   1  28
ATOM     28  O   UNL     1      -6.818   4.079   8.225  1.00  0.00    -0.376 OA
BRANCH  28  29
ATOM     29  C   UNL     1      -7.351   3.532   9.441  1.00  0.00     0.202 C 
BRANCH  29  30
ATOM     30  C   UNL     1      -8.223   2.231   9.441  1.00  0.00     0.261 C 
BRANCH  30  31
ATOM     31  O   UNL     1      -8.929   1.990   8.204  1.00  0.00    -0.460 OA
BRANCH  31  32
ATOM     32  C   UNL     1      -9.488   0.751   8.012  1.00  0.00     0.338 C 
ATOM     33  O   UNL     1     -10.662   0.454   8.257  1.00  0.00    -0.246 OA
BRANCH  32  34
ATOM     34  C   UNL     1      -8.682   0.013   7.020  1.00  0.00     0.060 A 
ATOM     35  C   UNL     1      -8.114  -1.238   7.245  1.00  0.00     0.016 A 
ATOM     36  C   UNL     1      -8.323   0.718   5.880  1.00  0.00     0.016 A 
ATOM     37  C   UNL     1      -6.918  -1.534   6.596  1.00  0.00     0.010 A 
ATOM     38  C   UNL     1      -7.102   0.451   5.305  1.00  0.00     0.010 A 
ATOM     39  C   UNL     1      -6.285  -0.483   5.926  1.00  0.00    -0.014 A 
BRANCH  39  40
ATOM     40  C   UNL     1      -4.836  -0.100   6.189  1.00  0.00     0.031 A 
ATOM     41  C   UNL     1      -4.075   0.716   4.887  1.00  0.00     0.074 A 
ATOM     42  C   UNL     1      -4.339  -0.494   7.475  1.00  0.00     0.049 A 
ATOM     43  N   UNL     1      -3.140   0.154   4.142  1.00  0.00    -0.248 NA
ATOM     44  C   UNL     1      -4.354   2.032   4.283  1.00  0.00     0.031 C 
ATOM     45  C   UNL     1      -3.072  -0.260   8.255  1.00  0.00     0.029 A 
ATOM     46  N   UNL     1      -4.991  -1.223   8.474  1.00  0.00    -0.354 N 
ATOM     47  C   UNL     1      -2.461   1.012   3.352  1.00  0.00     0.074 A 
ATOM     48  C   UNL     1      -3.368   2.161   3.358  1.00  0.00     0.031 C 
ATOM     49  C   UNL     1      -3.042  -0.729   9.492  1.00  0.00     0.029 A 
ATOM     50  C   UNL     1      -4.112  -1.636   9.486  1.00  0.00     0.049 A 
ATOM     51  H   UNL     1      -5.955  -1.424   8.467  1.00  0.00     0.167 HD
ATOM     52  C   UNL     1      -1.134   0.781   3.008  1.00  0.00     0.037 A 
ATOM     53  C   UNL     1      -3.783  -2.941   9.624  1.00  0.00     0.037 A 
ATOM     54  C   UNL     1      -0.334  -0.184   3.927  1.00  0.00     0.049 A 
ATOM     55  C   UNL     1      -2.528  -3.454   8.802  1.00  0.00     0.074 A 
ATOM     56  C   UNL     1       0.652   0.108   4.882  1.00  0.00     0.029 A 
ATOM     57  N   UNL     1      -0.598  -1.557   4.179  1.00  0.00    -0.354 N 
ATOM     58  N   UNL     1      -1.734  -2.753   7.983  1.00  0.00    -0.248 NA
ATOM     59  C   UNL     1      -2.035  -4.825   8.918  1.00  0.00     0.031 C 
ATOM     60  C   UNL     1       0.776  -0.965   5.821  1.00  0.00     0.029 A 
ATOM     61  C   UNL     1      -0.065  -1.999   5.443  1.00  0.00     0.049 A 
ATOM     62  H   UNL     1      -1.090  -2.142   3.559  1.00  0.00     0.167 HD
ATOM     63  C   UNL     1      -0.887  -3.613   7.252  1.00  0.00     0.074 A 
ATOM     64  C   UNL     1      -1.011  -4.842   8.041  1.00  0.00     0.031 C 
ATOM     65  C   UNL     1      -0.231  -3.387   6.020  1.00  0.00     0.037 A 
BRANCH  52  66
ATOM     66  C   UNL     1      -0.446   1.778   2.071  1.00  0.00     0.058 A 
ATOM     67  C   UNL     1       0.946   2.014   2.054  1.00  0.00     0.135 A 
ATOM     68  C   UNL     1      -1.163   2.469   1.065  1.00  0.00     0.135 A 
ATOM     69  F   UNL     1       1.783   1.379   2.882  1.00  0.00    -0.206 F 
ATOM     70  C   UNL     1       1.563   2.886   1.148  1.00  0.00     0.059 A 
ATOM     71  C   UNL     1      -0.576   3.370   0.172  1.00  0.00     0.059 A 
ATOM     72  F   UNL     1      -2.468   2.232   0.860  1.00  0.00    -0.206 F 
ATOM     73  C   UNL     1       0.796   3.556   0.205  1.00  0.00     0.060 A 
BRANCH  73  74
ATOM     74  S   UNL     1       1.625   4.516  -1.077  1.00  0.00     0.124 S 
ATOM     75  O   UNL     1       2.190   5.622  -0.312  1.00  0.00    -0.237 OA
ATOM     76  O   UNL     1       2.583   3.550  -1.607  1.00  0.00    -0.237 OA
ATOM     77  O   UNL     1       0.541   4.874  -1.988  1.00  0.00    -0.744 OA
ENDBRANCH  73  74
ENDBRANCH  52  66
BRANCH  53  78
ATOM     78  C   UNL     1      -4.955  -3.441  10.443  1.00  0.00     0.058 A 
ATOM     79  C   UNL     1      -5.103  -2.753  11.696  1.00  0.00     0.135 A 
ATOM     80  C   UNL     1      -6.168  -3.744   9.791  1.00  0.00     0.135 A 
ATOM     81  F   UNL     1      -4.001  -2.382  12.373  1.00  0.00    -0.206 F 
ATOM     82  C   UNL     1      -6.310  -2.164  12.102  1.00  0.00     0.059 A 
ATOM     83  C   UNL     1      -7.404  -3.224  10.233  1.00  0.00     0.059 A 
ATOM     84  F   UNL     1      -6.149  -4.352   8.596  1.00  0.00    -0.206 F 
ATOM     85  C   UNL     1      -7.451  -2.371  11.338  1.00  0.00     0.060 A 
BRANCH  85  86
ATOM     86  S   UNL     1      -8.931  -1.377  11.701  1.00  0.00     0.124 S 
ATOM     87  O   UNL     1      -9.378  -1.947  12.964  1.00  0.00    -0.237 OA
ATOM     88  O   UNL     1      -8.387  -0.022  11.765  1.00  0.00    -0.237 OA
ATOM     89  O   UNL     1      -9.779  -1.641  10.543  1.00  0.00    -0.744 OA
ENDBRANCH  85  86
ENDBRANCH  53  78
BRANCH  65  90
ATOM     90  C   UNL     1       0.463  -4.518   5.200  1.00  0.00     0.058 A 
ATOM     91  C   UNL     1       0.153  -5.892   5.270  1.00  0.00     0.135 A 
ATOM     92  C   UNL     1       1.441  -4.209   4.211  1.00  0.00     0.135 A 
ATOM     93  F   UNL     1      -0.879  -6.350   5.990  1.00  0.00    -0.206 F 
ATOM     94  C   UNL     1       0.850  -6.877   4.552  1.00  0.00     0.059 A 
ATOM     95  C   UNL     1       2.089  -5.167   3.424  1.00  0.00     0.059 A 
ATOM     96  F   UNL     1       1.810  -2.947   3.948  1.00  0.00    -0.206 F 
ATOM     97  C   UNL     1       1.827  -6.507   3.639  1.00  0.00     0.060 A 
BRANCH  97  98
ATOM     98  S   UNL     1       2.700  -7.773   2.697  1.00  0.00     0.124 S 
ATOM     99  O   UNL     1       3.733  -8.182   3.644  1.00  0.00    -0.237 OA
ATOM    100  O   UNL     1       1.654  -8.758   2.439  1.00  0.00    -0.237 OA
ATOM    101  O   UNL     1       3.174  -7.052   1.519  1.00  0.00    -0.744 OA
ENDBRANCH  97  98
ENDBRANCH  65  90
ENDBRANCH  39  40
ENDBRANCH  32  34
ENDBRANCH  31  32
ENDBRANCH  30  31
ENDBRANCH  29  30
ENDBRANCH  28  29
ENDBRANCH   1  28
TORSDOF 21
