REMARK SMILES O=C(OCCOCCOCCOC(=O)[C@]1([NH2+]C2CC2)CC[C@@H](SCCCO)C1)c1ccc(-c2c3nc(c(-c4c(F)cc(S(=O)(=O)[O-])cc4F)c4ccc([nH]4)c(-c4c(F)cc(S(=O)(=O)[O-])cc4F)c4nc(c(-c5c(F)cc(S(=O)(=O)[O-])cc5F)c5ccc2[nH]5)C=C4)C=C3)cc1
REMARK SMILES IDX 8 1 7 2 6 3 5 4 4 5 3 6 2 7 1 8 29 9 30 10 94 11 31 12 93 13
REMARK SMILES IDX 32 14 33 15 34 16 87 17 35 18 92 19 86 20 88 21 36 22 91 23
REMARK SMILES IDX 85 24 84 25 37 27 71 28 50 29 70 30 51 31 54 32 69 33 89 34
REMARK SMILES IDX 52 35 53 36 68 38 90 39 55 40 38 41 39 42 48 43 40 44 41 45
REMARK SMILES IDX 47 46 49 47 42 48 43 49 44 50 45 51 46 52 72 53 73 54 82 55
REMARK SMILES IDX 74 56 75 57 81 58 83 59 76 60 77 61 78 62 79 63 80 64 56 65
REMARK SMILES IDX 57 66 66 67 58 68 59 69 65 70 67 71 60 72 61 73 62 74 63 75
REMARK SMILES IDX 64 76 9 77 10 78 11 79 12 80 13 81 14 82 15 83 20 84 28 85
REMARK SMILES IDX 21 86 22 87 16 88 17 91 18 92 19 93 23 94 24 95 25 96 26 97
REMARK SMILES IDX 27 98
REMARK H PARENT 88 26 54 37 16 89 16 90 27 99
REMARK Flexibility Score: inf
ROOT
ATOM      1  C   UNL     1      -1.397  -5.933  -1.675  1.00  0.00     0.188 C 
ENDROOT
BRANCH   1   2
ATOM      2  C   UNL     1      -0.593  -5.440  -2.885  1.00  0.00     0.188 C 
BRANCH   2   3
ATOM      3  O   UNL     1      -1.038  -4.353  -3.683  1.00  0.00    -0.376 OA
BRANCH   3   4
ATOM      4  C   UNL     1      -2.220  -4.535  -4.444  1.00  0.00     0.202 C 
BRANCH   4   5
ATOM      5  C   UNL     1      -2.065  -5.293  -5.767  1.00  0.00     0.261 C 
BRANCH   5   6
ATOM      6  O   UNL     1      -1.290  -6.491  -5.655  1.00  0.00    -0.460 OA
BRANCH   6   7
ATOM      7  C   UNL     1       0.013  -6.690  -5.976  1.00  0.00     0.338 C 
ATOM      8  O   UNL     1       0.386  -7.856  -6.107  1.00  0.00    -0.246 OA
BRANCH   7   9
ATOM      9  C   UNL     1       1.059  -5.605  -6.049  1.00  0.00     0.060 A 
ATOM     10  C   UNL     1       0.842  -4.222  -6.051  1.00  0.00     0.016 A 
ATOM     11  C   UNL     1       2.398  -6.041  -6.085  1.00  0.00     0.016 A 
ATOM     12  C   UNL     1       1.900  -3.304  -6.092  1.00  0.00     0.010 A 
ATOM     13  C   UNL     1       3.462  -5.130  -6.121  1.00  0.00     0.010 A 
ATOM     14  C   UNL     1       3.217  -3.749  -6.130  1.00  0.00    -0.014 A 
BRANCH  14  15
ATOM     15  C   UNL     1       4.323  -2.797  -6.380  1.00  0.00     0.031 A 
ATOM     16  C   UNL     1       4.841  -2.728  -7.780  1.00  0.00     0.074 A 
ATOM     17  C   UNL     1       4.828  -1.985  -5.429  1.00  0.00     0.049 A 
ATOM     18  N   UNL     1       5.808  -1.997  -8.255  1.00  0.00    -0.248 NA
ATOM     19  C   UNL     1       4.130  -3.533  -8.790  1.00  0.00     0.031 C 
ATOM     20  C   UNL     1       4.260  -1.790  -4.103  1.00  0.00     0.029 A 
ATOM     21  N   UNL     1       5.950  -1.196  -5.405  1.00  0.00    -0.354 N 
ATOM     22  C   UNL     1       5.779  -2.203  -9.624  1.00  0.00     0.074 A 
ATOM     23  C   UNL     1       4.759  -3.186  -9.900  1.00  0.00     0.031 C 
ATOM     24  C   UNL     1       5.114  -1.089  -3.337  1.00  0.00     0.029 A 
ATOM     25  C   UNL     1       6.269  -0.730  -4.144  1.00  0.00     0.049 A 
ATOM     26  H   UNL     1       6.478  -0.983  -6.209  1.00  0.00     0.167 HD
ATOM     27  C   UNL     1       6.516  -1.579 -10.567  1.00  0.00     0.037 A 
ATOM     28  C   UNL     1       7.375  -0.099  -3.704  1.00  0.00     0.037 A 
ATOM     29  C   UNL     1       7.551  -0.636 -10.255  1.00  0.00     0.049 A 
ATOM     30  C   UNL     1       8.356   0.360  -4.742  1.00  0.00     0.074 A 
ATOM     31  C   UNL     1       8.376   0.053 -11.120  1.00  0.00     0.029 A 
ATOM     32  N   UNL     1       7.925  -0.280  -8.965  1.00  0.00    -0.354 N 
ATOM     33  N   UNL     1       8.293   0.201  -6.043  1.00  0.00    -0.248 NA
ATOM     34  C   UNL     1       9.508   1.140  -4.279  1.00  0.00     0.031 C 
ATOM     35  C   UNL     1       9.301   0.767 -10.352  1.00  0.00     0.029 A 
ATOM     36  C   UNL     1       9.011   0.574  -9.008  1.00  0.00     0.049 A 
ATOM     37  H   UNL     1       7.483  -0.590  -8.142  1.00  0.00     0.167 HD
ATOM     38  C   UNL     1       9.355   0.922  -6.563  1.00  0.00     0.074 A 
ATOM     39  C   UNL     1      10.063   1.491  -5.431  1.00  0.00     0.031 C 
ATOM     40  C   UNL     1       9.691   1.123  -7.860  1.00  0.00     0.037 A 
BRANCH  27  41
ATOM     41  C   UNL     1       6.238  -1.943 -11.992  1.00  0.00     0.058 A 
ATOM     42  C   UNL     1       5.059  -1.538 -12.640  1.00  0.00     0.135 A 
ATOM     43  C   UNL     1       7.145  -2.737 -12.706  1.00  0.00     0.135 A 
ATOM     44  F   UNL     1       4.139  -0.812 -11.985  1.00  0.00    -0.206 F 
ATOM     45  C   UNL     1       4.782  -1.925 -13.946  1.00  0.00     0.059 A 
ATOM     46  C   UNL     1       6.900  -3.116 -14.020  1.00  0.00     0.059 A 
ATOM     47  F   UNL     1       8.271  -3.170 -12.118  1.00  0.00    -0.206 F 
ATOM     48  C   UNL     1       5.710  -2.714 -14.628  1.00  0.00     0.060 A 
BRANCH  48  49
ATOM     49  S   UNL     1       5.341  -3.208 -16.323  1.00  0.00     0.124 S 
ATOM     50  O   UNL     1       4.259  -4.167 -16.118  1.00  0.00    -0.237 OA
ATOM     51  O   UNL     1       4.952  -1.938 -16.935  1.00  0.00    -0.237 OA
ATOM     52  O   UNL     1       6.598  -3.770 -16.797  1.00  0.00    -0.744 OA
ENDBRANCH  48  49
ENDBRANCH  27  41
BRANCH  28  53
ATOM     53  C   UNL     1       7.630   0.134  -2.254  1.00  0.00     0.058 A 
ATOM     54  C   UNL     1       7.475   1.389  -1.653  1.00  0.00     0.135 A 
ATOM     55  C   UNL     1       8.118  -0.906  -1.448  1.00  0.00     0.135 A 
ATOM     56  F   UNL     1       7.060   2.434  -2.385  1.00  0.00    -0.206 F 
ATOM     57  C   UNL     1       7.788   1.601  -0.309  1.00  0.00     0.059 A 
ATOM     58  C   UNL     1       8.400  -0.734  -0.095  1.00  0.00     0.059 A 
ATOM     59  F   UNL     1       8.378  -2.100  -1.993  1.00  0.00    -0.206 F 
ATOM     60  C   UNL     1       8.246   0.531   0.464  1.00  0.00     0.060 A 
BRANCH  60  61
ATOM     61  S   UNL     1       8.638   0.814   2.206  1.00  0.00     0.124 S 
ATOM     62  O   UNL     1       9.886   1.563   2.108  1.00  0.00    -0.237 OA
ATOM     63  O   UNL     1       7.474   1.569   2.661  1.00  0.00    -0.237 OA
ATOM     64  O   UNL     1       8.751  -0.534   2.750  1.00  0.00    -0.744 OA
ENDBRANCH  60  61
ENDBRANCH  28  53
BRANCH  40  65
ATOM     65  C   UNL     1      10.854   2.027  -8.130  1.00  0.00     0.058 A 
ATOM     66  C   UNL     1      12.172   1.615  -7.894  1.00  0.00     0.135 A 
ATOM     67  C   UNL     1      10.643   3.283  -8.720  1.00  0.00     0.135 A 
ATOM     68  F   UNL     1      12.418   0.429  -7.315  1.00  0.00    -0.206 F 
ATOM     69  C   UNL     1      13.249   2.421  -8.237  1.00  0.00     0.059 A 
ATOM     70  C   UNL     1      11.705   4.090  -9.103  1.00  0.00     0.059 A 
ATOM     71  F   UNL     1       9.396   3.715  -8.967  1.00  0.00    -0.206 F 
ATOM     72  C   UNL     1      13.005   3.651  -8.855  1.00  0.00     0.060 A 
BRANCH  72  73
ATOM     73  S   UNL     1      14.415   4.645  -9.377  1.00  0.00     0.124 S 
ATOM     74  O   UNL     1      14.921   5.131  -8.098  1.00  0.00    -0.237 OA
ATOM     75  O   UNL     1      15.251   3.661 -10.059  1.00  0.00    -0.237 OA
ATOM     76  O   UNL     1      13.816   5.657 -10.241  1.00  0.00    -0.744 OA
ENDBRANCH  72  73
ENDBRANCH  40  65
ENDBRANCH  14  15
ENDBRANCH   7   9
ENDBRANCH   6   7
ENDBRANCH   5   6
ENDBRANCH   4   5
ENDBRANCH   3   4
ENDBRANCH   2   3
ENDBRANCH   1   2
BRANCH   1  77
ATOM     77  O   UNL     1      -2.159  -5.078  -0.840  1.00  0.00    -0.376 OA
BRANCH  77  78
ATOM     78  C   UNL     1      -2.135  -3.680  -1.032  1.00  0.00     0.202 C 
BRANCH  78  79
ATOM     79  C   UNL     1      -0.923  -2.922  -0.484  1.00  0.00     0.261 C 
BRANCH  79  80
ATOM     80  O   UNL     1       0.365  -3.377  -0.923  1.00  0.00    -0.459 OA
BRANCH  80  81
ATOM     81  C   UNL     1       1.055  -4.188  -0.065  1.00  0.00     0.368 C 
ATOM     82  O   UNL     1       0.543  -4.745   0.901  1.00  0.00    -0.245 OA
BRANCH  81  83
ATOM     83  C   UNL     1       2.580  -4.263  -0.410  1.00  0.00     0.195 C 
ATOM     84  C   UNL     1       2.966  -3.639  -1.747  1.00  0.00     0.082 C 
ATOM     85  C   UNL     1       3.068  -5.731  -0.560  1.00  0.00     0.095 C 
ATOM     86  C   UNL     1       3.005  -4.738  -2.792  1.00  0.00     0.022 C 
ATOM     87  C   UNL     1       2.986  -6.058  -2.053  1.00  0.00     0.053 C 
BRANCH  83  88
ATOM     88  N   UNL     1       3.308  -3.606   0.709  1.00  0.00    -0.330 N 
ATOM     89  H   UNL     1       4.277  -3.923   0.683  1.00  0.00     0.347 HD
ATOM     90  H   UNL     1       2.810  -3.870   1.559  1.00  0.00     0.347 HD
BRANCH  88  91
ATOM     91  C   UNL     1       3.313  -2.133   0.689  1.00  0.00     0.183 C 
ATOM     92  C   UNL     1       2.181  -1.344   1.273  1.00  0.00     0.071 C 
ATOM     93  C   UNL     1       3.494  -1.424   1.998  1.00  0.00     0.071 C 
ENDBRANCH  88  91
ENDBRANCH  83  88
BRANCH  87  94
ATOM     94  S   UNL     1       4.109  -7.312  -2.784  1.00  0.00    -0.158 SA
BRANCH  94  95
ATOM     95  C   UNL     1       5.813  -6.822  -2.318  1.00  0.00     0.072 C 
BRANCH  95  96
ATOM     96  C   UNL     1       6.513  -5.749  -3.157  1.00  0.00     0.039 C 
BRANCH  96  97
ATOM     97  C   UNL     1       6.556  -4.361  -2.545  1.00  0.00     0.157 C 
BRANCH  97  98
ATOM     98  O   UNL     1       6.860  -4.416  -1.161  1.00  0.00    -0.396 OA
ATOM     99  H   UNL     1       6.174  -4.923  -0.699  1.00  0.00     0.210 HD
ENDBRANCH  97  98
ENDBRANCH  96  97
ENDBRANCH  95  96
ENDBRANCH  94  95
ENDBRANCH  87  94
ENDBRANCH  81  83
ENDBRANCH  80  81
ENDBRANCH  79  80
ENDBRANCH  78  79
ENDBRANCH  77  78
ENDBRANCH   1  77
TORSDOF 27
