REMARK SMILES Cc1ccc(S(=O)(=O)n2cc(C(=O)C(=O)N[C@@H](Cc3cnc[nH]3)C(=O)OCCOCCOCCOC(=O)c3ccc(-c4c5nc(c(-c6c(F)cc(S(=O)(=O)[O-])cc6F)c6ccc([nH]6)c(-c6c(F)cc(S(=O)(=O)[O-])cc6F)c6nc(c(-c7c(F)cc(S(=O)(=O)[O-])cc7F)c7ccc4[nH]7)C=C6)C=C5)cc3)c3ccccc32)cc1
REMARK SMILES IDX 30 1 29 2 28 3 27 4 26 5 24 6 25 7 17 8 16 9 14 10 15 11
REMARK SMILES IDX 12 13 13 14 11 15 9 16 10 17 109 18 104 19 108 20 105 21
REMARK SMILES IDX 107 22 106 23 6 24 7 25 8 26 5 27 1 28 2 29 3 30 111 31 4 32
REMARK SMILES IDX 110 33 18 34 19 35 20 36 23 37 21 38 22 39 31 41 32 42 33 43
REMARK SMILES IDX 34 44 35 45 36 46 37 47 38 48 39 49 103 50 40 51 102 52
REMARK SMILES IDX 41 53 42 54 43 55 96 56 44 57 101 58 95 59 97 60 45 61
REMARK SMILES IDX 100 62 94 63 93 64 46 66 80 67 59 68 79 69 60 70 63 71 78 72
REMARK SMILES IDX 98 73 61 74 62 75 77 77 99 78 64 79 47 80 48 81 57 82 49 83
REMARK SMILES IDX 50 84 56 85 58 86 51 87 52 88 53 89 54 90 55 91 81 92 82 93
REMARK SMILES IDX 91 94 83 95 84 96 90 97 92 98 85 99 86 100 87 101 88 102
REMARK SMILES IDX 89 103 65 104 66 105 75 106 67 107 68 108 74 109 76 110
REMARK SMILES IDX 69 111 70 112 71 113 72 114 73 115
REMARK H PARENT 16 12 23 40 97 65 63 76
REMARK Flexibility Score: inf
ROOT
ATOM      1  C   UNL     1      -2.898   7.783   5.927  1.00  0.00     0.188 C 
ENDROOT
BRANCH   1   2
ATOM      2  O   UNL     1      -3.468   8.193   7.163  1.00  0.00    -0.376 OA
BRANCH   2   3
ATOM      3  C   UNL     1      -4.866   8.379   7.024  1.00  0.00     0.202 C 
BRANCH   3   4
ATOM      4  C   UNL     1      -5.629   7.189   6.407  1.00  0.00     0.261 C 
BRANCH   4   5
ATOM      5  O   UNL     1      -5.581   6.960   4.777  1.00  0.00    -0.462 OA
BRANCH   5   6
ATOM      6  C   UNL     1      -6.220   6.901   3.495  1.00  0.00     0.329 C 
ATOM      7  O   UNL     1      -5.500   6.408   2.623  1.00  0.00    -0.250 OA
BRANCH   6   8
ATOM      8  C   UNL     1      -7.887   7.439   2.950  1.00  0.00     0.198 C 
BRANCH   8   9
ATOM      9  N   UNL     1      -8.415   6.203   2.144  1.00  0.00    -0.335 N 
ATOM     10  C   UNL     1      -7.842   5.217   1.278  1.00  0.00     0.293 C 
ATOM     11  O   UNL     1      -8.532   4.221   1.033  1.00  0.00    -0.265 OA
ATOM     12  H   UNL     1      -9.383   6.071   2.263  1.00  0.00     0.164 HD
BRANCH  10  13
ATOM     13  C   UNL     1      -6.465   5.294   0.549  1.00  0.00     0.252 C 
ATOM     14  O   UNL     1      -6.255   6.409   0.054  1.00  0.00    -0.283 OA
BRANCH  13  15
ATOM     15  C   UNL     1      -5.551   4.108   0.173  1.00  0.00     0.054 A 
ATOM     16  N   UNL     1      -4.370   2.155  -0.048  1.00  0.00    -0.240 N 
ATOM     17  C   UNL     1      -5.362   2.815   0.697  1.00  0.00     0.117 A 
ATOM     18  C   UNL     1      -4.022   2.902  -1.151  1.00  0.00     0.065 A 
ATOM     19  C   UNL     1      -4.636   4.150  -0.969  1.00  0.00     0.012 A 
ATOM     20  C   UNL     1      -3.207   2.616  -2.269  1.00  0.00     0.028 A 
ATOM     21  C   UNL     1      -4.323   5.162  -1.904  1.00  0.00     0.011 A 
ATOM     22  C   UNL     1      -2.945   3.638  -3.180  1.00  0.00     0.002 A 
ATOM     23  C   UNL     1      -3.479   4.903  -2.988  1.00  0.00     0.001 A 
BRANCH  16  24
ATOM     24  S   UNL     1      -3.827   0.515   0.143  1.00  0.00     0.268 S 
ATOM     25  O   UNL     1      -4.265  -0.172  -1.047  1.00  0.00    -0.201 OA
ATOM     26  O   UNL     1      -4.285   0.091   1.469  1.00  0.00    -0.201 OA
BRANCH  24  27
ATOM     27  C   UNL     1      -2.026   0.407   0.154  1.00  0.00     0.088 A 
ATOM     28  C   UNL     1       2.295  -0.027   0.012  1.00  0.00     0.044 C 
ATOM     29  C   UNL     1       0.797   0.117   0.052  1.00  0.00    -0.051 A 
ATOM     30  C   UNL     1      -0.031  -1.008  -0.021  1.00  0.00     0.005 A 
ATOM     31  C   UNL     1       0.197   1.378   0.184  1.00  0.00     0.005 A 
ATOM     32  C   UNL     1      -1.431  -0.866   0.021  1.00  0.00     0.022 A 
ATOM     33  C   UNL     1      -1.202   1.526   0.246  1.00  0.00     0.022 A 
ENDBRANCH  24  27
ENDBRANCH  16  24
ENDBRANCH  13  15
ENDBRANCH  10  13
ENDBRANCH   8   9
BRANCH   8  34
ATOM     34  C   UNL     1      -9.258   8.517   3.761  1.00  0.00     0.092 C 
BRANCH  34  35
ATOM     35  C   UNL     1     -10.050   8.534   5.495  1.00  0.00     0.037 A 
ATOM     36  C   UNL     1     -10.389   7.604   6.571  1.00  0.00     0.134 A 
ATOM     37  N   UNL     1     -10.298   9.703   6.230  1.00  0.00    -0.348 N 
ATOM     38  N   UNL     1     -10.740   8.151   7.765  1.00  0.00    -0.245 NA
ATOM     39  C   UNL     1     -10.712   9.423   7.518  1.00  0.00     0.196 A 
ATOM     40  H   UNL     1     -10.190  10.614   5.872  1.00  0.00     0.167 HD
ENDBRANCH  34  35
ENDBRANCH   8  34
ENDBRANCH   6   8
ENDBRANCH   5   6
ENDBRANCH   4   5
ENDBRANCH   3   4
ENDBRANCH   2   3
ENDBRANCH   1   2
BRANCH   1  41
ATOM     41  C   UNL     1      -2.726   6.267   5.819  1.00  0.00     0.188 C 
BRANCH  41  42
ATOM     42  O   UNL     1      -3.666   5.493   6.538  1.00  0.00    -0.376 OA
BRANCH  42  43
ATOM     43  C   UNL     1      -3.554   5.382   7.952  1.00  0.00     0.202 C 
BRANCH  43  44
ATOM     44  C   UNL     1      -3.011   3.993   8.196  1.00  0.00     0.261 C 
BRANCH  44  45
ATOM     45  O   UNL     1      -4.019   3.011   7.827  1.00  0.00    -0.460 OA
BRANCH  45  46
ATOM     46  C   UNL     1      -4.246   2.865   6.487  1.00  0.00     0.338 C 
ATOM     47  O   UNL     1      -3.408   2.489   5.682  1.00  0.00    -0.246 OA
BRANCH  46  48
ATOM     48  C   UNL     1      -5.627   3.355   6.140  1.00  0.00     0.060 A 
ATOM     49  C   UNL     1      -5.931   3.625   4.815  1.00  0.00     0.016 A 
ATOM     50  C   UNL     1      -6.538   3.782   7.121  1.00  0.00     0.016 A 
ATOM     51  C   UNL     1      -7.015   4.465   4.525  1.00  0.00     0.010 A 
ATOM     52  C   UNL     1      -7.538   4.729   6.818  1.00  0.00     0.010 A 
ATOM     53  C   UNL     1      -7.660   5.221   5.522  1.00  0.00    -0.014 A 
BRANCH  53  54
ATOM     54  C   UNL     1      -8.361   6.581   5.246  1.00  0.00     0.031 A 
ATOM     55  C   UNL     1      -9.974   6.120   4.507  1.00  0.00     0.074 A 
ATOM     56  C   UNL     1      -7.689   7.999   5.456  1.00  0.00     0.049 A 
ATOM     57  N   UNL     1     -10.858   6.876   3.852  1.00  0.00    -0.248 NA
ATOM     58  C   UNL     1     -10.657   4.836   4.780  1.00  0.00     0.031 C 
ATOM     59  C   UNL     1      -7.794   9.128   6.511  1.00  0.00     0.029 A 
ATOM     60  N   UNL     1      -6.812   8.855   4.580  1.00  0.00    -0.354 N 
ATOM     61  C   UNL     1     -12.120   6.601   4.371  1.00  0.00     0.074 A 
ATOM     62  C   UNL     1     -11.958   5.172   4.606  1.00  0.00     0.031 C 
ATOM     63  C   UNL     1      -7.473  10.364   6.013  1.00  0.00     0.029 A 
ATOM     64  C   UNL     1      -6.825  10.226   4.739  1.00  0.00     0.049 A 
ATOM     65  H   UNL     1      -6.234   8.440   3.900  1.00  0.00     0.167 HD
ATOM     66  C   UNL     1     -12.999   7.565   4.904  1.00  0.00     0.037 A 
ATOM     67  C   UNL     1      -6.434  11.129   3.794  1.00  0.00     0.037 A 
ATOM     68  C   UNL     1     -12.732   9.077   4.711  1.00  0.00     0.049 A 
ATOM     69  C   UNL     1      -7.673  11.802   3.217  1.00  0.00     0.074 A 
ATOM     70  C   UNL     1     -12.922  10.170   5.581  1.00  0.00     0.029 A 
ATOM     71  N   UNL     1     -12.096   9.679   3.611  1.00  0.00    -0.354 N 
ATOM     72  N   UNL     1      -8.887  11.619   3.687  1.00  0.00    -0.248 NA
ATOM     73  C   UNL     1      -7.659  12.654   2.025  1.00  0.00     0.031 C 
ATOM     74  C   UNL     1     -12.287  11.341   5.088  1.00  0.00     0.029 A 
ATOM     75  C   UNL     1     -11.719  11.022   3.874  1.00  0.00     0.049 A 
ATOM     76  H   UNL     1     -11.931   9.221   2.755  1.00  0.00     0.167 HD
ATOM     77  C   UNL     1      -9.800  12.128   2.789  1.00  0.00     0.074 A 
ATOM     78  C   UNL     1      -8.975  12.826   1.806  1.00  0.00     0.031 C 
ATOM     79  C   UNL     1     -11.156  11.927   2.870  1.00  0.00     0.037 A 
BRANCH  66  80
ATOM     80  C   UNL     1     -14.055   7.202   6.042  1.00  0.00     0.058 A 
ATOM     81  C   UNL     1     -15.040   8.145   6.455  1.00  0.00     0.135 A 
ATOM     82  C   UNL     1     -14.047   6.045   6.858  1.00  0.00     0.135 A 
ATOM     83  F   UNL     1     -15.285   9.256   5.745  1.00  0.00    -0.206 F 
ATOM     84  C   UNL     1     -15.842   8.010   7.603  1.00  0.00     0.059 A 
ATOM     85  C   UNL     1     -14.934   5.831   7.931  1.00  0.00     0.059 A 
ATOM     86  F   UNL     1     -13.168   5.053   6.696  1.00  0.00    -0.206 F 
ATOM     87  C   UNL     1     -15.806   6.831   8.323  1.00  0.00     0.060 A 
BRANCH  87  88
ATOM     88  S   UNL     1     -16.990   6.558   9.661  1.00  0.00     0.124 S 
ATOM     89  O   UNL     1     -16.344   7.217  10.791  1.00  0.00    -0.237 OA
ATOM     90  O   UNL     1     -18.197   7.207   9.157  1.00  0.00    -0.237 OA
ATOM     91  O   UNL     1     -17.067   5.101   9.744  1.00  0.00    -0.744 OA
ENDBRANCH  87  88
ENDBRANCH  66  80
BRANCH  67  92
ATOM     92  C   UNL     1      -5.179  10.728   3.030  1.00  0.00     0.058 A 
ATOM     93  C   UNL     1      -3.951  10.831   3.725  1.00  0.00     0.135 A 
ATOM     94  C   UNL     1      -5.151   9.940   1.869  1.00  0.00     0.135 A 
ATOM     95  F   UNL     1      -3.874  11.603   4.821  1.00  0.00    -0.206 F 
ATOM     96  C   UNL     1      -2.826  10.060   3.404  1.00  0.00     0.059 A 
ATOM     97  C   UNL     1      -4.047   9.119   1.551  1.00  0.00     0.059 A 
ATOM     98  F   UNL     1      -6.236   9.873   1.086  1.00  0.00    -0.206 F 
ATOM     99  C   UNL     1      -2.914   9.132   2.370  1.00  0.00     0.060 A 
BRANCH  99 100
ATOM    100  S   UNL     1      -1.677   7.785   2.264  1.00  0.00     0.124 S 
ATOM    101  O   UNL     1      -0.884   8.176   1.107  1.00  0.00    -0.237 OA
ATOM    102  O   UNL     1      -0.987   7.874   3.550  1.00  0.00    -0.237 OA
ATOM    103  O   UNL     1      -2.494   6.590   2.108  1.00  0.00    -0.744 OA
ENDBRANCH  99 100
ENDBRANCH  67  92
BRANCH  79 104
ATOM    104  C   UNL     1     -12.181  12.715   2.088  1.00  0.00     0.058 A 
ATOM    105  C   UNL     1     -12.003  14.034   1.645  1.00  0.00     0.135 A 
ATOM    106  C   UNL     1     -13.489  12.191   1.932  1.00  0.00     0.135 A 
ATOM    107  F   UNL     1     -10.887  14.724   1.927  1.00  0.00    -0.206 F 
ATOM    108  C   UNL     1     -12.991  14.709   0.930  1.00  0.00     0.059 A 
ATOM    109  C   UNL     1     -14.510  12.875   1.303  1.00  0.00     0.059 A 
ATOM    110  F   UNL     1     -13.838  10.981   2.386  1.00  0.00    -0.206 F 
ATOM    111  C   UNL     1     -14.230  14.102   0.738  1.00  0.00     0.060 A 
BRANCH 111 112
ATOM    112  S   UNL     1     -15.463  14.885  -0.299  1.00  0.00     0.124 S 
ATOM    113  O   UNL     1     -15.416  16.272   0.151  1.00  0.00    -0.237 OA
ATOM    114  O   UNL     1     -14.915  14.626  -1.627  1.00  0.00    -0.237 OA
ATOM    115  O   UNL     1     -16.691  14.165   0.026  1.00  0.00    -0.744 OA
ENDBRANCH 111 112
ENDBRANCH  79 104
ENDBRANCH  53  54
ENDBRANCH  46  48
ENDBRANCH  45  46
ENDBRANCH  44  45
ENDBRANCH  43  44
ENDBRANCH  42  43
ENDBRANCH  41  42
ENDBRANCH   1  41
TORSDOF 27
