REMARK SMILES O=C(OCCOCCOCCOC(=O)[C@@H](CCOCCO)c1cccc(F)c1)c1ccc(-c2c3nc(c(-c4c(F)cc(S(=O)(=O)[O-])cc4F)c4ccc([nH]4)c(-c4c(F)cc(S(=O)(=O)[O-])cc4F)c4nc(c(-c5c(F)cc(S(=O)(=O)[O-])cc5F)c5ccc2[nH]5)C=C4)C=C3)cc1
REMARK SMILES IDX 9 1 8 2 7 3 6 4 5 5 4 6 3 7 2 8 1 9 29 10 30 11 94 12 31 13
REMARK SMILES IDX 93 14 32 15 33 16 34 17 87 18 35 19 92 20 86 21 88 22 36 23
REMARK SMILES IDX 91 24 85 25 84 26 37 28 71 29 50 30 70 31 51 32 54 33 69 34
REMARK SMILES IDX 89 35 52 36 53 37 68 39 90 40 55 41 38 42 39 43 48 44 40 45
REMARK SMILES IDX 41 46 47 47 49 48 42 49 43 50 44 51 45 52 46 53 72 54 73 55
REMARK SMILES IDX 82 56 74 57 75 58 81 59 83 60 76 61 77 62 78 63 79 64 80 65
REMARK SMILES IDX 56 66 57 67 66 68 58 69 59 70 65 71 67 72 60 73 61 74 62 75
REMARK SMILES IDX 63 76 64 77 10 78 11 79 12 80 13 81 14 82 15 83 16 84 17 85
REMARK SMILES IDX 18 86 19 87 20 88 21 89 22 91 23 92 28 93 24 94 26 95 25 96
REMARK SMILES IDX 27 97
REMARK H PARENT 88 27 54 38 21 90
REMARK Flexibility Score: inf
ROOT
ATOM      1  O   UNL     1       2.264   4.016   0.167  1.00  0.00    -0.376 OA
ENDROOT
BRANCH   1   2
ATOM      2  C   UNL     1       1.735   2.731   0.481  1.00  0.00     0.188 C 
BRANCH   2   3
ATOM      3  C   UNL     1       2.434   1.527  -0.143  1.00  0.00     0.188 C 
BRANCH   3   4
ATOM      4  O   UNL     1       3.753   1.280   0.360  1.00  0.00    -0.376 OA
BRANCH   4   5
ATOM      5  C   UNL     1       4.718   1.061  -0.676  1.00  0.00     0.202 C 
BRANCH   5   6
ATOM      6  C   UNL     1       4.553  -0.217  -1.524  1.00  0.00     0.261 C 
BRANCH   6   7
ATOM      7  O   UNL     1       3.249  -0.825  -1.478  1.00  0.00    -0.460 OA
BRANCH   7   8
ATOM      8  C   UNL     1       2.675  -1.627  -0.548  1.00  0.00     0.338 C 
ATOM      9  O   UNL     1       1.508  -1.970  -0.737  1.00  0.00    -0.246 OA
BRANCH   8  10
ATOM     10  C   UNL     1       3.345  -2.097   0.707  1.00  0.00     0.060 A 
ATOM     11  C   UNL     1       4.612  -1.716   1.133  1.00  0.00     0.016 A 
ATOM     12  C   UNL     1       2.627  -3.001   1.524  1.00  0.00     0.016 A 
ATOM     13  C   UNL     1       5.175  -2.248   2.285  1.00  0.00     0.010 A 
ATOM     14  C   UNL     1       3.181  -3.533   2.698  1.00  0.00     0.010 A 
ATOM     15  C   UNL     1       4.474  -3.169   3.065  1.00  0.00    -0.014 A 
BRANCH  15  16
ATOM     16  C   UNL     1       5.271  -3.842   4.110  1.00  0.00     0.031 A 
ATOM     17  C   UNL     1       6.083  -5.020   3.678  1.00  0.00     0.074 A 
ATOM     18  C   UNL     1       5.479  -3.230   5.291  1.00  0.00     0.049 A 
ATOM     19  N   UNL     1       7.029  -5.641   4.322  1.00  0.00    -0.248 NA
ATOM     20  C   UNL     1       5.802  -5.566   2.336  1.00  0.00     0.031 C 
ATOM     21  C   UNL     1       4.753  -2.054   5.751  1.00  0.00     0.029 A 
ATOM     22  N   UNL     1       6.421  -3.436   6.266  1.00  0.00    -0.354 N 
ATOM     23  C   UNL     1       7.427  -6.674   3.487  1.00  0.00     0.074 A 
ATOM     24  C   UNL     1       6.651  -6.580   2.273  1.00  0.00     0.031 C 
ATOM     25  C   UNL     1       5.367  -1.546   6.831  1.00  0.00     0.029 A 
ATOM     26  C   UNL     1       6.473  -2.419   7.199  1.00  0.00     0.049 A 
ATOM     27  H   UNL     1       7.002  -4.229   6.297  1.00  0.00     0.167 HD
ATOM     28  C   UNL     1       8.340  -7.633   3.746  1.00  0.00     0.037 A 
ATOM     29  C   UNL     1       7.319  -2.228   8.232  1.00  0.00     0.037 A 
ATOM     30  C   UNL     1       9.079  -7.696   4.977  1.00  0.00     0.049 A 
ATOM     31  C   UNL     1       8.326  -3.315   8.494  1.00  0.00     0.074 A 
ATOM     32  C   UNL     1       9.947  -8.678   5.412  1.00  0.00     0.029 A 
ATOM     33  N   UNL     1       9.034  -6.726   5.970  1.00  0.00    -0.354 N 
ATOM     34  N   UNL     1       8.618  -4.361   7.754  1.00  0.00    -0.248 NA
ATOM     35  C   UNL     1       9.065  -3.244   9.759  1.00  0.00     0.031 C 
ATOM     36  C   UNL     1      10.395  -8.322   6.687  1.00  0.00     0.029 A 
ATOM     37  C   UNL     1       9.853  -7.090   7.022  1.00  0.00     0.049 A 
ATOM     38  H   UNL     1       8.498  -5.901   5.931  1.00  0.00     0.167 HD
ATOM     39  C   UNL     1       9.537  -5.097   8.487  1.00  0.00     0.074 A 
ATOM     40  C   UNL     1       9.809  -4.339   9.694  1.00  0.00     0.031 C 
ATOM     41  C   UNL     1      10.079  -6.309   8.213  1.00  0.00     0.037 A 
BRANCH  28  42
ATOM     42  C   UNL     1       8.508  -8.723   2.735  1.00  0.00     0.058 A 
ATOM     43  C   UNL     1       7.992 -10.002   2.997  1.00  0.00     0.135 A 
ATOM     44  C   UNL     1       9.193  -8.525   1.527  1.00  0.00     0.135 A 
ATOM     45  F   UNL     1       7.295 -10.232   4.121  1.00  0.00    -0.206 F 
ATOM     46  C   UNL     1       8.188 -11.059   2.118  1.00  0.00     0.059 A 
ATOM     47  C   UNL     1       9.382  -9.564   0.620  1.00  0.00     0.059 A 
ATOM     48  F   UNL     1       9.657  -7.306   1.205  1.00  0.00    -0.206 F 
ATOM     49  C   UNL     1       8.895 -10.833   0.937  1.00  0.00     0.060 A 
BRANCH  49  50
ATOM     50  S   UNL     1       9.161 -12.225  -0.179  1.00  0.00     0.124 S 
ATOM     51  O   UNL     1      10.052 -13.072   0.608  1.00  0.00    -0.237 OA
ATOM     52  O   UNL     1       7.803 -12.730  -0.365  1.00  0.00    -0.237 OA
ATOM     53  O   UNL     1       9.758 -11.607  -1.357  1.00  0.00    -0.744 OA
ENDBRANCH  49  50
ENDBRANCH  28  42
BRANCH  29  54
ATOM     54  C   UNL     1       7.211  -1.043   9.134  1.00  0.00     0.058 A 
ATOM     55  C   UNL     1       6.057  -0.815   9.901  1.00  0.00     0.135 A 
ATOM     56  C   UNL     1       8.268  -0.129   9.286  1.00  0.00     0.135 A 
ATOM     57  F   UNL     1       5.021  -1.664   9.825  1.00  0.00    -0.206 F 
ATOM     58  C   UNL     1       5.937   0.286  10.744  1.00  0.00     0.059 A 
ATOM     59  C   UNL     1       8.184   0.965  10.150  1.00  0.00     0.059 A 
ATOM     60  F   UNL     1       9.415  -0.314   8.613  1.00  0.00    -0.206 F 
ATOM     61  C   UNL     1       7.001   1.178  10.856  1.00  0.00     0.060 A 
BRANCH  61  62
ATOM     62  S   UNL     1       6.824   2.600  11.957  1.00  0.00     0.124 S 
ATOM     63  O   UNL     1       5.972   3.484  11.165  1.00  0.00    -0.237 OA
ATOM     64  O   UNL     1       6.194   2.008  13.136  1.00  0.00    -0.237 OA
ATOM     65  O   UNL     1       8.195   3.053  12.148  1.00  0.00    -0.744 OA
ENDBRANCH  61  62
ENDBRANCH  29  54
BRANCH  41  66
ATOM     66  C   UNL     1      10.996  -6.888   9.247  1.00  0.00     0.058 A 
ATOM     67  C   UNL     1      12.372  -6.990   8.997  1.00  0.00     0.135 A 
ATOM     68  C   UNL     1      10.501  -7.396  10.458  1.00  0.00     0.135 A 
ATOM     69  F   UNL     1      12.889  -6.528   7.848  1.00  0.00    -0.206 F 
ATOM     70  C   UNL     1      13.228  -7.586   9.913  1.00  0.00     0.059 A 
ATOM     71  C   UNL     1      11.344  -7.968  11.403  1.00  0.00     0.059 A 
ATOM     72  F   UNL     1       9.191  -7.312  10.742  1.00  0.00    -0.206 F 
ATOM     73  C   UNL     1      12.705  -8.070  11.114  1.00  0.00     0.060 A 
BRANCH  73  74
ATOM     74  S   UNL     1      13.840  -8.806  12.305  1.00  0.00     0.124 S 
ATOM     75  O   UNL     1      14.196 -10.058  11.645  1.00  0.00    -0.237 OA
ATOM     76  O   UNL     1      14.899  -7.804  12.379  1.00  0.00    -0.237 OA
ATOM     77  O   UNL     1      13.028  -8.939  13.510  1.00  0.00    -0.744 OA
ENDBRANCH  73  74
ENDBRANCH  41  66
ENDBRANCH  15  16
ENDBRANCH   8  10
ENDBRANCH   7   8
ENDBRANCH   6   7
ENDBRANCH   5   6
ENDBRANCH   4   5
ENDBRANCH   3   4
ENDBRANCH   2   3
ENDBRANCH   1   2
BRANCH   1  78
ATOM     78  C   UNL     1       3.607   4.290   0.541  1.00  0.00     0.202 C 
BRANCH  78  79
ATOM     79  C   UNL     1       3.902   4.468   2.032  1.00  0.00     0.261 C 
BRANCH  79  80
ATOM     80  O   UNL     1       3.573   3.330   2.843  1.00  0.00    -0.463 OA
BRANCH  80  81
ATOM     81  C   UNL     1       2.443   3.430   3.599  1.00  0.00     0.313 C 
ATOM     82  O   UNL     1       1.664   4.375   3.524  1.00  0.00    -0.252 OA
BRANCH  81  83
ATOM     83  C   UNL     1       2.240   2.252   4.569  1.00  0.00     0.131 C 
BRANCH  83  84
ATOM     84  C   UNL     1       2.895   0.940   4.070  1.00  0.00     0.048 C 
BRANCH  84  85
ATOM     85  C   UNL     1       4.422   0.853   3.915  1.00  0.00     0.161 C 
BRANCH  85  86
ATOM     86  O   UNL     1       5.215   1.182   5.040  1.00  0.00    -0.379 OA
BRANCH  86  87
ATOM     87  C   UNL     1       5.601   2.539   5.202  1.00  0.00     0.188 C 
BRANCH  87  88
ATOM     88  C   UNL     1       6.812   3.026   4.396  1.00  0.00     0.184 C 
BRANCH  88  89
ATOM     89  O   UNL     1       6.886   2.559   3.054  1.00  0.00    -0.394 OA
ATOM     90  H   UNL     1       6.980   1.594   3.052  1.00  0.00     0.210 HD
ENDBRANCH  88  89
ENDBRANCH  87  88
ENDBRANCH  86  87
ENDBRANCH  85  86
ENDBRANCH  84  85
ENDBRANCH  83  84
BRANCH  83  91
ATOM     91  C   UNL     1       2.485   2.615   6.036  1.00  0.00    -0.031 A 
ATOM     92  C   UNL     1       2.438   3.951   6.480  1.00  0.00     0.005 A 
ATOM     93  C   UNL     1       2.788   1.633   6.994  1.00  0.00     0.043 A 
ATOM     94  C   UNL     1       2.830   4.303   7.775  1.00  0.00     0.003 A 
ATOM     95  C   UNL     1       3.167   1.992   8.285  1.00  0.00     0.123 A 
ATOM     96  C   UNL     1       3.228   3.320   8.673  1.00  0.00     0.039 A 
ATOM     97  F   UNL     1       3.491   1.028   9.154  1.00  0.00    -0.207 F 
ENDBRANCH  83  91
ENDBRANCH  81  83
ENDBRANCH  80  81
ENDBRANCH  79  80
ENDBRANCH  78  79
ENDBRANCH   1  78
TORSDOF 27
