REMARK SMILES CC/C=C/C/C=C/C/C=C/C/C=C/CC/C=C/COCC(=O)OCCOCCOCCOC(=O)c1ccc(-c2c3nc(c(-c4c(F)cc(S(=O)(=O)[O-])cc4F)c4ccc([nH]4)c(-c4c(F)cc(S(=O)(=O)[O-])cc4F)c4nc(c(-c5c(F)cc(S(=O)(=O)[O-])cc5F)c5ccc2[nH]5)C=C4)C=C3)cc1
REMARK SMILES IDX 21 1 22 2 20 3 19 4 18 5 17 6 16 7 15 8 14 9 13 10 12 11
REMARK SMILES IDX 11 12 10 13 9 14 8 15 7 16 6 17 5 18 4 19 3 20 2 21 1 22
REMARK SMILES IDX 23 23 24 24 25 25 26 26 27 27 28 28 29 29 30 30 31 31 32 32
REMARK SMILES IDX 33 33 34 34 35 35 36 36 100 37 37 38 99 39 38 40 39 41 40 42
REMARK SMILES IDX 93 43 41 44 98 45 92 46 94 47 42 48 97 49 91 50 90 51 43 53
REMARK SMILES IDX 77 54 56 55 76 56 57 57 60 58 75 59 95 60 58 61 59 62 74 64
REMARK SMILES IDX 96 65 61 66 44 67 45 68 54 69 46 70 47 71 53 72 55 73 48 74
REMARK SMILES IDX 49 75 50 76 51 77 52 78 78 79 79 80 88 81 80 82 81 83 87 84
REMARK SMILES IDX 89 85 82 86 83 87 84 88 85 89 86 90 62 91 63 92 72 93 64 94
REMARK SMILES IDX 65 95 71 96 73 97 66 98 67 99 68 100 69 101 70 102
REMARK H PARENT 94 52 60 63
REMARK Flexibility Score: inf
ROOT
ATOM      1  C   UNL     1     -10.713  -5.811 -11.535  1.00  0.00     0.332 C 
ATOM      2  O   UNL     1     -11.231  -5.539 -10.454  1.00  0.00    -0.250 OA
ENDROOT
BRANCH   1   3
ATOM      3  C   UNL     1     -10.849  -4.863 -12.737  1.00  0.00     0.283 C 
BRANCH   3   4
ATOM      4  O   UNL     1     -10.211  -5.006 -13.991  1.00  0.00    -0.366 OA
BRANCH   4   5
ATOM      5  C   UNL     1      -8.847  -4.592 -14.075  1.00  0.00     0.188 C 
BRANCH   5   6
ATOM      6  C   UNL     1      -8.609  -3.231 -13.475  1.00  0.00    -0.003 C 
ATOM      7  C   UNL     1      -7.834  -3.031 -12.395  1.00  0.00    -0.029 C 
BRANCH   7   8
ATOM      8  C   UNL     1      -7.650  -1.743 -11.639  1.00  0.00     0.031 C 
BRANCH   8   9
ATOM      9  C   UNL     1      -7.917  -1.826 -10.104  1.00  0.00     0.031 C 
BRANCH   9  10
ATOM     10  C   UNL     1      -7.085  -2.804  -9.290  1.00  0.00    -0.031 C 
ATOM     11  C   UNL     1      -6.181  -2.547  -8.322  1.00  0.00    -0.027 C 
BRANCH  11  12
ATOM     12  C   UNL     1      -5.330  -3.561  -7.590  1.00  0.00     0.054 C 
BRANCH  12  13
ATOM     13  C   UNL     1      -3.838  -3.320  -7.728  1.00  0.00    -0.027 C 
ATOM     14  C   UNL     1      -2.999  -3.037  -6.709  1.00  0.00    -0.027 C 
BRANCH  14  15
ATOM     15  C   UNL     1      -1.493  -2.955  -6.808  1.00  0.00     0.054 C 
BRANCH  15  16
ATOM     16  C   UNL     1      -0.936  -1.632  -6.355  1.00  0.00    -0.027 C 
ATOM     17  C   UNL     1      -0.070  -1.470  -5.336  1.00  0.00    -0.027 C 
BRANCH  17  18
ATOM     18  C   UNL     1       0.531  -0.149  -4.929  1.00  0.00     0.054 C 
BRANCH  18  19
ATOM     19  C   UNL     1       0.128   0.235  -3.532  1.00  0.00    -0.027 C 
ATOM     20  C   UNL     1       0.983   0.507  -2.531  1.00  0.00    -0.031 C 
BRANCH  20  21
ATOM     21  C   UNL     1       0.550   0.931  -1.156  1.00  0.00     0.023 C 
ATOM     22  C   UNL     1       1.048  -0.034  -0.090  1.00  0.00     0.008 C 
ENDBRANCH  20  21
ENDBRANCH  18  19
ENDBRANCH  17  18
ENDBRANCH  15  16
ENDBRANCH  14  15
ENDBRANCH  12  13
ENDBRANCH  11  12
ENDBRANCH   9  10
ENDBRANCH   8   9
ENDBRANCH   7   8
ENDBRANCH   5   6
ENDBRANCH   4   5
ENDBRANCH   3   4
ENDBRANCH   1   3
BRANCH   1  23
ATOM     23  O   UNL     1     -10.035  -6.965 -11.793  1.00  0.00    -0.462 OA
BRANCH  23  24
ATOM     24  C   UNL     1      -9.976  -7.899 -10.691  1.00  0.00     0.261 C 
BRANCH  24  25
ATOM     25  C   UNL     1      -8.575  -8.167 -10.126  1.00  0.00     0.202 C 
BRANCH  25  26
ATOM     26  O   UNL     1      -7.851  -7.026  -9.694  1.00  0.00    -0.376 OA
BRANCH  26  27
ATOM     27  C   UNL     1      -7.373  -6.191 -10.733  1.00  0.00     0.188 C 
BRANCH  27  28
ATOM     28  C   UNL     1      -6.395  -6.813 -11.703  1.00  0.00     0.188 C 
BRANCH  28  29
ATOM     29  O   UNL     1      -6.942  -7.784 -12.565  1.00  0.00    -0.376 OA
BRANCH  29  30
ATOM     30  C   UNL     1      -6.005  -8.657 -13.194  1.00  0.00     0.202 C 
BRANCH  30  31
ATOM     31  C   UNL     1      -4.467  -8.545 -12.986  1.00  0.00     0.261 C 
BRANCH  31  32
ATOM     32  O   UNL     1      -3.900  -7.264 -12.631  1.00  0.00    -0.460 OA
BRANCH  32  33
ATOM     33  C   UNL     1      -3.924  -6.295 -13.582  1.00  0.00     0.338 C 
ATOM     34  O   UNL     1      -4.282  -6.452 -14.728  1.00  0.00    -0.246 OA
BRANCH  33  35
ATOM     35  C   UNL     1      -3.659  -4.952 -12.960  1.00  0.00     0.060 A 
ATOM     36  C   UNL     1      -4.410  -3.871 -13.438  1.00  0.00     0.016 A 
ATOM     37  C   UNL     1      -2.718  -4.721 -11.949  1.00  0.00     0.016 A 
ATOM     38  C   UNL     1      -4.193  -2.569 -12.960  1.00  0.00     0.010 A 
ATOM     39  C   UNL     1      -2.488  -3.405 -11.481  1.00  0.00     0.010 A 
ATOM     40  C   UNL     1      -3.208  -2.309 -11.998  1.00  0.00    -0.014 A 
BRANCH  40  41
ATOM     41  C   UNL     1      -2.811  -0.888 -11.711  1.00  0.00     0.031 A 
ATOM     42  C   UNL     1      -1.689  -0.292 -12.496  1.00  0.00     0.074 A 
ATOM     43  C   UNL     1      -3.480  -0.066 -10.876  1.00  0.00     0.049 A 
ATOM     44  N   UNL     1      -1.181   0.908 -12.415  1.00  0.00    -0.248 NA
ATOM     45  C   UNL     1      -1.086  -1.147 -13.527  1.00  0.00     0.031 C 
ATOM     46  C   UNL     1      -4.680  -0.456 -10.179  1.00  0.00     0.029 A 
ATOM     47  N   UNL     1      -3.295   1.241 -10.477  1.00  0.00    -0.354 N 
ATOM     48  C   UNL     1      -0.205   0.963 -13.394  1.00  0.00     0.074 A 
ATOM     49  C   UNL     1      -0.173  -0.335 -14.037  1.00  0.00     0.031 C 
ATOM     50  C   UNL     1      -5.139   0.562  -9.434  1.00  0.00     0.029 A 
ATOM     51  C   UNL     1      -4.216   1.676  -9.543  1.00  0.00     0.049 A 
ATOM     52  H   UNL     1      -2.573   1.812 -10.826  1.00  0.00     0.167 HD
ATOM     53  C   UNL     1       0.589   2.005 -13.727  1.00  0.00     0.037 A 
ATOM     54  C   UNL     1      -4.309   2.815  -8.823  1.00  0.00     0.037 A 
ATOM     55  C   UNL     1       0.581   3.283 -13.067  1.00  0.00     0.049 A 
ATOM     56  C   UNL     1      -3.295   3.893  -9.082  1.00  0.00     0.074 A 
ATOM     57  C   UNL     1       1.407   4.368 -13.297  1.00  0.00     0.029 A 
ATOM     58  N   UNL     1      -0.281   3.649 -12.042  1.00  0.00    -0.354 N 
ATOM     59  N   UNL     1      -2.338   3.907  -9.977  1.00  0.00    -0.248 NA
ATOM     60  C   UNL     1      -3.367   5.105  -8.255  1.00  0.00     0.031 C 
ATOM     61  C   UNL     1       1.086   5.367 -12.373  1.00  0.00     0.029 A 
ATOM     62  C   UNL     1       0.015   4.933 -11.609  1.00  0.00     0.049 A 
ATOM     63  H   UNL     1      -0.997   3.081 -11.676  1.00  0.00     0.167 HD
ATOM     64  C   UNL     1      -1.722   5.144  -9.853  1.00  0.00     0.074 A 
ATOM     65  C   UNL     1      -2.414   5.853  -8.796  1.00  0.00     0.031 C 
ATOM     66  C   UNL     1      -0.682   5.642 -10.563  1.00  0.00     0.037 A 
BRANCH  53  67
ATOM     67  C   UNL     1       1.590   1.751 -14.812  1.00  0.00     0.058 A 
ATOM     68  C   UNL     1       1.211   1.619 -16.157  1.00  0.00     0.135 A 
ATOM     69  C   UNL     1       2.946   1.592 -14.486  1.00  0.00     0.135 A 
ATOM     70  F   UNL     1      -0.080   1.724 -16.510  1.00  0.00    -0.206 F 
ATOM     71  C   UNL     1       2.141   1.306 -17.140  1.00  0.00     0.059 A 
ATOM     72  C   UNL     1       3.896   1.307 -15.458  1.00  0.00     0.059 A 
ATOM     73  F   UNL     1       3.351   1.691 -13.211  1.00  0.00    -0.206 F 
ATOM     74  C   UNL     1       3.481   1.149 -16.779  1.00  0.00     0.060 A 
BRANCH  74  75
ATOM     75  S   UNL     1       4.675   0.721 -18.061  1.00  0.00     0.124 S 
ATOM     76  O   UNL     1       4.319  -0.667 -18.338  1.00  0.00    -0.237 OA
ATOM     77  O   UNL     1       4.356   1.679 -19.114  1.00  0.00    -0.237 OA
ATOM     78  O   UNL     1       5.963   0.919 -17.405  1.00  0.00    -0.744 OA
ENDBRANCH  74  75
ENDBRANCH  53  67
BRANCH  54  79
ATOM     79  C   UNL     1      -5.351   2.993  -7.762  1.00  0.00     0.058 A 
ATOM     80  C   UNL     1      -6.343   3.983  -7.856  1.00  0.00     0.135 A 
ATOM     81  C   UNL     1      -5.338   2.210  -6.594  1.00  0.00     0.135 A 
ATOM     82  F   UNL     1      -6.400   4.773  -8.939  1.00  0.00    -0.206 F 
ATOM     83  C   UNL     1      -7.258   4.211  -6.827  1.00  0.00     0.059 A 
ATOM     84  C   UNL     1      -6.259   2.399  -5.564  1.00  0.00     0.059 A 
ATOM     85  F   UNL     1      -4.418   1.245  -6.442  1.00  0.00    -0.206 F 
ATOM     86  C   UNL     1      -7.206   3.414  -5.682  1.00  0.00     0.060 A 
BRANCH  86  87
ATOM     87  S   UNL     1      -8.398   3.717  -4.356  1.00  0.00     0.124 S 
ATOM     88  O   UNL     1      -7.948   5.005  -3.840  1.00  0.00    -0.237 OA
ATOM     89  O   UNL     1      -9.665   3.728  -5.081  1.00  0.00    -0.237 OA
ATOM     90  O   UNL     1      -8.205   2.579  -3.462  1.00  0.00    -0.744 OA
ENDBRANCH  86  87
ENDBRANCH  54  79
BRANCH  66  91
ATOM     91  C   UNL     1      -0.252   7.050 -10.262  1.00  0.00     0.058 A 
ATOM     92  C   UNL     1       0.415   7.388  -9.076  1.00  0.00     0.135 A 
ATOM     93  C   UNL     1      -0.466   8.067 -11.208  1.00  0.00     0.135 A 
ATOM     94  F   UNL     1       0.633   6.456  -8.133  1.00  0.00    -0.206 F 
ATOM     95  C   UNL     1       0.843   8.688  -8.829  1.00  0.00     0.059 A 
ATOM     96  C   UNL     1      -0.019   9.366 -10.996  1.00  0.00     0.059 A 
ATOM     97  F   UNL     1      -1.098   7.796 -12.361  1.00  0.00    -0.206 F 
ATOM     98  C   UNL     1       0.627   9.669  -9.799  1.00  0.00     0.060 A 
BRANCH  98  99
ATOM     99  S   UNL     1       1.236  11.339  -9.491  1.00  0.00     0.124 S 
ATOM    100  O   UNL     1       0.296  11.813  -8.480  1.00  0.00    -0.237 OA
ATOM    101  O   UNL     1       2.597  11.094  -9.026  1.00  0.00    -0.237 OA
ATOM    102  O   UNL     1       1.132  11.986 -10.796  1.00  0.00    -0.744 OA
ENDBRANCH  98  99
ENDBRANCH  66  91
ENDBRANCH  40  41
ENDBRANCH  33  35
ENDBRANCH  32  33
ENDBRANCH  31  32
ENDBRANCH  30  31
ENDBRANCH  29  30
ENDBRANCH  28  29
ENDBRANCH  27  28
ENDBRANCH  26  27
ENDBRANCH  25  26
ENDBRANCH  24  25
ENDBRANCH  23  24
ENDBRANCH   1  23
TORSDOF 33
