REMARK SMILES CN(Cc1ccc(Cl)cc1Cl)S(=O)(=O)CCCC(=O)OCCOCCOCCOC(=O)c1ccc(-c2c3nc(c(-c4c(F)cc(S(=O)(=O)[O-])cc4F)c4ccc([nH]4)c(-c4c(F)cc(S(=O)(=O)[O-])cc4F)c4nc(c(-c5c(F)cc(S(=O)(=O)[O-])cc5F)c5ccc2[nH]5)C=C4)C=C3)cc1
REMARK SMILES IDX 23 1 22 2 21 3 20 4 18 5 19 6 17 7 16 8 15 9 12 10 13 11
REMARK SMILES IDX 14 12 2 13 1 14 3 15 4 16 5 17 10 18 6 19 9 20 11 21 7 22
REMARK SMILES IDX 8 23 24 24 25 25 26 26 27 27 28 28 29 29 30 30 31 31 32 32
REMARK SMILES IDX 33 33 97 34 34 35 96 36 35 37 36 38 37 39 90 40 38 41 95 42
REMARK SMILES IDX 89 43 91 44 39 45 94 46 88 47 87 48 40 50 74 51 53 52 73 53
REMARK SMILES IDX 54 54 57 55 72 56 92 57 55 58 56 59 71 61 93 62 58 63 41 64
REMARK SMILES IDX 42 65 51 66 43 67 44 68 50 69 52 70 45 71 46 72 47 73 48 74
REMARK SMILES IDX 49 75 75 76 76 77 85 78 77 79 78 80 84 81 86 82 79 83 80 84
REMARK SMILES IDX 81 85 82 86 83 87 59 88 60 89 69 90 61 91 62 92 68 93 70 94
REMARK SMILES IDX 63 95 64 96 65 97 66 98 67 99
REMARK H PARENT 91 49 57 60
REMARK Flexibility Score: inf
ROOT
ATOM      1  O   UNL     1      -3.774   1.651  -5.358  1.00  0.00    -0.376 OA
ENDROOT
BRANCH   1   2
ATOM      2  C   UNL     1      -3.961   1.541  -3.953  1.00  0.00     0.202 C 
BRANCH   2   3
ATOM      3  C   UNL     1      -2.962   0.660  -3.196  1.00  0.00     0.261 C 
BRANCH   3   4
ATOM      4  O   UNL     1      -1.585   1.077  -3.362  1.00  0.00    -0.463 OA
BRANCH   4   5
ATOM      5  C   UNL     1      -0.650   0.102  -3.277  1.00  0.00     0.305 C 
ATOM      6  O   UNL     1      -0.916  -1.059  -2.987  1.00  0.00    -0.252 OA
BRANCH   5   7
ATOM      7  C   UNL     1       0.772   0.534  -3.610  1.00  0.00     0.124 C 
BRANCH   7   8
ATOM      8  C   UNL     1       1.298   1.974  -3.545  1.00  0.00     0.029 C 
BRANCH   8   9
ATOM      9  C   UNL     1       0.961   2.870  -2.359  1.00  0.00     0.155 C 
BRANCH   9  10
ATOM     10  S   UNL     1       1.572   2.303  -0.775  1.00  0.00     0.214 S 
ATOM     11  O   UNL     1       1.331   3.319   0.226  1.00  0.00    -0.212 OA
ATOM     12  O   UNL     1       2.915   1.800  -0.979  1.00  0.00    -0.212 OA
BRANCH  10  13
ATOM     13  N   UNL     1       0.571   0.994  -0.433  1.00  0.00    -0.201 NA
ATOM     14  C   UNL     1       1.138  -0.038   0.450  1.00  0.00     0.124 C 
BRANCH  13  15
ATOM     15  C   UNL     1      -0.889   1.202  -0.303  1.00  0.00     0.138 C 
BRANCH  15  16
ATOM     16  C   UNL     1      -1.436   1.773   0.978  1.00  0.00    -0.014 A 
ATOM     17  C   UNL     1      -1.689   0.896   2.048  1.00  0.00     0.008 A 
ATOM     18  C   UNL     1      -1.768   3.132   1.134  1.00  0.00     0.047 A 
ATOM     19  C   UNL     1      -2.211   1.370   3.251  1.00  0.00     0.021 A 
ATOM     20  C   UNL     1      -2.260   3.610   2.349  1.00  0.00     0.041 A 
ATOM     21  Cl  UNL     1      -1.688   4.273  -0.165  1.00  0.00    -0.084 Cl
ATOM     22  C   UNL     1      -2.474   2.728   3.402  1.00  0.00     0.042 A 
ATOM     23  Cl  UNL     1      -3.097   3.316   4.893  1.00  0.00    -0.084 Cl
ENDBRANCH  15  16
ENDBRANCH  13  15
ENDBRANCH  10  13
ENDBRANCH   9  10
ENDBRANCH   8   9
ENDBRANCH   7   8
ENDBRANCH   5   7
ENDBRANCH   4   5
ENDBRANCH   3   4
ENDBRANCH   2   3
ENDBRANCH   1   2
BRANCH   1  24
ATOM     24  C   UNL     1      -2.503   2.076  -5.842  1.00  0.00     0.188 C 
BRANCH  24  25
ATOM     25  C   UNL     1      -1.801   3.241  -5.121  1.00  0.00     0.188 C 
BRANCH  25  26
ATOM     26  O   UNL     1      -2.651   4.004  -4.286  1.00  0.00    -0.376 OA
BRANCH  26  27
ATOM     27  C   UNL     1      -2.800   5.369  -4.635  1.00  0.00     0.202 C 
BRANCH  27  28
ATOM     28  C   UNL     1      -3.563   5.613  -5.944  1.00  0.00     0.261 C 
BRANCH  28  29
ATOM     29  O   UNL     1      -3.021   4.971  -7.114  1.00  0.00    -0.460 OA
BRANCH  29  30
ATOM     30  C   UNL     1      -1.802   5.364  -7.555  1.00  0.00     0.338 C 
ATOM     31  O   UNL     1      -1.107   6.248  -7.085  1.00  0.00    -0.246 OA
BRANCH  30  32
ATOM     32  C   UNL     1      -1.349   4.347  -8.537  1.00  0.00     0.060 A 
ATOM     33  C   UNL     1      -0.143   3.662  -8.316  1.00  0.00     0.016 A 
ATOM     34  C   UNL     1      -2.157   4.007  -9.624  1.00  0.00     0.016 A 
ATOM     35  C   UNL     1       0.247   2.627  -9.175  1.00  0.00     0.010 A 
ATOM     36  C   UNL     1      -1.751   2.994 -10.496  1.00  0.00     0.010 A 
ATOM     37  C   UNL     1      -0.544   2.303 -10.284  1.00  0.00    -0.014 A 
BRANCH  37  38
ATOM     38  C   UNL     1      -0.067   1.356 -11.324  1.00  0.00     0.031 A 
ATOM     39  C   UNL     1       0.589   1.925 -12.552  1.00  0.00     0.074 A 
ATOM     40  C   UNL     1      -0.276   0.030 -11.222  1.00  0.00     0.049 A 
ATOM     41  N   UNL     1       0.916   1.330 -13.668  1.00  0.00    -0.248 NA
ATOM     42  C   UNL     1       0.908   3.362 -12.518  1.00  0.00     0.031 C 
ATOM     43  C   UNL     1      -0.868  -0.649 -10.071  1.00  0.00     0.029 A 
ATOM     44  N   UNL     1      -0.045  -0.981 -12.125  1.00  0.00    -0.354 N 
ATOM     45  C   UNL     1       1.450   2.323 -14.481  1.00  0.00     0.074 A 
ATOM     46  C   UNL     1       1.407   3.558 -13.730  1.00  0.00     0.031 C 
ATOM     47  C   UNL     1      -0.992  -1.959 -10.353  1.00  0.00     0.029 A 
ATOM     48  C   UNL     1      -0.532  -2.204 -11.720  1.00  0.00     0.049 A 
ATOM     49  H   UNL     1       0.424  -0.844 -12.980  1.00  0.00     0.167 HD
ATOM     50  C   UNL     1       1.924   2.213 -15.743  1.00  0.00     0.037 A 
ATOM     51  C   UNL     1      -0.643  -3.369 -12.393  1.00  0.00     0.037 A 
ATOM     52  C   UNL     1       1.976   0.980 -16.482  1.00  0.00     0.049 A 
ATOM     53  C   UNL     1      -0.167  -3.448 -13.825  1.00  0.00     0.074 A 
ATOM     54  C   UNL     1       2.498   0.761 -17.745  1.00  0.00     0.029 A 
ATOM     55  N   UNL     1       1.474  -0.232 -16.039  1.00  0.00    -0.354 N 
ATOM     56  N   UNL     1       0.390  -2.517 -14.564  1.00  0.00    -0.248 NA
ATOM     57  C   UNL     1      -0.343  -4.733 -14.521  1.00  0.00     0.031 C 
ATOM     58  C   UNL     1       2.255  -0.571 -18.091  1.00  0.00     0.029 A 
ATOM     59  C   UNL     1       1.633  -1.195 -17.021  1.00  0.00     0.049 A 
ATOM     60  H   UNL     1       1.064  -0.387 -15.157  1.00  0.00     0.167 HD
ATOM     61  C   UNL     1       0.646  -3.109 -15.798  1.00  0.00     0.074 A 
ATOM     62  C   UNL     1       0.201  -4.482 -15.704  1.00  0.00     0.031 C 
ATOM     63  C   UNL     1       1.196  -2.564 -16.911  1.00  0.00     0.037 A 
BRANCH  50  64
ATOM     64  C   UNL     1       2.395   3.461 -16.432  1.00  0.00     0.058 A 
ATOM     65  C   UNL     1       3.611   4.077 -16.103  1.00  0.00     0.135 A 
ATOM     66  C   UNL     1       1.650   4.000 -17.494  1.00  0.00     0.135 A 
ATOM     67  F   UNL     1       4.350   3.614 -15.082  1.00  0.00    -0.206 F 
ATOM     68  C   UNL     1       4.074   5.185 -16.804  1.00  0.00     0.059 A 
ATOM     69  C   UNL     1       2.105   5.093 -18.224  1.00  0.00     0.059 A 
ATOM     70  F   UNL     1       0.474   3.453 -17.840  1.00  0.00    -0.206 F 
ATOM     71  C   UNL     1       3.317   5.681 -17.869  1.00  0.00     0.060 A 
BRANCH  71  72
ATOM     72  S   UNL     1       3.957   7.090 -18.798  1.00  0.00     0.124 S 
ATOM     73  O   UNL     1       3.791   8.174 -17.834  1.00  0.00    -0.237 OA
ATOM     74  O   UNL     1       5.333   6.685 -19.066  1.00  0.00    -0.237 OA
ATOM     75  O   UNL     1       3.086   7.151 -19.967  1.00  0.00    -0.744 OA
ENDBRANCH  71  72
ENDBRANCH  50  64
BRANCH  51  76
ATOM     76  C   UNL     1      -1.292  -4.551 -11.757  1.00  0.00     0.058 A 
ATOM     77  C   UNL     1      -0.565  -5.718 -11.475  1.00  0.00     0.135 A 
ATOM     78  C   UNL     1      -2.666  -4.555 -11.467  1.00  0.00     0.135 A 
ATOM     79  F   UNL     1       0.747  -5.774 -11.750  1.00  0.00    -0.206 F 
ATOM     80  C   UNL     1      -1.180  -6.854 -10.955  1.00  0.00     0.059 A 
ATOM     81  C   UNL     1      -3.297  -5.667 -10.918  1.00  0.00     0.059 A 
ATOM     82  F   UNL     1      -3.409  -3.465 -11.713  1.00  0.00    -0.206 F 
ATOM     83  C   UNL     1      -2.549  -6.819 -10.682  1.00  0.00     0.060 A 
BRANCH  83  84
ATOM     84  S   UNL     1      -3.336  -8.292  -9.993  1.00  0.00     0.124 S 
ATOM     85  O   UNL     1      -3.377  -9.172 -11.155  1.00  0.00    -0.237 OA
ATOM     86  O   UNL     1      -2.403  -8.672  -8.936  1.00  0.00    -0.237 OA
ATOM     87  O   UNL     1      -4.628  -7.795  -9.530  1.00  0.00    -0.744 OA
ENDBRANCH  83  84
ENDBRANCH  51  76
BRANCH  63  88
ATOM     88  C   UNL     1       1.380  -3.447 -18.116  1.00  0.00     0.058 A 
ATOM     89  C   UNL     1       0.294  -3.839 -18.913  1.00  0.00     0.135 A 
ATOM     90  C   UNL     1       2.667  -3.829 -18.529  1.00  0.00     0.135 A 
ATOM     91  F   UNL     1      -0.958  -3.506 -18.560  1.00  0.00    -0.206 F 
ATOM     92  C   UNL     1       0.476  -4.584 -20.074  1.00  0.00     0.059 A 
ATOM     93  C   UNL     1       2.875  -4.551 -19.701  1.00  0.00     0.059 A 
ATOM     94  F   UNL     1       3.742  -3.472 -17.808  1.00  0.00    -0.206 F 
ATOM     95  C   UNL     1       1.772  -4.928 -20.464  1.00  0.00     0.060 A 
BRANCH  95  96
ATOM     96  S   UNL     1       1.998  -5.841 -22.006  1.00  0.00     0.124 S 
ATOM     97  O   UNL     1       1.507  -7.165 -21.639  1.00  0.00    -0.237 OA
ATOM     98  O   UNL     1       1.162  -5.091 -22.938  1.00  0.00    -0.237 OA
ATOM     99  O   UNL     1       3.434  -5.750 -22.249  1.00  0.00    -0.744 OA
ENDBRANCH  95  96
ENDBRANCH  63  88
ENDBRANCH  37  38
ENDBRANCH  30  32
ENDBRANCH  29  30
ENDBRANCH  28  29
ENDBRANCH  27  28
ENDBRANCH  26  27
ENDBRANCH  25  26
ENDBRANCH  24  25
ENDBRANCH   1  24
TORSDOF 26
