REMARK SMILES Cc1cc(C)c(S(=O)(=O)Nc2ccc(N3CC[NH+](C)CC3)c(C(=O)OCCOCCOCCOC(=O)c3ccc(-c4c5nc(c(-c6c(F)cc(S(=O)(=O)[O-])cc6F)c6ccc([nH]6)c(-c6c(F)cc(S(=O)(=O)[O-])cc6F)c6nc(c(-c7c(F)cc(S(=O)(=O)[O-])cc7F)c7ccc4[nH]7)C=C6)C=C5)cc3)c2)c(C)c1
REMARK SMILES IDX 29 1 28 2 27 3 26 4 25 5 23 6 24 7 22 8 11 9 12 10 103 11
REMARK SMILES IDX 13 12 14 13 10 14 7 16 8 17 9 18 6 19 1 20 2 21 3 22 106 23
REMARK SMILES IDX 4 24 104 25 5 26 105 27 15 28 16 29 21 30 17 31 20 32 18 33
REMARK SMILES IDX 19 34 30 36 31 37 32 38 33 39 34 40 35 41 36 42 37 43 38 44
REMARK SMILES IDX 102 45 39 46 101 47 40 48 41 49 42 50 95 51 43 52 100 53
REMARK SMILES IDX 94 54 96 55 44 56 99 57 93 58 92 59 45 61 79 62 58 63 78 64
REMARK SMILES IDX 59 65 62 66 77 67 97 68 60 69 61 70 76 72 98 73 63 74 46 75
REMARK SMILES IDX 47 76 56 77 48 78 49 79 55 80 57 81 50 82 51 83 52 84 53 85
REMARK SMILES IDX 54 86 80 87 81 88 90 89 82 90 83 91 89 92 91 93 84 94 85 95
REMARK SMILES IDX 86 96 87 97 88 98 64 99 65 100 74 101 66 102 67 103 73 104
REMARK SMILES IDX 75 105 68 106 69 107 70 108 71 109 72 110
REMARK H PARENT 10 15 18 35 96 60 62 71
REMARK Flexibility Score: inf
ROOT
ATOM      1  C   UNL     1       3.736  -3.480   4.103  1.00  0.00     0.188 C 
ENDROOT
BRANCH   1   2
ATOM      2  O   UNL     1       3.776  -2.309   4.901  1.00  0.00    -0.376 OA
BRANCH   2   3
ATOM      3  C   UNL     1       4.052  -1.097   4.221  1.00  0.00     0.202 C 
BRANCH   3   4
ATOM      4  C   UNL     1       2.991  -0.601   3.227  1.00  0.00     0.261 C 
BRANCH   4   5
ATOM      5  O   UNL     1       2.308  -1.639   2.510  1.00  0.00    -0.460 OA
BRANCH   5   6
ATOM      6  C   UNL     1       2.745  -1.954   1.269  1.00  0.00     0.340 C 
ATOM      7  O   UNL     1       3.663  -1.405   0.680  1.00  0.00    -0.246 OA
BRANCH   6   8
ATOM      8  C   UNL     1       1.925  -3.095   0.760  1.00  0.00     0.085 A 
ATOM      9  C   UNL     1      -0.276  -3.889   0.207  1.00  0.00     0.050 A 
ATOM     10  C   UNL     1       0.282  -5.013  -0.405  1.00  0.00     0.029 A 
ATOM     11  C   UNL     1       0.531  -3.022   0.927  1.00  0.00     0.044 A 
ATOM     12  C   UNL     1       1.665  -5.143  -0.488  1.00  0.00     0.029 A 
ATOM     13  C   UNL     1       2.509  -4.157   0.035  1.00  0.00     0.052 A 
BRANCH   9  14
ATOM     14  N   UNL     1      -1.630  -3.610  -0.114  1.00  0.00    -0.280 N 
ATOM     15  H   UNL     1      -2.196  -4.374  -0.368  1.00  0.00     0.180 HD
BRANCH  14  16
ATOM     16  S   UNL     1      -2.352  -2.097  -0.101  1.00  0.00     0.262 S 
ATOM     17  O   UNL     1      -2.734  -1.871   1.280  1.00  0.00    -0.201 OA
ATOM     18  O   UNL     1      -3.357  -2.147  -1.144  1.00  0.00    -0.201 OA
BRANCH  16  19
ATOM     19  C   UNL     1      -1.220  -0.759  -0.553  1.00  0.00     0.093 A 
ATOM     20  C   UNL     1       1.962   2.115  -0.009  1.00  0.00     0.044 C 
ATOM     21  C   UNL     1       0.841   1.149  -0.254  1.00  0.00    -0.051 A 
ATOM     22  C   UNL     1      -0.446   1.432   0.194  1.00  0.00     0.008 A 
ATOM     23  C   UNL     1       1.033   0.002  -1.027  1.00  0.00     0.008 A 
ATOM     24  C   UNL     1      -1.488   0.502   0.035  1.00  0.00    -0.030 A 
ATOM     25  C   UNL     1       0.002  -0.946  -1.226  1.00  0.00    -0.030 A 
ATOM     26  C   UNL     1      -2.877   0.982   0.373  1.00  0.00     0.046 C 
ATOM     27  C   UNL     1       0.264  -2.004  -2.260  1.00  0.00     0.046 C 
ENDBRANCH  16  19
ENDBRANCH  14  16
ENDBRANCH   9  14
BRANCH  13  28
ATOM     28  N   UNL     1       3.861  -4.271  -0.136  1.00  0.00    -0.360 N 
ATOM     29  C   UNL     1       4.676  -4.901   0.891  1.00  0.00     0.178 C 
ATOM     30  C   UNL     1       4.521  -4.135  -1.438  1.00  0.00     0.178 C 
ATOM     31  C   UNL     1       5.939  -4.040   1.089  1.00  0.00     0.283 C 
ATOM     32  C   UNL     1       5.888  -3.415  -1.255  1.00  0.00     0.283 C 
ATOM     33  N   UNL     1       6.723  -3.967  -0.158  1.00  0.00    -0.334 N 
ATOM     34  C   UNL     1       7.929  -3.166   0.035  1.00  0.00     0.332 C 
ATOM     35  H   UNL     1       7.012  -4.911  -0.417  1.00  0.00     0.347 HD
ENDBRANCH  13  28
ENDBRANCH   6   8
ENDBRANCH   5   6
ENDBRANCH   4   5
ENDBRANCH   3   4
ENDBRANCH   2   3
ENDBRANCH   1   2
BRANCH   1  36
ATOM     36  C   UNL     1       2.346  -4.146   4.080  1.00  0.00     0.188 C 
BRANCH  36  37
ATOM     37  O   UNL     1       1.406  -3.875   5.110  1.00  0.00    -0.376 OA
BRANCH  37  38
ATOM     38  C   UNL     1       1.884  -3.712   6.432  1.00  0.00     0.202 C 
BRANCH  38  39
ATOM     39  C   UNL     1       2.615  -4.894   7.086  1.00  0.00     0.261 C 
BRANCH  39  40
ATOM     40  O   UNL     1       3.541  -5.609   6.246  1.00  0.00    -0.460 OA
BRANCH  40  41
ATOM     41  C   UNL     1       3.099  -6.805   5.771  1.00  0.00     0.338 C 
ATOM     42  O   UNL     1       2.024  -7.330   6.005  1.00  0.00    -0.246 OA
BRANCH  41  43
ATOM     43  C   UNL     1       4.051  -7.341   4.764  1.00  0.00     0.060 A 
ATOM     44  C   UNL     1       3.567  -7.657   3.486  1.00  0.00     0.016 A 
ATOM     45  C   UNL     1       5.388  -7.587   5.079  1.00  0.00     0.016 A 
ATOM     46  C   UNL     1       4.414  -8.225   2.526  1.00  0.00     0.010 A 
ATOM     47  C   UNL     1       6.227  -8.184   4.125  1.00  0.00     0.010 A 
ATOM     48  C   UNL     1       5.745  -8.523   2.848  1.00  0.00    -0.014 A 
BRANCH  48  49
ATOM     49  C   UNL     1       6.599  -9.291   1.898  1.00  0.00     0.031 A 
ATOM     50  C   UNL     1       6.625 -10.785   1.976  1.00  0.00     0.074 A 
ATOM     51  C   UNL     1       7.373  -8.678   0.985  1.00  0.00     0.049 A 
ATOM     52  N   UNL     1       7.357 -11.629   1.298  1.00  0.00    -0.248 NA
ATOM     53  C   UNL     1       5.729 -11.405   2.960  1.00  0.00     0.031 C 
ATOM     54  C   UNL     1       7.449  -7.240   0.821  1.00  0.00     0.029 A 
ATOM     55  N   UNL     1       8.243  -9.164   0.038  1.00  0.00    -0.354 N 
ATOM     56  C   UNL     1       7.035 -12.883   1.791  1.00  0.00     0.074 A 
ATOM     57  C   UNL     1       6.040 -12.685   2.827  1.00  0.00     0.031 C 
ATOM     58  C   UNL     1       8.288  -6.946  -0.182  1.00  0.00     0.029 A 
ATOM     59  C   UNL     1       8.884  -8.177  -0.678  1.00  0.00     0.049 A 
ATOM     60  H   UNL     1       8.394 -10.125  -0.114  1.00  0.00     0.167 HD
ATOM     61  C   UNL     1       7.539 -14.085   1.425  1.00  0.00     0.037 A 
ATOM     62  C   UNL     1       9.876  -8.235  -1.591  1.00  0.00     0.037 A 
ATOM     63  C   UNL     1       8.549 -14.273   0.415  1.00  0.00     0.049 A 
ATOM     64  C   UNL     1      10.449  -9.575  -1.954  1.00  0.00     0.074 A 
ATOM     65  C   UNL     1       9.092 -15.461  -0.042  1.00  0.00     0.029 A 
ATOM     66  N   UNL     1       9.190 -13.252  -0.275  1.00  0.00    -0.354 N 
ATOM     67  N   UNL     1      10.104 -10.759  -1.508  1.00  0.00    -0.248 NA
ATOM     68  C   UNL     1      11.555  -9.593  -2.921  1.00  0.00     0.031 C 
ATOM     69  C   UNL     1      10.104 -15.157  -0.960  1.00  0.00     0.029 A 
ATOM     70  C   UNL     1      10.151 -13.782  -1.124  1.00  0.00     0.049 A 
ATOM     71  H   UNL     1       8.992 -12.293  -0.175  1.00  0.00     0.167 HD
ATOM     72  C   UNL     1      10.952 -11.664  -2.135  1.00  0.00     0.074 A 
ATOM     73  C   UNL     1      11.808 -10.893  -3.014  1.00  0.00     0.031 C 
ATOM     74  C   UNL     1      11.015 -13.010  -1.985  1.00  0.00     0.037 A 
BRANCH  61  75
ATOM     75  C   UNL     1       7.043 -15.285   2.181  1.00  0.00     0.058 A 
ATOM     76  C   UNL     1       5.732 -15.765   2.037  1.00  0.00     0.135 A 
ATOM     77  C   UNL     1       7.893 -15.951   3.078  1.00  0.00     0.135 A 
ATOM     78  F   UNL     1       4.873 -15.150   1.208  1.00  0.00    -0.206 F 
ATOM     79  C   UNL     1       5.266 -16.837   2.790  1.00  0.00     0.059 A 
ATOM     80  C   UNL     1       7.458 -17.045   3.818  1.00  0.00     0.059 A 
ATOM     81  F   UNL     1       9.155 -15.530   3.256  1.00  0.00    -0.206 F 
ATOM     82  C   UNL     1       6.136 -17.466   3.683  1.00  0.00     0.060 A 
BRANCH  82  83
ATOM     83  S   UNL     1       5.509 -18.835   4.678  1.00  0.00     0.124 S 
ATOM     84  O   UNL     1       4.656 -18.132   5.632  1.00  0.00    -0.237 OA
ATOM     85  O   UNL     1       4.813 -19.647   3.685  1.00  0.00    -0.237 OA
ATOM     86  O   UNL     1       6.718 -19.431   5.237  1.00  0.00    -0.744 OA
ENDBRANCH  82  83
ENDBRANCH  61  75
BRANCH  62  87
ATOM     87  C   UNL     1      10.427  -6.977  -2.171  1.00  0.00     0.058 A 
ATOM     88  C   UNL     1      10.227  -6.644  -3.519  1.00  0.00     0.135 A 
ATOM     89  C   UNL     1      11.135  -6.061  -1.374  1.00  0.00     0.135 A 
ATOM     90  F   UNL     1       9.578  -7.492  -4.331  1.00  0.00    -0.206 F 
ATOM     91  C   UNL     1      10.697  -5.446  -4.053  1.00  0.00     0.059 A 
ATOM     92  C   UNL     1      11.589  -4.846  -1.877  1.00  0.00     0.059 A 
ATOM     93  F   UNL     1      11.354  -6.328  -0.077  1.00  0.00    -0.206 F 
ATOM     94  C   UNL     1      11.366  -4.547  -3.219  1.00  0.00     0.060 A 
BRANCH  94  95
ATOM     95  S   UNL     1      11.883  -2.953  -3.894  1.00  0.00     0.124 S 
ATOM     96  O   UNL     1      13.009  -3.340  -4.736  1.00  0.00    -0.237 OA
ATOM     97  O   UNL     1      10.681  -2.514  -4.596  1.00  0.00    -0.237 OA
ATOM     98  O   UNL     1      12.220  -2.178  -2.704  1.00  0.00    -0.744 OA
ENDBRANCH  94  95
ENDBRANCH  62  87
BRANCH  74  99
ATOM     99  C   UNL     1      12.046 -13.749  -2.795  1.00  0.00     0.058 A 
ATOM    100  C   UNL     1      13.414 -13.674  -2.491  1.00  0.00     0.135 A 
ATOM    101  C   UNL     1      11.654 -14.588  -3.851  1.00  0.00     0.135 A 
ATOM    102  F   UNL     1      13.844 -12.877  -1.500  1.00  0.00    -0.206 F 
ATOM    103  C   UNL     1      14.360 -14.396  -3.213  1.00  0.00     0.059 A 
ATOM    104  C   UNL     1      12.579 -15.341  -4.568  1.00  0.00     0.059 A 
ATOM    105  F   UNL     1      10.358 -14.699  -4.181  1.00  0.00    -0.206 F 
ATOM    106  C   UNL     1      13.931 -15.232  -4.246  1.00  0.00     0.060 A 
BRANCH 106 107
ATOM    107  S   UNL     1      15.164 -16.200  -5.144  1.00  0.00     0.124 S 
ATOM    108  O   UNL     1      15.830 -15.169  -5.933  1.00  0.00    -0.237 OA
ATOM    109  O   UNL     1      15.953 -16.780  -4.061  1.00  0.00    -0.237 OA
ATOM    110  O   UNL     1      14.360 -17.152  -5.905  1.00  0.00    -0.744 OA
ENDBRANCH 106 107
ENDBRANCH  74  99
ENDBRANCH  48  49
ENDBRANCH  41  43
ENDBRANCH  40  41
ENDBRANCH  39  40
ENDBRANCH  38  39
ENDBRANCH  37  38
ENDBRANCH  36  37
ENDBRANCH   1  36
TORSDOF 24
