REMARK SMILES COC(=O)c1c(NC(=O)[C@@H]2C[C@@H]2C(=O)OCCOCCOCCOC(=O)c2ccc(-c3c4nc(c(-c5c(F)cc(S(=O)(=O)[O-])cc5F)c5ccc([nH]5)c(-c5c(F)cc(S(=O)(=O)[O-])cc5F)c5nc(c(-c6c(F)cc(S(=O)(=O)[O-])cc6F)c6ccc3[nH]6)C=C5)C=C4)cc2)sc2c1CC[N@@H+](Cc1ccccc1)C2
REMARK SMILES IDX 19 1 18 2 17 3 16 4 15 5 13 6 14 7 12 8 10 9 11 10 8 11 7 12
REMARK SMILES IDX 9 14 6 15 5 16 95 17 93 18 94 19 96 20 106 21 97 22 98 23
REMARK SMILES IDX 3 25 4 26 2 27 1 28 99 29 100 30 101 31 105 32 102 33 104 34
REMARK SMILES IDX 103 35 20 36 21 37 22 38 23 39 24 40 25 41 26 42 27 43 28 44
REMARK SMILES IDX 92 45 29 46 91 47 30 48 31 49 32 50 85 51 33 52 90 53 84 54
REMARK SMILES IDX 86 55 34 56 89 57 83 58 82 59 35 61 69 62 48 63 68 64 49 65
REMARK SMILES IDX 52 66 67 67 87 68 50 69 51 70 66 72 88 73 53 74 36 75 37 76
REMARK SMILES IDX 46 77 38 78 39 79 45 80 47 81 40 82 41 83 42 84 43 85 44 86
REMARK SMILES IDX 70 87 71 88 80 89 72 90 73 91 79 92 81 93 74 94 75 95 76 96
REMARK SMILES IDX 77 97 78 98 54 99 55 100 64 101 56 102 57 103 63 104 65 105
REMARK SMILES IDX 58 106 59 107 60 108 61 109 62 110
REMARK H PARENT 7 13 98 24 86 60 52 71
REMARK Flexibility Score: inf
ROOT
ATOM      1  C   UNL     1      -2.398   0.296  -4.327  1.00  0.00     0.188 C 
ENDROOT
BRANCH   1   2
ATOM      2  O   UNL     1      -2.982  -0.656  -5.222  1.00  0.00    -0.376 OA
BRANCH   2   3
ATOM      3  C   UNL     1      -4.010  -1.502  -4.702  1.00  0.00     0.202 C 
BRANCH   3   4
ATOM      4  C   UNL     1      -3.568  -2.566  -3.682  1.00  0.00     0.261 C 
BRANCH   4   5
ATOM      5  O   UNL     1      -3.051  -1.996  -2.467  1.00  0.00    -0.463 OA
BRANCH   5   6
ATOM      6  C   UNL     1      -1.718  -2.116  -2.278  1.00  0.00     0.309 C 
ATOM      7  O   UNL     1      -0.993  -2.901  -2.870  1.00  0.00    -0.252 OA
BRANCH   6   8
ATOM      8  C   UNL     1      -1.126  -1.125  -1.328  1.00  0.00     0.112 C 
ATOM      9  C   UNL     1      -1.383  -1.251   0.164  1.00  0.00     0.094 C 
ATOM     10  C   UNL     1      -1.828  -0.028  -0.581  1.00  0.00     0.030 C 
BRANCH   9  11
ATOM     11  C   UNL     1      -2.372  -2.218   0.641  1.00  0.00     0.229 C 
ATOM     12  N   UNL     1      -2.135  -3.547   0.517  1.00  0.00    -0.317 N 
ATOM     13  H   UNL     1      -2.916  -4.097   0.756  1.00  0.00     0.170 HD
ATOM     14  O   UNL     1      -3.420  -1.829   1.149  1.00  0.00    -0.274 OA
BRANCH  12  15
ATOM     15  C   UNL     1      -1.050  -4.299   0.135  1.00  0.00     0.110 A 
ATOM     16  C   UNL     1       0.269  -4.204  -0.304  1.00  0.00     0.098 A 
ATOM     17  C   UNL     1       0.837  -5.537  -0.422  1.00  0.00    -0.006 A 
ATOM     18  S   UNL     1      -1.574  -5.937   0.276  1.00  0.00    -0.116 S 
ATOM     19  C   UNL     1      -0.014  -6.511   0.045  1.00  0.00     0.065 A 
ATOM     20  C   UNL     1       2.270  -5.867  -0.743  1.00  0.00     0.099 C 
ATOM     21  C   UNL     1       0.397  -7.897   0.404  1.00  0.00     0.310 C 
ATOM     22  C   UNL     1       2.627  -7.326  -0.371  1.00  0.00     0.267 C 
ATOM     23  N   UNL     1       1.839  -7.959   0.705  1.00  0.00    -0.326 N 
ATOM     24  H   UNL     1       2.102  -8.944   0.703  1.00  0.00     0.348 HD
BRANCH  16  25
ATOM     25  C   UNL     1       1.130  -3.051  -0.587  1.00  0.00     0.341 C 
ATOM     26  O   UNL     1       1.824  -2.972  -1.596  1.00  0.00    -0.246 OA
BRANCH  25  27
ATOM     27  O   UNL     1       1.213  -2.152   0.434  1.00  0.00    -0.465 OA
ATOM     28  C   UNL     1       2.044  -1.011   0.177  1.00  0.00     0.282 C 
ENDBRANCH  25  27
ENDBRANCH  16  25
BRANCH  23  29
ATOM     29  C   UNL     1       2.209  -7.584   2.083  1.00  0.00     0.299 C 
BRANCH  29  30
ATOM     30  C   UNL     1       2.157  -6.129   2.511  1.00  0.00     0.006 A 
ATOM     31  C   UNL     1       3.309  -5.328   2.461  1.00  0.00     0.009 A 
ATOM     32  C   UNL     1       0.962  -5.541   2.957  1.00  0.00     0.009 A 
ATOM     33  C   UNL     1       3.251  -3.967   2.775  1.00  0.00     0.001 A 
ATOM     34  C   UNL     1       0.899  -4.176   3.254  1.00  0.00     0.001 A 
ATOM     35  C   UNL     1       2.043  -3.390   3.158  1.00  0.00     0.000 A 
ENDBRANCH  29  30
ENDBRANCH  23  29
ENDBRANCH  12  15
ENDBRANCH   9  11
ENDBRANCH   6   8
ENDBRANCH   5   6
ENDBRANCH   4   5
ENDBRANCH   3   4
ENDBRANCH   2   3
ENDBRANCH   1   2
BRANCH   1  36
ATOM     36  C   UNL     1      -3.395   1.110  -3.491  1.00  0.00     0.188 C 
BRANCH  36  37
ATOM     37  O   UNL     1      -4.065   0.277  -2.568  1.00  0.00    -0.376 OA
BRANCH  37  38
ATOM     38  C   UNL     1      -5.338   0.512  -1.996  1.00  0.00     0.202 C 
BRANCH  38  39
ATOM     39  C   UNL     1      -6.268   1.646  -2.400  1.00  0.00     0.261 C 
BRANCH  39  40
ATOM     40  O   UNL     1      -5.670   2.749  -3.037  1.00  0.00    -0.460 OA
BRANCH  40  41
ATOM     41  C   UNL     1      -4.740   3.450  -2.365  1.00  0.00     0.338 C 
ATOM     42  O   UNL     1      -4.330   3.254  -1.234  1.00  0.00    -0.246 OA
BRANCH  41  43
ATOM     43  C   UNL     1      -4.328   4.527  -3.279  1.00  0.00     0.060 A 
ATOM     44  C   UNL     1      -3.568   5.563  -2.750  1.00  0.00     0.016 A 
ATOM     45  C   UNL     1      -4.847   4.583  -4.590  1.00  0.00     0.016 A 
ATOM     46  C   UNL     1      -3.540   6.753  -3.444  1.00  0.00     0.010 A 
ATOM     47  C   UNL     1      -4.828   5.772  -5.275  1.00  0.00     0.010 A 
ATOM     48  C   UNL     1      -4.257   6.867  -4.647  1.00  0.00    -0.014 A 
BRANCH  48  49
ATOM     49  C   UNL     1      -4.302   8.164  -5.282  1.00  0.00     0.031 A 
ATOM     50  C   UNL     1      -2.986   8.577  -5.800  1.00  0.00     0.074 A 
ATOM     51  C   UNL     1      -5.426   8.893  -5.411  1.00  0.00     0.049 A 
ATOM     52  N   UNL     1      -2.198   9.451  -5.274  1.00  0.00    -0.248 NA
ATOM     53  C   UNL     1      -2.383   7.790  -6.886  1.00  0.00     0.031 C 
ATOM     54  C   UNL     1      -6.809   8.486  -5.158  1.00  0.00     0.029 A 
ATOM     55  N   UNL     1      -5.565  10.163  -5.880  1.00  0.00    -0.354 N 
ATOM     56  C   UNL     1      -1.117   9.527  -6.138  1.00  0.00     0.074 A 
ATOM     57  C   UNL     1      -1.174   8.350  -6.966  1.00  0.00     0.031 C 
ATOM     58  C   UNL     1      -7.647   9.406  -5.689  1.00  0.00     0.029 A 
ATOM     59  C   UNL     1      -6.869  10.521  -6.206  1.00  0.00     0.049 A 
ATOM     60  H   UNL     1      -4.804  10.779  -5.980  1.00  0.00     0.167 HD
ATOM     61  C   UNL     1      -0.464  10.707  -6.304  1.00  0.00     0.037 A 
ATOM     62  C   UNL     1      -7.256  11.621  -6.905  1.00  0.00     0.037 A 
ATOM     63  C   UNL     1      -0.700  11.601  -5.194  1.00  0.00     0.049 A 
ATOM     64  C   UNL     1      -6.159  12.622  -6.784  1.00  0.00     0.074 A 
ATOM     65  C   UNL     1      -0.577  11.480  -3.821  1.00  0.00     0.029 A 
ATOM     66  N   UNL     1      -1.520  12.686  -5.395  1.00  0.00    -0.354 N 
ATOM     67  N   UNL     1      -5.849  13.223  -5.667  1.00  0.00    -0.248 NA
ATOM     68  C   UNL     1      -5.102  12.592  -7.785  1.00  0.00     0.031 C 
ATOM     69  C   UNL     1      -1.711  12.157  -3.286  1.00  0.00     0.029 A 
ATOM     70  C   UNL     1      -2.410  12.726  -4.351  1.00  0.00     0.049 A 
ATOM     71  H   UNL     1      -1.477  13.318  -6.149  1.00  0.00     0.167 HD
ATOM     72  C   UNL     1      -4.462  13.231  -5.645  1.00  0.00     0.074 A 
ATOM     73  C   UNL     1      -4.059  12.905  -7.012  1.00  0.00     0.031 C 
ATOM     74  C   UNL     1      -3.767  13.213  -4.468  1.00  0.00     0.037 A 
BRANCH  61  75
ATOM     75  C   UNL     1       0.026  11.174  -7.649  1.00  0.00     0.058 A 
ATOM     76  C   UNL     1       0.861  12.303  -7.724  1.00  0.00     0.135 A 
ATOM     77  C   UNL     1      -0.509  10.723  -8.879  1.00  0.00     0.135 A 
ATOM     78  F   UNL     1       1.391  12.835  -6.611  1.00  0.00    -0.206 F 
ATOM     79  C   UNL     1       1.109  12.964  -8.927  1.00  0.00     0.059 A 
ATOM     80  C   UNL     1      -0.225  11.328 -10.094  1.00  0.00     0.059 A 
ATOM     81  F   UNL     1      -1.412   9.739  -8.955  1.00  0.00    -0.206 F 
ATOM     82  C   UNL     1       0.556  12.469 -10.105  1.00  0.00     0.060 A 
BRANCH  82  83
ATOM     83  S   UNL     1       0.826  13.349 -11.650  1.00  0.00     0.124 S 
ATOM     84  O   UNL     1       0.029  14.552 -11.439  1.00  0.00    -0.237 OA
ATOM     85  O   UNL     1       2.274  13.528 -11.643  1.00  0.00    -0.237 OA
ATOM     86  O   UNL     1       0.321  12.421 -12.657  1.00  0.00    -0.744 OA
ENDBRANCH  82  83
ENDBRANCH  61  75
BRANCH  62  87
ATOM     87  C   UNL     1      -8.324  11.724  -7.942  1.00  0.00     0.058 A 
ATOM     88  C   UNL     1      -8.664  12.964  -8.520  1.00  0.00     0.135 A 
ATOM     89  C   UNL     1      -8.836  10.585  -8.597  1.00  0.00     0.135 A 
ATOM     90  F   UNL     1      -8.213  14.107  -7.980  1.00  0.00    -0.206 F 
ATOM     91  C   UNL     1      -9.406  13.064  -9.705  1.00  0.00     0.059 A 
ATOM     92  C   UNL     1      -9.589  10.661  -9.769  1.00  0.00     0.059 A 
ATOM     93  F   UNL     1      -8.545   9.347  -8.175  1.00  0.00    -0.206 F 
ATOM     94  C   UNL     1      -9.845  11.901 -10.336  1.00  0.00     0.060 A 
BRANCH  94  95
ATOM     95  S   UNL     1     -10.635  12.003 -11.961  1.00  0.00     0.124 S 
ATOM     96  O   UNL     1     -11.925  12.599 -11.633  1.00  0.00    -0.237 OA
ATOM     97  O   UNL     1      -9.709  12.851 -12.703  1.00  0.00    -0.237 OA
ATOM     98  O   UNL     1     -10.685  10.610 -12.400  1.00  0.00    -0.744 OA
ENDBRANCH  94  95
ENDBRANCH  62  87
BRANCH  74  99
ATOM     99  C   UNL     1      -4.497  13.518  -3.183  1.00  0.00     0.058 A 
ATOM    100  C   UNL     1      -5.596  12.796  -2.683  1.00  0.00     0.135 A 
ATOM    101  C   UNL     1      -3.963  14.517  -2.352  1.00  0.00     0.135 A 
ATOM    102  F   UNL     1      -6.102  11.750  -3.353  1.00  0.00    -0.206 F 
ATOM    103  C   UNL     1      -6.169  13.094  -1.442  1.00  0.00     0.059 A 
ATOM    104  C   UNL     1      -4.493  14.804  -1.098  1.00  0.00     0.059 A 
ATOM    105  F   UNL     1      -2.875  15.205  -2.740  1.00  0.00    -0.206 F 
ATOM    106  C   UNL     1      -5.610  14.102  -0.657  1.00  0.00     0.060 A 
BRANCH 106 107
ATOM    107  S   UNL     1      -6.319  14.458   0.965  1.00  0.00     0.124 S 
ATOM    108  O   UNL     1      -7.597  15.069   0.615  1.00  0.00    -0.237 OA
ATOM    109  O   UNL     1      -6.394  13.134   1.576  1.00  0.00    -0.237 OA
ATOM    110  O   UNL     1      -5.344  15.360   1.574  1.00  0.00    -0.744 OA
ENDBRANCH 106 107
ENDBRANCH  74  99
ENDBRANCH  48  49
ENDBRANCH  41  43
ENDBRANCH  40  41
ENDBRANCH  39  40
ENDBRANCH  38  39
ENDBRANCH  37  38
ENDBRANCH  36  37
ENDBRANCH   1  36
TORSDOF 26
