REMARK SMILES O=C(OCCOCCOCCOC(=O)c1cc2nn[nH]n2n1)c1ccc(-c2c3nc(c(-c4c(F)cc(S(=O)(=O)[O-])cc4F)c4ccc([nH]4)c(-c4c(F)cc(S(=O)(=O)[O-])cc4F)c4nc(c(-c5c(F)cc(S(=O)(=O)[O-])cc5F)c5ccc2[nH]5)C=C4)C=C3)cc1
REMARK SMILES IDX 6 1 5 2 4 3 3 4 2 5 1 6 23 7 24 8 88 9 25 10 87 11 26 12
REMARK SMILES IDX 27 13 28 14 81 15 29 16 86 17 80 18 82 19 30 20 85 21 79 22
REMARK SMILES IDX 78 23 31 25 65 26 44 27 64 28 45 29 48 30 63 31 83 32 46 33
REMARK SMILES IDX 47 34 62 36 84 37 49 38 32 39 33 40 42 41 34 42 35 43 41 44
REMARK SMILES IDX 43 45 36 46 37 47 38 48 39 49 40 50 66 51 67 52 76 53 68 54
REMARK SMILES IDX 69 55 75 56 77 57 70 58 71 59 72 60 73 61 74 62 50 63 51 64
REMARK SMILES IDX 60 65 52 66 53 67 59 68 61 69 54 70 55 71 56 72 57 73 58 74
REMARK SMILES IDX 7 75 8 76 9 77 10 78 11 79 12 80 13 81 14 82 15 83 16 84
REMARK SMILES IDX 22 85 17 86 21 87 18 88 20 89 19 90
REMARK H PARENT 82 24 48 35 20 91
REMARK Flexibility Score: inf
ROOT
ATOM      1  O   UNL     1       4.660   1.680  -0.395  1.00  0.00    -0.376 OA
ENDROOT
BRANCH   1   2
ATOM      2  C   UNL     1       5.195   0.368  -0.374  1.00  0.00     0.202 C 
BRANCH   2   3
ATOM      3  C   UNL     1       4.600  -0.595  -1.408  1.00  0.00     0.261 C 
BRANCH   3   4
ATOM      4  O   UNL     1       3.187  -0.460  -1.630  1.00  0.00    -0.460 OA
BRANCH   4   5
ATOM      5  C   UNL     1       2.164  -1.125  -1.058  1.00  0.00     0.338 C 
ATOM      6  O   UNL     1       1.112  -1.268  -1.675  1.00  0.00    -0.246 OA
BRANCH   5   7
ATOM      7  C   UNL     1       2.185  -1.474   0.385  1.00  0.00     0.060 A 
ATOM      8  C   UNL     1       3.300  -1.961   1.070  1.00  0.00     0.016 A 
ATOM      9  C   UNL     1       0.953  -1.363   1.058  1.00  0.00     0.016 A 
ATOM     10  C   UNL     1       3.172  -2.428   2.367  1.00  0.00     0.010 A 
ATOM     11  C   UNL     1       0.815  -1.841   2.352  1.00  0.00     0.010 A 
ATOM     12  C   UNL     1       1.911  -2.456   2.955  1.00  0.00    -0.014 A 
BRANCH  12  13
ATOM     13  C   UNL     1       1.743  -3.370   4.077  1.00  0.00     0.031 A 
ATOM     14  C   UNL     1       2.307  -2.967   5.393  1.00  0.00     0.074 A 
ATOM     15  C   UNL     1       1.049  -4.510   3.873  1.00  0.00     0.049 A 
ATOM     16  N   UNL     1       3.133  -3.610   6.157  1.00  0.00    -0.248 NA
ATOM     17  C   UNL     1       1.949  -1.630   5.892  1.00  0.00     0.031 C 
ATOM     18  C   UNL     1       0.266  -4.878   2.682  1.00  0.00     0.029 A 
ATOM     19  N   UNL     1       0.784  -5.528   4.731  1.00  0.00    -0.354 N 
ATOM     20  C   UNL     1       3.234  -2.856   7.326  1.00  0.00     0.074 A 
ATOM     21  C   UNL     1       2.596  -1.592   7.056  1.00  0.00     0.031 C 
ATOM     22  C   UNL     1      -0.579  -5.879   2.999  1.00  0.00     0.029 A 
ATOM     23  C   UNL     1      -0.307  -6.299   4.360  1.00  0.00     0.049 A 
ATOM     24  H   UNL     1       1.317  -5.702   5.541  1.00  0.00     0.167 HD
ATOM     25  C   UNL     1       3.639  -3.385   8.514  1.00  0.00     0.037 A 
ATOM     26  C   UNL     1      -1.020  -7.122   5.164  1.00  0.00     0.037 A 
ATOM     27  C   UNL     1       4.382  -4.602   8.354  1.00  0.00     0.049 A 
ATOM     28  C   UNL     1      -0.160  -7.454   6.329  1.00  0.00     0.074 A 
ATOM     29  C   UNL     1       5.570  -4.939   7.734  1.00  0.00     0.029 A 
ATOM     30  N   UNL     1       3.756  -5.795   8.620  1.00  0.00    -0.354 N 
ATOM     31  N   UNL     1       0.948  -8.142   6.247  1.00  0.00    -0.248 NA
ATOM     32  C   UNL     1      -0.298  -6.647   7.532  1.00  0.00     0.031 C 
ATOM     33  C   UNL     1       5.369  -6.258   7.231  1.00  0.00     0.029 A 
ATOM     34  C   UNL     1       4.081  -6.652   7.598  1.00  0.00     0.049 A 
ATOM     35  H   UNL     1       3.185  -5.997   9.396  1.00  0.00     0.167 HD
ATOM     36  C   UNL     1       1.806  -7.562   7.172  1.00  0.00     0.074 A 
ATOM     37  C   UNL     1       0.952  -6.714   7.998  1.00  0.00     0.031 C 
ATOM     38  C   UNL     1       3.163  -7.606   7.014  1.00  0.00     0.037 A 
BRANCH  25  39
ATOM     39  C   UNL     1       3.070  -2.945   9.839  1.00  0.00     0.058 A 
ATOM     40  C   UNL     1       3.721  -3.268  11.045  1.00  0.00     0.135 A 
ATOM     41  C   UNL     1       1.755  -2.441   9.967  1.00  0.00     0.135 A 
ATOM     42  F   UNL     1       4.961  -3.783  11.033  1.00  0.00    -0.206 F 
ATOM     43  C   UNL     1       3.093  -3.140  12.287  1.00  0.00     0.059 A 
ATOM     44  C   UNL     1       1.131  -2.253  11.194  1.00  0.00     0.059 A 
ATOM     45  F   UNL     1       0.984  -2.201   8.898  1.00  0.00    -0.206 F 
ATOM     46  C   UNL     1       1.791  -2.646  12.347  1.00  0.00     0.060 A 
BRANCH  46  47
ATOM     47  S   UNL     1       0.928  -2.596  13.928  1.00  0.00     0.124 S 
ATOM     48  O   UNL     1       0.667  -4.012  14.158  1.00  0.00    -0.237 OA
ATOM     49  O   UNL     1       1.920  -1.977  14.800  1.00  0.00    -0.237 OA
ATOM     50  O   UNL     1      -0.245  -1.774  13.642  1.00  0.00    -0.744 OA
ENDBRANCH  46  47
ENDBRANCH  25  39
BRANCH  26  51
ATOM     51  C   UNL     1      -2.503  -7.237   5.161  1.00  0.00     0.058 A 
ATOM     52  C   UNL     1      -3.160  -8.302   5.795  1.00  0.00     0.135 A 
ATOM     53  C   UNL     1      -3.325  -6.173   4.723  1.00  0.00     0.135 A 
ATOM     54  F   UNL     1      -2.453  -9.335   6.280  1.00  0.00    -0.206 F 
ATOM     55  C   UNL     1      -4.546  -8.307   5.995  1.00  0.00     0.059 A 
ATOM     56  C   UNL     1      -4.706  -6.166   4.891  1.00  0.00     0.059 A 
ATOM     57  F   UNL     1      -2.801  -5.059   4.193  1.00  0.00    -0.206 F 
ATOM     58  C   UNL     1      -5.310  -7.228   5.546  1.00  0.00     0.060 A 
BRANCH  58  59
ATOM     59  S   UNL     1      -7.077  -7.162   5.921  1.00  0.00     0.124 S 
ATOM     60  O   UNL     1      -7.599  -8.249   5.101  1.00  0.00    -0.237 OA
ATOM     61  O   UNL     1      -7.092  -7.386   7.363  1.00  0.00    -0.237 OA
ATOM     62  O   UNL     1      -7.464  -5.819   5.497  1.00  0.00    -0.744 OA
ENDBRANCH  58  59
ENDBRANCH  26  51
BRANCH  38  63
ATOM     63  C   UNL     1       3.722  -8.506   5.939  1.00  0.00     0.058 A 
ATOM     64  C   UNL     1       3.532  -8.273   4.565  1.00  0.00     0.135 A 
ATOM     65  C   UNL     1       4.623  -9.520   6.294  1.00  0.00     0.135 A 
ATOM     66  F   UNL     1       2.784  -7.247   4.141  1.00  0.00    -0.206 F 
ATOM     67  C   UNL     1       4.173  -9.036   3.589  1.00  0.00     0.059 A 
ATOM     68  C   UNL     1       5.299 -10.276   5.336  1.00  0.00     0.059 A 
ATOM     69  F   UNL     1       4.907  -9.744   7.588  1.00  0.00    -0.206 F 
ATOM     70  C   UNL     1       5.061 -10.034   3.983  1.00  0.00     0.060 A 
BRANCH  70  71
ATOM     71  S   UNL     1       5.976 -10.936   2.714  1.00  0.00     0.124 S 
ATOM     72  O   UNL     1       4.950 -11.812   2.159  1.00  0.00    -0.237 OA
ATOM     73  O   UNL     1       6.439  -9.866   1.834  1.00  0.00    -0.237 OA
ATOM     74  O   UNL     1       7.032 -11.608   3.468  1.00  0.00    -0.744 OA
ENDBRANCH  70  71
ENDBRANCH  38  63
ENDBRANCH  12  13
ENDBRANCH   5   7
ENDBRANCH   4   5
ENDBRANCH   3   4
ENDBRANCH   2   3
ENDBRANCH   1   2
BRANCH   1  75
ATOM     75  C   UNL     1       3.360   1.845   0.152  1.00  0.00     0.188 C 
BRANCH  75  76
ATOM     76  C   UNL     1       2.298   2.389  -0.835  1.00  0.00     0.188 C 
BRANCH  76  77
ATOM     77  O   UNL     1       2.638   3.045  -2.055  1.00  0.00    -0.376 OA
BRANCH  77  78
ATOM     78  C   UNL     1       3.955   3.509  -2.280  1.00  0.00     0.202 C 
BRANCH  78  79
ATOM     79  C   UNL     1       4.394   4.724  -1.454  1.00  0.00     0.261 C 
BRANCH  79  80
ATOM     80  O   UNL     1       4.052   4.656  -0.062  1.00  0.00    -0.458 OA
BRANCH  80  81
ATOM     81  C   UNL     1       3.015   5.436   0.351  1.00  0.00     0.359 C 
ATOM     82  O   UNL     1       2.448   6.285  -0.344  1.00  0.00    -0.244 OA
BRANCH  81  83
ATOM     83  C   UNL     1       2.642   5.174   1.742  1.00  0.00     0.174 A 
ATOM     84  C   UNL     1       3.308   5.671   2.918  1.00  0.00     0.091 A 
ATOM     85  N   UNL     1       1.559   4.417   2.066  1.00  0.00    -0.142 NA
ATOM     86  C   UNL     1       2.541   5.202   3.948  1.00  0.00     0.199 A 
ATOM     87  N   UNL     1       1.576   4.473   3.384  1.00  0.00    -0.135 N 
ATOM     88  N   UNL     1       2.372   5.200   5.290  1.00  0.00    -0.109 NA
ATOM     89  N   UNL     1       0.794   4.062   4.362  1.00  0.00    -0.177 N 
ATOM     90  N   UNL     1       1.346   4.479   5.559  1.00  0.00    -0.050 NA
ATOM     91  H   UNL     1      -0.039   3.548   4.258  1.00  0.00     0.216 HD
ENDBRANCH  81  83
ENDBRANCH  80  81
ENDBRANCH  79  80
ENDBRANCH  78  79
ENDBRANCH  77  78
ENDBRANCH  76  77
ENDBRANCH  75  76
ENDBRANCH   1  75
TORSDOF 20
