REMARK SMILES COc1cccc(-c2nn(-c3cc4c(cc3C(N)=O)OCO4)cc2C(=O)OCCOCCOCCOC(=O)c2ccc(-c3c4nc(c(-c5c(F)cc(S(=O)(=O)[O-])cc5F)c5ccc([nH]5)c(-c5c(F)cc(S(=O)(=O)[O-])cc5F)c5nc(c(-c6c(F)cc(S(=O)(=O)[O-])cc6F)c6ccc3[nH]6)C=C5)C=C4)cc2)c1
REMARK SMILES IDX 32 1 31 2 30 3 29 4 28 5 27 6 25 7 26 8 24 9 8 10 9 11 10 12
REMARK SMILES IDX 23 13 7 14 3 15 4 16 105 17 5 18 6 19 2 20 1 21 11 22 12 23
REMARK SMILES IDX 16 24 13 25 15 26 14 27 22 28 20 29 21 30 17 31 18 32 19 33
REMARK SMILES IDX 33 36 34 37 35 38 36 39 37 40 38 41 39 42 40 43 104 44 41 45
REMARK SMILES IDX 103 46 42 47 43 48 44 49 97 50 45 51 102 52 96 53 98 54
REMARK SMILES IDX 46 55 101 56 95 57 94 58 47 60 81 61 60 62 80 63 61 64 64 65
REMARK SMILES IDX 79 66 99 67 62 68 63 69 78 71 100 72 65 73 48 74 49 75 58 76
REMARK SMILES IDX 50 77 51 78 57 79 59 80 52 81 53 82 54 83 55 84 56 85 82 86
REMARK SMILES IDX 83 87 92 88 84 89 85 90 91 91 93 92 86 93 87 94 88 95 89 96
REMARK SMILES IDX 90 97 66 98 67 99 76 100 68 101 69 102 75 103 77 104 70 105
REMARK SMILES IDX 71 106 72 107 73 108 74 109
REMARK H PARENT 18 34 18 35 98 59 64 70
REMARK Flexibility Score: inf
ROOT
ATOM      1  C   UNL     1       3.674   4.751  -5.771  1.00  0.00     0.188 C 
ENDROOT
BRANCH   1   2
ATOM      2  C   UNL     1       2.403   5.130  -4.981  1.00  0.00     0.188 C 
BRANCH   2   3
ATOM      3  O   UNL     1       2.233   6.511  -4.782  1.00  0.00    -0.376 OA
BRANCH   3   4
ATOM      4  C   UNL     1       2.666   7.110  -3.574  1.00  0.00     0.202 C 
BRANCH   4   5
ATOM      5  C   UNL     1       3.775   6.560  -2.650  1.00  0.00     0.261 C 
BRANCH   5   6
ATOM      6  O   UNL     1       4.479   5.387  -3.055  1.00  0.00    -0.460 OA
BRANCH   6   7
ATOM      7  C   UNL     1       4.103   4.209  -2.468  1.00  0.00     0.342 C 
ATOM      8  O   UNL     1       3.225   4.107  -1.626  1.00  0.00    -0.246 OA
BRANCH   7   9
ATOM      9  C   UNL     1       4.803   3.078  -3.040  1.00  0.00     0.106 A 
ATOM     10  C   UNL     1       4.316   1.783  -3.381  1.00  0.00     0.107 A 
ATOM     11  N   UNL     1       5.306   0.994  -3.838  1.00  0.00    -0.167 NA
ATOM     12  N   UNL     1       6.423   1.733  -3.623  1.00  0.00    -0.239 N 
ATOM     13  C   UNL     1       6.112   3.060  -3.472  1.00  0.00     0.131 A 
BRANCH  10  14
ATOM     14  C   UNL     1       2.930   1.339  -3.346  1.00  0.00     0.007 A 
ATOM     15  C   UNL     1       1.086   0.347  -2.134  1.00  0.00     0.119 A 
ATOM     16  C   UNL     1       0.229   0.655  -3.194  1.00  0.00     0.046 A 
ATOM     17  C   UNL     1       2.439   0.684  -2.213  1.00  0.00     0.056 A 
ATOM     18  C   UNL     1       0.715   1.295  -4.332  1.00  0.00     0.005 A 
ATOM     19  C   UNL     1       2.068   1.622  -4.415  1.00  0.00     0.011 A 
BRANCH  15  20
ATOM     20  O   UNL     1       0.513  -0.329  -1.091  1.00  0.00    -0.497 OA
ATOM     21  C   UNL     1       1.040  -0.008   0.191  1.00  0.00     0.278 C 
ENDBRANCH  15  20
ENDBRANCH  10  14
BRANCH  12  22
ATOM     22  C   UNL     1       7.719   1.162  -3.596  1.00  0.00     0.081 A 
ATOM     23  C   UNL     1       7.981   0.072  -4.451  1.00  0.00     0.079 A 
ATOM     24  C   UNL     1       8.734   1.670  -2.728  1.00  0.00     0.069 A 
ATOM     25  C   UNL     1       9.264  -0.429  -4.468  1.00  0.00     0.167 A 
ATOM     26  C   UNL     1      10.051   1.207  -2.884  1.00  0.00     0.066 A 
ATOM     27  C   UNL     1      10.271   0.147  -3.732  1.00  0.00     0.166 A 
ATOM     28  O   UNL     1       9.703  -1.517  -5.157  1.00  0.00    -0.454 OA
ATOM     29  O   UNL     1      11.461  -0.499  -3.873  1.00  0.00    -0.454 OA
ATOM     30  C   UNL     1      11.029  -1.663  -4.606  1.00  0.00     0.468 C 
BRANCH  24  31
ATOM     31  C   UNL     1       8.401   2.457  -1.481  1.00  0.00     0.251 C 
ATOM     32  N   UNL     1       9.403   2.785  -0.611  1.00  0.00    -0.366 N 
ATOM     33  O   UNL     1       7.264   2.742  -1.131  1.00  0.00    -0.269 OA
ATOM     34  H   UNL     1      10.339   2.580  -0.837  1.00  0.00     0.159 HD
ATOM     35  H   UNL     1       9.188   3.227   0.243  1.00  0.00     0.159 HD
ENDBRANCH  24  31
ENDBRANCH  12  22
ENDBRANCH   7   9
ENDBRANCH   6   7
ENDBRANCH   5   6
ENDBRANCH   4   5
ENDBRANCH   3   4
ENDBRANCH   2   3
ENDBRANCH   1   2
BRANCH   1  36
ATOM     36  O   UNL     1       4.699   5.693  -6.050  1.00  0.00    -0.376 OA
BRANCH  36  37
ATOM     37  C   UNL     1       4.414   6.995  -6.540  1.00  0.00     0.202 C 
BRANCH  37  38
ATOM     38  C   UNL     1       3.421   7.240  -7.672  1.00  0.00     0.261 C 
BRANCH  38  39
ATOM     39  O   UNL     1       2.349   6.327  -7.716  1.00  0.00    -0.460 OA
BRANCH  39  40
ATOM     40  C   UNL     1       2.572   5.252  -8.492  1.00  0.00     0.338 C 
ATOM     41  O   UNL     1       3.631   4.923  -9.020  1.00  0.00    -0.246 OA
BRANCH  40  42
ATOM     42  C   UNL     1       1.303   4.549  -8.670  1.00  0.00     0.060 A 
ATOM     43  C   UNL     1       1.343   3.390  -9.445  1.00  0.00     0.016 A 
ATOM     44  C   UNL     1       0.117   5.258  -8.426  1.00  0.00     0.016 A 
ATOM     45  C   UNL     1       0.263   3.134 -10.250  1.00  0.00     0.010 A 
ATOM     46  C   UNL     1      -0.942   5.025  -9.256  1.00  0.00     0.010 A 
ATOM     47  C   UNL     1      -0.799   4.042 -10.229  1.00  0.00    -0.014 A 
BRANCH  47  48
ATOM     48  C   UNL     1      -1.812   3.926 -11.246  1.00  0.00     0.031 A 
ATOM     49  C   UNL     1      -2.804   2.890 -10.913  1.00  0.00     0.074 A 
ATOM     50  C   UNL     1      -1.861   4.769 -12.295  1.00  0.00     0.049 A 
ATOM     51  N   UNL     1      -2.908   1.711 -11.425  1.00  0.00    -0.248 NA
ATOM     52  C   UNL     1      -3.610   3.093  -9.697  1.00  0.00     0.031 C 
ATOM     53  C   UNL     1      -1.080   5.987 -12.529  1.00  0.00     0.029 A 
ATOM     54  N   UNL     1      -2.715   4.750 -13.349  1.00  0.00    -0.354 N 
ATOM     55  C   UNL     1      -3.985   1.134 -10.766  1.00  0.00     0.074 A 
ATOM     56  C   UNL     1      -4.176   1.895  -9.563  1.00  0.00     0.031 C 
ATOM     57  C   UNL     1      -1.656   6.701 -13.526  1.00  0.00     0.029 A 
ATOM     58  C   UNL     1      -2.758   5.933 -14.080  1.00  0.00     0.049 A 
ATOM     59  H   UNL     1      -3.260   3.963 -13.579  1.00  0.00     0.167 HD
ATOM     60  C   UNL     1      -4.835   0.300 -11.423  1.00  0.00     0.037 A 
ATOM     61  C   UNL     1      -3.709   6.253 -14.997  1.00  0.00     0.037 A 
ATOM     62  C   UNL     1      -4.235  -0.199 -12.637  1.00  0.00     0.049 A 
ATOM     63  C   UNL     1      -4.352   4.970 -15.411  1.00  0.00     0.074 A 
ATOM     64  C   UNL     1      -3.087  -0.913 -12.923  1.00  0.00     0.029 A 
ATOM     65  N   UNL     1      -4.627   0.374 -13.824  1.00  0.00    -0.354 N 
ATOM     66  N   UNL     1      -3.728   4.028 -16.069  1.00  0.00    -0.248 NA
ATOM     67  C   UNL     1      -5.518   4.530 -14.657  1.00  0.00     0.031 C 
ATOM     68  C   UNL     1      -2.592  -0.350 -14.136  1.00  0.00     0.029 A 
ATOM     69  C   UNL     1      -3.497   0.622 -14.563  1.00  0.00     0.049 A 
ATOM     70  H   UNL     1      -5.552   0.571 -14.096  1.00  0.00     0.167 HD
ATOM     71  C   UNL     1      -4.154   2.840 -15.489  1.00  0.00     0.074 A 
ATOM     72  C   UNL     1      -5.303   3.211 -14.665  1.00  0.00     0.031 C 
ATOM     73  C   UNL     1      -3.365   1.724 -15.494  1.00  0.00     0.037 A 
BRANCH  60  74
ATOM     74  C   UNL     1      -6.325   0.277 -11.177  1.00  0.00     0.058 A 
ATOM     75  C   UNL     1      -7.100  -0.721 -11.797  1.00  0.00     0.135 A 
ATOM     76  C   UNL     1      -7.059   1.335 -10.586  1.00  0.00     0.135 A 
ATOM     77  F   UNL     1      -6.511  -1.767 -12.399  1.00  0.00    -0.206 F 
ATOM     78  C   UNL     1      -8.489  -0.636 -11.889  1.00  0.00     0.059 A 
ATOM     79  C   UNL     1      -8.443   1.406 -10.612  1.00  0.00     0.059 A 
ATOM     80  F   UNL     1      -6.478   2.407 -10.038  1.00  0.00    -0.206 F 
ATOM     81  C   UNL     1      -9.149   0.440 -11.304  1.00  0.00     0.060 A 
BRANCH  81  82
ATOM     82  S   UNL     1     -10.927   0.611 -11.505  1.00  0.00     0.124 S 
ATOM     83  O   UNL     1     -11.030   0.905 -12.929  1.00  0.00    -0.237 OA
ATOM     84  O   UNL     1     -11.403  -0.703 -11.084  1.00  0.00    -0.237 OA
ATOM     85  O   UNL     1     -11.263   1.711 -10.605  1.00  0.00    -0.744 OA
ENDBRANCH  81  82
ENDBRANCH  60  74
BRANCH  61  86
ATOM     86  C   UNL     1      -4.355   7.579 -15.210  1.00  0.00     0.058 A 
ATOM     87  C   UNL     1      -5.174   7.826 -16.328  1.00  0.00     0.135 A 
ATOM     88  C   UNL     1      -4.412   8.542 -14.181  1.00  0.00     0.135 A 
ATOM     89  F   UNL     1      -5.206   6.951 -17.345  1.00  0.00    -0.206 F 
ATOM     90  C   UNL     1      -6.026   8.937 -16.403  1.00  0.00     0.059 A 
ATOM     91  C   UNL     1      -5.245   9.660 -14.238  1.00  0.00     0.059 A 
ATOM     92  F   UNL     1      -3.724   8.380 -13.042  1.00  0.00    -0.206 F 
ATOM     93  C   UNL     1      -6.068   9.840 -15.341  1.00  0.00     0.060 A 
BRANCH  93  94
ATOM     94  S   UNL     1      -7.279  11.185 -15.354  1.00  0.00     0.124 S 
ATOM     95  O   UNL     1      -6.769  12.042 -16.418  1.00  0.00    -0.237 OA
ATOM     96  O   UNL     1      -8.523  10.479 -15.645  1.00  0.00    -0.237 OA
ATOM     97  O   UNL     1      -7.183  11.741 -14.007  1.00  0.00    -0.744 OA
ENDBRANCH  93  94
ENDBRANCH  61  86
BRANCH  73  98
ATOM     98  C   UNL     1      -2.142   1.713 -16.377  1.00  0.00     0.058 A 
ATOM     99  C   UNL     1      -1.026   2.554 -16.207  1.00  0.00     0.135 A 
ATOM    100  C   UNL     1      -2.029   0.689 -17.329  1.00  0.00     0.135 A 
ATOM    101  F   UNL     1      -1.012   3.493 -15.250  1.00  0.00    -0.206 F 
ATOM    102  C   UNL     1       0.133   2.404 -16.974  1.00  0.00     0.059 A 
ATOM    103  C   UNL     1      -0.874   0.501 -18.082  1.00  0.00     0.059 A 
ATOM    104  F   UNL     1      -3.035  -0.185 -17.496  1.00  0.00    -0.206 F 
ATOM    105  C   UNL     1       0.201   1.370 -17.908  1.00  0.00     0.060 A 
BRANCH 105 106
ATOM    106  S   UNL     1       1.724   1.123 -18.848  1.00  0.00     0.124 S 
ATOM    107  O   UNL     1       1.723   2.274 -19.744  1.00  0.00    -0.237 OA
ATOM    108  O   UNL     1       2.746   1.131 -17.805  1.00  0.00    -0.237 OA
ATOM    109  O   UNL     1       1.520  -0.171 -19.497  1.00  0.00    -0.744 OA
ENDBRANCH 105 106
ENDBRANCH  73  98
ENDBRANCH  47  48
ENDBRANCH  40  42
ENDBRANCH  39  40
ENDBRANCH  38  39
ENDBRANCH  37  38
ENDBRANCH  36  37
ENDBRANCH   1  36
TORSDOF 24
