REMARK SMILES C/C(=N\NC(N)=S)c1nnn(-c2ccc(C(=O)OCCOCCOCCOC(=O)c3ccc(-c4c5nc(c(-c6c(F)cc(S(=O)(=O)[O-])cc6F)c6ccc([nH]6)c(-c6c(F)cc(S(=O)(=O)[O-])cc6F)c6nc(c(-c7c(F)cc(S(=O)(=O)[O-])cc7F)c7ccc4[nH]7)C=C6)C=C5)cc3)cc2)c1C
REMARK SMILES IDX 22 1 21 2 20 3 19 4 18 5 16 6 17 7 15 8 12 9 13 10 97 11
REMARK SMILES IDX 14 12 96 13 11 14 8 15 9 16 98 17 10 18 99 19 2 20 1 21 3 22
REMARK SMILES IDX 4 23 5 25 7 26 6 27 23 30 24 31 25 32 26 33 27 34 28 35
REMARK SMILES IDX 29 36 30 37 31 38 95 39 32 40 94 41 33 42 34 43 35 44 88 45
REMARK SMILES IDX 36 46 93 47 87 48 89 49 37 50 92 51 86 52 85 53 38 55 72 56
REMARK SMILES IDX 51 57 71 58 52 59 55 60 70 61 90 62 53 63 54 64 69 66 91 67
REMARK SMILES IDX 56 68 39 69 40 70 49 71 41 72 42 73 48 74 50 75 43 76 44 77
REMARK SMILES IDX 45 78 46 79 47 80 73 81 74 82 83 83 75 84 76 85 82 86 84 87
REMARK SMILES IDX 77 88 78 89 79 90 80 91 81 92 57 93 58 94 67 95 59 96 60 97
REMARK SMILES IDX 66 98 68 99 61 100 62 101 63 102 64 103 65 104
REMARK H PARENT 4 24 6 28 6 29 89 54 55 65
REMARK Flexibility Score: inf
ROOT
ATOM      1  C   UNL     1       7.172  -9.234  -0.469  1.00  0.00     0.188 C 
ENDROOT
BRANCH   1   2
ATOM      2  O   UNL     1       8.479  -9.522  -0.954  1.00  0.00    -0.376 OA
BRANCH   2   3
ATOM      3  C   UNL     1       9.566  -8.666  -0.625  1.00  0.00     0.202 C 
BRANCH   3   4
ATOM      4  C   UNL     1       9.461  -7.161  -0.921  1.00  0.00     0.261 C 
BRANCH   4   5
ATOM      5  O   UNL     1       8.295  -6.525  -0.377  1.00  0.00    -0.460 OA
BRANCH   5   6
ATOM      6  C   UNL     1       7.395  -6.071  -1.279  1.00  0.00     0.338 C 
ATOM      7  O   UNL     1       7.521  -6.038  -2.491  1.00  0.00    -0.246 OA
BRANCH   6   8
ATOM      8  C   UNL     1       6.126  -5.717  -0.603  1.00  0.00     0.060 A 
ATOM      9  C   UNL     1       3.708  -4.841   0.435  1.00  0.00     0.067 A 
ATOM     10  C   UNL     1       3.707  -5.597  -0.741  1.00  0.00     0.029 A 
ATOM     11  C   UNL     1       4.887  -4.647   1.167  1.00  0.00     0.029 A 
ATOM     12  C   UNL     1       4.927  -6.007  -1.272  1.00  0.00     0.018 A 
ATOM     13  C   UNL     1       6.101  -5.097   0.652  1.00  0.00     0.018 A 
BRANCH   9  14
ATOM     14  N   UNL     1       2.560  -4.076   0.735  1.00  0.00    -0.217 N 
ATOM     15  C   UNL     1       1.167  -2.403   0.808  1.00  0.00     0.132 A 
ATOM     16  N   UNL     1       0.451  -3.563   0.700  1.00  0.00    -0.128 NA
ATOM     17  C   UNL     1       2.517  -2.691   0.816  1.00  0.00     0.071 A 
ATOM     18  N   UNL     1       1.309  -4.568   0.593  1.00  0.00    -0.061 NA
ATOM     19  C   UNL     1       3.696  -1.799   0.691  1.00  0.00     0.069 C 
BRANCH  15  20
ATOM     20  C   UNL     1       0.550  -1.099   0.680  1.00  0.00     0.087 C 
ATOM     21  C   UNL     1       0.368  -0.574  -0.723  1.00  0.00     0.071 C 
ATOM     22  N   UNL     1       0.214  -0.513   1.793  1.00  0.00    -0.176 NA
BRANCH  22  23
ATOM     23  N   UNL     1      -0.395   0.707   1.749  1.00  0.00    -0.254 N 
ATOM     24  H   UNL     1      -1.362   0.731   1.932  1.00  0.00     0.193 HD
BRANCH  23  25
ATOM     25  C   UNL     1       0.221   1.910   1.471  1.00  0.00     0.184 C 
ATOM     26  S   UNL     1       1.793   2.198   1.005  1.00  0.00    -0.040 S 
BRANCH  25  27
ATOM     27  N   UNL     1      -0.629   2.972   1.597  1.00  0.00    -0.375 N 
ATOM     28  H   UNL     1      -1.563   2.824   1.871  1.00  0.00     0.159 HD
ATOM     29  H   UNL     1      -0.308   3.884   1.414  1.00  0.00     0.159 HD
ENDBRANCH  25  27
ENDBRANCH  23  25
ENDBRANCH  22  23
ENDBRANCH  15  20
ENDBRANCH   9  14
ENDBRANCH   6   8
ENDBRANCH   5   6
ENDBRANCH   4   5
ENDBRANCH   3   4
ENDBRANCH   2   3
ENDBRANCH   1   2
BRANCH   1  30
ATOM     30  C   UNL     1       6.953  -8.768   0.988  1.00  0.00     0.188 C 
BRANCH  30  31
ATOM     31  O   UNL     1       8.138  -8.414   1.682  1.00  0.00    -0.376 OA
BRANCH  31  32
ATOM     32  C   UNL     1       8.469  -9.189   2.827  1.00  0.00     0.202 C 
BRANCH  32  33
ATOM     33  C   UNL     1       8.807 -10.664   2.606  1.00  0.00     0.261 C 
BRANCH  33  34
ATOM     34  O   UNL     1       7.945 -11.363   1.719  1.00  0.00    -0.460 OA
BRANCH  34  35
ATOM     35  C   UNL     1       6.732 -11.685   2.215  1.00  0.00     0.338 C 
ATOM     36  O   UNL     1       6.207 -11.226   3.212  1.00  0.00    -0.246 OA
BRANCH  35  37
ATOM     37  C   UNL     1       6.161 -12.747   1.375  1.00  0.00     0.060 A 
ATOM     38  C   UNL     1       4.807 -13.045   1.535  1.00  0.00     0.016 A 
ATOM     39  C   UNL     1       7.018 -13.576   0.633  1.00  0.00     0.016 A 
ATOM     40  C   UNL     1       4.351 -14.277   1.110  1.00  0.00     0.010 A 
ATOM     41  C   UNL     1       6.566 -14.810   0.224  1.00  0.00     0.010 A 
ATOM     42  C   UNL     1       5.262 -15.177   0.545  1.00  0.00    -0.014 A 
BRANCH  42  43
ATOM     43  C   UNL     1       4.831 -16.550   0.381  1.00  0.00     0.031 A 
ATOM     44  C   UNL     1       4.001 -16.831  -0.806  1.00  0.00     0.074 A 
ATOM     45  C   UNL     1       5.250 -17.518   1.218  1.00  0.00     0.049 A 
ATOM     46  N   UNL     1       2.781 -17.253  -0.843  1.00  0.00    -0.248 NA
ATOM     47  C   UNL     1       4.579 -16.521  -2.121  1.00  0.00     0.031 C 
ATOM     48  C   UNL     1       6.311 -17.430   2.227  1.00  0.00     0.029 A 
ATOM     49  N   UNL     1       4.886 -18.828   1.259  1.00  0.00    -0.354 N 
ATOM     50  C   UNL     1       2.502 -17.463  -2.188  1.00  0.00     0.074 A 
ATOM     51  C   UNL     1       3.576 -16.856  -2.932  1.00  0.00     0.031 C 
ATOM     52  C   UNL     1       6.646 -18.677   2.623  1.00  0.00     0.029 A 
ATOM     53  C   UNL     1       5.751 -19.631   1.988  1.00  0.00     0.049 A 
ATOM     54  H   UNL     1       4.081 -19.176   0.812  1.00  0.00     0.167 HD
ATOM     55  C   UNL     1       1.531 -18.323  -2.593  1.00  0.00     0.037 A 
ATOM     56  C   UNL     1       5.781 -20.986   1.989  1.00  0.00     0.037 A 
ATOM     57  C   UNL     1       0.596 -18.623  -1.542  1.00  0.00     0.049 A 
ATOM     58  C   UNL     1       4.463 -21.465   1.496  1.00  0.00     0.074 A 
ATOM     59  C   UNL     1      -0.248 -17.869  -0.750  1.00  0.00     0.029 A 
ATOM     60  N   UNL     1       0.670 -19.856  -0.941  1.00  0.00    -0.354 N 
ATOM     61  N   UNL     1       3.338 -21.342   2.146  1.00  0.00    -0.248 NA
ATOM     62  C   UNL     1       4.327 -21.764   0.077  1.00  0.00     0.031 C 
ATOM     63  C   UNL     1      -0.278 -18.532   0.510  1.00  0.00     0.029 A 
ATOM     64  C   UNL     1       0.533 -19.663   0.410  1.00  0.00     0.049 A 
ATOM     65  H   UNL     1       0.798 -20.720  -1.397  1.00  0.00     0.167 HD
ATOM     66  C   UNL     1       2.377 -21.143   1.166  1.00  0.00     0.074 A 
ATOM     67  C   UNL     1       3.022 -21.534  -0.081  1.00  0.00     0.031 C 
ATOM     68  C   UNL     1       1.245 -20.422   1.417  1.00  0.00     0.037 A 
BRANCH  55  69
ATOM     69  C   UNL     1       1.638 -19.150  -3.848  1.00  0.00     0.058 A 
ATOM     70  C   UNL     1       0.498 -19.799  -4.357  1.00  0.00     0.135 A 
ATOM     71  C   UNL     1       2.875 -19.547  -4.406  1.00  0.00     0.135 A 
ATOM     72  F   UNL     1      -0.722 -19.511  -3.877  1.00  0.00    -0.206 F 
ATOM     73  C   UNL     1       0.586 -20.812  -5.312  1.00  0.00     0.059 A 
ATOM     74  C   UNL     1       2.980 -20.510  -5.400  1.00  0.00     0.059 A 
ATOM     75  F   UNL     1       4.045 -19.092  -3.939  1.00  0.00    -0.206 F 
ATOM     76  C   UNL     1       1.835 -21.172  -5.812  1.00  0.00     0.060 A 
BRANCH  76  77
ATOM     77  S   UNL     1       1.974 -22.566  -6.943  1.00  0.00     0.124 S 
ATOM     78  O   UNL     1       1.798 -23.690  -6.032  1.00  0.00    -0.237 OA
ATOM     79  O   UNL     1       0.878 -22.318  -7.874  1.00  0.00    -0.237 OA
ATOM     80  O   UNL     1       3.312 -22.407  -7.505  1.00  0.00    -0.744 OA
ENDBRANCH  76  77
ENDBRANCH  55  69
BRANCH  56  81
ATOM     81  C   UNL     1       6.971 -21.869   2.089  1.00  0.00     0.058 A 
ATOM     82  C   UNL     1       6.829 -23.251   2.302  1.00  0.00     0.135 A 
ATOM     83  C   UNL     1       8.258 -21.429   1.713  1.00  0.00     0.135 A 
ATOM     84  F   UNL     1       5.635 -23.763   2.638  1.00  0.00    -0.206 F 
ATOM     85  C   UNL     1       7.883 -24.148   2.106  1.00  0.00     0.059 A 
ATOM     86  C   UNL     1       9.329 -22.301   1.533  1.00  0.00     0.059 A 
ATOM     87  F   UNL     1       8.496 -20.144   1.414  1.00  0.00    -0.206 F 
ATOM     88  C   UNL     1       9.127 -23.664   1.703  1.00  0.00     0.060 A 
BRANCH  88  89
ATOM     89  S   UNL     1      10.439 -24.829   1.273  1.00  0.00     0.124 S 
ATOM     90  O   UNL     1      10.796 -25.375   2.578  1.00  0.00    -0.237 OA
ATOM     91  O   UNL     1       9.755 -25.742   0.364  1.00  0.00    -0.237 OA
ATOM     92  O   UNL     1      11.454 -23.982   0.652  1.00  0.00    -0.744 OA
ENDBRANCH  88  89
ENDBRANCH  56  81
BRANCH  68  93
ATOM     93  C   UNL     1       0.866 -20.168   2.852  1.00  0.00     0.058 A 
ATOM     94  C   UNL     1       1.633 -19.402   3.748  1.00  0.00     0.135 A 
ATOM     95  C   UNL     1      -0.398 -20.593   3.292  1.00  0.00     0.135 A 
ATOM     96  F   UNL     1       2.803 -18.868   3.370  1.00  0.00    -0.206 F 
ATOM     97  C   UNL     1       1.181 -19.110   5.036  1.00  0.00     0.059 A 
ATOM     98  C   UNL     1      -0.882 -20.287   4.561  1.00  0.00     0.059 A 
ATOM     99  F   UNL     1      -1.206 -21.274   2.461  1.00  0.00    -0.206 F 
ATOM    100  C   UNL     1      -0.080 -19.555   5.434  1.00  0.00     0.060 A 
BRANCH 100 101
ATOM    101  S   UNL     1      -0.702 -19.093   7.066  1.00  0.00     0.124 S 
ATOM    102  O   UNL     1       0.051 -19.981   7.944  1.00  0.00    -0.237 OA
ATOM    103  O   UNL     1      -0.357 -17.676   7.150  1.00  0.00    -0.237 OA
ATOM    104  O   UNL     1      -2.134 -19.369   6.976  1.00  0.00    -0.744 OA
ENDBRANCH 100 101
ENDBRANCH  68  93
ENDBRANCH  42  43
ENDBRANCH  35  37
ENDBRANCH  34  35
ENDBRANCH  33  34
ENDBRANCH  32  33
ENDBRANCH  31  32
ENDBRANCH  30  31
ENDBRANCH   1  30
TORSDOF 25
