REMARK SMILES CCN(C(=O)N[C@@H]1CCOC1)[C@H]1COC[C@H]1C(=O)OCCOCCOCCOC(=O)c1ccc(-c2c3nc(c(-c4c(F)cc(S(=O)(=O)[O-])cc4F)c4ccc([nH]4)c(-c4c(F)cc(S(=O)(=O)[O-])cc4F)c4nc(c(-c5c(F)cc(S(=O)(=O)[O-])cc5F)c5ccc2[nH]5)C=C4)C=C3)cc1
REMARK SMILES IDX 23 1 22 2 21 3 20 4 19 5 17 6 18 7 16 8 12 9 13 10 14 11
REMARK SMILES IDX 15 12 3 13 2 14 1 15 4 16 5 17 6 18 7 20 8 21 11 22 9 23
REMARK SMILES IDX 10 24 24 25 25 26 26 27 27 28 28 29 29 30 30 31 31 32 32 33
REMARK SMILES IDX 96 34 33 35 95 36 34 37 35 38 36 39 89 40 37 41 94 42 88 43
REMARK SMILES IDX 90 44 38 45 93 46 87 47 86 48 39 50 73 51 52 52 72 53 53 54
REMARK SMILES IDX 56 55 71 56 91 57 54 58 55 59 70 61 92 62 57 63 40 64 41 65
REMARK SMILES IDX 50 66 42 67 43 68 49 69 51 70 44 71 45 72 46 73 47 74 48 75
REMARK SMILES IDX 74 76 75 77 84 78 76 79 77 80 83 81 85 82 78 83 79 84 80 85
REMARK SMILES IDX 81 86 82 87 58 88 59 89 68 90 60 91 61 92 67 93 69 94 62 95
REMARK SMILES IDX 63 96 64 97 65 98 66 99
REMARK H PARENT 6 19 90 49 56 60
REMARK Flexibility Score: inf
ROOT
ATOM      1  C   UNL     1       1.539   3.959  -3.235  1.00  0.00     0.188 C 
ENDROOT
BRANCH   1   2
ATOM      2  O   UNL     1       2.378   5.021  -3.680  1.00  0.00    -0.376 OA
BRANCH   2   3
ATOM      3  C   UNL     1       3.437   4.746  -4.587  1.00  0.00     0.202 C 
BRANCH   3   4
ATOM      4  C   UNL     1       4.539   3.790  -4.114  1.00  0.00     0.261 C 
BRANCH   4   5
ATOM      5  O   UNL     1       4.060   2.508  -3.655  1.00  0.00    -0.463 OA
BRANCH   5   6
ATOM      6  C   UNL     1       4.492   2.108  -2.438  1.00  0.00     0.313 C 
ATOM      7  O   UNL     1       5.347   2.712  -1.794  1.00  0.00    -0.252 OA
BRANCH   6   8
ATOM      8  C   UNL     1       3.754   0.936  -1.829  1.00  0.00     0.150 C 
ATOM      9  C   UNL     1       2.874  -0.097  -2.533  1.00  0.00     0.129 C 
ATOM     10  C   UNL     1       2.956  -1.274  -1.550  1.00  0.00     0.186 C 
ATOM     11  O   UNL     1       4.304  -1.269  -1.063  1.00  0.00    -0.378 OA
ATOM     12  C   UNL     1       4.719   0.103  -0.993  1.00  0.00     0.177 C 
BRANCH   9  13
ATOM     13  N   UNL     1       3.108  -0.503  -3.954  1.00  0.00    -0.319 N 
BRANCH  13  14
ATOM     14  C   UNL     1       4.248  -1.374  -4.247  1.00  0.00     0.118 C 
ATOM     15  C   UNL     1       5.587  -0.665  -4.282  1.00  0.00     0.027 C 
ENDBRANCH  13  14
BRANCH  13  16
ATOM     16  C   UNL     1       1.984  -0.519  -4.743  1.00  0.00     0.318 C 
ATOM     17  O   UNL     1       0.853  -0.397  -4.253  1.00  0.00    -0.249 OA
ATOM     18  N   UNL     1       1.954  -0.675  -6.069  1.00  0.00    -0.333 N 
ATOM     19  H   UNL     1       1.076  -1.049  -6.308  1.00  0.00     0.165 HD
BRANCH  18  20
ATOM     20  C   UNL     1       2.727  -0.505  -7.317  1.00  0.00     0.112 C 
ATOM     21  C   UNL     1       2.186  -1.539  -8.301  1.00  0.00     0.056 C 
ATOM     22  C   UNL     1       4.199  -0.863  -7.420  1.00  0.00     0.185 C 
ATOM     23  C   UNL     1       2.963  -2.769  -7.869  1.00  0.00     0.162 C 
ATOM     24  O   UNL     1       4.283  -2.297  -7.543  1.00  0.00    -0.379 OA
ENDBRANCH  18  20
ENDBRANCH  13  16
ENDBRANCH   9  13
ENDBRANCH   6   8
ENDBRANCH   5   6
ENDBRANCH   4   5
ENDBRANCH   3   4
ENDBRANCH   2   3
ENDBRANCH   1   2
BRANCH   1  25
ATOM     25  C   UNL     1       1.292   2.752  -4.150  1.00  0.00     0.188 C 
BRANCH  25  26
ATOM     26  O   UNL     1       1.475   3.021  -5.529  1.00  0.00    -0.376 OA
BRANCH  26  27
ATOM     27  C   UNL     1       0.378   2.706  -6.365  1.00  0.00     0.202 C 
BRANCH  27  28
ATOM     28  C   UNL     1      -0.773   3.706  -6.229  1.00  0.00     0.261 C 
BRANCH  28  29
ATOM     29  O   UNL     1      -1.315   3.821  -4.902  1.00  0.00    -0.460 OA
BRANCH  29  30
ATOM     30  C   UNL     1      -1.970   2.738  -4.414  1.00  0.00     0.338 C 
ATOM     31  O   UNL     1      -2.194   1.698  -4.998  1.00  0.00    -0.246 OA
BRANCH  30  32
ATOM     32  C   UNL     1      -2.213   2.984  -2.972  1.00  0.00     0.060 A 
ATOM     33  C   UNL     1      -1.710   2.092  -2.015  1.00  0.00     0.016 A 
ATOM     34  C   UNL     1      -2.936   4.111  -2.576  1.00  0.00     0.016 A 
ATOM     35  C   UNL     1      -1.966   2.309  -0.655  1.00  0.00     0.010 A 
ATOM     36  C   UNL     1      -3.200   4.318  -1.221  1.00  0.00     0.010 A 
ATOM     37  C   UNL     1      -2.748   3.402  -0.254  1.00  0.00    -0.014 A 
BRANCH  37  38
ATOM     38  C   UNL     1      -3.253   3.515   1.139  1.00  0.00     0.031 A 
ATOM     39  C   UNL     1      -4.682   3.122   1.416  1.00  0.00     0.074 A 
ATOM     40  C   UNL     1      -2.481   3.991   2.133  1.00  0.00     0.049 A 
ATOM     41  N   UNL     1      -5.380   3.239   2.515  1.00  0.00    -0.248 NA
ATOM     42  C   UNL     1      -5.426   2.530   0.292  1.00  0.00     0.031 C 
ATOM     43  C   UNL     1      -1.080   4.386   2.002  1.00  0.00     0.029 A 
ATOM     44  N   UNL     1      -2.779   4.244   3.451  1.00  0.00    -0.354 N 
ATOM     45  C   UNL     1      -6.647   2.750   2.213  1.00  0.00     0.074 A 
ATOM     46  C   UNL     1      -6.630   2.365   0.819  1.00  0.00     0.031 C 
ATOM     47  C   UNL     1      -0.645   4.850   3.187  1.00  0.00     0.029 A 
ATOM     48  C   UNL     1      -1.745   4.820   4.151  1.00  0.00     0.049 A 
ATOM     49  H   UNL     1      -3.651   4.033   3.856  1.00  0.00     0.167 HD
ATOM     50  C   UNL     1      -7.724   2.628   3.025  1.00  0.00     0.037 A 
ATOM     51  C   UNL     1      -1.700   5.295   5.413  1.00  0.00     0.037 A 
ATOM     52  C   UNL     1      -7.734   3.013   4.413  1.00  0.00     0.049 A 
ATOM     53  C   UNL     1      -2.929   5.198   6.285  1.00  0.00     0.074 A 
ATOM     54  C   UNL     1      -8.766   2.900   5.329  1.00  0.00     0.029 A 
ATOM     55  N   UNL     1      -6.667   3.593   5.084  1.00  0.00    -0.354 N 
ATOM     56  N   UNL     1      -4.110   4.703   5.997  1.00  0.00    -0.248 NA
ATOM     57  C   UNL     1      -2.818   5.721   7.654  1.00  0.00     0.031 C 
ATOM     58  C   UNL     1      -8.343   3.466   6.536  1.00  0.00     0.029 A 
ATOM     59  C   UNL     1      -7.025   3.869   6.394  1.00  0.00     0.049 A 
ATOM     60  H   UNL     1      -5.786   3.781   4.688  1.00  0.00     0.167 HD
ATOM     61  C   UNL     1      -4.869   4.824   7.159  1.00  0.00     0.074 A 
ATOM     62  C   UNL     1      -4.010   5.429   8.155  1.00  0.00     0.031 C 
ATOM     63  C   UNL     1      -6.158   4.464   7.381  1.00  0.00     0.037 A 
BRANCH  50  64
ATOM     64  C   UNL     1      -8.993   2.079   2.429  1.00  0.00     0.058 A 
ATOM     65  C   UNL     1      -9.113   0.733   2.047  1.00  0.00     0.135 A 
ATOM     66  C   UNL     1     -10.121   2.903   2.278  1.00  0.00     0.135 A 
ATOM     67  F   UNL     1      -8.062  -0.096   2.152  1.00  0.00    -0.206 F 
ATOM     68  C   UNL     1     -10.296   0.230   1.515  1.00  0.00     0.059 A 
ATOM     69  C   UNL     1     -11.324   2.413   1.777  1.00  0.00     0.059 A 
ATOM     70  F   UNL     1     -10.063   4.199   2.623  1.00  0.00    -0.206 F 
ATOM     71  C   UNL     1     -11.398   1.077   1.387  1.00  0.00     0.060 A 
BRANCH  71  72
ATOM     72  S   UNL     1     -12.929   0.404   0.709  1.00  0.00     0.124 S 
ATOM     73  O   UNL     1     -12.567   0.208  -0.692  1.00  0.00    -0.237 OA
ATOM     74  O   UNL     1     -13.106  -0.814   1.493  1.00  0.00    -0.237 OA
ATOM     75  O   UNL     1     -13.907   1.457   0.962  1.00  0.00    -0.744 OA
ENDBRANCH  71  72
ENDBRANCH  50  64
BRANCH  51  76
ATOM     76  C   UNL     1      -0.451   5.920   5.933  1.00  0.00     0.058 A 
ATOM     77  C   UNL     1       0.297   5.310   6.951  1.00  0.00     0.135 A 
ATOM     78  C   UNL     1       0.014   7.146   5.430  1.00  0.00     0.135 A 
ATOM     79  F   UNL     1      -0.112   4.145   7.477  1.00  0.00    -0.206 F 
ATOM     80  C   UNL     1       1.451   5.897   7.462  1.00  0.00     0.059 A 
ATOM     81  C   UNL     1       1.181   7.738   5.904  1.00  0.00     0.059 A 
ATOM     82  F   UNL     1      -0.660   7.771   4.452  1.00  0.00    -0.206 F 
ATOM     83  C   UNL     1       1.887   7.111   6.928  1.00  0.00     0.060 A 
BRANCH  83  84
ATOM     84  S   UNL     1       3.411   7.839   7.568  1.00  0.00     0.124 S 
ATOM     85  O   UNL     1       2.994   8.277   8.895  1.00  0.00    -0.237 OA
ATOM     86  O   UNL     1       4.330   6.706   7.529  1.00  0.00    -0.237 OA
ATOM     87  O   UNL     1       3.701   8.905   6.613  1.00  0.00    -0.744 OA
ENDBRANCH  83  84
ENDBRANCH  51  76
BRANCH  63  88
ATOM     88  C   UNL     1      -6.713   4.668   8.767  1.00  0.00     0.058 A 
ATOM     89  C   UNL     1      -6.988   5.945   9.280  1.00  0.00     0.135 A 
ATOM     90  C   UNL     1      -7.023   3.560   9.575  1.00  0.00     0.135 A 
ATOM     91  F   UNL     1      -6.709   7.039   8.554  1.00  0.00    -0.206 F 
ATOM     92  C   UNL     1      -7.522   6.119  10.554  1.00  0.00     0.059 A 
ATOM     93  C   UNL     1      -7.588   3.709  10.838  1.00  0.00     0.059 A 
ATOM     94  F   UNL     1      -6.794   2.314   9.131  1.00  0.00    -0.206 F 
ATOM     95  C   UNL     1      -7.821   4.994  11.325  1.00  0.00     0.060 A 
BRANCH  95  96
ATOM     96  S   UNL     1      -8.537   5.233  12.965  1.00  0.00     0.124 S 
ATOM     97  O   UNL     1      -7.393   5.743  13.714  1.00  0.00    -0.237 OA
ATOM     98  O   UNL     1      -9.603   6.194  12.703  1.00  0.00    -0.237 OA
ATOM     99  O   UNL     1      -8.985   3.895  13.340  1.00  0.00    -0.744 OA
ENDBRANCH  95  96
ENDBRANCH  63  88
ENDBRANCH  37  38
ENDBRANCH  30  32
ENDBRANCH  29  30
ENDBRANCH  28  29
ENDBRANCH  27  28
ENDBRANCH  26  27
ENDBRANCH  25  26
ENDBRANCH   1  25
TORSDOF 24
