REMARK SMILES CC(C)[C@@H](CCC(=O)OCCOCCOCCOC(=O)c1ccc(-c2c3nc(c(-c4c(F)cc(S(=O)(=O)[O-])cc4F)c4ccc([nH]4)c(-c4c(F)cc(S(=O)(=O)[O-])cc4F)c4nc(c(-c5c(F)cc(S(=O)(=O)[O-])cc5F)c5ccc2[nH]5)C=C4)C=C3)cc1)CC[NH+]1CC2(CC2)C1
REMARK SMILES IDX 13 1 12 2 11 3 10 4 9 5 7 6 8 7 6 8 5 9 4 10 2 11 1 12 3 13
REMARK SMILES IDX 87 14 88 15 89 16 90 17 94 18 91 20 92 21 93 22 14 23 15 24
REMARK SMILES IDX 16 25 17 26 18 27 19 28 20 29 21 30 22 31 86 32 23 33 85 34
REMARK SMILES IDX 24 35 25 36 26 37 79 38 27 39 84 40 78 41 80 42 28 43 83 44
REMARK SMILES IDX 77 45 76 46 29 48 63 49 42 50 62 51 43 52 46 53 61 54 81 55
REMARK SMILES IDX 44 56 45 57 60 59 82 60 47 61 30 62 31 63 40 64 32 65 33 66
REMARK SMILES IDX 39 67 41 68 34 69 35 70 36 71 37 72 38 73 64 74 65 75 74 76
REMARK SMILES IDX 66 77 67 78 73 79 75 80 68 81 69 82 70 83 71 84 72 85 48 86
REMARK SMILES IDX 49 87 58 88 50 89 51 90 57 91 59 92 52 93 53 94 54 95 55 96
REMARK SMILES IDX 56 97
REMARK H PARENT 89 19 80 47 46 58
REMARK Flexibility Score: inf
ROOT
ATOM      1  C   UNL     1      -3.197  -2.097   3.962  1.00  0.00     0.188 C 
ENDROOT
BRANCH   1   2
ATOM      2  O   UNL     1      -3.166  -2.123   5.383  1.00  0.00    -0.376 OA
BRANCH   2   3
ATOM      3  C   UNL     1      -2.097  -1.349   5.933  1.00  0.00     0.202 C 
BRANCH   3   4
ATOM      4  C   UNL     1      -0.689  -1.933   5.690  1.00  0.00     0.261 C 
BRANCH   4   5
ATOM      5  O   UNL     1      -0.232  -1.720   4.330  1.00  0.00    -0.463 OA
BRANCH   5   6
ATOM      6  C   UNL     1      -0.272  -2.771   3.476  1.00  0.00     0.305 C 
ATOM      7  O   UNL     1      -0.468  -3.929   3.824  1.00  0.00    -0.252 OA
BRANCH   6   8
ATOM      8  C   UNL     1      -0.022  -2.382   2.025  1.00  0.00     0.123 C 
BRANCH   8   9
ATOM      9  C   UNL     1      -0.822  -1.239   1.350  1.00  0.00     0.016 C 
BRANCH   9  10
ATOM     10  C   UNL     1      -0.354   0.260   1.515  1.00  0.00    -0.002 C 
BRANCH  10  11
ATOM     11  C   UNL     1       1.187   0.372   1.310  1.00  0.00    -0.014 C 
ATOM     12  C   UNL     1       1.562  -0.024  -0.131  1.00  0.00     0.007 C 
ATOM     13  C   UNL     1       1.803   1.738   1.590  1.00  0.00     0.007 C 
ENDBRANCH  10  11
BRANCH  10  14
ATOM     14  C   UNL     1      -0.988   0.839   2.802  1.00  0.00     0.065 C 
BRANCH  14  15
ATOM     15  C   UNL     1      -0.860   2.303   3.232  1.00  0.00     0.262 C 
BRANCH  15  16
ATOM     16  N   UNL     1      -1.479   3.302   2.346  1.00  0.00    -0.334 N 
ATOM     17  C   UNL     1      -2.929   3.453   2.656  1.00  0.00     0.275 C 
ATOM     18  C   UNL     1      -1.257   4.659   2.920  1.00  0.00     0.275 C 
ATOM     19  H   UNL     1      -1.164   3.042   1.412  1.00  0.00     0.348 HD
ATOM     20  C   UNL     1      -2.541   4.496   3.634  1.00  0.00     0.068 C 
ATOM     21  C   UNL     1      -2.728   4.425   5.122  1.00  0.00     0.020 C 
ATOM     22  C   UNL     1      -3.375   5.522   4.318  1.00  0.00     0.020 C 
ENDBRANCH  15  16
ENDBRANCH  14  15
ENDBRANCH  10  14
ENDBRANCH   9  10
ENDBRANCH   8   9
ENDBRANCH   6   8
ENDBRANCH   5   6
ENDBRANCH   4   5
ENDBRANCH   3   4
ENDBRANCH   2   3
ENDBRANCH   1   2
BRANCH   1  23
ATOM     23  C   UNL     1      -4.460  -1.476   3.416  1.00  0.00     0.188 C 
BRANCH  23  24
ATOM     24  O   UNL     1      -4.428  -0.053   3.574  1.00  0.00    -0.376 OA
BRANCH  24  25
ATOM     25  C   UNL     1      -5.380   0.436   4.513  1.00  0.00     0.202 C 
BRANCH  25  26
ATOM     26  C   UNL     1      -6.759   0.679   3.886  1.00  0.00     0.261 C 
BRANCH  26  27
ATOM     27  O   UNL     1      -7.317  -0.542   3.374  1.00  0.00    -0.460 OA
BRANCH  27  28
ATOM     28  C   UNL     1      -7.127  -0.765   2.047  1.00  0.00     0.338 C 
ATOM     29  O   UNL     1      -6.727   0.035   1.218  1.00  0.00    -0.246 OA
BRANCH  28  30
ATOM     30  C   UNL     1      -7.265  -2.220   1.788  1.00  0.00     0.060 A 
ATOM     31  C   UNL     1      -6.402  -2.818   0.855  1.00  0.00     0.016 A 
ATOM     32  C   UNL     1      -8.186  -3.000   2.492  1.00  0.00     0.016 A 
ATOM     33  C   UNL     1      -6.473  -4.190   0.606  1.00  0.00     0.010 A 
ATOM     34  C   UNL     1      -8.274  -4.366   2.226  1.00  0.00     0.010 A 
ATOM     35  C   UNL     1      -7.444  -4.958   1.258  1.00  0.00    -0.014 A 
BRANCH  35  36
ATOM     36  C   UNL     1      -7.816  -6.296   0.744  1.00  0.00     0.031 A 
ATOM     37  C   UNL     1      -8.949  -6.348  -0.245  1.00  0.00     0.074 A 
ATOM     38  C   UNL     1      -7.220  -7.422   1.172  1.00  0.00     0.049 A 
ATOM     39  N   UNL     1      -9.613  -7.376  -0.696  1.00  0.00    -0.248 NA
ATOM     40  C   UNL     1      -9.405  -5.052  -0.780  1.00  0.00     0.031 C 
ATOM     41  C   UNL     1      -6.079  -7.489   2.083  1.00  0.00     0.029 A 
ATOM     42  N   UNL     1      -7.520  -8.736   0.911  1.00  0.00    -0.354 N 
ATOM     43  C   UNL     1     -10.574  -6.852  -1.553  1.00  0.00     0.074 A 
ATOM     44  C   UNL     1     -10.424  -5.415  -1.542  1.00  0.00     0.031 C 
ATOM     45  C   UNL     1      -5.792  -8.782   2.326  1.00  0.00     0.029 A 
ATOM     46  C   UNL     1      -6.755  -9.629   1.623  1.00  0.00     0.049 A 
ATOM     47  H   UNL     1      -8.218  -9.012   0.273  1.00  0.00     0.167 HD
ATOM     48  C   UNL     1     -11.499  -7.511  -2.286  1.00  0.00     0.037 A 
ATOM     49  C   UNL     1      -6.853 -10.971   1.719  1.00  0.00     0.037 A 
ATOM     50  C   UNL     1     -11.646  -8.940  -2.281  1.00  0.00     0.049 A 
ATOM     51  C   UNL     1      -7.944 -11.681   0.951  1.00  0.00     0.074 A 
ATOM     52  C   UNL     1     -12.563  -9.714  -2.966  1.00  0.00     0.029 A 
ATOM     53  N   UNL     1     -10.848  -9.809  -1.551  1.00  0.00    -0.354 N 
ATOM     54  N   UNL     1      -8.859 -11.177   0.154  1.00  0.00    -0.248 NA
ATOM     55  C   UNL     1      -8.021 -13.143   1.098  1.00  0.00     0.031 C 
ATOM     56  C   UNL     1     -12.342 -11.052  -2.624  1.00  0.00     0.029 A 
ATOM     57  C   UNL     1     -11.254 -11.113  -1.766  1.00  0.00     0.049 A 
ATOM     58  H   UNL     1     -10.104  -9.537  -0.967  1.00  0.00     0.167 HD
ATOM     59  C   UNL     1      -9.587 -12.262  -0.327  1.00  0.00     0.074 A 
ATOM     60  C   UNL     1      -9.010 -13.448   0.269  1.00  0.00     0.031 C 
ATOM     61  C   UNL     1     -10.636 -12.279  -1.187  1.00  0.00     0.037 A 
BRANCH  48  62
ATOM     62  C   UNL     1     -12.430  -6.689  -3.129  1.00  0.00     0.058 A 
ATOM     63  C   UNL     1     -11.986  -6.032  -4.287  1.00  0.00     0.135 A 
ATOM     64  C   UNL     1     -13.786  -6.568  -2.785  1.00  0.00     0.135 A 
ATOM     65  F   UNL     1     -10.693  -6.090  -4.644  1.00  0.00    -0.206 F 
ATOM     66  C   UNL     1     -12.849  -5.269  -5.066  1.00  0.00     0.059 A 
ATOM     67  C   UNL     1     -14.673  -5.832  -3.564  1.00  0.00     0.059 A 
ATOM     68  F   UNL     1     -14.259  -7.165  -1.679  1.00  0.00    -0.206 F 
ATOM     69  C   UNL     1     -14.193  -5.178  -4.698  1.00  0.00     0.060 A 
BRANCH  69  70
ATOM     70  S   UNL     1     -15.304  -4.201  -5.731  1.00  0.00     0.124 S 
ATOM     71  O   UNL     1     -14.879  -2.842  -5.412  1.00  0.00    -0.237 OA
ATOM     72  O   UNL     1     -14.975  -4.670  -7.073  1.00  0.00    -0.237 OA
ATOM     73  O   UNL     1     -16.631  -4.572  -5.249  1.00  0.00    -0.744 OA
ENDBRANCH  69  70
ENDBRANCH  48  62
BRANCH  49  74
ATOM     74  C   UNL     1      -5.917 -11.742   2.583  1.00  0.00     0.058 A 
ATOM     75  C   UNL     1      -4.983 -12.628   2.024  1.00  0.00     0.135 A 
ATOM     76  C   UNL     1      -5.960 -11.643   3.982  1.00  0.00     0.135 A 
ATOM     77  F   UNL     1      -4.910 -12.771   0.691  1.00  0.00    -0.206 F 
ATOM     78  C   UNL     1      -4.147 -13.408   2.818  1.00  0.00     0.059 A 
ATOM     79  C   UNL     1      -5.115 -12.391   4.798  1.00  0.00     0.059 A 
ATOM     80  F   UNL     1      -6.829 -10.806   4.571  1.00  0.00    -0.206 F 
ATOM     81  C   UNL     1      -4.223 -13.284   4.206  1.00  0.00     0.060 A 
BRANCH  81  82
ATOM     82  S   UNL     1      -3.124 -14.290   5.227  1.00  0.00     0.124 S 
ATOM     83  O   UNL     1      -3.730 -15.611   5.098  1.00  0.00    -0.237 OA
ATOM     84  O   UNL     1      -1.836 -14.111   4.564  1.00  0.00    -0.237 OA
ATOM     85  O   UNL     1      -3.232 -13.673   6.546  1.00  0.00    -0.744 OA
ENDBRANCH  81  82
ENDBRANCH  49  74
BRANCH  61  86
ATOM     86  C   UNL     1     -11.182 -13.617  -1.602  1.00  0.00     0.058 A 
ATOM     87  C   UNL     1     -11.974 -14.394  -0.745  1.00  0.00     0.135 A 
ATOM     88  C   UNL     1     -10.979 -14.081  -2.913  1.00  0.00     0.135 A 
ATOM     89  F   UNL     1     -12.196 -13.996   0.518  1.00  0.00    -0.206 F 
ATOM     90  C   UNL     1     -12.535 -15.595  -1.168  1.00  0.00     0.059 A 
ATOM     91  C   UNL     1     -11.552 -15.264  -3.365  1.00  0.00     0.059 A 
ATOM     92  F   UNL     1     -10.240 -13.366  -3.776  1.00  0.00    -0.206 F 
ATOM     93  C   UNL     1     -12.323 -16.018  -2.482  1.00  0.00     0.060 A 
BRANCH  93  94
ATOM     94  S   UNL     1     -13.103 -17.549  -3.036  1.00  0.00     0.124 S 
ATOM     95  O   UNL     1     -12.281 -18.555  -2.371  1.00  0.00    -0.237 OA
ATOM     96  O   UNL     1     -14.465 -17.407  -2.531  1.00  0.00    -0.237 OA
ATOM     97  O   UNL     1     -12.972 -17.492  -4.489  1.00  0.00    -0.744 OA
ENDBRANCH  93  94
ENDBRANCH  61  86
ENDBRANCH  35  36
ENDBRANCH  28  30
ENDBRANCH  27  28
ENDBRANCH  26  27
ENDBRANCH  25  26
ENDBRANCH  24  25
ENDBRANCH  23  24
ENDBRANCH   1  23
TORSDOF 26
