REMARK SMILES C[C@@H]1Cc2ccccc2N1c1ccc(F)cc1C(=O)OCCOCCOCCOC(=O)c1ccc(-c2c3nc(c(-c4c(F)cc(S(=O)(=O)[O-])cc4F)c4ccc([nH]4)c(-c4c(F)cc(S(=O)(=O)[O-])cc4F)c4nc(c(-c5c(F)cc(S(=O)(=O)[O-])cc5F)c5ccc2[nH]5)C=C4)C=C3)cc1
REMARK SMILES IDX 25 1 24 2 23 3 22 4 21 5 20 6 18 7 19 8 17 9 11 10 12 11
REMARK SMILES IDX 13 12 16 13 14 14 15 15 10 16 1 17 2 18 3 19 4 20 9 21 5 22
REMARK SMILES IDX 8 23 6 24 7 25 26 26 27 27 28 28 29 29 30 30 31 31 32 32
REMARK SMILES IDX 33 33 97 34 34 35 96 36 35 37 36 38 37 39 90 40 38 41 95 42
REMARK SMILES IDX 89 43 91 44 39 45 94 46 88 47 87 48 40 50 74 51 53 52 73 53
REMARK SMILES IDX 54 54 57 55 72 56 92 57 55 58 56 59 71 61 93 62 58 63 41 64
REMARK SMILES IDX 42 65 51 66 43 67 44 68 50 69 52 70 45 71 46 72 47 73 48 74
REMARK SMILES IDX 49 75 75 76 76 77 85 78 77 79 78 80 84 81 86 82 79 83 80 84
REMARK SMILES IDX 81 85 82 86 83 87 59 88 60 89 69 90 61 91 62 92 68 93 70 94
REMARK SMILES IDX 63 95 64 96 65 97 66 98 67 99
REMARK H PARENT 91 49 57 60
REMARK Flexibility Score: inf
ROOT
ATOM      1  C   UNL     1      -2.730   3.038   3.242  1.00  0.00     0.188 C 
ENDROOT
BRANCH   1   2
ATOM      2  C   UNL     1      -3.966   2.125   3.085  1.00  0.00     0.188 C 
BRANCH   2   3
ATOM      3  O   UNL     1      -4.165   1.030   3.964  1.00  0.00    -0.376 OA
BRANCH   3   4
ATOM      4  C   UNL     1      -3.188  -0.002   4.019  1.00  0.00     0.202 C 
BRANCH   4   5
ATOM      5  C   UNL     1      -2.623  -0.546   2.711  1.00  0.00     0.261 C 
BRANCH   5   6
ATOM      6  O   UNL     1      -1.974   0.481   1.948  1.00  0.00    -0.460 OA
BRANCH   6   7
ATOM      7  C   UNL     1      -2.184   0.418   0.614  1.00  0.00     0.340 C 
ATOM      8  O   UNL     1      -2.796  -0.461   0.025  1.00  0.00    -0.246 OA
BRANCH   7   9
ATOM      9  C   UNL     1      -1.694   1.621  -0.091  1.00  0.00     0.086 A 
ATOM     10  C   UNL     1      -0.421   2.205   0.086  1.00  0.00     0.056 A 
ATOM     11  C   UNL     1      -0.096   3.297  -0.751  1.00  0.00     0.030 A 
ATOM     12  C   UNL     1      -1.018   3.848  -1.643  1.00  0.00     0.041 A 
ATOM     13  C   UNL     1      -2.623   2.181  -0.990  1.00  0.00     0.057 A 
ATOM     14  C   UNL     1      -2.285   3.299  -1.733  1.00  0.00     0.124 A 
ATOM     15  F   UNL     1      -3.191   3.857  -2.544  1.00  0.00    -0.207 F 
BRANCH  10  16
ATOM     16  N   UNL     1       0.473   1.839   1.101  1.00  0.00    -0.337 N 
ATOM     17  C   UNL     1       0.754  -0.674   0.791  1.00  0.00     0.032 C 
ATOM     18  C   UNL     1       1.409   0.686   0.965  1.00  0.00     0.089 C 
ATOM     19  C   UNL     1       2.284   0.681   2.248  1.00  0.00     0.063 C 
ATOM     20  C   UNL     1       2.247   2.121   2.620  1.00  0.00    -0.022 A 
ATOM     21  C   UNL     1       1.178   2.734   1.966  1.00  0.00     0.045 A 
ATOM     22  C   UNL     1       3.061   2.810   3.507  1.00  0.00     0.006 A 
ATOM     23  C   UNL     1       0.910   4.077   2.201  1.00  0.00     0.026 A 
ATOM     24  C   UNL     1       2.810   4.167   3.714  1.00  0.00     0.000 A 
ATOM     25  C   UNL     1       1.742   4.798   3.063  1.00  0.00     0.002 A 
ENDBRANCH  10  16
ENDBRANCH   7   9
ENDBRANCH   6   7
ENDBRANCH   5   6
ENDBRANCH   4   5
ENDBRANCH   3   4
ENDBRANCH   2   3
ENDBRANCH   1   2
BRANCH   1  26
ATOM     26  O   UNL     1      -1.819   2.837   4.308  1.00  0.00    -0.376 OA
BRANCH  26  27
ATOM     27  C   UNL     1      -2.302   2.870   5.643  1.00  0.00     0.202 C 
BRANCH  27  28
ATOM     28  C   UNL     1      -3.032   4.128   6.112  1.00  0.00     0.261 C 
BRANCH  28  29
ATOM     29  O   UNL     1      -4.290   4.285   5.437  1.00  0.00    -0.460 OA
BRANCH  29  30
ATOM     30  C   UNL     1      -4.457   5.457   4.776  1.00  0.00     0.338 C 
ATOM     31  O   UNL     1      -3.708   6.418   4.779  1.00  0.00    -0.246 OA
BRANCH  30  32
ATOM     32  C   UNL     1      -5.598   5.314   3.848  1.00  0.00     0.060 A 
ATOM     33  C   UNL     1      -6.828   4.809   4.274  1.00  0.00     0.016 A 
ATOM     34  C   UNL     1      -5.402   5.674   2.507  1.00  0.00     0.016 A 
ATOM     35  C   UNL     1      -7.879   4.705   3.360  1.00  0.00     0.010 A 
ATOM     36  C   UNL     1      -6.447   5.553   1.593  1.00  0.00     0.010 A 
ATOM     37  C   UNL     1      -7.700   5.094   2.021  1.00  0.00    -0.014 A 
BRANCH  37  38
ATOM     38  C   UNL     1      -8.876   5.216   1.129  1.00  0.00     0.031 A 
ATOM     39  C   UNL     1      -9.262   4.142   0.162  1.00  0.00     0.074 A 
ATOM     40  C   UNL     1      -9.596   6.351   1.206  1.00  0.00     0.049 A 
ATOM     41  N   UNL     1     -10.330   4.067  -0.590  1.00  0.00    -0.248 NA
ATOM     42  C   UNL     1      -8.332   3.015   0.010  1.00  0.00     0.031 C 
ATOM     43  C   UNL     1      -9.280   7.481   2.083  1.00  0.00     0.029 A 
ATOM     44  N   UNL     1     -10.733   6.741   0.551  1.00  0.00    -0.354 N 
ATOM     45  C   UNL     1     -10.221   2.872  -1.289  1.00  0.00     0.074 A 
ATOM     46  C   UNL     1      -8.955   2.278  -0.904  1.00  0.00     0.031 C 
ATOM     47  C   UNL     1     -10.212   8.431   1.923  1.00  0.00     0.029 A 
ATOM     48  C   UNL     1     -11.184   7.981   0.931  1.00  0.00     0.049 A 
ATOM     49  H   UNL     1     -11.183   6.187  -0.127  1.00  0.00     0.167 HD
ATOM     50  C   UNL     1     -11.106   2.323  -2.157  1.00  0.00     0.037 A 
ATOM     51  C   UNL     1     -12.269   8.675   0.541  1.00  0.00     0.037 A 
ATOM     52  C   UNL     1     -12.350   2.941  -2.548  1.00  0.00     0.049 A 
ATOM     53  C   UNL     1     -13.223   8.056  -0.436  1.00  0.00     0.074 A 
ATOM     54  C   UNL     1     -13.344   2.432  -3.367  1.00  0.00     0.029 A 
ATOM     55  N   UNL     1     -12.762   4.212  -2.171  1.00  0.00    -0.354 N 
ATOM     56  N   UNL     1     -13.162   6.878  -1.009  1.00  0.00    -0.248 NA
ATOM     57  C   UNL     1     -14.399   8.852  -0.811  1.00  0.00     0.031 C 
ATOM     58  C   UNL     1     -14.331   3.413  -3.525  1.00  0.00     0.029 A 
ATOM     59  C   UNL     1     -13.975   4.519  -2.768  1.00  0.00     0.049 A 
ATOM     60  H   UNL     1     -12.264   4.809  -1.566  1.00  0.00     0.167 HD
ATOM     61  C   UNL     1     -14.296   6.784  -1.806  1.00  0.00     0.074 A 
ATOM     62  C   UNL     1     -15.032   8.021  -1.630  1.00  0.00     0.031 C 
ATOM     63  C   UNL     1     -14.689   5.763  -2.608  1.00  0.00     0.037 A 
BRANCH  50  64
ATOM     64  C   UNL     1     -10.768   0.979  -2.741  1.00  0.00     0.058 A 
ATOM     65  C   UNL     1     -10.826  -0.191  -1.966  1.00  0.00     0.135 A 
ATOM     66  C   UNL     1     -10.440   0.846  -4.100  1.00  0.00     0.135 A 
ATOM     67  F   UNL     1     -11.130  -0.121  -0.660  1.00  0.00    -0.206 F 
ATOM     68  C   UNL     1     -10.548  -1.440  -2.510  1.00  0.00     0.059 A 
ATOM     69  C   UNL     1     -10.179  -0.397  -4.671  1.00  0.00     0.059 A 
ATOM     70  F   UNL     1     -10.376   1.930  -4.889  1.00  0.00    -0.206 F 
ATOM     71  C   UNL     1     -10.223  -1.534  -3.865  1.00  0.00     0.060 A 
BRANCH  71  72
ATOM     72  S   UNL     1      -9.871  -3.165  -4.556  1.00  0.00     0.124 S 
ATOM     73  O   UNL     1      -8.563  -3.452  -3.974  1.00  0.00    -0.237 OA
ATOM     74  O   UNL     1     -10.979  -3.966  -4.047  1.00  0.00    -0.237 OA
ATOM     75  O   UNL     1      -9.878  -2.934  -5.997  1.00  0.00    -0.744 OA
ENDBRANCH  71  72
ENDBRANCH  50  64
BRANCH  51  76
ATOM     76  C   UNL     1     -12.516  10.010   1.137  1.00  0.00     0.058 A 
ATOM     77  C   UNL     1     -13.484  10.179   2.136  1.00  0.00     0.135 A 
ATOM     78  C   UNL     1     -11.720  11.114   0.795  1.00  0.00     0.135 A 
ATOM     79  F   UNL     1     -14.266   9.149   2.494  1.00  0.00    -0.206 F 
ATOM     80  C   UNL     1     -13.647  11.395   2.788  1.00  0.00     0.059 A 
ATOM     81  C   UNL     1     -11.853  12.336   1.446  1.00  0.00     0.059 A 
ATOM     82  F   UNL     1     -10.768  10.991  -0.142  1.00  0.00    -0.206 F 
ATOM     83  C   UNL     1     -12.817  12.465   2.445  1.00  0.00     0.060 A 
BRANCH  83  84
ATOM     84  S   UNL     1     -12.969  14.006   3.373  1.00  0.00     0.124 S 
ATOM     85  O   UNL     1     -14.237  14.526   2.877  1.00  0.00    -0.237 OA
ATOM     86  O   UNL     1     -12.969  13.531   4.754  1.00  0.00    -0.237 OA
ATOM     87  O   UNL     1     -11.780  14.755   2.978  1.00  0.00    -0.744 OA
ENDBRANCH  83  84
ENDBRANCH  51  76
BRANCH  63  88
ATOM     88  C   UNL     1     -15.971   5.944  -3.372  1.00  0.00     0.058 A 
ATOM     89  C   UNL     1     -16.042   6.790  -4.489  1.00  0.00     0.135 A 
ATOM     90  C   UNL     1     -17.126   5.228  -3.016  1.00  0.00     0.135 A 
ATOM     91  F   UNL     1     -14.970   7.506  -4.864  1.00  0.00    -0.206 F 
ATOM     92  C   UNL     1     -17.218   6.931  -5.220  1.00  0.00     0.059 A 
ATOM     93  C   UNL     1     -18.306   5.337  -3.747  1.00  0.00     0.059 A 
ATOM     94  F   UNL     1     -17.110   4.402  -1.958  1.00  0.00    -0.206 F 
ATOM     95  C   UNL     1     -18.344   6.198  -4.843  1.00  0.00     0.060 A 
BRANCH  95  96
ATOM     96  S   UNL     1     -19.850   6.361  -5.825  1.00  0.00     0.124 S 
ATOM     97  O   UNL     1     -20.314   7.689  -5.435  1.00  0.00    -0.237 OA
ATOM     98  O   UNL     1     -19.348   6.242  -7.191  1.00  0.00    -0.237 OA
ATOM     99  O   UNL     1     -20.677   5.248  -5.369  1.00  0.00    -0.744 OA
ENDBRANCH  95  96
ENDBRANCH  63  88
ENDBRANCH  37  38
ENDBRANCH  30  32
ENDBRANCH  29  30
ENDBRANCH  28  29
ENDBRANCH  27  28
ENDBRANCH  26  27
ENDBRANCH   1  26
TORSDOF 21
