REMARK SMILES COc1cc2c(CC(=O)OCCOCCOCCOC(=O)c3ccc(-c4c5nc(c(-c6c(F)cc(S(=O)(=O)[O-])cc6F)c6ccc([nH]6)c(-c6c(F)cc(S(=O)(=O)[O-])cc6F)c6nc(c(-c7c(F)cc(S(=O)(=O)[O-])cc7F)c7ccc4[nH]7)C=C6)C=C5)cc3)c(C)n(C(=O)c3ccc(Cl)cc3)c2cc1Cl
REMARK SMILES IDX 14 1 13 2 12 3 11 4 10 5 8 6 9 7 7 8 6 9 3 10 4 11 102 12
REMARK SMILES IDX 5 13 101 14 103 15 100 16 88 17 90 18 89 19 2 20 1 21 91 22
REMARK SMILES IDX 92 23 93 24 94 25 99 26 95 27 98 28 96 29 97 30 15 31 16 32
REMARK SMILES IDX 17 33 18 34 19 35 20 36 21 37 22 38 23 39 87 40 24 41 86 42
REMARK SMILES IDX 25 43 26 44 27 45 80 46 28 47 85 48 79 49 81 50 29 51 84 52
REMARK SMILES IDX 78 53 77 54 30 56 64 57 43 58 63 59 44 60 47 61 62 62 82 63
REMARK SMILES IDX 45 64 46 65 61 67 83 68 48 69 31 70 32 71 41 72 33 73 34 74
REMARK SMILES IDX 40 75 42 76 35 77 36 78 37 79 38 80 39 81 65 82 66 83 75 84
REMARK SMILES IDX 67 85 68 86 74 87 76 88 69 89 70 90 71 91 72 92 73 93 49 94
REMARK SMILES IDX 50 95 59 96 51 97 52 98 58 99 60 100 53 101 54 102 55 103
REMARK SMILES IDX 56 104 57 105
REMARK H PARENT 81 55 47 66
REMARK Flexibility Score: inf
ROOT
ATOM      1  C   UNL     1      -2.430  -5.264  -0.734  1.00  0.00     0.188 C 
ENDROOT
BRANCH   1   2
ATOM      2  O   UNL     1      -2.813  -6.509  -0.201  1.00  0.00    -0.376 OA
BRANCH   2   3
ATOM      3  C   UNL     1      -2.347  -7.662  -0.887  1.00  0.00     0.202 C 
BRANCH   3   4
ATOM      4  C   UNL     1      -2.387  -7.620  -2.425  1.00  0.00     0.261 C 
BRANCH   4   5
ATOM      5  O   UNL     1      -1.366  -6.727  -2.959  1.00  0.00    -0.463 OA
BRANCH   5   6
ATOM      6  C   UNL     1      -1.700  -6.056  -4.095  1.00  0.00     0.310 C 
ATOM      7  O   UNL     1      -2.614  -6.428  -4.826  1.00  0.00    -0.252 OA
BRANCH   6   8
ATOM      8  C   UNL     1      -1.063  -4.671  -4.251  1.00  0.00     0.160 C 
BRANCH   8   9
ATOM      9  C   UNL     1       0.408  -4.388  -4.426  1.00  0.00    -0.008 A 
ATOM     10  C   UNL     1       2.105  -1.753  -2.086  1.00  0.00     0.138 A 
ATOM     11  C   UNL     1       1.213  -2.783  -2.450  1.00  0.00     0.058 A 
ATOM     12  C   UNL     1       3.103  -1.405  -2.970  1.00  0.00     0.085 A 
ATOM     13  C   UNL     1       1.256  -3.476  -3.683  1.00  0.00     0.008 A 
ATOM     14  C   UNL     1       3.197  -2.074  -4.193  1.00  0.00     0.051 A 
ATOM     15  Cl  UNL     1       4.341  -0.262  -2.589  1.00  0.00    -0.080 Cl
ATOM     16  C   UNL     1       2.328  -3.154  -4.507  1.00  0.00     0.058 A 
ATOM     17  C   UNL     1       1.076  -4.649  -5.622  1.00  0.00     0.028 A 
ATOM     18  N   UNL     1       2.354  -4.118  -5.522  1.00  0.00    -0.280 N 
ATOM     19  C   UNL     1       0.513  -5.323  -6.832  1.00  0.00     0.065 C 
BRANCH  10  20
ATOM     20  O   UNL     1       1.963  -1.230  -0.824  1.00  0.00    -0.495 OA
ATOM     21  C   UNL     1       1.727   0.185  -0.777  1.00  0.00     0.278 C 
ENDBRANCH  10  20
BRANCH  18  22
ATOM     22  C   UNL     1       3.517  -4.515  -6.240  1.00  0.00     0.262 C 
ATOM     23  O   UNL     1       3.442  -5.262  -7.184  1.00  0.00    -0.268 OA
BRANCH  22  24
ATOM     24  C   UNL     1       4.857  -4.095  -5.775  1.00  0.00     0.040 A 
ATOM     25  C   UNL     1       5.304  -4.548  -4.527  1.00  0.00     0.015 A 
ATOM     26  C   UNL     1       5.517  -3.077  -6.465  1.00  0.00     0.015 A 
ATOM     27  C   UNL     1       6.394  -3.920  -3.927  1.00  0.00     0.021 A 
ATOM     28  C   UNL     1       6.600  -2.446  -5.851  1.00  0.00     0.021 A 
ATOM     29  C   UNL     1       7.022  -2.860  -4.582  1.00  0.00     0.041 A 
ATOM     30  Cl  UNL     1       8.295  -2.014  -3.792  1.00  0.00    -0.084 Cl
ENDBRANCH  22  24
ENDBRANCH  18  22
ENDBRANCH   8   9
ENDBRANCH   6   8
ENDBRANCH   5   6
ENDBRANCH   4   5
ENDBRANCH   3   4
ENDBRANCH   2   3
ENDBRANCH   1   2
BRANCH   1  31
ATOM     31  C   UNL     1      -0.932  -4.983  -0.886  1.00  0.00     0.188 C 
BRANCH  31  32
ATOM     32  O   UNL     1       0.036  -5.786  -0.260  1.00  0.00    -0.376 OA
BRANCH  32  33
ATOM     33  C   UNL     1       0.173  -5.627   1.140  1.00  0.00     0.202 C 
BRANCH  33  34
ATOM     34  C   UNL     1      -0.023  -4.217   1.760  1.00  0.00     0.261 C 
BRANCH  34  35
ATOM     35  O   UNL     1      -1.295  -3.586   1.429  1.00  0.00    -0.460 OA
BRANCH  35  36
ATOM     36  C   UNL     1      -1.255  -2.240   1.169  1.00  0.00     0.338 C 
ATOM     37  O   UNL     1      -0.408  -1.474   1.603  1.00  0.00    -0.246 OA
BRANCH  36  38
ATOM     38  C   UNL     1      -2.122  -1.901  -0.019  1.00  0.00     0.060 A 
ATOM     39  C   UNL     1      -3.487  -2.135  -0.141  1.00  0.00     0.016 A 
ATOM     40  C   UNL     1      -1.448  -1.443  -1.155  1.00  0.00     0.016 A 
ATOM     41  C   UNL     1      -4.106  -2.039  -1.416  1.00  0.00     0.010 A 
ATOM     42  C   UNL     1      -2.033  -1.403  -2.426  1.00  0.00     0.010 A 
ATOM     43  C   UNL     1      -3.370  -1.744  -2.587  1.00  0.00    -0.014 A 
BRANCH  43  44
ATOM     44  C   UNL     1      -4.025  -1.372  -3.868  1.00  0.00     0.031 A 
ATOM     45  C   UNL     1      -4.651  -0.053  -3.747  1.00  0.00     0.074 A 
ATOM     46  C   UNL     1      -4.097  -1.951  -5.093  1.00  0.00     0.049 A 
ATOM     47  N   UNL     1      -5.840   0.118  -3.280  1.00  0.00    -0.248 NA
ATOM     48  C   UNL     1      -3.879   1.175  -3.932  1.00  0.00     0.031 C 
ATOM     49  C   UNL     1      -3.567  -3.231  -5.498  1.00  0.00     0.029 A 
ATOM     50  N   UNL     1      -4.692  -1.519  -6.262  1.00  0.00    -0.354 N 
ATOM     51  C   UNL     1      -6.085   1.463  -3.428  1.00  0.00     0.074 A 
ATOM     52  C   UNL     1      -4.787   2.080  -3.548  1.00  0.00     0.031 C 
ATOM     53  C   UNL     1      -3.621  -3.399  -6.841  1.00  0.00     0.029 A 
ATOM     54  C   UNL     1      -4.424  -2.314  -7.388  1.00  0.00     0.049 A 
ATOM     55  H   UNL     1      -5.259  -0.715  -6.303  1.00  0.00     0.167 HD
ATOM     56  C   UNL     1      -7.335   1.875  -3.769  1.00  0.00     0.037 A 
ATOM     57  C   UNL     1      -5.085  -2.407  -8.577  1.00  0.00     0.037 A 
ATOM     58  C   UNL     1      -8.301   0.796  -3.624  1.00  0.00     0.049 A 
ATOM     59  C   UNL     1      -6.485  -2.023  -8.306  1.00  0.00     0.074 A 
ATOM     60  C   UNL     1      -8.666  -0.056  -2.596  1.00  0.00     0.029 A 
ATOM     61  N   UNL     1      -8.764   0.198  -4.774  1.00  0.00    -0.354 N 
ATOM     62  N   UNL     1      -7.312  -2.746  -7.603  1.00  0.00    -0.248 NA
ATOM     63  C   UNL     1      -6.853  -0.630  -8.473  1.00  0.00     0.031 C 
ATOM     64  C   UNL     1      -8.936  -1.315  -3.213  1.00  0.00     0.029 A 
ATOM     65  C   UNL     1      -8.787  -1.164  -4.591  1.00  0.00     0.049 A 
ATOM     66  H   UNL     1      -9.035   0.670  -5.595  1.00  0.00     0.167 HD
ATOM     67  C   UNL     1      -8.038  -1.822  -6.870  1.00  0.00     0.074 A 
ATOM     68  C   UNL     1      -7.793  -0.543  -7.530  1.00  0.00     0.031 C 
ATOM     69  C   UNL     1      -8.552  -2.138  -5.645  1.00  0.00     0.037 A 
BRANCH  56  70
ATOM     70  C   UNL     1      -7.603   3.103  -4.602  1.00  0.00     0.058 A 
ATOM     71  C   UNL     1      -8.930   3.549  -4.741  1.00  0.00     0.135 A 
ATOM     72  C   UNL     1      -6.660   3.717  -5.459  1.00  0.00     0.135 A 
ATOM     73  F   UNL     1      -9.910   3.024  -3.988  1.00  0.00    -0.206 F 
ATOM     74  C   UNL     1      -9.303   4.485  -5.704  1.00  0.00     0.059 A 
ATOM     75  C   UNL     1      -6.999   4.697  -6.379  1.00  0.00     0.059 A 
ATOM     76  F   UNL     1      -5.381   3.334  -5.527  1.00  0.00    -0.206 F 
ATOM     77  C   UNL     1      -8.329   5.043  -6.526  1.00  0.00     0.060 A 
BRANCH  77  78
ATOM     78  S   UNL     1      -8.819   6.163  -7.843  1.00  0.00     0.124 S 
ATOM     79  O   UNL     1      -9.543   5.260  -8.730  1.00  0.00    -0.237 OA
ATOM     80  O   UNL     1      -9.627   7.139  -7.121  1.00  0.00    -0.237 OA
ATOM     81  O   UNL     1      -7.544   6.662  -8.350  1.00  0.00    -0.744 OA
ENDBRANCH  77  78
ENDBRANCH  56  70
BRANCH  57  82
ATOM     82  C   UNL     1      -4.541  -2.558  -9.961  1.00  0.00     0.058 A 
ATOM     83  C   UNL     1      -5.382  -2.771 -11.075  1.00  0.00     0.135 A 
ATOM     84  C   UNL     1      -3.207  -2.225 -10.260  1.00  0.00     0.135 A 
ATOM     85  F   UNL     1      -6.672  -3.095 -10.896  1.00  0.00    -0.206 F 
ATOM     86  C   UNL     1      -4.947  -2.592 -12.397  1.00  0.00     0.059 A 
ATOM     87  C   UNL     1      -2.750  -2.040 -11.571  1.00  0.00     0.059 A 
ATOM     88  F   UNL     1      -2.328  -1.988  -9.274  1.00  0.00    -0.206 F 
ATOM     89  C   UNL     1      -3.633  -2.196 -12.635  1.00  0.00     0.060 A 
BRANCH  89  90
ATOM     90  S   UNL     1      -3.121  -1.778 -14.323  1.00  0.00     0.124 S 
ATOM     91  O   UNL     1      -3.175  -3.075 -14.991  1.00  0.00    -0.237 OA
ATOM     92  O   UNL     1      -4.140  -0.814 -14.726  1.00  0.00    -0.237 OA
ATOM     93  O   UNL     1      -1.781  -1.224 -14.145  1.00  0.00    -0.744 OA
ENDBRANCH  89  90
ENDBRANCH  57  82
BRANCH  69  94
ATOM     94  C   UNL     1      -8.687  -3.602  -5.279  1.00  0.00     0.058 A 
ATOM     95  C   UNL     1      -7.614  -4.495  -5.108  1.00  0.00     0.135 A 
ATOM     96  C   UNL     1      -9.965  -4.087  -4.957  1.00  0.00     0.135 A 
ATOM     97  F   UNL     1      -6.352  -4.101  -5.318  1.00  0.00    -0.206 F 
ATOM     98  C   UNL     1      -7.801  -5.805  -4.651  1.00  0.00     0.059 A 
ATOM     99  C   UNL     1     -10.174  -5.379  -4.472  1.00  0.00     0.059 A 
ATOM    100  F   UNL     1     -11.034  -3.280  -5.061  1.00  0.00    -0.206 F 
ATOM    101  C   UNL     1      -9.086  -6.235  -4.323  1.00  0.00     0.060 A 
BRANCH 101 102
ATOM    102  S   UNL     1      -9.313  -7.888  -3.624  1.00  0.00     0.124 S 
ATOM    103  O   UNL     1      -9.004  -8.752  -4.758  1.00  0.00    -0.237 OA
ATOM    104  O   UNL     1      -8.344  -7.904  -2.532  1.00  0.00    -0.237 OA
ATOM    105  O   UNL     1     -10.712  -7.891  -3.202  1.00  0.00    -0.744 OA
ENDBRANCH 101 102
ENDBRANCH  69  94
ENDBRANCH  43  44
ENDBRANCH  36  38
ENDBRANCH  35  36
ENDBRANCH  34  35
ENDBRANCH  33  34
ENDBRANCH  32  33
ENDBRANCH  31  32
ENDBRANCH   1  31
TORSDOF 24
