REMARK SMILES Cc1ccc(Cl)c(Nc2ccccc2C(=O)NCC(=O)OCCOCCOCCOC(=O)c2ccc(-c3c4nc(c(-c5c(F)cc(S(=O)(=O)[O-])cc5F)c5ccc([nH]5)c(-c5c(F)cc(S(=O)(=O)[O-])cc5F)c5nc(c(-c6c(F)cc(S(=O)(=O)[O-])cc6F)c6ccc3[nH]6)C=C5)C=C4)cc2)c1Cl
REMARK SMILES IDX 25 1 24 2 23 3 22 4 21 5 19 6 20 7 18 8 17 9 15 10 16 11
REMARK SMILES IDX 14 13 9 14 10 15 11 16 13 17 12 18 8 19 7 21 1 22 2 23 3 24
REMARK SMILES IDX 99 25 4 26 100 27 5 28 6 29 26 30 27 31 28 32 29 33 30 34
REMARK SMILES IDX 31 35 32 36 33 37 34 38 98 39 35 40 97 41 36 42 37 43 38 44
REMARK SMILES IDX 91 45 39 46 96 47 90 48 92 49 40 50 95 51 89 52 88 53 41 55
REMARK SMILES IDX 75 56 54 57 74 58 55 59 58 60 73 61 93 62 56 63 57 64 72 66
REMARK SMILES IDX 94 67 59 68 42 69 43 70 52 71 44 72 45 73 51 74 53 75 46 76
REMARK SMILES IDX 47 77 48 78 49 79 50 80 76 81 77 82 86 83 78 84 79 85 85 86
REMARK SMILES IDX 87 87 80 88 81 89 82 90 83 91 84 92 60 93 61 94 70 95 62 96
REMARK SMILES IDX 63 97 69 98 71 99 64 100 65 101 66 102 67 103 68 104
REMARK H PARENT 17 12 8 20 92 54 58 65
REMARK Flexibility Score: inf
ROOT
ATOM      1  C   UNL     1      -3.313   0.175   2.669  1.00  0.00     0.188 C 
ENDROOT
BRANCH   1   2
ATOM      2  O   UNL     1      -4.417  -0.151   3.488  1.00  0.00    -0.376 OA
BRANCH   2   3
ATOM      3  C   UNL     1      -5.056  -1.413   3.326  1.00  0.00     0.202 C 
BRANCH   3   4
ATOM      4  C   UNL     1      -4.400  -2.581   2.574  1.00  0.00     0.261 C 
BRANCH   4   5
ATOM      5  O   UNL     1      -2.966  -2.585   2.586  1.00  0.00    -0.462 OA
BRANCH   5   6
ATOM      6  C   UNL     1      -2.450  -2.949   1.385  1.00  0.00     0.325 C 
ATOM      7  O   UNL     1      -3.108  -3.482   0.491  1.00  0.00    -0.250 OA
BRANCH   6   8
ATOM      8  C   UNL     1      -1.089  -2.362   1.080  1.00  0.00     0.239 C 
BRANCH   8   9
ATOM      9  N   UNL     1       0.068  -2.254   1.938  1.00  0.00    -0.341 N 
ATOM     10  C   UNL     1       1.381  -2.416   1.526  1.00  0.00     0.253 C 
ATOM     11  O   UNL     1       2.293  -1.998   2.238  1.00  0.00    -0.269 OA
ATOM     12  H   UNL     1      -0.088  -2.050   2.888  1.00  0.00     0.164 HD
BRANCH  10  13
ATOM     13  C   UNL     1       1.705  -3.300   0.361  1.00  0.00     0.063 A 
ATOM     14  C   UNL     1       1.190  -3.226  -0.954  1.00  0.00     0.051 A 
ATOM     15  C   UNL     1       1.354  -4.358  -1.781  1.00  0.00     0.027 A 
ATOM     16  C   UNL     1       2.075  -5.480  -1.366  1.00  0.00     0.002 A 
ATOM     17  C   UNL     1       2.495  -4.407   0.739  1.00  0.00     0.016 A 
ATOM     18  C   UNL     1       2.685  -5.486  -0.120  1.00  0.00     0.001 A 
BRANCH  14  19
ATOM     19  N   UNL     1       0.535  -2.127  -1.559  1.00  0.00    -0.352 N 
ATOM     20  H   UNL     1      -0.068  -2.393  -2.290  1.00  0.00     0.167 HD
BRANCH  19  21
ATOM     21  C   UNL     1       0.559  -0.726  -1.343  1.00  0.00     0.077 A 
ATOM     22  C   UNL     1       2.788   2.116  -0.042  1.00  0.00     0.046 C 
ATOM     23  C   UNL     1       1.597   1.355  -0.557  1.00  0.00    -0.030 A 
ATOM     24  C   UNL     1       0.366   2.018  -0.674  1.00  0.00     0.006 A 
ATOM     25  C   UNL     1       1.694  -0.007  -0.919  1.00  0.00     0.069 A 
ATOM     26  C   UNL     1      -0.750   1.349  -1.160  1.00  0.00     0.023 A 
ATOM     27  Cl  UNL     1       3.273  -0.736  -0.989  1.00  0.00    -0.082 Cl
ATOM     28  C   UNL     1      -0.651  -0.002  -1.493  1.00  0.00     0.066 A 
ATOM     29  Cl  UNL     1      -2.090  -0.789  -2.062  1.00  0.00    -0.082 Cl
ENDBRANCH  19  21
ENDBRANCH  14  19
ENDBRANCH  10  13
ENDBRANCH   8   9
ENDBRANCH   6   8
ENDBRANCH   5   6
ENDBRANCH   4   5
ENDBRANCH   3   4
ENDBRANCH   2   3
ENDBRANCH   1   2
BRANCH   1  30
ATOM     30  C   UNL     1      -1.953   0.111   3.389  1.00  0.00     0.188 C 
BRANCH  30  31
ATOM     31  O   UNL     1      -1.707  -0.827   4.426  1.00  0.00    -0.376 OA
BRANCH  31  32
ATOM     32  C   UNL     1      -2.566  -0.812   5.565  1.00  0.00     0.202 C 
BRANCH  32  33
ATOM     33  C   UNL     1      -2.908   0.492   6.325  1.00  0.00     0.261 C 
BRANCH  33  34
ATOM     34  O   UNL     1      -3.044   1.683   5.534  1.00  0.00    -0.460 OA
BRANCH  34  35
ATOM     35  C   UNL     1      -1.992   2.543   5.606  1.00  0.00     0.338 C 
ATOM     36  O   UNL     1      -1.010   2.442   6.316  1.00  0.00    -0.246 OA
BRANCH  35  37
ATOM     37  C   UNL     1      -2.091   3.526   4.503  1.00  0.00     0.060 A 
ATOM     38  C   UNL     1      -1.105   3.499   3.502  1.00  0.00     0.016 A 
ATOM     39  C   UNL     1      -3.106   4.480   4.469  1.00  0.00     0.016 A 
ATOM     40  C   UNL     1      -1.127   4.428   2.464  1.00  0.00     0.010 A 
ATOM     41  C   UNL     1      -3.101   5.440   3.451  1.00  0.00     0.010 A 
ATOM     42  C   UNL     1      -2.099   5.433   2.461  1.00  0.00    -0.014 A 
BRANCH  42  43
ATOM     43  C   UNL     1      -1.939   6.602   1.565  1.00  0.00     0.031 A 
ATOM     44  C   UNL     1      -1.271   7.829   2.120  1.00  0.00     0.074 A 
ATOM     45  C   UNL     1      -2.373   6.585   0.293  1.00  0.00     0.049 A 
ATOM     46  N   UNL     1      -1.130   9.013   1.585  1.00  0.00    -0.248 NA
ATOM     47  C   UNL     1      -0.690   7.699   3.465  1.00  0.00     0.031 C 
ATOM     48  C   UNL     1      -2.975   5.438  -0.382  1.00  0.00     0.029 A 
ATOM     49  N   UNL     1      -2.393   7.583  -0.651  1.00  0.00    -0.354 N 
ATOM     50  C   UNL     1      -0.469   9.778   2.539  1.00  0.00     0.074 A 
ATOM     51  C   UNL     1      -0.248   8.926   3.687  1.00  0.00     0.031 C 
ATOM     52  C   UNL     1      -3.340   5.807  -1.622  1.00  0.00     0.029 A 
ATOM     53  C   UNL     1      -3.037   7.227  -1.811  1.00  0.00     0.049 A 
ATOM     54  H   UNL     1      -1.985   8.467  -0.510  1.00  0.00     0.167 HD
ATOM     55  C   UNL     1      -0.088  11.075   2.466  1.00  0.00     0.037 A 
ATOM     56  C   UNL     1      -3.384   7.973  -2.880  1.00  0.00     0.037 A 
ATOM     57  C   UNL     1      -0.322  11.918   1.323  1.00  0.00     0.049 A 
ATOM     58  C   UNL     1      -3.020   9.436  -2.915  1.00  0.00     0.074 A 
ATOM     59  C   UNL     1       0.039  13.242   1.143  1.00  0.00     0.029 A 
ATOM     60  N   UNL     1      -0.994  11.527   0.174  1.00  0.00    -0.354 N 
ATOM     61  N   UNL     1      -2.388  10.151  -2.014  1.00  0.00    -0.248 NA
ATOM     62  C   UNL     1      -3.416  10.194  -4.111  1.00  0.00     0.031 C 
ATOM     63  C   UNL     1      -0.470  13.668  -0.088  1.00  0.00     0.029 A 
ATOM     64  C   UNL     1      -1.087  12.592  -0.707  1.00  0.00     0.049 A 
ATOM     65  H   UNL     1      -1.352  10.625   0.009  1.00  0.00     0.167 HD
ATOM     66  C   UNL     1      -2.286  11.435  -2.545  1.00  0.00     0.074 A 
ATOM     67  C   UNL     1      -2.917  11.395  -3.849  1.00  0.00     0.031 C 
ATOM     68  C   UNL     1      -1.717  12.542  -2.005  1.00  0.00     0.037 A 
BRANCH  55  69
ATOM     69  C   UNL     1       0.563  11.671   3.685  1.00  0.00     0.058 A 
ATOM     70  C   UNL     1       1.846  11.290   4.111  1.00  0.00     0.135 A 
ATOM     71  C   UNL     1      -0.118  12.635   4.446  1.00  0.00     0.135 A 
ATOM     72  F   UNL     1       2.535  10.358   3.432  1.00  0.00    -0.206 F 
ATOM     73  C   UNL     1       2.410  11.808   5.272  1.00  0.00     0.059 A 
ATOM     74  C   UNL     1       0.440  13.192   5.592  1.00  0.00     0.059 A 
ATOM     75  F   UNL     1      -1.348  13.035   4.087  1.00  0.00    -0.206 F 
ATOM     76  C   UNL     1       1.696  12.755   6.009  1.00  0.00     0.060 A 
BRANCH  76  77
ATOM     77  S   UNL     1       2.428  13.398   7.529  1.00  0.00     0.124 S 
ATOM     78  O   UNL     1       2.306  12.247   8.419  1.00  0.00    -0.237 OA
ATOM     79  O   UNL     1       3.784  13.731   7.106  1.00  0.00    -0.237 OA
ATOM     80  O   UNL     1       1.579  14.538   7.859  1.00  0.00    -0.744 OA
ENDBRANCH  76  77
ENDBRANCH  55  69
BRANCH  56  81
ATOM     81  C   UNL     1      -4.146   7.347  -3.995  1.00  0.00     0.058 A 
ATOM     82  C   UNL     1      -3.554   7.126  -5.247  1.00  0.00     0.135 A 
ATOM     83  C   UNL     1      -5.474   6.927  -3.817  1.00  0.00     0.135 A 
ATOM     84  F   UNL     1      -2.294   7.526  -5.473  1.00  0.00    -0.206 F 
ATOM     85  C   UNL     1      -4.248   6.504  -6.280  1.00  0.00     0.059 A 
ATOM     86  C   UNL     1      -6.179   6.280  -4.826  1.00  0.00     0.059 A 
ATOM     87  F   UNL     1      -6.085   7.112  -2.636  1.00  0.00    -0.206 F 
ATOM     88  C   UNL     1      -5.556   6.072  -6.055  1.00  0.00     0.060 A 
BRANCH  88  89
ATOM     89  S   UNL     1      -6.410   5.177  -7.372  1.00  0.00     0.124 S 
ATOM     90  O   UNL     1      -6.654   6.239  -8.341  1.00  0.00    -0.237 OA
ATOM     91  O   UNL     1      -5.416   4.178  -7.752  1.00  0.00    -0.237 OA
ATOM     92  O   UNL     1      -7.595   4.647  -6.703  1.00  0.00    -0.744 OA
ENDBRANCH  88  89
ENDBRANCH  56  81
BRANCH  68  93
ATOM     93  C   UNL     1      -1.705  13.802  -2.832  1.00  0.00     0.058 A 
ATOM     94  C   UNL     1      -2.869  14.550  -3.069  1.00  0.00     0.135 A 
ATOM     95  C   UNL     1      -0.493  14.304  -3.337  1.00  0.00     0.135 A 
ATOM     96  F   UNL     1      -4.055  14.115  -2.615  1.00  0.00    -0.206 F 
ATOM     97  C   UNL     1      -2.835  15.738  -3.793  1.00  0.00     0.059 A 
ATOM     98  C   UNL     1      -0.431  15.505  -4.036  1.00  0.00     0.059 A 
ATOM     99  F   UNL     1       0.654  13.637  -3.130  1.00  0.00    -0.206 F 
ATOM    100  C   UNL     1      -1.610  16.210  -4.269  1.00  0.00     0.060 A 
BRANCH 100 101
ATOM    101  S   UNL     1      -1.576  17.773  -5.175  1.00  0.00     0.124 S 
ATOM    102  O   UNL     1      -2.195  17.393  -6.441  1.00  0.00    -0.237 OA
ATOM    103  O   UNL     1      -2.369  18.648  -4.318  1.00  0.00    -0.237 OA
ATOM    104  O   UNL     1      -0.153  18.095  -5.244  1.00  0.00    -0.744 OA
ENDBRANCH 100 101
ENDBRANCH  68  93
ENDBRANCH  42  43
ENDBRANCH  35  37
ENDBRANCH  34  35
ENDBRANCH  33  34
ENDBRANCH  32  33
ENDBRANCH  31  32
ENDBRANCH  30  31
ENDBRANCH   1  30
TORSDOF 24
