REMARK SMILES O=C(C[C@H]1CN(S(=O)(=O)N2CCCCC2)CCO1)OCCOCCOCCOC(=O)c1ccc(-c2c3nc(c(-c4c(F)cc(S(=O)(=O)[O-])cc4F)c4ccc([nH]4)c(-c4c(F)cc(S(=O)(=O)[O-])cc4F)c4nc(c(-c5c(F)cc(S(=O)(=O)[O-])cc5F)c5ccc2[nH]5)C=C4)C=C3)cc1
REMARK SMILES IDX 23 1 22 2 21 3 20 4 19 5 2 6 1 7 3 8 4 9 5 10 18 11 6 12
REMARK SMILES IDX 17 13 16 14 7 15 8 16 9 17 10 18 11 19 15 20 12 21 14 22
REMARK SMILES IDX 13 23 24 24 25 25 26 26 27 27 28 28 29 29 30 30 31 31 32 32
REMARK SMILES IDX 96 33 33 34 95 35 34 36 35 37 36 38 89 39 37 40 94 41 88 42
REMARK SMILES IDX 90 43 38 44 93 45 87 46 86 47 39 49 73 50 52 51 72 52 53 53
REMARK SMILES IDX 56 54 71 55 91 56 54 57 55 58 70 60 92 61 57 62 40 63 41 64
REMARK SMILES IDX 50 65 42 66 43 67 49 68 51 69 44 70 45 71 46 72 47 73 48 74
REMARK SMILES IDX 74 75 75 76 84 77 76 78 77 79 83 80 85 81 78 82 79 83 80 84
REMARK SMILES IDX 81 85 82 86 58 87 59 88 68 89 60 90 61 91 67 92 69 93 62 94
REMARK SMILES IDX 63 95 64 96 65 97 66 98
REMARK H PARENT 90 48 56 59
REMARK Flexibility Score: inf
ROOT
ATOM      1  C   UNL     1       6.349   0.690  -0.887  1.00  0.00     0.188 C 
ENDROOT
BRANCH   1   2
ATOM      2  O   UNL     1       5.201  -0.158  -0.755  1.00  0.00    -0.376 OA
BRANCH   2   3
ATOM      3  C   UNL     1       4.049   0.302  -1.440  1.00  0.00     0.202 C 
BRANCH   3   4
ATOM      4  C   UNL     1       3.063   0.964  -0.483  1.00  0.00     0.261 C 
BRANCH   4   5
ATOM      5  O   UNL     1       3.637   2.050   0.261  1.00  0.00    -0.463 OA
BRANCH   5   6
ATOM      6  C   UNL     1       4.387   2.005   1.383  1.00  0.00     0.308 C 
ATOM      7  O   UNL     1       4.965   3.041   1.718  1.00  0.00    -0.252 OA
BRANCH   6   8
ATOM      8  C   UNL     1       4.622   0.728   2.169  1.00  0.00     0.156 C 
BRANCH   8   9
ATOM      9  C   UNL     1       3.410  -0.035   2.707  1.00  0.00     0.144 C 
ATOM     10  C   UNL     1       3.213  -1.456   2.109  1.00  0.00     0.136 C 
ATOM     11  O   UNL     1       3.417  -0.069   4.142  1.00  0.00    -0.375 OA
ATOM     12  N   UNL     1       3.945  -2.592   2.750  1.00  0.00    -0.184 NA
ATOM     13  C   UNL     1       4.362  -1.020   4.654  1.00  0.00     0.177 C 
ATOM     14  C   UNL     1       3.958  -2.434   4.244  1.00  0.00     0.132 C 
BRANCH  12  15
ATOM     15  S   UNL     1       5.365  -3.211   2.064  1.00  0.00     0.282 S 
ATOM     16  O   UNL     1       6.185  -2.089   1.688  1.00  0.00    -0.195 OA
ATOM     17  O   UNL     1       5.871  -4.227   2.963  1.00  0.00    -0.195 OA
BRANCH  15  18
ATOM     18  N   UNL     1       4.865  -4.014   0.658  1.00  0.00    -0.189 NA
ATOM     19  C   UNL     1       4.441  -5.420   0.746  1.00  0.00     0.103 C 
ATOM     20  C   UNL     1       4.424  -3.228  -0.497  1.00  0.00     0.103 C 
ATOM     21  C   UNL     1       4.576  -6.103  -0.616  1.00  0.00     0.017 C 
ATOM     22  C   UNL     1       4.225  -3.983  -1.808  1.00  0.00     0.017 C 
ATOM     23  C   UNL     1       3.706  -5.393  -1.637  1.00  0.00     0.003 C 
ENDBRANCH  15  18
ENDBRANCH  12  15
ENDBRANCH   8   9
ENDBRANCH   6   8
ENDBRANCH   5   6
ENDBRANCH   4   5
ENDBRANCH   3   4
ENDBRANCH   2   3
ENDBRANCH   1   2
BRANCH   1  24
ATOM     24  C   UNL     1       7.508  -0.092  -1.491  1.00  0.00     0.188 C 
BRANCH  24  25
ATOM     25  O   UNL     1       7.329  -0.423  -2.869  1.00  0.00    -0.376 OA
BRANCH  25  26
ATOM     26  C   UNL     1       6.765  -1.712  -3.112  1.00  0.00     0.202 C 
BRANCH  26  27
ATOM     27  C   UNL     1       7.717  -2.907  -2.912  1.00  0.00     0.261 C 
BRANCH  27  28
ATOM     28  O   UNL     1       7.997  -3.186  -1.523  1.00  0.00    -0.460 OA
BRANCH  28  29
ATOM     29  C   UNL     1       9.248  -2.842  -1.125  1.00  0.00     0.338 C 
ATOM     30  O   UNL     1      10.137  -2.405  -1.841  1.00  0.00    -0.246 OA
BRANCH  29  31
ATOM     31  C   UNL     1       9.402  -2.882   0.343  1.00  0.00     0.060 A 
ATOM     32  C   UNL     1       9.838  -1.703   0.960  1.00  0.00     0.016 A 
ATOM     33  C   UNL     1       9.314  -4.068   1.075  1.00  0.00     0.016 A 
ATOM     34  C   UNL     1      10.277  -1.724   2.281  1.00  0.00     0.010 A 
ATOM     35  C   UNL     1       9.754  -4.085   2.409  1.00  0.00     0.010 A 
ATOM     36  C   UNL     1      10.296  -2.928   2.998  1.00  0.00    -0.014 A 
BRANCH  36  37
ATOM     37  C   UNL     1      11.042  -2.967   4.286  1.00  0.00     0.031 A 
ATOM     38  C   UNL     1      12.424  -3.574   4.323  1.00  0.00     0.074 A 
ATOM     39  C   UNL     1      10.547  -2.363   5.382  1.00  0.00     0.049 A 
ATOM     40  N   UNL     1      13.282  -3.631   5.311  1.00  0.00    -0.248 NA
ATOM     41  C   UNL     1      12.907  -4.195   3.079  1.00  0.00     0.031 C 
ATOM     42  C   UNL     1       9.239  -1.712   5.466  1.00  0.00     0.029 A 
ATOM     43  N   UNL     1      11.092  -2.184   6.630  1.00  0.00    -0.354 N 
ATOM     44  C   UNL     1      14.405  -4.279   4.807  1.00  0.00     0.074 A 
ATOM     45  C   UNL     1      14.101  -4.642   3.440  1.00  0.00     0.031 C 
ATOM     46  C   UNL     1       9.084  -1.204   6.700  1.00  0.00     0.029 A 
ATOM     47  C   UNL     1      10.268  -1.512   7.501  1.00  0.00     0.049 A 
ATOM     48  H   UNL     1      11.989  -2.506   6.877  1.00  0.00     0.167 HD
ATOM     49  C   UNL     1      15.589  -4.531   5.418  1.00  0.00     0.037 A 
ATOM     50  C   UNL     1      10.442  -1.194   8.800  1.00  0.00     0.037 A 
ATOM     51  C   UNL     1      15.888  -4.175   6.783  1.00  0.00     0.049 A 
ATOM     52  C   UNL     1      11.746  -1.536   9.476  1.00  0.00     0.074 A 
ATOM     53  C   UNL     1      17.055  -4.391   7.495  1.00  0.00     0.029 A 
ATOM     54  N   UNL     1      15.012  -3.530   7.644  1.00  0.00    -0.354 N 
ATOM     55  N   UNL     1      12.804  -2.133   8.979  1.00  0.00    -0.248 NA
ATOM     56  C   UNL     1      11.885  -1.146  10.885  1.00  0.00     0.031 C 
ATOM     57  C   UNL     1      16.867  -3.924   8.800  1.00  0.00     0.029 A 
ATOM     58  C   UNL     1      15.605  -3.360   8.886  1.00  0.00     0.049 A 
ATOM     59  H   UNL     1      14.102  -3.236   7.409  1.00  0.00     0.167 HD
ATOM     60  C   UNL     1      13.740  -2.172  10.008  1.00  0.00     0.074 A 
ATOM     61  C   UNL     1      13.133  -1.511  11.145  1.00  0.00     0.031 C 
ATOM     62  C   UNL     1      14.987  -2.708  10.015  1.00  0.00     0.037 A 
BRANCH  49  63
ATOM     63  C   UNL     1      16.655  -5.237   4.618  1.00  0.00     0.058 A 
ATOM     64  C   UNL     1      17.325  -4.604   3.558  1.00  0.00     0.135 A 
ATOM     65  C   UNL     1      17.047  -6.546   4.945  1.00  0.00     0.135 A 
ATOM     66  F   UNL     1      16.983  -3.359   3.190  1.00  0.00    -0.206 F 
ATOM     67  C   UNL     1      18.328  -5.248   2.839  1.00  0.00     0.059 A 
ATOM     68  C   UNL     1      18.068  -7.199   4.259  1.00  0.00     0.059 A 
ATOM     69  F   UNL     1      16.443  -7.202   5.948  1.00  0.00    -0.206 F 
ATOM     70  C   UNL     1      18.695  -6.546   3.200  1.00  0.00     0.060 A 
BRANCH  70  71
ATOM     71  S   UNL     1      20.011  -7.360   2.268  1.00  0.00     0.124 S 
ATOM     72  O   UNL     1      19.359  -7.597   0.984  1.00  0.00    -0.237 OA
ATOM     73  O   UNL     1      21.063  -6.348   2.267  1.00  0.00    -0.237 OA
ATOM     74  O   UNL     1      20.297  -8.556   3.055  1.00  0.00    -0.744 OA
ENDBRANCH  70  71
ENDBRANCH  49  63
BRANCH  50  75
ATOM     75  C   UNL     1       9.342  -0.532   9.556  1.00  0.00     0.058 A 
ATOM     76  C   UNL     1       9.461   0.780  10.038  1.00  0.00     0.135 A 
ATOM     77  C   UNL     1       8.145  -1.217   9.823  1.00  0.00     0.135 A 
ATOM     78  F   UNL     1      10.589   1.474   9.821  1.00  0.00    -0.206 F 
ATOM     79  C   UNL     1       8.445   1.382  10.776  1.00  0.00     0.059 A 
ATOM     80  C   UNL     1       7.104  -0.626  10.530  1.00  0.00     0.059 A 
ATOM     81  F   UNL     1       7.972  -2.471   9.377  1.00  0.00    -0.206 F 
ATOM     82  C   UNL     1       7.268   0.670  11.015  1.00  0.00     0.060 A 
BRANCH  82  83
ATOM     83  S   UNL     1       5.940   1.468  11.941  1.00  0.00     0.124 S 
ATOM     84  O   UNL     1       6.485   1.473  13.293  1.00  0.00    -0.237 OA
ATOM     85  O   UNL     1       5.846   2.768  11.284  1.00  0.00    -0.237 OA
ATOM     86  O   UNL     1       4.800   0.582  11.723  1.00  0.00    -0.744 OA
ENDBRANCH  82  83
ENDBRANCH  50  75
BRANCH  62  87
ATOM     87  C   UNL     1      15.786  -2.578  11.287  1.00  0.00     0.058 A 
ATOM     88  C   UNL     1      15.436  -3.273  12.457  1.00  0.00     0.135 A 
ATOM     89  C   UNL     1      16.922  -1.752  11.336  1.00  0.00     0.135 A 
ATOM     90  F   UNL     1      14.361  -4.077  12.469  1.00  0.00    -0.206 F 
ATOM     91  C   UNL     1      16.150  -3.113  13.641  1.00  0.00     0.059 A 
ATOM     92  C   UNL     1      17.671  -1.605  12.500  1.00  0.00     0.059 A 
ATOM     93  F   UNL     1      17.316  -1.077  10.245  1.00  0.00    -0.206 F 
ATOM     94  C   UNL     1      17.263  -2.271  13.654  1.00  0.00     0.060 A 
BRANCH  94  95
ATOM     95  S   UNL     1      18.171  -2.060  15.201  1.00  0.00     0.124 S 
ATOM     96  O   UNL     1      17.250  -1.230  15.971  1.00  0.00    -0.237 OA
ATOM     97  O   UNL     1      18.323  -3.436  15.665  1.00  0.00    -0.237 OA
ATOM     98  O   UNL     1      19.407  -1.405  14.784  1.00  0.00    -0.744 OA
ENDBRANCH  94  95
ENDBRANCH  62  87
ENDBRANCH  36  37
ENDBRANCH  29  31
ENDBRANCH  28  29
ENDBRANCH  27  28
ENDBRANCH  26  27
ENDBRANCH  25  26
ENDBRANCH  24  25
ENDBRANCH   1  24
TORSDOF 23
