REMARK SMILES O=C(CCC(=O)OCCOCCOCCOC(=O)c1ccc(-c2c3nc(c(-c4c(F)cc(S(=O)(=O)[O-])cc4F)c4ccc([nH]4)c(-c4c(F)cc(S(=O)(=O)[O-])cc4F)c4nc(c(-c5c(F)cc(S(=O)(=O)[O-])cc5F)c5ccc2[nH]5)C=C4)C=C3)cc1)Nc1ccc(C(=O)N2CCOCC2)cc1
REMARK SMILES IDX 11 1 10 2 9 3 8 4 7 5 5 6 6 7 4 8 3 9 2 10 1 11 85 12 86 14
REMARK SMILES IDX 87 15 99 16 88 17 98 18 89 19 90 20 91 21 92 22 93 23 97 24
REMARK SMILES IDX 94 25 96 26 95 27 12 28 13 29 14 30 15 31 16 32 17 33 18 34
REMARK SMILES IDX 19 35 20 36 84 37 21 38 83 39 22 40 23 41 24 42 77 43 25 44
REMARK SMILES IDX 82 45 76 46 78 47 26 48 81 49 75 50 74 51 27 53 61 54 40 55
REMARK SMILES IDX 60 56 41 57 44 58 59 59 79 60 42 61 43 62 58 64 80 65 45 66
REMARK SMILES IDX 28 67 29 68 38 69 30 70 31 71 37 72 39 73 32 74 33 75 34 76
REMARK SMILES IDX 35 77 36 78 62 79 63 80 72 81 64 82 65 83 71 84 73 85 66 86
REMARK SMILES IDX 67 87 68 88 69 89 70 90 46 91 47 92 56 93 48 94 49 95 55 96
REMARK SMILES IDX 57 97 50 98 51 99 52 100 53 101 54 102
REMARK H PARENT 85 13 78 52 44 63
REMARK Flexibility Score: inf
ROOT
ATOM      1  C   UNL     1       6.787  -0.358   0.085  1.00  0.00     0.188 C 
ENDROOT
BRANCH   1   2
ATOM      2  O   UNL     1       7.573  -0.236  -1.096  1.00  0.00    -0.376 OA
BRANCH   2   3
ATOM      3  C   UNL     1       6.875   0.093  -2.297  1.00  0.00     0.202 C 
BRANCH   3   4
ATOM      4  C   UNL     1       5.748  -0.875  -2.689  1.00  0.00     0.261 C 
BRANCH   4   5
ATOM      5  O   UNL     1       4.705  -0.969  -1.684  1.00  0.00    -0.463 OA
BRANCH   5   6
ATOM      6  C   UNL     1       4.255  -2.224  -1.409  1.00  0.00     0.306 C 
ATOM      7  O   UNL     1       4.579  -3.218  -2.047  1.00  0.00    -0.252 OA
BRANCH   6   8
ATOM      8  C   UNL     1       3.377  -2.328  -0.171  1.00  0.00     0.132 C 
BRANCH   8   9
ATOM      9  C   UNL     1       2.778  -1.105   0.514  1.00  0.00     0.112 C 
BRANCH   9  10
ATOM     10  C   UNL     1       1.849  -0.252  -0.320  1.00  0.00     0.224 C 
ATOM     11  O   UNL     1       0.647  -0.202  -0.076  1.00  0.00    -0.275 OA
ATOM     12  N   UNL     1       2.495   0.426  -1.330  1.00  0.00    -0.326 N 
ATOM     13  H   UNL     1       3.467   0.293  -1.408  1.00  0.00     0.169 HD
BRANCH  12  14
ATOM     14  C   UNL     1       1.896   1.286  -2.253  1.00  0.00     0.041 A 
ATOM     15  C   UNL     1       2.444   1.353  -3.537  1.00  0.00     0.027 A 
ATOM     16  C   UNL     1       0.771   2.036  -1.939  1.00  0.00     0.027 A 
ATOM     17  C   UNL     1       1.813   2.101  -4.533  1.00  0.00     0.016 A 
ATOM     18  C   UNL     1       0.154   2.797  -2.925  1.00  0.00     0.016 A 
ATOM     19  C   UNL     1       0.655   2.824  -4.233  1.00  0.00     0.040 A 
BRANCH  19  20
ATOM     20  C   UNL     1      -0.141   3.407  -5.351  1.00  0.00     0.254 C 
ATOM     21  O   UNL     1       0.038   2.994  -6.494  1.00  0.00    -0.269 OA
ATOM     22  N   UNL     1      -1.196   4.232  -5.020  1.00  0.00    -0.334 N 
ATOM     23  C   UNL     1      -1.096   5.465  -4.237  1.00  0.00     0.148 C 
ATOM     24  C   UNL     1      -2.504   3.974  -5.600  1.00  0.00     0.148 C 
ATOM     25  C   UNL     1      -2.256   5.588  -3.235  1.00  0.00     0.181 C 
ATOM     26  C   UNL     1      -3.541   4.021  -4.475  1.00  0.00     0.181 C 
ATOM     27  O   UNL     1      -3.531   5.316  -3.843  1.00  0.00    -0.378 OA
ENDBRANCH  19  20
ENDBRANCH  12  14
ENDBRANCH   9  10
ENDBRANCH   8   9
ENDBRANCH   6   8
ENDBRANCH   5   6
ENDBRANCH   4   5
ENDBRANCH   3   4
ENDBRANCH   2   3
ENDBRANCH   1   2
BRANCH   1  28
ATOM     28  C   UNL     1       6.070   0.923   0.514  1.00  0.00     0.188 C 
BRANCH  28  29
ATOM     29  O   UNL     1       5.408   1.646  -0.516  1.00  0.00    -0.376 OA
BRANCH  29  30
ATOM     30  C   UNL     1       5.027   2.990  -0.187  1.00  0.00     0.202 C 
BRANCH  30  31
ATOM     31  C   UNL     1       6.141   3.946   0.316  1.00  0.00     0.261 C 
BRANCH  31  32
ATOM     32  O   UNL     1       6.831   3.559   1.527  1.00  0.00    -0.460 OA
BRANCH  32  33
ATOM     33  C   UNL     1       6.067   3.241   2.604  1.00  0.00     0.338 C 
ATOM     34  O   UNL     1       4.891   3.496   2.739  1.00  0.00    -0.246 OA
BRANCH  33  35
ATOM     35  C   UNL     1       6.816   2.267   3.459  1.00  0.00     0.060 A 
ATOM     36  C   UNL     1       6.094   1.188   3.990  1.00  0.00     0.016 A 
ATOM     37  C   UNL     1       8.194   2.345   3.681  1.00  0.00     0.016 A 
ATOM     38  C   UNL     1       6.728   0.227   4.785  1.00  0.00     0.010 A 
ATOM     39  C   UNL     1       8.828   1.386   4.491  1.00  0.00     0.010 A 
ATOM     40  C   UNL     1       8.091   0.344   5.083  1.00  0.00    -0.014 A 
BRANCH  40  41
ATOM     41  C   UNL     1       8.674  -0.501   6.165  1.00  0.00     0.031 A 
ATOM     42  C   UNL     1       8.829   0.100   7.541  1.00  0.00     0.074 A 
ATOM     43  C   UNL     1       8.996  -1.794   5.970  1.00  0.00     0.049 A 
ATOM     44  N   UNL     1       9.245  -0.452   8.652  1.00  0.00    -0.248 NA
ATOM     45  C   UNL     1       8.462   1.518   7.679  1.00  0.00     0.031 C 
ATOM     46  C   UNL     1       8.867  -2.519   4.707  1.00  0.00     0.029 A 
ATOM     47  N   UNL     1       9.492  -2.733   6.845  1.00  0.00    -0.354 N 
ATOM     48  C   UNL     1       9.197   0.549   9.617  1.00  0.00     0.074 A 
ATOM     49  C   UNL     1       8.746   1.752   8.951  1.00  0.00     0.031 C 
ATOM     50  C   UNL     1       9.261  -3.792   4.892  1.00  0.00     0.029 A 
ATOM     51  C   UNL     1       9.695  -3.970   6.278  1.00  0.00     0.049 A 
ATOM     52  H   UNL     1       9.683  -2.538   7.790  1.00  0.00     0.167 HD
ATOM     53  C   UNL     1       9.492   0.478  10.938  1.00  0.00     0.037 A 
ATOM     54  C   UNL     1      10.177  -5.112   6.813  1.00  0.00     0.037 A 
ATOM     55  C   UNL     1       9.945  -0.715  11.606  1.00  0.00     0.049 A 
ATOM     56  C   UNL     1      10.559  -5.151   8.273  1.00  0.00     0.074 A 
ATOM     57  C   UNL     1      10.235  -0.892  12.948  1.00  0.00     0.029 A 
ATOM     58  N   UNL     1      10.190  -1.931  10.984  1.00  0.00    -0.354 N 
ATOM     59  N   UNL     1      10.467  -4.207   9.180  1.00  0.00    -0.248 NA
ATOM     60  C   UNL     1      11.101  -6.420   8.782  1.00  0.00     0.031 C 
ATOM     61  C   UNL     1      10.721  -2.192  13.125  1.00  0.00     0.029 A 
ATOM     62  C   UNL     1      10.664  -2.850  11.908  1.00  0.00     0.049 A 
ATOM     63  H   UNL     1      10.049  -2.114  10.027  1.00  0.00     0.167 HD
ATOM     64  C   UNL     1      10.907  -4.779  10.373  1.00  0.00     0.074 A 
ATOM     65  C   UNL     1      11.249  -6.154  10.072  1.00  0.00     0.031 C 
ATOM     66  C   UNL     1      11.013  -4.217  11.605  1.00  0.00     0.037 A 
BRANCH  53  67
ATOM     67  C   UNL     1       9.377   1.748  11.742  1.00  0.00     0.058 A 
ATOM     68  C   UNL     1       8.138   2.348  12.021  1.00  0.00     0.135 A 
ATOM     69  C   UNL     1      10.530   2.368  12.251  1.00  0.00     0.135 A 
ATOM     70  F   UNL     1       7.003   1.810  11.546  1.00  0.00    -0.206 F 
ATOM     71  C   UNL     1       8.050   3.538  12.738  1.00  0.00     0.059 A 
ATOM     72  C   UNL     1      10.464   3.539  12.999  1.00  0.00     0.059 A 
ATOM     73  F   UNL     1      11.742   1.839  12.017  1.00  0.00    -0.206 F 
ATOM     74  C   UNL     1       9.220   4.127  13.220  1.00  0.00     0.060 A 
BRANCH  74  75
ATOM     75  S   UNL     1       9.092   5.681  14.131  1.00  0.00     0.124 S 
ATOM     76  O   UNL     1       8.747   6.615  13.064  1.00  0.00    -0.237 OA
ATOM     77  O   UNL     1       8.030   5.393  15.089  1.00  0.00    -0.237 OA
ATOM     78  O   UNL     1      10.423   5.849  14.706  1.00  0.00    -0.744 OA
ENDBRANCH  74  75
ENDBRANCH  53  67
BRANCH  54  79
ATOM     79  C   UNL     1      10.314  -6.335   5.970  1.00  0.00     0.058 A 
ATOM     80  C   UNL     1       9.508  -7.463   6.194  1.00  0.00     0.135 A 
ATOM     81  C   UNL     1      11.260  -6.406   4.936  1.00  0.00     0.135 A 
ATOM     82  F   UNL     1       8.603  -7.454   7.184  1.00  0.00    -0.206 F 
ATOM     83  C   UNL     1       9.640  -8.618   5.430  1.00  0.00     0.059 A 
ATOM     84  C   UNL     1      11.391  -7.540   4.140  1.00  0.00     0.059 A 
ATOM     85  F   UNL     1      12.056  -5.356   4.680  1.00  0.00    -0.206 F 
ATOM     86  C   UNL     1      10.581  -8.644   4.399  1.00  0.00     0.060 A 
BRANCH  86  87
ATOM     87  S   UNL     1      10.695 -10.125   3.370  1.00  0.00     0.124 S 
ATOM     88  O   UNL     1      11.293 -11.081   4.295  1.00  0.00    -0.237 OA
ATOM     89  O   UNL     1       9.298 -10.361   3.022  1.00  0.00    -0.237 OA
ATOM     90  O   UNL     1      11.547  -9.700   2.264  1.00  0.00    -0.744 OA
ENDBRANCH  86  87
ENDBRANCH  54  79
BRANCH  66  91
ATOM     91  C   UNL     1      11.480  -5.103  12.734  1.00  0.00     0.058 A 
ATOM     92  C   UNL     1      12.793  -5.598  12.800  1.00  0.00     0.135 A 
ATOM     93  C   UNL     1      10.600  -5.457  13.770  1.00  0.00     0.135 A 
ATOM     94  F   UNL     1      13.680  -5.292  11.841  1.00  0.00    -0.206 F 
ATOM     95  C   UNL     1      13.198  -6.457  13.819  1.00  0.00     0.059 A 
ATOM     96  C   UNL     1      10.993  -6.285  14.818  1.00  0.00     0.059 A 
ATOM     97  F   UNL     1       9.338  -4.999  13.774  1.00  0.00    -0.206 F 
ATOM     98  C   UNL     1      12.288  -6.801  14.820  1.00  0.00     0.060 A 
BRANCH  98  99
ATOM     99  S   UNL     1      12.816  -7.934  16.123  1.00  0.00     0.124 S 
ATOM    100  O   UNL     1      12.848  -9.207  15.409  1.00  0.00    -0.237 OA
ATOM    101  O   UNL     1      14.115  -7.389  16.504  1.00  0.00    -0.237 OA
ATOM    102  O   UNL     1      11.769  -7.806  17.131  1.00  0.00    -0.744 OA
ENDBRANCH  98  99
ENDBRANCH  66  91
ENDBRANCH  40  41
ENDBRANCH  33  35
ENDBRANCH  32  33
ENDBRANCH  31  32
ENDBRANCH  30  31
ENDBRANCH  29  30
ENDBRANCH  28  29
ENDBRANCH   1  28
TORSDOF 24
