REMARK SMILES Cc1[nH]c2ccccc2c1[C@H](C(=O)OCCOCCOCCOC(=O)c1ccc(-c2c3nc(c(-c4c(F)cc(S(=O)(=O)[O-])cc4F)c4ccc([nH]4)c(-c4c(F)cc(S(=O)(=O)[O-])cc4F)c4nc(c(-c5c(F)cc(S(=O)(=O)[O-])cc5F)c5ccc2[nH]5)C=C4)C=C3)cc1)[NH+]1CCN(C(=O)c2ccco2)CC1
REMARK SMILES IDX 19 1 18 2 17 3 16 4 15 5 14 6 12 7 13 8 11 9 10 10 1 11 2 12
REMARK SMILES IDX 3 13 4 14 9 16 5 17 8 18 6 19 7 20 92 21 93 22 104 23 94 25
REMARK SMILES IDX 103 26 95 27 96 28 97 29 98 30 99 31 102 32 100 33 101 34
REMARK SMILES IDX 20 35 21 36 22 37 23 38 24 39 25 40 26 41 27 42 91 43 28 44
REMARK SMILES IDX 90 45 29 46 30 47 31 48 84 49 32 50 89 51 83 52 85 53 33 54
REMARK SMILES IDX 88 55 82 56 81 57 34 59 68 60 47 61 67 62 48 63 51 64 66 65
REMARK SMILES IDX 86 66 49 67 50 68 65 70 87 71 52 72 35 73 36 74 45 75 37 76
REMARK SMILES IDX 38 77 44 78 46 79 39 80 40 81 41 82 42 83 43 84 69 85 70 86
REMARK SMILES IDX 79 87 71 88 72 89 78 90 80 91 73 92 74 93 75 94 76 95 77 96
REMARK SMILES IDX 53 97 54 98 63 99 55 100 56 101 62 102 64 103 57 104 58 105
REMARK SMILES IDX 59 106 60 107 61 108
REMARK H PARENT 3 15 92 24 85 58 51 69
REMARK Flexibility Score: inf
ROOT
ATOM      1  C   UNL     1      -1.319   0.345  -2.484  1.00  0.00     0.188 C 
ENDROOT
BRANCH   1   2
ATOM      2  C   UNL     1      -0.922   1.356  -1.393  1.00  0.00     0.188 C 
BRANCH   2   3
ATOM      3  O   UNL     1       0.437   1.713  -1.195  1.00  0.00    -0.376 OA
BRANCH   3   4
ATOM      4  C   UNL     1       1.447   0.721  -1.105  1.00  0.00     0.202 C 
BRANCH   4   5
ATOM      5  C   UNL     1       1.420  -0.179   0.125  1.00  0.00     0.261 C 
BRANCH   5   6
ATOM      6  O   UNL     1       0.759  -1.435  -0.135  1.00  0.00    -0.459 OA
BRANCH   6   7
ATOM      7  C   UNL     1      -0.512  -1.568   0.311  1.00  0.00     0.370 C 
ATOM      8  O   UNL     1      -1.131  -0.667   0.871  1.00  0.00    -0.245 OA
BRANCH   7   9
ATOM      9  C   UNL     1      -1.081  -2.980   0.208  1.00  0.00     0.328 C 
BRANCH   9  10
ATOM     10  C   UNL     1      -0.758  -3.866  -1.025  1.00  0.00     0.049 A 
ATOM     11  C   UNL     1       0.744  -2.496  -2.771  1.00  0.00     0.065 C 
ATOM     12  C   UNL     1      -0.060  -3.609  -2.215  1.00  0.00     0.022 A 
ATOM     13  N   UNL     1      -0.215  -4.679  -3.055  1.00  0.00    -0.358 N 
ATOM     14  C   UNL     1      -0.930  -5.675  -2.469  1.00  0.00     0.046 A 
ATOM     15  H   UNL     1       0.146  -4.722  -3.970  1.00  0.00     0.166 HD
ATOM     16  C   UNL     1      -1.308  -5.211  -1.212  1.00  0.00     0.009 A 
ATOM     17  C   UNL     1      -1.271  -6.929  -2.984  1.00  0.00     0.027 A 
ATOM     18  C   UNL     1      -2.111  -6.073  -0.432  1.00  0.00     0.011 A 
ATOM     19  C   UNL     1      -2.034  -7.767  -2.177  1.00  0.00     0.002 A 
ATOM     20  C   UNL     1      -2.454  -7.345  -0.919  1.00  0.00     0.001 A 
ENDBRANCH   9  10
BRANCH   9  21
ATOM     21  N   UNL     1      -0.931  -3.717   1.500  1.00  0.00    -0.316 N 
ATOM     22  C   UNL     1       0.439  -3.950   1.958  1.00  0.00     0.285 C 
ATOM     23  C   UNL     1      -1.729  -3.169   2.614  1.00  0.00     0.285 C 
ATOM     24  H   UNL     1      -1.311  -4.626   1.238  1.00  0.00     0.349 HD
ATOM     25  C   UNL     1       1.142  -2.793   2.687  1.00  0.00     0.181 C 
ATOM     26  C   UNL     1      -1.133  -2.039   3.494  1.00  0.00     0.181 C 
ATOM     27  N   UNL     1       0.330  -1.956   3.568  1.00  0.00    -0.325 N 
ATOM     28  C   UNL     1       1.002  -0.856   4.155  1.00  0.00     0.289 C 
ATOM     29  O   UNL     1       2.169  -0.623   3.822  1.00  0.00    -0.265 OA
BRANCH  28  30
ATOM     30  C   UNL     1       0.328  -0.030   5.148  1.00  0.00     0.191 A 
ATOM     31  C   UNL     1      -0.569  -0.292   6.170  1.00  0.00     0.056 A 
ATOM     32  O   UNL     1       0.685   1.298   5.214  1.00  0.00    -0.459 OA
ATOM     33  C   UNL     1      -0.787   0.925   6.863  1.00  0.00     0.043 A 
ATOM     34  C   UNL     1      -0.002   1.862   6.239  1.00  0.00     0.196 A 
ENDBRANCH  28  30
ENDBRANCH   9  21
ENDBRANCH   7   9
ENDBRANCH   6   7
ENDBRANCH   5   6
ENDBRANCH   4   5
ENDBRANCH   3   4
ENDBRANCH   2   3
ENDBRANCH   1   2
BRANCH   1  35
ATOM     35  O   UNL     1      -0.598   0.254  -3.709  1.00  0.00    -0.376 OA
BRANCH  35  36
ATOM     36  C   UNL     1       0.082   1.389  -4.218  1.00  0.00     0.202 C 
BRANCH  36  37
ATOM     37  C   UNL     1      -0.762   2.505  -4.832  1.00  0.00     0.261 C 
BRANCH  37  38
ATOM     38  O   UNL     1      -1.743   3.025  -3.932  1.00  0.00    -0.460 OA
BRANCH  38  39
ATOM     39  C   UNL     1      -2.987   2.513  -4.103  1.00  0.00     0.338 C 
ATOM     40  O   UNL     1      -3.344   1.716  -4.949  1.00  0.00    -0.246 OA
BRANCH  39  41
ATOM     41  C   UNL     1      -3.849   2.945  -2.986  1.00  0.00     0.060 A 
ATOM     42  C   UNL     1      -4.700   1.992  -2.411  1.00  0.00     0.016 A 
ATOM     43  C   UNL     1      -3.864   4.273  -2.552  1.00  0.00     0.016 A 
ATOM     44  C   UNL     1      -5.634   2.382  -1.460  1.00  0.00     0.010 A 
ATOM     45  C   UNL     1      -4.810   4.667  -1.607  1.00  0.00     0.010 A 
ATOM     46  C   UNL     1      -5.734   3.733  -1.110  1.00  0.00    -0.014 A 
BRANCH  46  47
ATOM     47  C   UNL     1      -6.957   4.201  -0.424  1.00  0.00     0.031 A 
ATOM     48  C   UNL     1      -8.044   4.813  -1.265  1.00  0.00     0.074 A 
ATOM     49  C   UNL     1      -7.107   4.039   0.900  1.00  0.00     0.049 A 
ATOM     50  N   UNL     1      -9.189   5.324  -0.900  1.00  0.00    -0.248 NA
ATOM     51  C   UNL     1      -7.804   4.858  -2.719  1.00  0.00     0.031 C 
ATOM     52  C   UNL     1      -6.130   3.414   1.790  1.00  0.00     0.029 A 
ATOM     53  N   UNL     1      -8.142   4.392   1.724  1.00  0.00    -0.354 N 
ATOM     54  C   UNL     1      -9.799   5.759  -2.072  1.00  0.00     0.074 A 
ATOM     55  C   UNL     1      -8.884   5.486  -3.156  1.00  0.00     0.031 C 
ATOM     56  C   UNL     1      -6.611   3.437   3.045  1.00  0.00     0.029 A 
ATOM     57  C   UNL     1      -7.909   4.107   3.047  1.00  0.00     0.049 A 
ATOM     58  H   UNL     1      -8.973   4.809   1.400  1.00  0.00     0.167 HD
ATOM     59  C   UNL     1     -11.018   6.327  -2.226  1.00  0.00     0.037 A 
ATOM     60  C   UNL     1      -8.658   4.380   4.134  1.00  0.00     0.037 A 
ATOM     61  C   UNL     1     -11.913   6.591  -1.130  1.00  0.00     0.049 A 
ATOM     62  C   UNL     1      -9.985   5.067   3.944  1.00  0.00     0.074 A 
ATOM     63  C   UNL     1     -13.175   7.155  -1.164  1.00  0.00     0.029 A 
ATOM     64  N   UNL     1     -11.635   6.312   0.202  1.00  0.00    -0.354 N 
ATOM     65  N   UNL     1     -10.559   5.467   2.832  1.00  0.00    -0.248 NA
ATOM     66  C   UNL     1     -10.772   5.331   5.154  1.00  0.00     0.031 C 
ATOM     67  C   UNL     1     -13.636   7.270   0.151  1.00  0.00     0.029 A 
ATOM     68  C   UNL     1     -12.691   6.715   1.001  1.00  0.00     0.049 A 
ATOM     69  H   UNL     1     -10.808   5.890   0.529  1.00  0.00     0.167 HD
ATOM     70  C   UNL     1     -11.787   6.002   3.206  1.00  0.00     0.074 A 
ATOM     71  C   UNL     1     -11.877   5.858   4.646  1.00  0.00     0.031 C 
ATOM     72  C   UNL     1     -12.755   6.560   2.434  1.00  0.00     0.037 A 
BRANCH  59  73
ATOM     73  C   UNL     1     -11.433   6.727  -3.616  1.00  0.00     0.058 A 
ATOM     74  C   UNL     1     -11.726   5.778  -4.610  1.00  0.00     0.135 A 
ATOM     75  C   UNL     1     -11.562   8.084  -3.955  1.00  0.00     0.135 A 
ATOM     76  F   UNL     1     -11.598   4.466  -4.351  1.00  0.00    -0.206 F 
ATOM     77  C   UNL     1     -12.107   6.159  -5.893  1.00  0.00     0.059 A 
ATOM     78  C   UNL     1     -11.971   8.488  -5.223  1.00  0.00     0.059 A 
ATOM     79  F   UNL     1     -11.287   9.036  -3.050  1.00  0.00    -0.206 F 
ATOM     80  C   UNL     1     -12.230   7.517  -6.189  1.00  0.00     0.060 A 
BRANCH  80  81
ATOM     81  S   UNL     1     -12.740   7.995  -7.854  1.00  0.00     0.124 S 
ATOM     82  O   UNL     1     -11.555   7.651  -8.633  1.00  0.00    -0.237 OA
ATOM     83  O   UNL     1     -13.910   7.151  -8.074  1.00  0.00    -0.237 OA
ATOM     84  O   UNL     1     -13.015   9.423  -7.730  1.00  0.00    -0.744 OA
ENDBRANCH  80  81
ENDBRANCH  59  73
BRANCH  60  85
ATOM     85  C   UNL     1      -8.167   4.007   5.487  1.00  0.00     0.058 A 
ATOM     86  C   UNL     1      -8.800   3.008   6.241  1.00  0.00     0.135 A 
ATOM     87  C   UNL     1      -7.045   4.636   6.050  1.00  0.00     0.135 A 
ATOM     88  F   UNL     1      -9.882   2.383   5.752  1.00  0.00    -0.206 F 
ATOM     89  C   UNL     1      -8.349   2.655   7.509  1.00  0.00     0.059 A 
ATOM     90  C   UNL     1      -6.556   4.279   7.303  1.00  0.00     0.059 A 
ATOM     91  F   UNL     1      -6.394   5.590   5.367  1.00  0.00    -0.206 F 
ATOM     92  C   UNL     1      -7.221   3.293   8.029  1.00  0.00     0.060 A 
BRANCH  92  93
ATOM     93  S   UNL     1      -6.609   2.783   9.649  1.00  0.00     0.124 S 
ATOM     94  O   UNL     1      -7.633   3.323  10.535  1.00  0.00    -0.237 OA
ATOM     95  O   UNL     1      -6.575   1.330   9.519  1.00  0.00    -0.237 OA
ATOM     96  O   UNL     1      -5.300   3.425   9.731  1.00  0.00    -0.744 OA
ENDBRANCH  92  93
ENDBRANCH  60  85
BRANCH  72  97
ATOM     97  C   UNL     1     -14.010   7.014   3.130  1.00  0.00     0.058 A 
ATOM     98  C   UNL     1     -14.023   8.123   3.990  1.00  0.00     0.135 A 
ATOM     99  C   UNL     1     -15.223   6.339   2.913  1.00  0.00     0.135 A 
ATOM    100  F   UNL     1     -12.891   8.804   4.234  1.00  0.00    -0.206 F 
ATOM    101  C   UNL     1     -15.183   8.518   4.648  1.00  0.00     0.059 A 
ATOM    102  C   UNL     1     -16.402   6.739   3.532  1.00  0.00     0.059 A 
ATOM    103  F   UNL     1     -15.271   5.282   2.087  1.00  0.00    -0.206 F 
ATOM    104  C   UNL     1     -16.367   7.817   4.415  1.00  0.00     0.060 A 
BRANCH 104 105
ATOM    105  S   UNL     1     -17.865   8.336   5.278  1.00  0.00     0.124 S 
ATOM    106  O   UNL     1     -17.592   7.880   6.637  1.00  0.00    -0.237 OA
ATOM    107  O   UNL     1     -17.854   9.782   5.079  1.00  0.00    -0.237 OA
ATOM    108  O   UNL     1     -18.927   7.621   4.577  1.00  0.00    -0.744 OA
ENDBRANCH 104 105
ENDBRANCH  72  97
ENDBRANCH  46  47
ENDBRANCH  39  41
ENDBRANCH  38  39
ENDBRANCH  37  38
ENDBRANCH  36  37
ENDBRANCH  35  36
ENDBRANCH   1  35
TORSDOF 23
