REMARK SMILES C[C@H](CNC(=O)N1C[C@H]2CCCC[N@@H+]2C[C@@H]1C)C(=O)OCCOCCOCCOC(=O)c1ccc(-c2c3nc(c(-c4c(F)cc(S(=O)(=O)[O-])cc4F)c4ccc([nH]4)c(-c4c(F)cc(S(=O)(=O)[O-])cc4F)c4nc(c(-c5c(F)cc(S(=O)(=O)[O-])cc5F)c5ccc2[nH]5)C=C4)C=C3)cc1
REMARK SMILES IDX 24 1 23 2 22 3 21 4 20 5 18 6 19 7 2 8 1 9 3 10 4 11 5 12
REMARK SMILES IDX 6 14 7 15 8 16 16 17 9 18 15 19 17 20 10 21 14 22 11 23
REMARK SMILES IDX 13 24 12 26 25 27 26 28 27 29 28 30 29 31 30 32 31 33 32 34
REMARK SMILES IDX 33 35 97 36 34 37 96 38 35 39 36 40 37 41 90 42 38 43 95 44
REMARK SMILES IDX 89 45 91 46 39 47 94 48 88 49 87 50 40 52 74 53 53 54 73 55
REMARK SMILES IDX 54 56 57 57 72 58 92 59 55 60 56 61 71 63 93 64 58 65 41 66
REMARK SMILES IDX 42 67 51 68 43 69 44 70 50 71 52 72 45 73 46 74 47 75 48 76
REMARK SMILES IDX 49 77 75 78 76 79 85 80 77 81 78 82 84 83 86 84 79 85 80 86
REMARK SMILES IDX 81 87 82 88 83 89 59 90 60 91 69 92 61 93 62 94 68 95 70 96
REMARK SMILES IDX 63 97 64 98 65 99 66 100 67 101
REMARK H PARENT 4 13 14 25 91 51 57 62
REMARK Flexibility Score: inf
ROOT
ATOM      1  C   UNL     1      -2.441   0.398   1.865  1.00  0.00     0.188 C 
ENDROOT
BRANCH   1   2
ATOM      2  O   UNL     1      -3.773   0.767   1.540  1.00  0.00    -0.376 OA
BRANCH   2   3
ATOM      3  C   UNL     1      -4.084   1.047   0.177  1.00  0.00     0.202 C 
BRANCH   3   4
ATOM      4  C   UNL     1      -3.166   1.995  -0.620  1.00  0.00     0.261 C 
BRANCH   4   5
ATOM      5  O   UNL     1      -1.771   1.607  -0.672  1.00  0.00    -0.463 OA
BRANCH   5   6
ATOM      6  C   UNL     1      -0.864   2.561  -0.337  1.00  0.00     0.310 C 
ATOM      7  O   UNL     1      -1.177   3.711  -0.040  1.00  0.00    -0.252 OA
BRANCH   6   8
ATOM      8  C   UNL     1       0.598   2.088  -0.287  1.00  0.00     0.115 C 
ATOM      9  C   UNL     1       1.459   3.120  -1.008  1.00  0.00     0.022 C 
BRANCH   8  10
ATOM     10  C   UNL     1       0.890   0.630  -0.696  1.00  0.00     0.132 C 
BRANCH  10  11
ATOM     11  N   UNL     1       1.966   0.381  -1.639  1.00  0.00    -0.337 N 
ATOM     12  C   UNL     1       3.293   0.156  -1.473  1.00  0.00     0.318 C 
ATOM     13  H   UNL     1       1.676   0.374  -2.579  1.00  0.00     0.165 HD
ATOM     14  O   UNL     1       3.990   0.083  -2.485  1.00  0.00    -0.249 OA
BRANCH  12  15
ATOM     15  N   UNL     1       3.809   0.126  -0.198  1.00  0.00    -0.311 N 
ATOM     16  C   UNL     1       3.529  -1.045   0.642  1.00  0.00     0.186 C 
ATOM     17  C   UNL     1       5.180   0.641  -0.021  1.00  0.00     0.139 C 
ATOM     18  C   UNL     1       3.749  -0.709   2.127  1.00  0.00     0.203 C 
ATOM     19  C   UNL     1       5.673   0.659   1.461  1.00  0.00     0.287 C 
ATOM     20  C   UNL     1       5.325   2.079  -0.549  1.00  0.00     0.037 C 
ATOM     21  C   UNL     1       3.380  -1.889   3.038  1.00  0.00     0.067 C 
ATOM     22  N   UNL     1       5.157  -0.353   2.396  1.00  0.00    -0.329 N 
ATOM     23  C   UNL     1       3.529  -1.488   4.506  1.00  0.00     0.012 C 
ATOM     24  C   UNL     1       5.302   0.136   3.783  1.00  0.00     0.262 C 
ATOM     25  H   UNL     1       5.707  -1.201   2.263  1.00  0.00     0.348 HD
ATOM     26  C   UNL     1       4.917  -0.939   4.796  1.00  0.00     0.062 C 
ENDBRANCH  12  15
ENDBRANCH  10  11
ENDBRANCH   8  10
ENDBRANCH   6   8
ENDBRANCH   5   6
ENDBRANCH   4   5
ENDBRANCH   3   4
ENDBRANCH   2   3
ENDBRANCH   1   2
BRANCH   1  27
ATOM     27  C   UNL     1      -1.772  -0.708   1.037  1.00  0.00     0.188 C 
BRANCH  27  28
ATOM     28  O   UNL     1      -2.476  -1.102  -0.116  1.00  0.00    -0.376 OA
BRANCH  28  29
ATOM     29  C   UNL     1      -2.873  -2.461  -0.215  1.00  0.00     0.202 C 
BRANCH  29  30
ATOM     30  C   UNL     1      -3.647  -3.126   0.944  1.00  0.00     0.261 C 
BRANCH  30  31
ATOM     31  O   UNL     1      -3.193  -2.865   2.284  1.00  0.00    -0.460 OA
BRANCH  31  32
ATOM     32  C   UNL     1      -2.078  -3.507   2.698  1.00  0.00     0.338 C 
ATOM     33  O   UNL     1      -1.407  -4.299   2.045  1.00  0.00    -0.246 OA
BRANCH  32  34
ATOM     34  C   UNL     1      -1.641  -2.886   3.968  1.00  0.00     0.060 A 
ATOM     35  C   UNL     1      -0.477  -2.108   3.967  1.00  0.00     0.016 A 
ATOM     36  C   UNL     1      -2.369  -3.047   5.147  1.00  0.00     0.016 A 
ATOM     37  C   UNL     1      -0.035  -1.506   5.142  1.00  0.00     0.010 A 
ATOM     38  C   UNL     1      -1.889  -2.481   6.338  1.00  0.00     0.010 A 
ATOM     39  C   UNL     1      -0.695  -1.738   6.350  1.00  0.00    -0.014 A 
BRANCH  39  40
ATOM     40  C   UNL     1      -0.012  -1.389   7.626  1.00  0.00     0.031 A 
ATOM     41  C   UNL     1       0.598  -2.505   8.437  1.00  0.00     0.074 A 
ATOM     42  C   UNL     1       0.145  -0.114   8.030  1.00  0.00     0.049 A 
ATOM     43  N   UNL     1       1.141  -2.471   9.626  1.00  0.00    -0.248 NA
ATOM     44  C   UNL     1       0.594  -3.841   7.817  1.00  0.00     0.031 C 
ATOM     45  C   UNL     1      -0.294   1.070   7.294  1.00  0.00     0.029 A 
ATOM     46  N   UNL     1       0.719   0.395   9.171  1.00  0.00    -0.354 N 
ATOM     47  C   UNL     1       1.507  -3.782   9.913  1.00  0.00     0.074 A 
ATOM     48  C   UNL     1       1.113  -4.588   8.779  1.00  0.00     0.031 C 
ATOM     49  C   UNL     1       0.010   2.167   8.010  1.00  0.00     0.029 A 
ATOM     50  C   UNL     1       0.615   1.763   9.278  1.00  0.00     0.049 A 
ATOM     51  H   UNL     1       1.163  -0.166   9.847  1.00  0.00     0.167 HD
ATOM     52  C   UNL     1       2.115  -4.270  11.020  1.00  0.00     0.037 A 
ATOM     53  C   UNL     1       0.931   2.588  10.298  1.00  0.00     0.037 A 
ATOM     54  C   UNL     1       2.528  -3.460  12.137  1.00  0.00     0.049 A 
ATOM     55  C   UNL     1       1.526   2.013  11.560  1.00  0.00     0.074 A 
ATOM     56  C   UNL     1       3.154  -3.862  13.304  1.00  0.00     0.029 A 
ATOM     57  N   UNL     1       2.361  -2.086  12.226  1.00  0.00    -0.354 N 
ATOM     58  N   UNL     1       1.833   0.768  11.837  1.00  0.00    -0.248 NA
ATOM     59  C   UNL     1       1.815   2.957  12.651  1.00  0.00     0.031 C 
ATOM     60  C   UNL     1       3.312  -2.740  14.124  1.00  0.00     0.029 A 
ATOM     61  C   UNL     1       2.847  -1.628  13.440  1.00  0.00     0.049 A 
ATOM     62  H   UNL     1       1.955  -1.520  11.530  1.00  0.00     0.167 HD
ATOM     63  C   UNL     1       2.378   0.784  13.119  1.00  0.00     0.074 A 
ATOM     64  C   UNL     1       2.370   2.164  13.557  1.00  0.00     0.031 C 
ATOM     65  C   UNL     1       2.845  -0.250  13.864  1.00  0.00     0.037 A 
BRANCH  52  66
ATOM     66  C   UNL     1       2.327  -5.758  11.103  1.00  0.00     0.058 A 
ATOM     67  C   UNL     1       3.268  -6.426  10.303  1.00  0.00     0.135 A 
ATOM     68  C   UNL     1       1.593  -6.522  12.025  1.00  0.00     0.135 A 
ATOM     69  F   UNL     1       3.982  -5.749   9.389  1.00  0.00    -0.206 F 
ATOM     70  C   UNL     1       3.455  -7.802  10.398  1.00  0.00     0.059 A 
ATOM     71  C   UNL     1       1.786  -7.894  12.159  1.00  0.00     0.059 A 
ATOM     72  F   UNL     1       0.676  -5.936  12.811  1.00  0.00    -0.206 F 
ATOM     73  C   UNL     1       2.710  -8.527  11.330  1.00  0.00     0.060 A 
BRANCH  73  74
ATOM     74  S   UNL     1       2.970 -10.309  11.445  1.00  0.00     0.124 S 
ATOM     75  O   UNL     1       2.366 -10.772  10.199  1.00  0.00    -0.237 OA
ATOM     76  O   UNL     1       4.424 -10.407  11.518  1.00  0.00    -0.237 OA
ATOM     77  O   UNL     1       2.257 -10.680  12.663  1.00  0.00    -0.744 OA
ENDBRANCH  73  74
ENDBRANCH  52  66
BRANCH  53  78
ATOM     78  C   UNL     1       0.654   4.048  10.191  1.00  0.00     0.058 A 
ATOM     79  C   UNL     1       1.696   4.987  10.150  1.00  0.00     0.135 A 
ATOM     80  C   UNL     1      -0.662   4.535  10.142  1.00  0.00     0.135 A 
ATOM     81  F   UNL     1       2.972   4.575  10.213  1.00  0.00    -0.206 F 
ATOM     82  C   UNL     1       1.445   6.354  10.077  1.00  0.00     0.059 A 
ATOM     83  C   UNL     1      -0.939   5.894  10.037  1.00  0.00     0.059 A 
ATOM     84  F   UNL     1      -1.697   3.681  10.176  1.00  0.00    -0.206 F 
ATOM     85  C   UNL     1       0.122   6.797  10.015  1.00  0.00     0.060 A 
BRANCH  85  86
ATOM     86  S   UNL     1      -0.190   8.570   9.866  1.00  0.00     0.124 S 
ATOM     87  O   UNL     1       0.170   9.045  11.196  1.00  0.00    -0.237 OA
ATOM     88  O   UNL     1       0.715   8.948   8.785  1.00  0.00    -0.237 OA
ATOM     89  O   UNL     1      -1.611   8.633   9.535  1.00  0.00    -0.744 OA
ENDBRANCH  85  86
ENDBRANCH  53  78
BRANCH  65  90
ATOM     90  C   UNL     1       3.436   0.069  15.213  1.00  0.00     0.058 A 
ATOM     91  C   UNL     1       2.643   0.478  16.296  1.00  0.00     0.135 A 
ATOM     92  C   UNL     1       4.815  -0.087  15.436  1.00  0.00     0.135 A 
ATOM     93  F   UNL     1       1.321   0.647  16.140  1.00  0.00    -0.206 F 
ATOM     94  C   UNL     1       3.199   0.750  17.543  1.00  0.00     0.059 A 
ATOM     95  C   UNL     1       5.388   0.148  16.682  1.00  0.00     0.059 A 
ATOM     96  F   UNL     1       5.620  -0.489  14.439  1.00  0.00    -0.206 F 
ATOM     97  C   UNL     1       4.573   0.580  17.727  1.00  0.00     0.060 A 
BRANCH  97  98
ATOM     98  S   UNL     1       5.277   0.914  19.356  1.00  0.00     0.124 S 
ATOM     99  O   UNL     1       5.206   2.370  19.414  1.00  0.00    -0.237 OA
ATOM    100  O   UNL     1       4.365   0.198  20.242  1.00  0.00    -0.237 OA
ATOM    101  O   UNL     1       6.623   0.354  19.266  1.00  0.00    -0.744 OA
ENDBRANCH  97  98
ENDBRANCH  65  90
ENDBRANCH  39  40
ENDBRANCH  32  34
ENDBRANCH  31  32
ENDBRANCH  30  31
ENDBRANCH  29  30
ENDBRANCH  28  29
ENDBRANCH  27  28
ENDBRANCH   1  27
TORSDOF 23
