REMARK SMILES Cc1nn([C@H]2CCS(=O)(=O)C2)c(C)c1[C@@H]([NH3+])C(=O)OCCOCCOCCOC(=O)c1ccc(-c2c3nc(c(-c4c(F)cc(S(=O)(=O)[O-])cc4F)c4ccc([nH]4)c(-c4c(F)cc(S(=O)(=O)[O-])cc4F)c4nc(c(-c5c(F)cc(S(=O)(=O)[O-])cc5F)c5ccc2[nH]5)C=C4)C=C3)cc1
REMARK SMILES IDX 24 1 23 2 22 3 21 4 20 5 19 6 17 7 18 8 15 9 14 10 1 11 2 12
REMARK SMILES IDX 3 13 4 14 12 15 13 16 5 17 6 18 11 19 7 20 8 21 9 22 10 23
REMARK SMILES IDX 16 24 25 28 26 29 27 30 28 31 29 32 30 33 31 34 32 35 96 36
REMARK SMILES IDX 33 37 95 38 34 39 35 40 36 41 89 42 37 43 94 44 88 45 90 46
REMARK SMILES IDX 38 47 93 48 87 49 86 50 39 52 73 53 52 54 72 55 53 56 56 57
REMARK SMILES IDX 71 58 91 59 54 60 55 61 70 63 92 64 57 65 40 66 41 67 50 68
REMARK SMILES IDX 42 69 43 70 49 71 51 72 44 73 45 74 46 75 47 76 48 77 74 78
REMARK SMILES IDX 75 79 84 80 76 81 77 82 83 83 85 84 78 85 79 86 80 87 81 88
REMARK SMILES IDX 82 89 58 90 59 91 68 92 60 93 61 94 67 95 69 96 62 97 63 98
REMARK SMILES IDX 64 99 65 100 66 101
REMARK H PARENT 16 25 16 26 16 27 90 51 56 62
REMARK Flexibility Score: inf
ROOT
ATOM      1  C   UNL     1      -2.691   3.265  -8.489  1.00  0.00     0.188 C 
ENDROOT
BRANCH   1   2
ATOM      2  C   UNL     1      -3.665   3.093  -9.674  1.00  0.00     0.188 C 
BRANCH   2   3
ATOM      3  O   UNL     1      -4.367   4.230 -10.164  1.00  0.00    -0.376 OA
BRANCH   3   4
ATOM      4  C   UNL     1      -5.001   5.090  -9.219  1.00  0.00     0.202 C 
BRANCH   4   5
ATOM      5  C   UNL     1      -5.906   4.452  -8.148  1.00  0.00     0.261 C 
BRANCH   5   6
ATOM      6  O   UNL     1      -5.249   3.440  -7.357  1.00  0.00    -0.459 OA
BRANCH   6   7
ATOM      7  C   UNL     1      -6.011   2.408  -6.913  1.00  0.00     0.369 C 
ATOM      8  O   UNL     1      -7.228   2.343  -7.087  1.00  0.00    -0.245 OA
BRANCH   7   9
ATOM      9  C   UNL     1      -5.210   1.235  -6.280  1.00  0.00     0.326 C 
BRANCH   9  10
ATOM     10  C   UNL     1      -3.845   1.506  -5.704  1.00  0.00     0.065 A 
ATOM     11  C   UNL     1      -2.510  -0.518  -6.722  1.00  0.00     0.069 C 
ATOM     12  C   UNL     1      -2.674   0.717  -5.911  1.00  0.00     0.069 A 
ATOM     13  N   UNL     1      -1.612   1.232  -5.293  1.00  0.00    -0.177 NA
ATOM     14  N   UNL     1      -2.044   2.385  -4.748  1.00  0.00    -0.265 N 
ATOM     15  C   UNL     1      -3.412   2.535  -4.870  1.00  0.00     0.046 A 
ATOM     16  C   UNL     1      -4.227   3.619  -4.267  1.00  0.00     0.067 C 
BRANCH  14  17
ATOM     17  C   UNL     1      -1.015   3.212  -4.122  1.00  0.00     0.123 C 
ATOM     18  C   UNL     1       0.206   3.436  -5.048  1.00  0.00     0.044 C 
ATOM     19  C   UNL     1      -1.444   4.601  -3.683  1.00  0.00     0.164 C 
ATOM     20  C   UNL     1       1.100   4.506  -4.432  1.00  0.00     0.139 C 
ATOM     21  S   UNL     1       0.060   5.468  -3.357  1.00  0.00     0.152 S 
ATOM     22  O   UNL     1       0.436   5.202  -1.982  1.00  0.00    -0.229 OA
ATOM     23  O   UNL     1      -0.072   6.814  -3.871  1.00  0.00    -0.229 OA
ENDBRANCH  14  17
ENDBRANCH   9  10
BRANCH   9  24
ATOM     24  N   UNL     1      -6.016   0.616  -5.208  1.00  0.00    -0.342 N 
ATOM     25  H   UNL     1      -6.140   1.284  -4.447  1.00  0.00     0.345 HD
ATOM     26  H   UNL     1      -5.537  -0.213  -4.857  1.00  0.00     0.345 HD
ATOM     27  H   UNL     1      -6.928   0.350  -5.579  1.00  0.00     0.345 HD
ENDBRANCH   9  24
ENDBRANCH   7   9
ENDBRANCH   6   7
ENDBRANCH   5   6
ENDBRANCH   4   5
ENDBRANCH   3   4
ENDBRANCH   2   3
ENDBRANCH   1   2
BRANCH   1  28
ATOM     28  O   UNL     1      -2.749   4.514  -7.830  1.00  0.00    -0.376 OA
BRANCH  28  29
ATOM     29  C   UNL     1      -1.665   5.423  -7.842  1.00  0.00     0.202 C 
BRANCH  29  30
ATOM     30  C   UNL     1      -0.874   5.743  -9.104  1.00  0.00     0.261 C 
BRANCH  30  31
ATOM     31  O   UNL     1      -0.913   4.741 -10.095  1.00  0.00    -0.460 OA
BRANCH  31  32
ATOM     32  C   UNL     1      -0.051   3.718  -9.925  1.00  0.00     0.338 C 
ATOM     33  O   UNL     1       0.649   3.504  -8.954  1.00  0.00    -0.246 OA
BRANCH  32  34
ATOM     34  C   UNL     1      -0.123   2.891 -11.140  1.00  0.00     0.060 A 
ATOM     35  C   UNL     1       0.649   1.730 -11.165  1.00  0.00     0.016 A 
ATOM     36  C   UNL     1      -0.730   3.412 -12.297  1.00  0.00     0.016 A 
ATOM     37  C   UNL     1       1.054   1.259 -12.391  1.00  0.00     0.010 A 
ATOM     38  C   UNL     1      -0.314   2.952 -13.520  1.00  0.00     0.010 A 
ATOM     39  C   UNL     1       0.669   1.968 -13.534  1.00  0.00    -0.014 A 
BRANCH  39  40
ATOM     40  C   UNL     1       1.470   1.777 -14.721  1.00  0.00     0.031 A 
ATOM     41  C   UNL     1       1.112   0.613 -15.544  1.00  0.00     0.074 A 
ATOM     42  C   UNL     1       2.424   2.671 -15.045  1.00  0.00     0.049 A 
ATOM     43  N   UNL     1       1.830  -0.423 -15.817  1.00  0.00    -0.248 NA
ATOM     44  C   UNL     1      -0.270   0.551 -16.042  1.00  0.00     0.031 C 
ATOM     45  C   UNL     1       2.625   4.007 -14.464  1.00  0.00     0.029 A 
ATOM     46  N   UNL     1       3.342   2.626 -16.046  1.00  0.00    -0.354 N 
ATOM     47  C   UNL     1       1.070  -1.163 -16.711  1.00  0.00     0.074 A 
ATOM     48  C   UNL     1      -0.263  -0.619 -16.679  1.00  0.00     0.031 C 
ATOM     49  C   UNL     1       3.446   4.717 -15.266  1.00  0.00     0.029 A 
ATOM     50  C   UNL     1       3.918   3.853 -16.335  1.00  0.00     0.049 A 
ATOM     51  H   UNL     1       3.577   1.797 -16.523  1.00  0.00     0.167 HD
ATOM     52  C   UNL     1       1.647  -1.995 -17.615  1.00  0.00     0.037 A 
ATOM     53  C   UNL     1       4.644   4.162 -17.435  1.00  0.00     0.037 A 
ATOM     54  C   UNL     1       2.989  -2.354 -17.246  1.00  0.00     0.049 A 
ATOM     55  C   UNL     1       5.128   2.891 -18.032  1.00  0.00     0.074 A 
ATOM     56  C   UNL     1       3.557  -2.998 -16.165  1.00  0.00     0.029 A 
ATOM     57  N   UNL     1       4.020  -1.741 -17.913  1.00  0.00    -0.354 N 
ATOM     58  N   UNL     1       5.994   2.090 -17.472  1.00  0.00    -0.248 NA
ATOM     59  C   UNL     1       4.353   2.301 -19.115  1.00  0.00     0.031 C 
ATOM     60  C   UNL     1       4.845  -2.413 -16.005  1.00  0.00     0.029 A 
ATOM     61  C   UNL     1       5.004  -1.449 -17.002  1.00  0.00     0.049 A 
ATOM     62  H   UNL     1       4.049  -1.544 -18.878  1.00  0.00     0.167 HD
ATOM     63  C   UNL     1       5.604   0.813 -17.853  1.00  0.00     0.074 A 
ATOM     64  C   UNL     1       4.678   1.016 -18.959  1.00  0.00     0.031 C 
ATOM     65  C   UNL     1       5.848  -0.271 -17.060  1.00  0.00     0.037 A 
BRANCH  52  66
ATOM     66  C   UNL     1       1.107  -2.166 -19.008  1.00  0.00     0.058 A 
ATOM     67  C   UNL     1       1.542  -3.244 -19.798  1.00  0.00     0.135 A 
ATOM     68  C   UNL     1       0.383  -1.155 -19.683  1.00  0.00     0.135 A 
ATOM     69  F   UNL     1       2.262  -4.239 -19.257  1.00  0.00    -0.206 F 
ATOM     70  C   UNL     1       1.316  -3.290 -21.174  1.00  0.00     0.059 A 
ATOM     71  C   UNL     1       0.094  -1.211 -21.038  1.00  0.00     0.059 A 
ATOM     72  F   UNL     1       0.015  -0.018 -19.078  1.00  0.00    -0.206 F 
ATOM     73  C   UNL     1       0.605  -2.259 -21.784  1.00  0.00     0.060 A 
BRANCH  73  74
ATOM     74  S   UNL     1       0.420  -2.241 -23.575  1.00  0.00     0.124 S 
ATOM     75  O   UNL     1       1.753  -1.820 -23.993  1.00  0.00    -0.237 OA
ATOM     76  O   UNL     1       0.066  -3.626 -23.862  1.00  0.00    -0.237 OA
ATOM     77  O   UNL     1      -0.648  -1.269 -23.789  1.00  0.00    -0.744 OA
ENDBRANCH  73  74
ENDBRANCH  52  66
BRANCH  53  78
ATOM     78  C   UNL     1       4.632   5.456 -18.162  1.00  0.00     0.058 A 
ATOM     79  C   UNL     1       5.650   5.803 -19.063  1.00  0.00     0.135 A 
ATOM     80  C   UNL     1       3.490   6.287 -18.161  1.00  0.00     0.135 A 
ATOM     81  F   UNL     1       6.752   5.044 -19.158  1.00  0.00    -0.206 F 
ATOM     82  C   UNL     1       5.537   6.899 -19.925  1.00  0.00     0.059 A 
ATOM     83  C   UNL     1       3.362   7.394 -18.995  1.00  0.00     0.059 A 
ATOM     84  F   UNL     1       2.421   5.997 -17.404  1.00  0.00    -0.206 F 
ATOM     85  C   UNL     1       4.383   7.684 -19.889  1.00  0.00     0.060 A 
BRANCH  85  86
ATOM     86  S   UNL     1       4.179   9.024 -21.084  1.00  0.00     0.124 S 
ATOM     87  O   UNL     1       5.215   9.961 -20.666  1.00  0.00    -0.237 OA
ATOM     88  O   UNL     1       4.410   8.340 -22.352  1.00  0.00    -0.237 OA
ATOM     89  O   UNL     1       2.806   9.472 -20.861  1.00  0.00    -0.744 OA
ENDBRANCH  85  86
ENDBRANCH  53  78
BRANCH  65  90
ATOM     90  C   UNL     1       6.894  -0.144 -15.983  1.00  0.00     0.058 A 
ATOM     91  C   UNL     1       6.755   0.667 -14.845  1.00  0.00     0.135 A 
ATOM     92  C   UNL     1       7.993  -1.018 -16.022  1.00  0.00     0.135 A 
ATOM     93  F   UNL     1       5.683   1.456 -14.689  1.00  0.00    -0.206 F 
ATOM     94  C   UNL     1       7.682   0.626 -13.800  1.00  0.00     0.059 A 
ATOM     95  C   UNL     1       8.913  -1.095 -14.979  1.00  0.00     0.059 A 
ATOM     96  F   UNL     1       8.146  -1.860 -17.058  1.00  0.00    -0.206 F 
ATOM     97  C   UNL     1       8.753  -0.265 -13.872  1.00  0.00     0.060 A 
BRANCH  97  98
ATOM     98  S   UNL     1       9.874  -0.411 -12.462  1.00  0.00     0.124 S 
ATOM     99  O   UNL     1      10.692   0.790 -12.595  1.00  0.00    -0.237 OA
ATOM    100  O   UNL     1       8.957  -0.431 -11.325  1.00  0.00    -0.237 OA
ATOM    101  O   UNL     1      10.569  -1.672 -12.709  1.00  0.00    -0.744 OA
ENDBRANCH  97  98
ENDBRANCH  65  90
ENDBRANCH  39  40
ENDBRANCH  32  34
ENDBRANCH  31  32
ENDBRANCH  30  31
ENDBRANCH  29  30
ENDBRANCH  28  29
ENDBRANCH   1  28
TORSDOF 23
