REMARK SMILES Cc1cc(C(=O)OCCOCCOCCOC(=O)c2ccc(-c3c4nc(c(-c5c(F)cc(S(=O)(=O)[O-])cc5F)c5ccc([nH]5)c(-c5c(F)cc(S(=O)(=O)[O-])cc5F)c5nc(c(-c6c(F)cc(S(=O)(=O)[O-])cc6F)c6ccc3[nH]6)C=C5)C=C4)cc2)ccc1NC(=O)c1ccc(=O)n(CCOc2ccccc2)n1
REMARK SMILES IDX 10 1 9 2 8 3 7 4 5 5 6 6 4 7 1 8 2 9 3 10 87 11 86 12 85 13
REMARK SMILES IDX 88 14 89 15 90 17 91 18 92 19 106 20 93 21 96 22 94 23 95 24
REMARK SMILES IDX 97 25 98 26 99 27 100 28 101 29 105 30 102 31 104 32 103 33
REMARK SMILES IDX 11 34 12 35 13 36 14 37 15 38 16 39 17 40 18 41 19 42 20 43
REMARK SMILES IDX 84 44 21 45 83 46 22 47 23 48 24 49 77 50 25 51 82 52 76 53
REMARK SMILES IDX 78 54 26 55 81 56 75 57 74 58 27 60 61 61 40 62 60 63 41 64
REMARK SMILES IDX 44 65 59 66 79 67 42 68 43 69 58 71 80 72 45 73 28 74 29 75
REMARK SMILES IDX 38 76 30 77 31 78 37 79 39 80 32 81 33 82 34 83 35 84 36 85
REMARK SMILES IDX 62 86 63 87 72 88 64 89 65 90 71 91 73 92 66 93 67 94 68 95
REMARK SMILES IDX 69 96 70 97 46 98 47 99 56 100 48 101 49 102 55 103 57 104
REMARK SMILES IDX 50 105 51 106 52 107 53 108 54 109
REMARK H PARENT 88 16 78 59 44 70
REMARK Flexibility Score: inf
ROOT
ATOM      1  O   UNL     1      -3.917  -5.134  -1.207  1.00  0.00    -0.376 OA
ENDROOT
BRANCH   1   2
ATOM      2  C   UNL     1      -4.943  -4.130  -1.218  1.00  0.00     0.202 C 
BRANCH   2   3
ATOM      3  C   UNL     1      -4.932  -2.410  -1.236  1.00  0.00     0.261 C 
BRANCH   3   4
ATOM      4  O   UNL     1      -4.187  -1.255  -0.157  1.00  0.00    -0.460 OA
BRANCH   4   5
ATOM      5  C   UNL     1      -3.071  -0.524   0.412  1.00  0.00     0.338 C 
ATOM      6  O   UNL     1      -3.230   0.045   1.497  1.00  0.00    -0.246 OA
BRANCH   5   7
ATOM      7  C   UNL     1      -1.668  -0.151  -0.131  1.00  0.00     0.060 A 
ATOM      8  C   UNL     1       2.152   0.096   0.652  1.00  0.00     0.046 C 
ATOM      9  C   UNL     1       0.747   0.421   0.197  1.00  0.00    -0.027 A 
ATOM     10  C   UNL     1      -0.396  -0.391   0.493  1.00  0.00     0.021 A 
ATOM     11  C   UNL     1       0.521   1.529  -0.616  1.00  0.00     0.044 A 
ATOM     12  C   UNL     1      -0.548   1.496  -1.498  1.00  0.00     0.027 A 
ATOM     13  C   UNL     1      -1.667   0.725  -1.207  1.00  0.00     0.018 A 
BRANCH  11  14
ATOM     14  N   UNL     1       1.156   2.768  -0.344  1.00  0.00    -0.320 N 
ATOM     15  C   UNL     1       0.471   3.967  -0.113  1.00  0.00     0.276 C 
ATOM     16  H   UNL     1       2.140   2.786  -0.316  1.00  0.00     0.170 HD
ATOM     17  O   UNL     1       1.040   5.027   0.124  1.00  0.00    -0.267 OA
BRANCH  15  18
ATOM     18  C   UNL     1      -1.059   3.943  -0.141  1.00  0.00     0.149 A 
ATOM     19  C   UNL     1      -1.669   4.298  -1.438  1.00  0.00     0.042 A 
ATOM     20  N   UNL     1      -1.722   3.561   0.909  1.00  0.00    -0.164 NA
ATOM     21  C   UNL     1      -2.903   3.833  -1.640  1.00  0.00     0.076 A 
ATOM     22  N   UNL     1      -3.076   3.270   0.713  1.00  0.00    -0.226 N 
ATOM     23  C   UNL     1      -3.657   3.167  -0.548  1.00  0.00     0.266 A 
ATOM     24  O   UNL     1      -4.728   2.638  -0.828  1.00  0.00    -0.268 OA
BRANCH  22  25
ATOM     25  C   UNL     1      -3.882   2.985   1.903  1.00  0.00     0.190 C 
BRANCH  25  26
ATOM     26  C   UNL     1      -4.451   4.269   2.531  1.00  0.00     0.253 C 
BRANCH  26  27
ATOM     27  O   UNL     1      -5.608   4.800   1.866  1.00  0.00    -0.492 OA
BRANCH  27  28
ATOM     28  C   UNL     1      -5.476   5.718   0.865  1.00  0.00     0.119 A 
ATOM     29  C   UNL     1      -6.678   6.231   0.370  1.00  0.00     0.046 A 
ATOM     30  C   UNL     1      -4.286   6.136   0.278  1.00  0.00     0.046 A 
ATOM     31  C   UNL     1      -6.692   7.084  -0.739  1.00  0.00     0.004 A 
ATOM     32  C   UNL     1      -4.298   6.935  -0.872  1.00  0.00     0.004 A 
ATOM     33  C   UNL     1      -5.502   7.404  -1.385  1.00  0.00     0.000 A 
ENDBRANCH  27  28
ENDBRANCH  26  27
ENDBRANCH  25  26
ENDBRANCH  22  25
ENDBRANCH  15  18
ENDBRANCH  11  14
ENDBRANCH   5   7
ENDBRANCH   4   5
ENDBRANCH   3   4
ENDBRANCH   2   3
ENDBRANCH   1   2
BRANCH   1  34
ATOM     34  C   UNL     1      -3.079  -5.618  -2.248  1.00  0.00     0.188 C 
BRANCH  34  35
ATOM     35  C   UNL     1      -3.378  -5.320  -3.688  1.00  0.00     0.188 C 
BRANCH  35  36
ATOM     36  O   UNL     1      -3.969  -4.040  -3.759  1.00  0.00    -0.376 OA
BRANCH  36  37
ATOM     37  C   UNL     1      -4.430  -3.677  -5.039  1.00  0.00     0.202 C 
BRANCH  37  38
ATOM     38  C   UNL     1      -3.300  -3.506  -6.060  1.00  0.00     0.261 C 
BRANCH  38  39
ATOM     39  O   UNL     1      -2.469  -2.347  -5.807  1.00  0.00    -0.460 OA
BRANCH  39  40
ATOM     40  C   UNL     1      -1.199  -2.531  -5.281  1.00  0.00     0.338 C 
ATOM     41  O   UNL     1      -0.199  -2.385  -5.945  1.00  0.00    -0.246 OA
BRANCH  40  42
ATOM     42  C   UNL     1      -1.248  -2.567  -3.786  1.00  0.00     0.060 A 
ATOM     43  C   UNL     1      -0.442  -3.203  -2.844  1.00  0.00     0.016 A 
ATOM     44  C   UNL     1      -2.214  -1.820  -3.236  1.00  0.00     0.016 A 
ATOM     45  C   UNL     1      -0.840  -3.391  -1.435  1.00  0.00     0.010 A 
ATOM     46  C   UNL     1      -2.533  -2.037  -1.891  1.00  0.00     0.010 A 
ATOM     47  C   UNL     1      -2.048  -2.941  -0.899  1.00  0.00    -0.014 A 
BRANCH  47  48
ATOM     48  C   UNL     1      -2.745  -3.469   0.589  1.00  0.00     0.031 A 
ATOM     49  C   UNL     1      -3.840  -2.831   1.654  1.00  0.00     0.074 A 
ATOM     50  C   UNL     1      -2.460  -4.714   1.043  1.00  0.00     0.049 A 
ATOM     51  N   UNL     1      -3.535  -2.324   2.829  1.00  0.00    -0.248 NA
ATOM     52  C   UNL     1      -5.334  -2.713   1.486  1.00  0.00     0.031 C 
ATOM     53  C   UNL     1      -3.040  -5.421   2.196  1.00  0.00     0.029 A 
ATOM     54  N   UNL     1      -1.518  -5.617   0.551  1.00  0.00    -0.354 N 
ATOM     55  C   UNL     1      -4.692  -1.687   3.344  1.00  0.00     0.074 A 
ATOM     56  C   UNL     1      -5.698  -1.756   2.338  1.00  0.00     0.031 C 
ATOM     57  C   UNL     1      -2.243  -6.458   2.506  1.00  0.00     0.029 A 
ATOM     58  C   UNL     1      -1.085  -6.388   1.633  1.00  0.00     0.049 A 
ATOM     59  H   UNL     1      -1.216  -5.697  -0.383  1.00  0.00     0.167 HD
ATOM     60  C   UNL     1      -5.011  -1.473   4.657  1.00  0.00     0.037 A 
ATOM     61  C   UNL     1       0.216  -6.285   2.016  1.00  0.00     0.037 A 
ATOM     62  C   UNL     1      -4.320  -2.478   5.419  1.00  0.00     0.049 A 
ATOM     63  C   UNL     1       0.304  -5.649   3.384  1.00  0.00     0.074 A 
ATOM     64  C   UNL     1      -4.683  -3.796   5.647  1.00  0.00     0.029 A 
ATOM     65  N   UNL     1      -2.953  -2.390   5.570  1.00  0.00    -0.354 N 
ATOM     66  N   UNL     1      -0.613  -4.871   3.906  1.00  0.00    -0.248 NA
ATOM     67  C   UNL     1       1.391  -5.937   4.310  1.00  0.00     0.031 C 
ATOM     68  C   UNL     1      -3.486  -4.543   5.761  1.00  0.00     0.029 A 
ATOM     69  C   UNL     1      -2.423  -3.655   5.741  1.00  0.00     0.049 A 
ATOM     70  H   UNL     1      -2.433  -1.554   5.557  1.00  0.00     0.167 HD
ATOM     71  C   UNL     1      -0.267  -4.573   5.198  1.00  0.00     0.074 A 
ATOM     72  C   UNL     1       0.990  -5.269   5.403  1.00  0.00     0.031 C 
ATOM     73  C   UNL     1      -1.019  -3.811   6.044  1.00  0.00     0.037 A 
BRANCH  60  74
ATOM     74  C   UNL     1      -6.287  -0.737   5.080  1.00  0.00     0.058 A 
ATOM     75  C   UNL     1      -7.158  -1.200   6.085  1.00  0.00     0.135 A 
ATOM     76  C   UNL     1      -6.685   0.478   4.467  1.00  0.00     0.135 A 
ATOM     77  F   UNL     1      -6.873  -2.302   6.792  1.00  0.00    -0.206 F 
ATOM     78  C   UNL     1      -8.379  -0.570   6.384  1.00  0.00     0.059 A 
ATOM     79  C   UNL     1      -7.910   1.116   4.734  1.00  0.00     0.059 A 
ATOM     80  F   UNL     1      -5.891   1.065   3.557  1.00  0.00    -0.206 F 
ATOM     81  C   UNL     1      -8.766   0.570   5.684  1.00  0.00     0.060 A 
BRANCH  81  82
ATOM     82  S   UNL     1     -10.414   1.266   5.985  1.00  0.00     0.124 S 
ATOM     83  O   UNL     1     -11.276   0.096   5.837  1.00  0.00    -0.237 OA
ATOM     84  O   UNL     1     -10.290   1.788   7.342  1.00  0.00    -0.237 OA
ATOM     85  O   UNL     1     -10.563   2.273   4.938  1.00  0.00    -0.744 OA
ENDBRANCH  81  82
ENDBRANCH  60  74
BRANCH  61  86
ATOM     86  C   UNL     1       1.159  -6.187   0.849  1.00  0.00     0.058 A 
ATOM     87  C   UNL     1       1.089  -7.229  -0.110  1.00  0.00     0.135 A 
ATOM     88  C   UNL     1       1.809  -5.013   0.439  1.00  0.00     0.135 A 
ATOM     89  F   UNL     1       0.494  -8.392   0.208  1.00  0.00    -0.206 F 
ATOM     90  C   UNL     1       1.485  -7.067  -1.435  1.00  0.00     0.059 A 
ATOM     91  C   UNL     1       2.248  -4.838  -0.892  1.00  0.00     0.059 A 
ATOM     92  F   UNL     1       1.887  -3.961   1.268  1.00  0.00    -0.206 F 
ATOM     93  C   UNL     1       2.026  -5.852  -1.833  1.00  0.00     0.060 A 
BRANCH  93  94
ATOM     94  S   UNL     1       2.243  -5.597  -3.620  1.00  0.00     0.124 S 
ATOM     95  O   UNL     1       3.184  -6.652  -3.974  1.00  0.00    -0.237 OA
ATOM     96  O   UNL     1       0.876  -5.787  -4.110  1.00  0.00    -0.237 OA
ATOM     97  O   UNL     1       2.758  -4.235  -3.700  1.00  0.00    -0.744 OA
ENDBRANCH  93  94
ENDBRANCH  61  86
BRANCH  73  98
ATOM     98  C   UNL     1      -0.523  -3.205   7.333  1.00  0.00     0.058 A 
ATOM     99  C   UNL     1       0.809  -2.814   7.522  1.00  0.00     0.135 A 
ATOM    100  C   UNL     1      -1.429  -2.833   8.360  1.00  0.00     0.135 A 
ATOM    101  F   UNL     1       1.733  -2.996   6.567  1.00  0.00    -0.206 F 
ATOM    102  C   UNL     1       1.238  -2.189   8.688  1.00  0.00     0.059 A 
ATOM    103  C   UNL     1      -1.036  -2.137   9.494  1.00  0.00     0.059 A 
ATOM    104  F   UNL     1      -2.737  -3.125   8.292  1.00  0.00    -0.206 F 
ATOM    105  C   UNL     1       0.310  -1.859   9.670  1.00  0.00     0.060 A 
BRANCH 105 106
ATOM    106  S   UNL     1       0.853  -1.058  11.183  1.00  0.00     0.124 S 
ATOM    107  O   UNL     1       1.062  -2.210  12.055  1.00  0.00    -0.237 OA
ATOM    108  O   UNL     1       2.064  -0.358  10.765  1.00  0.00    -0.237 OA
ATOM    109  O   UNL     1      -0.274  -0.197  11.527  1.00  0.00    -0.744 OA
ENDBRANCH 105 106
ENDBRANCH  73  98
ENDBRANCH  47  48
ENDBRANCH  40  42
ENDBRANCH  39  40
ENDBRANCH  38  39
ENDBRANCH  37  38
ENDBRANCH  36  37
ENDBRANCH  35  36
ENDBRANCH  34  35
ENDBRANCH   1  34
TORSDOF 26
