REMARK SMILES O=C(CSc1nnc(-c2ccncc2)s1)Nc1cccc(C(=O)OCCOCCOCCOC(=O)c2ccc(-c3c4nc(c(-c5c(F)cc(S(=O)(=O)[O-])cc5F)c5ccc([nH]5)c(-c5c(F)cc(S(=O)(=O)[O-])cc5F)c5nc(c(-c6c(F)cc(S(=O)(=O)[O-])cc6F)c6ccc3[nH]6)C=C5)C=C4)cc2)c1
REMARK SMILES IDX 28 1 27 2 26 3 25 4 24 5 22 6 23 7 21 8 17 9 18 10 102 11
REMARK SMILES IDX 19 12 20 13 16 14 1 15 2 16 3 18 4 19 5 20 6 21 15 22 7 23
REMARK SMILES IDX 8 24 9 25 10 26 14 27 11 28 13 29 12 30 29 31 30 32 31 33
REMARK SMILES IDX 32 34 33 35 34 36 35 37 36 38 37 39 101 40 38 41 100 42
REMARK SMILES IDX 39 43 40 44 41 45 94 46 42 47 99 48 93 49 95 50 43 51 98 52
REMARK SMILES IDX 92 53 91 54 44 56 78 57 57 58 77 59 58 60 61 61 76 62 96 63
REMARK SMILES IDX 59 64 60 65 75 67 97 68 62 69 45 70 46 71 55 72 47 73 48 74
REMARK SMILES IDX 54 75 56 76 49 77 50 78 51 79 52 80 53 81 79 82 80 83 89 84
REMARK SMILES IDX 81 85 82 86 88 87 90 88 83 89 84 90 85 91 86 92 87 93 63 94
REMARK SMILES IDX 64 95 73 96 65 97 66 98 72 99 74 100 67 101 68 102 69 103
REMARK SMILES IDX 70 104 71 105
REMARK H PARENT 16 17 95 55 61 66
REMARK Flexibility Score: inf
ROOT
ATOM      1  C   UNL     1      -0.401  -2.400   6.097  1.00  0.00     0.188 C 
ENDROOT
BRANCH   1   2
ATOM      2  O   UNL     1      -1.649  -3.072   6.185  1.00  0.00    -0.376 OA
BRANCH   2   3
ATOM      3  C   UNL     1      -2.384  -3.367   5.005  1.00  0.00     0.202 C 
BRANCH   3   4
ATOM      4  C   UNL     1      -2.595  -2.316   3.902  1.00  0.00     0.261 C 
BRANCH   4   5
ATOM      5  O   UNL     1      -1.427  -1.577   3.524  1.00  0.00    -0.460 OA
BRANCH   5   6
ATOM      6  C   UNL     1      -1.437  -0.254   3.829  1.00  0.00     0.338 C 
ATOM      7  O   UNL     1      -2.341   0.374   4.354  1.00  0.00    -0.246 OA
BRANCH   6   8
ATOM      8  C   UNL     1      -0.082   0.293   3.612  1.00  0.00     0.062 A 
ATOM      9  C   UNL     1       1.906   0.525   2.251  1.00  0.00     0.042 A 
ATOM     10  C   UNL     1       2.525   1.208   3.309  1.00  0.00     0.026 A 
ATOM     11  C   UNL     1       0.610   0.038   2.424  1.00  0.00     0.041 A 
ATOM     12  C   UNL     1       1.834   1.462   4.497  1.00  0.00     0.003 A 
ATOM     13  C   UNL     1       0.520   1.024   4.641  1.00  0.00     0.016 A 
BRANCH   9  14
ATOM     14  N   UNL     1       2.630   0.395   1.048  1.00  0.00    -0.325 N 
ATOM     15  O   UNL     1       0.996  -0.440  -0.389  1.00  0.00    -0.274 OA
ATOM     16  C   UNL     1       2.132  -0.020  -0.177  1.00  0.00     0.234 C 
ATOM     17  H   UNL     1       3.587   0.622   1.082  1.00  0.00     0.169 HD
BRANCH  16  18
ATOM     18  C   UNL     1       3.151  -0.025  -1.305  1.00  0.00     0.177 C 
BRANCH  18  19
ATOM     19  S   UNL     1       4.267   1.405  -1.298  1.00  0.00    -0.084 SA
BRANCH  19  20
ATOM     20  C   UNL     1       3.164   2.727  -1.609  1.00  0.00     0.175 A 
ATOM     21  N   UNL     1       1.879   2.566  -1.821  1.00  0.00    -0.131 NA
ATOM     22  S   UNL     1       3.688   4.357  -1.649  1.00  0.00    -0.086 S 
ATOM     23  N   UNL     1       1.223   3.774  -1.981  1.00  0.00    -0.137 NA
ATOM     24  C   UNL     1       2.048   4.800  -1.925  1.00  0.00     0.148 A 
BRANCH  24  25
ATOM     25  C   UNL     1       1.667   6.207  -2.026  1.00  0.00     0.015 A 
ATOM     26  C   UNL     1       2.256   7.053  -2.970  1.00  0.00     0.031 A 
ATOM     27  C   UNL     1       0.696   6.729  -1.169  1.00  0.00     0.031 A 
ATOM     28  C   UNL     1       1.863   8.380  -3.003  1.00  0.00     0.111 A 
ATOM     29  C   UNL     1       0.378   8.073  -1.274  1.00  0.00     0.111 A 
ATOM     30  N   UNL     1       0.941   8.908  -2.173  1.00  0.00    -0.265 NA
ENDBRANCH  24  25
ENDBRANCH  19  20
ENDBRANCH  18  19
ENDBRANCH  16  18
ENDBRANCH   9  14
ENDBRANCH   6   8
ENDBRANCH   5   6
ENDBRANCH   4   5
ENDBRANCH   3   4
ENDBRANCH   2   3
ENDBRANCH   1   2
BRANCH   1  31
ATOM     31  C   UNL     1       0.688  -2.918   5.133  1.00  0.00     0.188 C 
BRANCH  31  32
ATOM     32  O   UNL     1       0.293  -3.994   4.317  1.00  0.00    -0.376 OA
BRANCH  32  33
ATOM     33  C   UNL     1       0.519  -5.327   4.740  1.00  0.00     0.202 C 
BRANCH  33  34
ATOM     34  C   UNL     1       0.747  -5.787   6.197  1.00  0.00     0.261 C 
BRANCH  34  35
ATOM     35  O   UNL     1       0.930  -4.799   7.213  1.00  0.00    -0.460 OA
BRANCH  35  36
ATOM     36  C   UNL     1       2.212  -4.518   7.546  1.00  0.00     0.338 C 
ATOM     37  O   UNL     1       3.219  -4.979   7.038  1.00  0.00    -0.246 OA
BRANCH  36  38
ATOM     38  C   UNL     1       2.219  -3.402   8.514  1.00  0.00     0.060 A 
ATOM     39  C   UNL     1       2.803  -2.191   8.124  1.00  0.00     0.016 A 
ATOM     40  C   UNL     1       1.706  -3.560   9.804  1.00  0.00     0.016 A 
ATOM     41  C   UNL     1       2.928  -1.150   9.043  1.00  0.00     0.010 A 
ATOM     42  C   UNL     1       1.846  -2.518  10.729  1.00  0.00     0.010 A 
ATOM     43  C   UNL     1       2.499  -1.327  10.366  1.00  0.00    -0.014 A 
BRANCH  43  44
ATOM     44  C   UNL     1       2.938  -0.351  11.396  1.00  0.00     0.031 A 
ATOM     45  C   UNL     1       4.141  -0.691  12.239  1.00  0.00     0.074 A 
ATOM     46  C   UNL     1       2.335   0.844  11.534  1.00  0.00     0.049 A 
ATOM     47  N   UNL     1       4.739   0.017  13.161  1.00  0.00    -0.248 NA
ATOM     48  C   UNL     1       4.754  -2.010  12.004  1.00  0.00     0.031 C 
ATOM     49  C   UNL     1       1.187   1.307  10.757  1.00  0.00     0.029 A 
ATOM     50  N   UNL     1       2.615   1.890  12.377  1.00  0.00    -0.354 N 
ATOM     51  C   UNL     1       5.795  -0.765  13.615  1.00  0.00     0.074 A 
ATOM     52  C   UNL     1       5.731  -2.020  12.898  1.00  0.00     0.031 C 
ATOM     53  C   UNL     1       0.860   2.548  11.160  1.00  0.00     0.029 A 
ATOM     54  C   UNL     1       1.761   2.958  12.237  1.00  0.00     0.049 A 
ATOM     55  H   UNL     1       3.359   1.877  13.023  1.00  0.00     0.167 HD
ATOM     56  C   UNL     1       6.744  -0.464  14.534  1.00  0.00     0.037 A 
ATOM     57  C   UNL     1       1.709   4.128  12.906  1.00  0.00     0.037 A 
ATOM     58  C   UNL     1       6.802   0.782  15.254  1.00  0.00     0.049 A 
ATOM     59  C   UNL     1       2.740   4.418  13.969  1.00  0.00     0.074 A 
ATOM     60  C   UNL     1       7.722   1.185  16.206  1.00  0.00     0.029 A 
ATOM     61  N   UNL     1       5.899   1.826  15.105  1.00  0.00    -0.354 N 
ATOM     62  N   UNL     1       3.745   3.677  14.374  1.00  0.00    -0.248 NA
ATOM     63  C   UNL     1       2.639   5.715  14.654  1.00  0.00     0.031 C 
ATOM     64  C   UNL     1       7.347   2.451  16.669  1.00  0.00     0.029 A 
ATOM     65  C   UNL     1       6.232   2.865  15.959  1.00  0.00     0.049 A 
ATOM     66  H   UNL     1       5.135   1.827  14.485  1.00  0.00     0.167 HD
ATOM     67  C   UNL     1       4.419   4.434  15.329  1.00  0.00     0.074 A 
ATOM     68  C   UNL     1       3.711   5.693  15.434  1.00  0.00     0.031 C 
ATOM     69  C   UNL     1       5.527   4.120  16.047  1.00  0.00     0.037 A 
BRANCH  56  70
ATOM     70  C   UNL     1       7.781  -1.513  14.829  1.00  0.00     0.058 A 
ATOM     71  C   UNL     1       8.768  -1.864  13.892  1.00  0.00     0.135 A 
ATOM     72  C   UNL     1       7.800  -2.167  16.072  1.00  0.00     0.135 A 
ATOM     73  F   UNL     1       8.786  -1.286  12.680  1.00  0.00    -0.206 F 
ATOM     74  C   UNL     1       9.716  -2.845  14.165  1.00  0.00     0.059 A 
ATOM     75  C   UNL     1       8.758  -3.130  16.378  1.00  0.00     0.059 A 
ATOM     76  F   UNL     1       6.879  -1.875  17.003  1.00  0.00    -0.206 F 
ATOM     77  C   UNL     1       9.702  -3.473  15.412  1.00  0.00     0.060 A 
BRANCH  77  78
ATOM     78  S   UNL     1      10.937  -4.745  15.751  1.00  0.00     0.124 S 
ATOM     79  O   UNL     1      10.466  -5.840  14.909  1.00  0.00    -0.237 OA
ATOM     80  O   UNL     1      12.174  -4.101  15.318  1.00  0.00    -0.237 OA
ATOM     81  O   UNL     1      10.817  -4.963  17.189  1.00  0.00    -0.744 OA
ENDBRANCH  77  78
ENDBRANCH  56  70
BRANCH  57  82
ATOM     82  C   UNL     1       0.651   5.125  12.587  1.00  0.00     0.058 A 
ATOM     83  C   UNL     1       0.967   6.353  11.985  1.00  0.00     0.135 A 
ATOM     84  C   UNL     1      -0.696   4.877  12.892  1.00  0.00     0.135 A 
ATOM     85  F   UNL     1       2.242   6.643  11.683  1.00  0.00    -0.206 F 
ATOM     86  C   UNL     1      -0.009   7.307  11.716  1.00  0.00     0.059 A 
ATOM     87  C   UNL     1      -1.695   5.803  12.606  1.00  0.00     0.059 A 
ATOM     88  F   UNL     1      -1.054   3.716  13.462  1.00  0.00    -0.206 F 
ATOM     89  C   UNL     1      -1.339   7.021  12.028  1.00  0.00     0.060 A 
BRANCH  89  90
ATOM     90  S   UNL     1      -2.603   8.249  11.634  1.00  0.00     0.124 S 
ATOM     91  O   UNL     1      -2.333   9.279  12.631  1.00  0.00    -0.237 OA
ATOM     92  O   UNL     1      -2.274   8.593  10.255  1.00  0.00    -0.237 OA
ATOM     93  O   UNL     1      -3.852   7.514  11.809  1.00  0.00    -0.744 OA
ENDBRANCH  89  90
ENDBRANCH  57  82
BRANCH  69  94
ATOM     94  C   UNL     1       6.086   5.180  16.961  1.00  0.00     0.058 A 
ATOM     95  C   UNL     1       5.426   5.585  18.132  1.00  0.00     0.135 A 
ATOM     96  C   UNL     1       7.319   5.787  16.666  1.00  0.00     0.135 A 
ATOM     97  F   UNL     1       4.246   5.038  18.466  1.00  0.00    -0.206 F 
ATOM     98  C   UNL     1       5.942   6.587  18.950  1.00  0.00     0.059 A 
ATOM     99  C   UNL     1       7.871   6.765  17.486  1.00  0.00     0.059 A 
ATOM    100  F   UNL     1       8.005   5.427  15.569  1.00  0.00    -0.206 F 
ATOM    101  C   UNL     1       7.163   7.175  18.615  1.00  0.00     0.060 A 
BRANCH 101 102
ATOM    102  S   UNL     1       7.819   8.481  19.675  1.00  0.00     0.124 S 
ATOM    103  O   UNL     1       6.950   9.601  19.332  1.00  0.00    -0.237 OA
ATOM    104  O   UNL     1       7.635   7.921  21.011  1.00  0.00    -0.237 OA
ATOM    105  O   UNL     1       9.207   8.607  19.241  1.00  0.00    -0.744 OA
ENDBRANCH 101 102
ENDBRANCH  69  94
ENDBRANCH  43  44
ENDBRANCH  36  38
ENDBRANCH  35  36
ENDBRANCH  34  35
ENDBRANCH  33  34
ENDBRANCH  32  33
ENDBRANCH  31  32
ENDBRANCH   1  31
TORSDOF 25
