REMARK SMILES COc1ccc(-c2ncn(CC(=O)OCCOCCOCCOC(=O)c3ccc(-c4c5nc(c(-c6c(F)cc(S(=O)(=O)[O-])cc6F)c6ccc([nH]6)c(-c6c(F)cc(S(=O)(=O)[O-])cc6F)c6nc(c(-c7c(F)cc(S(=O)(=O)[O-])cc7F)c7ccc4[nH]7)C=C6)C=C5)cc3)c2-c2ccc(OC)cc2)cc1
REMARK SMILES IDX 18 1 17 2 16 3 15 4 14 5 12 6 13 7 11 8 10 9 7 10 8 11 92 12
REMARK SMILES IDX 9 13 6 14 3 15 4 16 102 17 5 18 101 19 2 20 1 21 93 22 94 23
REMARK SMILES IDX 100 24 95 25 99 26 96 27 97 28 98 29 19 30 20 31 21 32 22 33
REMARK SMILES IDX 23 34 24 35 25 36 26 37 27 38 91 39 28 40 90 41 29 42 30 43
REMARK SMILES IDX 31 44 84 45 32 46 89 47 83 48 85 49 33 50 88 51 82 52 81 53
REMARK SMILES IDX 34 55 68 56 47 57 67 58 48 59 51 60 66 61 86 62 49 63 50 64
REMARK SMILES IDX 65 66 87 67 52 68 35 69 36 70 45 71 37 72 38 73 44 74 46 75
REMARK SMILES IDX 39 76 40 77 41 78 42 79 43 80 69 81 70 82 79 83 71 84 72 85
REMARK SMILES IDX 78 86 80 87 73 88 74 89 75 90 76 91 77 92 53 93 54 94 63 95
REMARK SMILES IDX 55 96 56 97 62 98 64 99 57 100 58 101 59 102 60 103 61 104
REMARK H PARENT 85 54 51 65
REMARK Flexibility Score: inf
ROOT
ATOM      1  C   UNL     1      -2.474  -8.196   3.937  1.00  0.00     0.188 C 
ENDROOT
BRANCH   1   2
ATOM      2  O   UNL     1      -3.266  -8.817   4.932  1.00  0.00    -0.376 OA
BRANCH   2   3
ATOM      3  C   UNL     1      -2.618  -9.029   6.177  1.00  0.00     0.202 C 
BRANCH   3   4
ATOM      4  C   UNL     1      -1.299  -9.843   6.175  1.00  0.00     0.261 C 
BRANCH   4   5
ATOM      5  O   UNL     1      -0.188  -9.263   5.422  1.00  0.00    -0.462 OA
BRANCH   5   6
ATOM      6  C   UNL     1       0.537 -10.078   4.616  1.00  0.00     0.326 C 
ATOM      7  O   UNL     1       0.362 -11.297   4.596  1.00  0.00    -0.250 OA
BRANCH   6   8
ATOM      8  C   UNL     1       1.611  -9.455   3.722  1.00  0.00     0.246 C 
BRANCH   8   9
ATOM      9  N   UNL     1       1.814  -8.004   3.648  1.00  0.00    -0.319 N 
ATOM     10  C   UNL     1       2.095  -5.899   3.079  1.00  0.00     0.096 A 
ATOM     11  N   UNL     1       2.747  -6.085   4.278  1.00  0.00    -0.236 NA
ATOM     12  C   UNL     1       1.597  -7.116   2.573  1.00  0.00     0.076 A 
ATOM     13  C   UNL     1       2.584  -7.346   4.574  1.00  0.00     0.201 A 
BRANCH  10  14
ATOM     14  C   UNL     1       1.848  -4.538   2.610  1.00  0.00     0.003 A 
ATOM     15  C   UNL     1       1.211  -1.914   1.764  1.00  0.00     0.118 A 
ATOM     16  C   UNL     1       0.474  -2.527   2.771  1.00  0.00     0.047 A 
ATOM     17  C   UNL     1       2.326  -2.575   1.243  1.00  0.00     0.047 A 
ATOM     18  C   UNL     1       0.810  -3.812   3.210  1.00  0.00     0.014 A 
ATOM     19  C   UNL     1       2.644  -3.884   1.664  1.00  0.00     0.014 A 
BRANCH  15  20
ATOM     20  O   UNL     1       0.776  -0.667   1.410  1.00  0.00    -0.497 OA
ATOM     21  C   UNL     1       1.094  -0.239   0.088  1.00  0.00     0.278 C 
ENDBRANCH  15  20
ENDBRANCH  10  14
BRANCH  12  22
ATOM     22  C   UNL     1       0.866  -7.438   1.316  1.00  0.00     0.001 A 
ATOM     23  C   UNL     1      -0.240  -8.295   1.341  1.00  0.00     0.014 A 
ATOM     24  C   UNL     1       1.199  -6.897   0.067  1.00  0.00     0.014 A 
ATOM     25  C   UNL     1      -1.041  -8.557   0.226  1.00  0.00     0.047 A 
ATOM     26  C   UNL     1       0.430  -7.190  -1.082  1.00  0.00     0.047 A 
ATOM     27  C   UNL     1      -0.708  -7.987  -0.988  1.00  0.00     0.118 A 
BRANCH  27  28
ATOM     28  O   UNL     1      -1.416  -8.287  -2.115  1.00  0.00    -0.497 OA
ATOM     29  C   UNL     1      -2.699  -7.657  -2.141  1.00  0.00     0.278 C 
ENDBRANCH  27  28
ENDBRANCH  12  22
ENDBRANCH   8   9
ENDBRANCH   6   8
ENDBRANCH   5   6
ENDBRANCH   4   5
ENDBRANCH   3   4
ENDBRANCH   2   3
ENDBRANCH   1   2
BRANCH   1  30
ATOM     30  C   UNL     1      -1.564  -7.028   4.365  1.00  0.00     0.188 C 
BRANCH  30  31
ATOM     31  O   UNL     1      -2.024  -6.112   5.340  1.00  0.00    -0.376 OA
BRANCH  31  32
ATOM     32  C   UNL     1      -3.230  -5.426   5.062  1.00  0.00     0.202 C 
BRANCH  32  33
ATOM     33  C   UNL     1      -3.234  -4.612   3.779  1.00  0.00     0.261 C 
BRANCH  33  34
ATOM     34  O   UNL     1      -3.304  -5.456   2.629  1.00  0.00    -0.460 OA
BRANCH  34  35
ATOM     35  C   UNL     1      -2.315  -5.203   1.741  1.00  0.00     0.338 C 
ATOM     36  O   UNL     1      -1.129  -5.221   1.940  1.00  0.00    -0.246 OA
BRANCH  35  37
ATOM     37  C   UNL     1      -2.853  -4.711   0.494  1.00  0.00     0.060 A 
ATOM     38  C   UNL     1      -1.918  -4.383  -0.496  1.00  0.00     0.016 A 
ATOM     39  C   UNL     1      -4.215  -4.435   0.395  1.00  0.00     0.016 A 
ATOM     40  C   UNL     1      -2.354  -3.712  -1.604  1.00  0.00     0.010 A 
ATOM     41  C   UNL     1      -4.648  -3.756  -0.703  1.00  0.00     0.010 A 
ATOM     42  C   UNL     1      -3.707  -3.379  -1.663  1.00  0.00    -0.014 A 
BRANCH  42  43
ATOM     43  C   UNL     1      -4.183  -2.729  -2.851  1.00  0.00     0.031 A 
ATOM     44  C   UNL     1      -4.178  -3.623  -4.037  1.00  0.00     0.074 A 
ATOM     45  C   UNL     1      -4.744  -1.514  -2.755  1.00  0.00     0.049 A 
ATOM     46  N   UNL     1      -3.472  -3.518  -5.112  1.00  0.00    -0.248 NA
ATOM     47  C   UNL     1      -4.878  -4.917  -3.914  1.00  0.00     0.031 C 
ATOM     48  C   UNL     1      -5.036  -0.733  -1.548  1.00  0.00     0.029 A 
ATOM     49  N   UNL     1      -5.312  -0.788  -3.741  1.00  0.00    -0.354 N 
ATOM     50  C   UNL     1      -3.839  -4.600  -5.909  1.00  0.00     0.074 A 
ATOM     51  C   UNL     1      -4.504  -5.527  -5.038  1.00  0.00     0.031 C 
ATOM     52  C   UNL     1      -5.945   0.220  -1.851  1.00  0.00     0.029 A 
ATOM     53  C   UNL     1      -6.170   0.203  -3.283  1.00  0.00     0.049 A 
ATOM     54  H   UNL     1      -5.135  -0.947  -4.696  1.00  0.00     0.167 HD
ATOM     55  C   UNL     1      -3.801  -4.520  -7.269  1.00  0.00     0.037 A 
ATOM     56  C   UNL     1      -7.075   0.837  -4.068  1.00  0.00     0.037 A 
ATOM     57  C   UNL     1      -2.971  -3.415  -7.685  1.00  0.00     0.049 A 
ATOM     58  C   UNL     1      -6.612   0.646  -5.479  1.00  0.00     0.074 A 
ATOM     59  C   UNL     1      -1.640  -3.090  -7.503  1.00  0.00     0.029 A 
ATOM     60  N   UNL     1      -3.598  -2.241  -8.036  1.00  0.00    -0.354 N 
ATOM     61  N   UNL     1      -5.477   1.122  -5.930  1.00  0.00    -0.248 NA
ATOM     62  C   UNL     1      -7.133  -0.499  -6.216  1.00  0.00     0.031 C 
ATOM     63  C   UNL     1      -1.637  -1.685  -7.259  1.00  0.00     0.029 A 
ATOM     64  C   UNL     1      -2.947  -1.220  -7.390  1.00  0.00     0.049 A 
ATOM     65  H   UNL     1      -4.370  -2.150  -8.640  1.00  0.00     0.167 HD
ATOM     66  C   UNL     1      -4.948   0.117  -6.734  1.00  0.00     0.074 A 
ATOM     67  C   UNL     1      -6.044  -0.834  -6.917  1.00  0.00     0.031 C 
ATOM     68  C   UNL     1      -3.599  -0.011  -6.930  1.00  0.00     0.037 A 
BRANCH  55  69
ATOM     69  C   UNL     1      -4.810  -5.172  -8.194  1.00  0.00     0.058 A 
ATOM     70  C   UNL     1      -4.653  -5.014  -9.588  1.00  0.00     0.135 A 
ATOM     71  C   UNL     1      -6.061  -5.692  -7.788  1.00  0.00     0.135 A 
ATOM     72  F   UNL     1      -3.501  -4.552 -10.100  1.00  0.00    -0.206 F 
ATOM     73  C   UNL     1      -5.691  -5.245 -10.491  1.00  0.00     0.059 A 
ATOM     74  C   UNL     1      -7.091  -5.975  -8.676  1.00  0.00     0.059 A 
ATOM     75  F   UNL     1      -6.394  -5.875  -6.507  1.00  0.00    -0.206 F 
ATOM     76  C   UNL     1      -6.916  -5.701 -10.020  1.00  0.00     0.060 A 
BRANCH  76  77
ATOM     77  S   UNL     1      -8.297  -5.880 -11.159  1.00  0.00     0.124 S 
ATOM     78  O   UNL     1      -8.572  -4.489 -11.500  1.00  0.00    -0.237 OA
ATOM     79  O   UNL     1      -7.711  -6.697 -12.216  1.00  0.00    -0.237 OA
ATOM     80  O   UNL     1      -9.314  -6.546 -10.350  1.00  0.00    -0.744 OA
ENDBRANCH  76  77
ENDBRANCH  55  69
BRANCH  56  81
ATOM     81  C   UNL     1      -8.469   1.175  -3.683  1.00  0.00     0.058 A 
ATOM     82  C   UNL     1      -9.240   2.066  -4.446  1.00  0.00     0.135 A 
ATOM     83  C   UNL     1      -9.162   0.446  -2.692  1.00  0.00     0.135 A 
ATOM     84  F   UNL     1      -8.666   2.780  -5.426  1.00  0.00    -0.206 F 
ATOM     85  C   UNL     1     -10.621   2.201  -4.261  1.00  0.00     0.059 A 
ATOM     86  C   UNL     1     -10.532   0.573  -2.480  1.00  0.00     0.059 A 
ATOM     87  F   UNL     1      -8.541  -0.483  -1.949  1.00  0.00    -0.206 F 
ATOM     88  C   UNL     1     -11.262   1.436  -3.285  1.00  0.00     0.060 A 
BRANCH  88  89
ATOM     89  S   UNL     1     -13.064   1.484  -3.152  1.00  0.00     0.124 S 
ATOM     90  O   UNL     1     -13.293   2.829  -2.636  1.00  0.00    -0.237 OA
ATOM     91  O   UNL     1     -13.481   1.249  -4.530  1.00  0.00    -0.237 OA
ATOM     92  O   UNL     1     -13.364   0.399  -2.220  1.00  0.00    -0.744 OA
ENDBRANCH  88  89
ENDBRANCH  56  81
BRANCH  68  93
ATOM     93  C   UNL     1      -2.688   1.085  -6.427  1.00  0.00     0.058 A 
ATOM     94  C   UNL     1      -2.506   1.401  -5.068  1.00  0.00     0.135 A 
ATOM     95  C   UNL     1      -1.825   1.705  -7.340  1.00  0.00     0.135 A 
ATOM     96  F   UNL     1      -3.203   0.770  -4.116  1.00  0.00    -0.206 F 
ATOM     97  C   UNL     1      -1.544   2.319  -4.640  1.00  0.00     0.059 A 
ATOM     98  C   UNL     1      -0.836   2.600  -6.936  1.00  0.00     0.059 A 
ATOM     99  F   UNL     1      -1.893   1.393  -8.645  1.00  0.00    -0.206 F 
ATOM    100  C   UNL     1      -0.711   2.913  -5.584  1.00  0.00     0.060 A 
BRANCH 100 101
ATOM    101  S   UNL     1       0.583   4.042  -5.024  1.00  0.00     0.124 S 
ATOM    102  O   UNL     1      -0.188   5.207  -4.606  1.00  0.00    -0.237 OA
ATOM    103  O   UNL     1       1.221   3.284  -3.950  1.00  0.00    -0.237 OA
ATOM    104  O   UNL     1       1.408   4.232  -6.215  1.00  0.00    -0.744 OA
ENDBRANCH 100 101
ENDBRANCH  68  93
ENDBRANCH  42  43
ENDBRANCH  35  37
ENDBRANCH  34  35
ENDBRANCH  33  34
ENDBRANCH  32  33
ENDBRANCH  31  32
ENDBRANCH  30  31
ENDBRANCH   1  30
TORSDOF 25
