REMARK SMILES O=C(OCCOCCOCCOC(=O)c1ccc(-c2c3nc(c(-c4c(F)cc(S(=O)(=O)[O-])cc4F)c4ccc([nH]4)c(-c4c(F)cc(S(=O)(=O)[O-])cc4F)c4nc(c(-c5c(F)cc(S(=O)(=O)[O-])cc5F)c5ccc2[nH]5)C=C4)C=C3)cc1)c1ccc(C[C@H]2SC(=O)N(c3ccccc3)C2=O)cc1
REMARK SMILES IDX 7 1 6 2 5 3 4 4 3 5 2 6 1 7 81 8 82 9 100 10 83 11 99 12
REMARK SMILES IDX 84 13 85 14 86 15 87 16 97 17 88 18 90 19 98 20 89 21 91 22
REMARK SMILES IDX 92 23 96 24 93 25 95 26 94 27 8 28 9 29 10 30 11 31 12 32
REMARK SMILES IDX 13 33 14 34 15 35 16 36 80 37 17 38 79 39 18 40 19 41 20 42
REMARK SMILES IDX 73 43 21 44 78 45 72 46 74 47 22 48 77 49 71 50 70 51 23 53
REMARK SMILES IDX 57 54 36 55 56 56 37 57 40 58 55 59 75 60 38 61 39 62 54 64
REMARK SMILES IDX 76 65 41 66 24 67 25 68 34 69 26 70 27 71 33 72 35 73 28 74
REMARK SMILES IDX 29 75 30 76 31 77 32 78 58 79 59 80 68 81 60 82 61 83 67 84
REMARK SMILES IDX 69 85 62 86 63 87 64 88 65 89 66 90 42 91 43 92 52 93 44 94
REMARK SMILES IDX 45 95 51 96 53 97 46 98 47 99 48 100 49 101 50 102
REMARK H PARENT 74 52 40 63
REMARK Flexibility Score: inf
ROOT
ATOM      1  C   UNL     1      10.108   8.329   2.890  1.00  0.00     0.188 C 
ENDROOT
BRANCH   1   2
ATOM      2  O   UNL     1      10.087   6.980   2.438  1.00  0.00    -0.376 OA
BRANCH   2   3
ATOM      3  C   UNL     1       9.003   6.544   1.625  1.00  0.00     0.202 C 
BRANCH   3   4
ATOM      4  C   UNL     1       7.600   7.124   1.837  1.00  0.00     0.261 C 
BRANCH   4   5
ATOM      5  O   UNL     1       7.395   7.938   3.008  1.00  0.00    -0.460 OA
BRANCH   5   6
ATOM      6  C   UNL     1       7.268   7.591   4.309  1.00  0.00     0.338 C 
ATOM      7  O   UNL     1       7.067   8.456   5.155  1.00  0.00    -0.246 OA
BRANCH   6   8
ATOM      8  C   UNL     1       7.314   6.180   4.730  1.00  0.00     0.060 A 
ATOM      9  C   UNL     1       8.422   5.361   4.526  1.00  0.00     0.016 A 
ATOM     10  C   UNL     1       6.243   5.699   5.486  1.00  0.00     0.016 A 
ATOM     11  C   UNL     1       8.379   4.018   4.882  1.00  0.00     0.004 A 
ATOM     12  C   UNL     1       6.204   4.357   5.866  1.00  0.00     0.004 A 
ATOM     13  C   UNL     1       7.236   3.492   5.488  1.00  0.00    -0.046 A 
BRANCH  13  14
ATOM     14  C   UNL     1       7.064   1.997   5.596  1.00  0.00     0.060 C 
BRANCH  14  15
ATOM     15  C   UNL     1       6.392   1.437   4.327  1.00  0.00     0.151 C 
ATOM     16  S   UNL     1       7.427   1.571   2.834  1.00  0.00    -0.050 SA
ATOM     17  C   UNL     1       6.142  -0.043   4.486  1.00  0.00     0.248 C 
ATOM     18  C   UNL     1       7.859  -0.120   2.880  1.00  0.00     0.293 C 
ATOM     19  N   UNL     1       7.030  -0.800   3.736  1.00  0.00    -0.240 N 
ATOM     20  O   UNL     1       5.283  -0.464   5.256  1.00  0.00    -0.273 OA
ATOM     21  O   UNL     1       8.744  -0.552   2.151  1.00  0.00    -0.261 OA
BRANCH  19  22
ATOM     22  C   UNL     1       7.055  -2.217   3.821  1.00  0.00     0.053 A 
ATOM     23  C   UNL     1       5.859  -2.946   3.881  1.00  0.00     0.027 A 
ATOM     24  C   UNL     1       8.271  -2.914   3.847  1.00  0.00     0.027 A 
ATOM     25  C   UNL     1       5.876  -4.338   3.964  1.00  0.00     0.002 A 
ATOM     26  C   UNL     1       8.287  -4.305   3.967  1.00  0.00     0.002 A 
ATOM     27  C   UNL     1       7.090  -5.016   4.020  1.00  0.00     0.000 A 
ENDBRANCH  19  22
ENDBRANCH  14  15
ENDBRANCH  13  14
ENDBRANCH   6   8
ENDBRANCH   5   6
ENDBRANCH   4   5
ENDBRANCH   3   4
ENDBRANCH   2   3
ENDBRANCH   1   2
BRANCH   1  28
ATOM     28  C   UNL     1      11.524   8.829   3.186  1.00  0.00     0.188 C 
BRANCH  28  29
ATOM     29  O   UNL     1      12.424   8.875   2.085  1.00  0.00    -0.376 OA
BRANCH  29  30
ATOM     30  C   UNL     1      12.575   7.674   1.337  1.00  0.00     0.202 C 
BRANCH  30  31
ATOM     31  C   UNL     1      13.190   6.442   2.031  1.00  0.00     0.261 C 
BRANCH  31  32
ATOM     32  O   UNL     1      12.623   6.051   3.299  1.00  0.00    -0.460 OA
BRANCH  32  33
ATOM     33  C   UNL     1      13.439   6.239   4.367  1.00  0.00     0.338 C 
ATOM     34  O   UNL     1      14.547   6.751   4.358  1.00  0.00    -0.246 OA
BRANCH  33  35
ATOM     35  C   UNL     1      12.841   5.745   5.623  1.00  0.00     0.060 A 
ATOM     36  C   UNL     1      12.215   6.646   6.489  1.00  0.00     0.016 A 
ATOM     37  C   UNL     1      13.155   4.455   6.063  1.00  0.00     0.016 A 
ATOM     38  C   UNL     1      11.972   6.281   7.818  1.00  0.00     0.010 A 
ATOM     39  C   UNL     1      12.889   4.087   7.390  1.00  0.00     0.010 A 
ATOM     40  C   UNL     1      12.346   5.014   8.296  1.00  0.00    -0.014 A 
BRANCH  40  41
ATOM     41  C   UNL     1      12.258   4.708   9.754  1.00  0.00     0.031 A 
ATOM     42  C   UNL     1      13.514   4.587  10.588  1.00  0.00     0.074 A 
ATOM     43  C   UNL     1      11.056   4.573  10.348  1.00  0.00     0.049 A 
ATOM     44  N   UNL     1      13.640   4.328  11.867  1.00  0.00    -0.248 NA
ATOM     45  C   UNL     1      14.795   4.777   9.890  1.00  0.00     0.031 C 
ATOM     46  C   UNL     1       9.765   4.670   9.668  1.00  0.00     0.029 A 
ATOM     47  N   UNL     1      10.727   4.321  11.659  1.00  0.00    -0.354 N 
ATOM     48  C   UNL     1      15.008   4.332  12.129  1.00  0.00     0.074 A 
ATOM     49  C   UNL     1      15.671   4.568  10.864  1.00  0.00     0.031 C 
ATOM     50  C   UNL     1       8.784   4.481  10.566  1.00  0.00     0.029 A 
ATOM     51  C   UNL     1       9.373   4.216  11.877  1.00  0.00     0.049 A 
ATOM     52  H   UNL     1      11.396   4.226  12.374  1.00  0.00     0.167 HD
ATOM     53  C   UNL     1      15.654   4.176  13.313  1.00  0.00     0.037 A 
ATOM     54  C   UNL     1       8.683   3.921  12.997  1.00  0.00     0.037 A 
ATOM     55  C   UNL     1      14.995   3.937  14.575  1.00  0.00     0.049 A 
ATOM     56  C   UNL     1       9.424   3.703  14.292  1.00  0.00     0.074 A 
ATOM     57  C   UNL     1      15.565   3.775  15.828  1.00  0.00     0.029 A 
ATOM     58  N   UNL     1      13.623   3.823  14.750  1.00  0.00    -0.354 N 
ATOM     59  N   UNL     1      10.715   3.739  14.523  1.00  0.00    -0.248 NA
ATOM     60  C   UNL     1       8.610   3.419  15.482  1.00  0.00     0.031 C 
ATOM     61  C   UNL     1      14.545   3.511  16.748  1.00  0.00     0.029 A 
ATOM     62  C   UNL     1      13.332   3.571  16.083  1.00  0.00     0.049 A 
ATOM     63  H   UNL     1      12.954   3.908  14.032  1.00  0.00     0.167 HD
ATOM     64  C   UNL     1      10.864   3.505  15.888  1.00  0.00     0.074 A 
ATOM     65  C   UNL     1       9.531   3.358  16.433  1.00  0.00     0.031 C 
ATOM     66  C   UNL     1      12.002   3.418  16.622  1.00  0.00     0.037 A 
BRANCH  53  67
ATOM     67  C   UNL     1      17.161   4.254  13.310  1.00  0.00     0.058 A 
ATOM     68  C   UNL     1      17.836   5.465  13.083  1.00  0.00     0.135 A 
ATOM     69  C   UNL     1      17.940   3.121  13.600  1.00  0.00     0.135 A 
ATOM     70  F   UNL     1      17.146   6.579  12.792  1.00  0.00    -0.206 F 
ATOM     71  C   UNL     1      19.226   5.545  13.120  1.00  0.00     0.059 A 
ATOM     72  C   UNL     1      19.330   3.184  13.672  1.00  0.00     0.059 A 
ATOM     73  F   UNL     1      17.352   1.937  13.830  1.00  0.00    -0.206 F 
ATOM     74  C   UNL     1      19.965   4.399  13.419  1.00  0.00     0.060 A 
BRANCH  74  75
ATOM     75  S   UNL     1      21.765   4.526  13.479  1.00  0.00     0.124 S 
ATOM     76  O   UNL     1      22.092   4.722  12.070  1.00  0.00    -0.237 OA
ATOM     77  O   UNL     1      21.967   5.684  14.344  1.00  0.00    -0.237 OA
ATOM     78  O   UNL     1      22.179   3.246  14.045  1.00  0.00    -0.744 OA
ENDBRANCH  74  75
ENDBRANCH  53  67
BRANCH  54  79
ATOM     79  C   UNL     1       7.200   3.797  12.942  1.00  0.00     0.058 A 
ATOM     80  C   UNL     1       6.361   4.708  13.600  1.00  0.00     0.135 A 
ATOM     81  C   UNL     1       6.593   2.748  12.232  1.00  0.00     0.135 A 
ATOM     82  F   UNL     1       6.891   5.721  14.303  1.00  0.00    -0.206 F 
ATOM     83  C   UNL     1       4.976   4.573  13.576  1.00  0.00     0.059 A 
ATOM     84  C   UNL     1       5.211   2.612  12.165  1.00  0.00     0.059 A 
ATOM     85  F   UNL     1       7.348   1.855  11.572  1.00  0.00    -0.206 F 
ATOM     86  C   UNL     1       4.410   3.522  12.852  1.00  0.00     0.060 A 
BRANCH  86  87
ATOM     87  S   UNL     1       2.612   3.381  12.787  1.00  0.00     0.124 S 
ATOM     88  O   UNL     1       2.303   2.929  14.138  1.00  0.00    -0.237 OA
ATOM     89  O   UNL     1       2.210   4.746  12.460  1.00  0.00    -0.237 OA
ATOM     90  O   UNL     1       2.391   2.402  11.727  1.00  0.00    -0.744 OA
ENDBRANCH  86  87
ENDBRANCH  54  79
BRANCH  66  91
ATOM     91  C   UNL     1      11.852   3.180  18.104  1.00  0.00     0.058 A 
ATOM     92  C   UNL     1      11.373   1.963  18.617  1.00  0.00     0.135 A 
ATOM     93  C   UNL     1      12.196   4.182  19.027  1.00  0.00     0.135 A 
ATOM     94  F   UNL     1      11.028   0.968  17.784  1.00  0.00    -0.206 F 
ATOM     95  C   UNL     1      11.188   1.768  19.983  1.00  0.00     0.059 A 
ATOM     96  C   UNL     1      12.054   3.996  20.400  1.00  0.00     0.059 A 
ATOM     97  F   UNL     1      12.676   5.361  18.599  1.00  0.00    -0.206 F 
ATOM     98  C   UNL     1      11.527   2.794  20.867  1.00  0.00     0.060 A 
BRANCH  98  99
ATOM     99  S   UNL     1      11.268   2.533  22.635  1.00  0.00     0.124 S 
ATOM    100  O   UNL     1       9.814   2.606  22.734  1.00  0.00    -0.237 OA
ATOM    101  O   UNL     1      11.853   1.212  22.845  1.00  0.00    -0.237 OA
ATOM    102  O   UNL     1      11.995   3.639  23.252  1.00  0.00    -0.744 OA
ENDBRANCH  98  99
ENDBRANCH  66  91
ENDBRANCH  40  41
ENDBRANCH  33  35
ENDBRANCH  32  33
ENDBRANCH  31  32
ENDBRANCH  30  31
ENDBRANCH  29  30
ENDBRANCH  28  29
ENDBRANCH   1  28
TORSDOF 23
