REMARK SMILES C[C@H]1[C@@H](C(=O)OCCOCCOCCOC(=O)c2ccc(-c3c4nc(c(-c5c(F)cc(S(=O)(=O)[O-])cc5F)c5ccc([nH]5)c(-c5c(F)cc(S(=O)(=O)[O-])cc5F)c5nc(c(-c6c(F)cc(S(=O)(=O)[O-])cc6F)c6ccc3[nH]6)C=C5)C=C4)cc2)CCN1C(=O)N[C@@H]1CC[N@@H+]2CCCC[C@H]12
REMARK SMILES IDX 11 1 10 2 9 3 8 4 7 5 6 6 4 7 5 8 3 9 1 10 2 11 86 12 84 13
REMARK SMILES IDX 85 14 87 15 88 16 89 17 90 19 91 20 98 21 92 22 93 23 97 24
REMARK SMILES IDX 94 25 96 27 95 28 12 29 13 30 14 31 15 32 16 33 17 34 18 35
REMARK SMILES IDX 19 36 83 37 20 38 82 39 21 40 22 41 23 42 76 43 24 44 81 45
REMARK SMILES IDX 75 46 77 47 25 48 80 49 74 50 73 51 26 53 60 54 39 55 59 56
REMARK SMILES IDX 40 57 43 58 58 59 78 60 41 61 42 62 57 64 79 65 44 66 27 67
REMARK SMILES IDX 28 68 37 69 29 70 30 71 36 72 38 73 31 74 32 75 33 76 34 77
REMARK SMILES IDX 35 78 61 79 62 80 71 81 63 82 64 83 70 84 72 85 65 86 66 87
REMARK SMILES IDX 67 88 68 89 69 90 45 91 46 92 55 93 47 94 48 95 54 96 56 97
REMARK SMILES IDX 49 98 50 99 51 100 52 101 53 102
REMARK H PARENT 89 18 93 26 77 52 43 63
REMARK Flexibility Score: inf
ROOT
ATOM      1  C   UNL     1      -2.029  -2.546  -1.115  1.00  0.00     0.188 C 
ENDROOT
BRANCH   1   2
ATOM      2  C   UNL     1      -1.450  -2.400  -2.538  1.00  0.00     0.188 C 
BRANCH   2   3
ATOM      3  O   UNL     1      -2.228  -3.054  -3.535  1.00  0.00    -0.376 OA
BRANCH   3   4
ATOM      4  C   UNL     1      -1.565  -4.132  -4.187  1.00  0.00     0.202 C 
BRANCH   4   5
ATOM      5  C   UNL     1      -1.707  -5.425  -3.389  1.00  0.00     0.261 C 
BRANCH   5   6
ATOM      6  O   UNL     1      -1.122  -5.334  -2.077  1.00  0.00    -0.463 OA
BRANCH   6   7
ATOM      7  C   UNL     1       0.222  -5.512  -1.971  1.00  0.00     0.311 C 
ATOM      8  O   UNL     1       0.965  -5.739  -2.913  1.00  0.00    -0.252 OA
BRANCH   7   9
ATOM      9  C   UNL     1       0.628  -5.451  -0.507  1.00  0.00     0.123 C 
ATOM     10  C   UNL     1       1.983  -3.301  -1.110  1.00  0.00     0.032 C 
ATOM     11  C   UNL     1       1.551  -4.293  -0.034  1.00  0.00     0.098 C 
ATOM     12  N   UNL     1       2.719  -4.958   0.551  1.00  0.00    -0.321 N 
ATOM     13  C   UNL     1       1.368  -6.737  -0.129  1.00  0.00     0.039 C 
ATOM     14  C   UNL     1       2.811  -6.300   0.002  1.00  0.00     0.122 C 
BRANCH  12  15
ATOM     15  C   UNL     1       3.707  -4.532   1.381  1.00  0.00     0.318 C 
ATOM     16  O   UNL     1       4.692  -5.245   1.605  1.00  0.00    -0.249 OA
ATOM     17  N   UNL     1       3.712  -3.359   2.030  1.00  0.00    -0.329 N 
ATOM     18  H   UNL     1       4.556  -3.244   2.525  1.00  0.00     0.165 HD
BRANCH  17  19
ATOM     19  C   UNL     1       2.847  -2.204   2.223  1.00  0.00     0.147 C 
ATOM     20  C   UNL     1       3.283  -1.021   1.384  1.00  0.00     0.092 C 
ATOM     21  C   UNL     1       2.831  -1.572   3.651  1.00  0.00     0.207 C 
ATOM     22  C   UNL     1       2.526   0.127   2.022  1.00  0.00     0.264 C 
ATOM     23  N   UNL     1       2.626  -0.104   3.469  1.00  0.00    -0.331 N 
ATOM     24  C   UNL     1       4.042  -1.905   4.535  1.00  0.00     0.067 C 
ATOM     25  C   UNL     1       3.701   0.735   4.024  1.00  0.00     0.262 C 
ATOM     26  H   UNL     1       1.786   0.165   3.981  1.00  0.00     0.348 HD
ATOM     27  C   UNL     1       4.000  -1.066   5.805  1.00  0.00     0.012 C 
ATOM     28  C   UNL     1       4.032   0.425   5.484  1.00  0.00     0.062 C 
ENDBRANCH  17  19
ENDBRANCH  12  15
ENDBRANCH   7   9
ENDBRANCH   6   7
ENDBRANCH   5   6
ENDBRANCH   4   5
ENDBRANCH   3   4
ENDBRANCH   2   3
ENDBRANCH   1   2
BRANCH   1  29
ATOM     29  O   UNL     1      -3.442  -2.639  -0.966  1.00  0.00    -0.376 OA
BRANCH  29  30
ATOM     30  C   UNL     1      -4.237  -1.740  -1.733  1.00  0.00     0.202 C 
BRANCH  30  31
ATOM     31  C   UNL     1      -4.060  -0.255  -1.408  1.00  0.00     0.261 C 
BRANCH  31  32
ATOM     32  O   UNL     1      -2.715   0.188  -1.661  1.00  0.00    -0.460 OA
BRANCH  32  33
ATOM     33  C   UNL     1      -2.300   1.224  -0.895  1.00  0.00     0.338 C 
ATOM     34  O   UNL     1      -2.961   1.840  -0.080  1.00  0.00    -0.246 OA
BRANCH  33  35
ATOM     35  C   UNL     1      -0.886   1.539  -1.194  1.00  0.00     0.060 A 
ATOM     36  C   UNL     1       0.118   0.593  -0.992  1.00  0.00     0.016 A 
ATOM     37  C   UNL     1      -0.542   2.844  -1.551  1.00  0.00     0.016 A 
ATOM     38  C   UNL     1       1.458   0.966  -1.097  1.00  0.00     0.010 A 
ATOM     39  C   UNL     1       0.808   3.209  -1.654  1.00  0.00     0.010 A 
ATOM     40  C   UNL     1       1.827   2.285  -1.368  1.00  0.00    -0.014 A 
BRANCH  40  41
ATOM     41  C   UNL     1       3.234   2.736  -1.145  1.00  0.00     0.031 A 
ATOM     42  C   UNL     1       3.500   3.770  -0.076  1.00  0.00     0.074 A 
ATOM     43  C   UNL     1       4.296   2.180  -1.763  1.00  0.00     0.049 A 
ATOM     44  N   UNL     1       4.565   4.500   0.128  1.00  0.00    -0.248 NA
ATOM     45  C   UNL     1       2.424   3.991   0.906  1.00  0.00     0.031 C 
ATOM     46  C   UNL     1       4.256   1.034  -2.670  1.00  0.00     0.029 A 
ATOM     47  N   UNL     1       5.633   2.508  -1.705  1.00  0.00    -0.354 N 
ATOM     48  C   UNL     1       4.260   5.319   1.210  1.00  0.00     0.074 A 
ATOM     49  C   UNL     1       2.926   4.969   1.645  1.00  0.00     0.031 C 
ATOM     50  C   UNL     1       5.507   0.743  -3.066  1.00  0.00     0.029 A 
ATOM     51  C   UNL     1       6.423   1.754  -2.542  1.00  0.00     0.049 A 
ATOM     52  H   UNL     1       5.989   3.215  -1.121  1.00  0.00     0.167 HD
ATOM     53  C   UNL     1       5.016   6.291   1.772  1.00  0.00     0.037 A 
ATOM     54  C   UNL     1       7.712   1.904  -2.912  1.00  0.00     0.037 A 
ATOM     55  C   UNL     1       6.360   6.602   1.369  1.00  0.00     0.049 A 
ATOM     56  C   UNL     1       8.501   3.078  -2.390  1.00  0.00     0.074 A 
ATOM     57  C   UNL     1       7.183   7.619   1.821  1.00  0.00     0.029 A 
ATOM     58  N   UNL     1       7.087   5.885   0.433  1.00  0.00    -0.354 N 
ATOM     59  N   UNL     1       8.152   3.974  -1.498  1.00  0.00    -0.248 NA
ATOM     60  C   UNL     1       9.841   3.292  -2.958  1.00  0.00     0.031 C 
ATOM     61  C   UNL     1       8.397   7.537   1.131  1.00  0.00     0.029 A 
ATOM     62  C   UNL     1       8.344   6.442   0.282  1.00  0.00     0.049 A 
ATOM     63  H   UNL     1       6.758   5.094  -0.053  1.00  0.00     0.167 HD
ATOM     64  C   UNL     1       9.231   4.846  -1.390  1.00  0.00     0.074 A 
ATOM     65  C   UNL     1      10.250   4.369  -2.300  1.00  0.00     0.031 C 
ATOM     66  C   UNL     1       9.360   5.947  -0.611  1.00  0.00     0.037 A 
BRANCH  53  67
ATOM     67  C   UNL     1       4.373   7.150   2.821  1.00  0.00     0.058 A 
ATOM     68  C   UNL     1       4.182   6.714   4.140  1.00  0.00     0.135 A 
ATOM     69  C   UNL     1       3.963   8.453   2.492  1.00  0.00     0.135 A 
ATOM     70  F   UNL     1       4.533   5.469   4.498  1.00  0.00    -0.206 F 
ATOM     71  C   UNL     1       3.590   7.537   5.094  1.00  0.00     0.059 A 
ATOM     72  C   UNL     1       3.390   9.299   3.433  1.00  0.00     0.059 A 
ATOM     73  F   UNL     1       4.119   8.913   1.240  1.00  0.00    -0.206 F 
ATOM     74  C   UNL     1       3.196   8.827   4.730  1.00  0.00     0.060 A 
BRANCH  74  75
ATOM     75  S   UNL     1       2.429   9.886   5.975  1.00  0.00     0.124 S 
ATOM     76  O   UNL     1       1.102   9.290   6.085  1.00  0.00    -0.237 OA
ATOM     77  O   UNL     1       3.306   9.701   7.127  1.00  0.00    -0.237 OA
ATOM     78  O   UNL     1       2.473  11.212   5.366  1.00  0.00    -0.744 OA
ENDBRANCH  74  75
ENDBRANCH  53  67
BRANCH  54  79
ATOM     79  C   UNL     1       8.310   0.986  -3.923  1.00  0.00     0.058 A 
ATOM     80  C   UNL     1       9.368   0.125  -3.596  1.00  0.00     0.135 A 
ATOM     81  C   UNL     1       7.840   0.966  -5.247  1.00  0.00     0.135 A 
ATOM     82  F   UNL     1       9.872   0.124  -2.353  1.00  0.00    -0.206 F 
ATOM     83  C   UNL     1       9.938  -0.722  -4.544  1.00  0.00     0.059 A 
ATOM     84  C   UNL     1       8.371   0.107  -6.202  1.00  0.00     0.059 A 
ATOM     85  F   UNL     1       6.833   1.773  -5.616  1.00  0.00    -0.206 F 
ATOM     86  C   UNL     1       9.428  -0.726  -5.844  1.00  0.00     0.060 A 
BRANCH  86  87
ATOM     87  S   UNL     1      10.132  -1.860  -7.061  1.00  0.00     0.124 S 
ATOM     88  O   UNL     1      11.367  -1.173  -7.421  1.00  0.00    -0.237 OA
ATOM     89  O   UNL     1      10.286  -3.089  -6.288  1.00  0.00    -0.237 OA
ATOM     90  O   UNL     1       9.108  -1.908  -8.101  1.00  0.00    -0.744 OA
ENDBRANCH  86  87
ENDBRANCH  54  79
BRANCH  66  91
ATOM     91  C   UNL     1      10.656   6.705  -0.661  1.00  0.00     0.058 A 
ATOM     92  C   UNL     1      10.955   7.579  -1.716  1.00  0.00     0.135 A 
ATOM     93  C   UNL     1      11.555   6.641   0.416  1.00  0.00     0.135 A 
ATOM     94  F   UNL     1      10.131   7.671  -2.772  1.00  0.00    -0.206 F 
ATOM     95  C   UNL     1      12.099   8.371  -1.698  1.00  0.00     0.059 A 
ATOM     96  C   UNL     1      12.695   7.438   0.464  1.00  0.00     0.059 A 
ATOM     97  F   UNL     1      11.309   5.825   1.454  1.00  0.00    -0.206 F 
ATOM     98  C   UNL     1      12.958   8.301  -0.599  1.00  0.00     0.060 A 
BRANCH  98  99
ATOM     99  S   UNL     1      14.393   9.397  -0.548  1.00  0.00     0.124 S 
ATOM    100  O   UNL     1      15.285   8.759  -1.511  1.00  0.00    -0.237 OA
ATOM    101  O   UNL     1      13.825  10.677  -0.960  1.00  0.00    -0.237 OA
ATOM    102  O   UNL     1      14.822   9.329   0.846  1.00  0.00    -0.744 OA
ENDBRANCH  98  99
ENDBRANCH  66  91
ENDBRANCH  40  41
ENDBRANCH  33  35
ENDBRANCH  32  33
ENDBRANCH  31  32
ENDBRANCH  30  31
ENDBRANCH  29  30
ENDBRANCH   1  29
TORSDOF 22
