REMARK SMILES Cc1cccc(S(=O)(=O)Nc2cc(C(=O)OCCOCCOCCOC(=O)c3ccc(-c4c5nc(c(-c6c(F)cc(S(=O)(=O)[O-])cc6F)c6ccc([nH]6)c(-c6c(F)cc(S(=O)(=O)[O-])cc6F)c6nc(c(-c7c(F)cc(S(=O)(=O)[O-])cc7F)c7ccc4[nH]7)C=C6)C=C5)cc3)ccc2N2CCC[C@H](C[NH+]3CCCC3)C2)c1
REMARK SMILES IDX 20 1 19 2 18 3 17 4 16 5 14 6 15 7 13 8 11 9 12 10 96 11
REMARK SMILES IDX 95 12 94 13 10 14 7 16 8 17 9 18 6 19 1 20 2 21 3 22 109 23
REMARK SMILES IDX 4 24 5 25 97 26 98 27 108 28 99 29 101 30 100 31 102 32
REMARK SMILES IDX 103 33 104 34 107 35 105 37 106 38 21 39 22 40 23 41 24 42
REMARK SMILES IDX 25 43 26 44 27 45 28 46 29 47 93 48 30 49 92 50 31 51 32 52
REMARK SMILES IDX 33 53 86 54 34 55 91 56 85 57 87 58 35 59 90 60 84 61 83 62
REMARK SMILES IDX 36 64 70 65 49 66 69 67 50 68 53 69 68 70 88 71 51 72 52 73
REMARK SMILES IDX 67 75 89 76 54 77 37 78 38 79 47 80 39 81 40 82 46 83 48 84
REMARK SMILES IDX 41 85 42 86 43 87 44 88 45 89 71 90 72 91 81 92 73 93 74 94
REMARK SMILES IDX 80 95 82 96 75 97 76 98 77 99 78 100 79 101 55 102 56 103
REMARK SMILES IDX 65 104 57 105 58 106 64 107 66 108 59 109 60 110 61 111
REMARK SMILES IDX 62 112 63 113
REMARK H PARENT 10 15 103 36 87 63 53 74
REMARK Flexibility Score: inf
ROOT
ATOM      1  C   UNL     1       4.618   0.499  -5.145  1.00  0.00     0.188 C 
ENDROOT
BRANCH   1   2
ATOM      2  O   UNL     1       3.580  -0.485  -4.984  1.00  0.00    -0.376 OA
BRANCH   2   3
ATOM      3  C   UNL     1       2.260  -0.364  -5.548  1.00  0.00     0.202 C 
BRANCH   3   4
ATOM      4  C   UNL     1       0.942  -0.566  -4.639  1.00  0.00     0.261 C 
BRANCH   4   5
ATOM      5  O   UNL     1       0.042   0.666  -4.165  1.00  0.00    -0.460 OA
BRANCH   5   6
ATOM      6  C   UNL     1       0.563   1.299  -3.070  1.00  0.00     0.338 C 
ATOM      7  O   UNL     1       1.665   0.805  -2.889  1.00  0.00    -0.246 OA
BRANCH   6   8
ATOM      8  C   UNL     1       0.327   2.511  -2.029  1.00  0.00     0.062 A 
ATOM      9  C   UNL     1      -0.776   4.036  -0.434  1.00  0.00     0.073 A 
ATOM     10  C   UNL     1      -0.813   3.141  -1.613  1.00  0.00     0.044 A 
ATOM     11  C   UNL     1       0.372   4.496   0.300  1.00  0.00     0.061 A 
ATOM     12  C   UNL     1       1.507   3.888  -0.125  1.00  0.00     0.029 A 
ATOM     13  C   UNL     1       1.408   2.924  -1.158  1.00  0.00     0.018 A 
BRANCH   9  14
ATOM     14  N   UNL     1      -2.000   4.337   0.180  1.00  0.00    -0.277 N 
ATOM     15  H   UNL     1      -2.335   5.262   0.213  1.00  0.00     0.180 HD
BRANCH  14  16
ATOM     16  S   UNL     1      -2.879   3.080   0.858  1.00  0.00     0.261 S 
ATOM     17  O   UNL     1      -3.692   2.573  -0.214  1.00  0.00    -0.201 OA
ATOM     18  O   UNL     1      -3.497   3.690   2.035  1.00  0.00    -0.201 OA
BRANCH  16  19
ATOM     19  C   UNL     1      -1.905   1.689   1.472  1.00  0.00     0.088 A 
ATOM     20  C   UNL     1       1.519   0.469   2.749  1.00  0.00     0.044 C 
ATOM     21  C   UNL     1       0.040   0.520   2.430  1.00  0.00    -0.050 A 
ATOM     22  C   UNL     1      -0.697  -0.666   2.470  1.00  0.00     0.003 A 
ATOM     23  C   UNL     1      -0.583   1.698   1.946  1.00  0.00     0.025 A 
ATOM     24  C   UNL     1      -2.002  -0.694   1.983  1.00  0.00     0.002 A 
ATOM     25  C   UNL     1      -2.593   0.467   1.478  1.00  0.00     0.022 A 
ENDBRANCH  16  19
ENDBRANCH  14  16
ENDBRANCH   9  14
BRANCH  11  26
ATOM     26  N   UNL     1       0.456   5.318   1.440  1.00  0.00    -0.369 N 
ATOM     27  C   UNL     1       1.107   6.631   1.235  1.00  0.00     0.116 C 
ATOM     28  C   UNL     1      -0.338   5.159   2.672  1.00  0.00     0.126 C 
ATOM     29  C   UNL     1       1.698   7.233   2.521  1.00  0.00     0.022 C 
ATOM     30  C   UNL     1       0.362   5.670   3.961  1.00  0.00     0.064 C 
ATOM     31  C   UNL     1       0.760   7.125   3.717  1.00  0.00     0.013 C 
BRANCH  30  32
ATOM     32  C   UNL     1       1.519   4.750   4.455  1.00  0.00     0.267 C 
BRANCH  32  33
ATOM     33  N   UNL     1       2.005   4.854   5.842  1.00  0.00    -0.335 N 
ATOM     34  C   UNL     1       1.036   4.551   6.891  1.00  0.00     0.262 C 
ATOM     35  C   UNL     1       2.726   6.055   6.247  1.00  0.00     0.262 C 
ATOM     36  H   UNL     1       2.692   4.104   5.765  1.00  0.00     0.348 HD
ATOM     37  C   UNL     1       0.619   5.901   7.441  1.00  0.00     0.067 C 
ATOM     38  C   UNL     1       1.862   6.761   7.292  1.00  0.00     0.067 C 
ENDBRANCH  32  33
ENDBRANCH  30  32
ENDBRANCH  11  26
ENDBRANCH   6   8
ENDBRANCH   5   6
ENDBRANCH   4   5
ENDBRANCH   3   4
ENDBRANCH   2   3
ENDBRANCH   1   2
BRANCH   1  39
ATOM     39  C   UNL     1       4.592   1.623  -6.182  1.00  0.00     0.188 C 
BRANCH  39  40
ATOM     40  O   UNL     1       3.318   2.237  -6.179  1.00  0.00    -0.376 OA
BRANCH  40  41
ATOM     41  C   UNL     1       3.011   3.103  -7.245  1.00  0.00     0.202 C 
BRANCH  41  42
ATOM     42  C   UNL     1       3.815   4.412  -7.242  1.00  0.00     0.261 C 
BRANCH  42  43
ATOM     43  O   UNL     1       3.350   5.369  -6.247  1.00  0.00    -0.460 OA
BRANCH  43  44
ATOM     44  C   UNL     1       4.188   5.707  -5.200  1.00  0.00     0.338 C 
ATOM     45  O   UNL     1       4.874   6.717  -5.226  1.00  0.00    -0.246 OA
BRANCH  44  46
ATOM     46  C   UNL     1       3.986   4.796  -4.014  1.00  0.00     0.060 A 
ATOM     47  C   UNL     1       4.853   4.508  -2.954  1.00  0.00     0.016 A 
ATOM     48  C   UNL     1       2.881   4.018  -4.059  1.00  0.00     0.016 A 
ATOM     49  C   UNL     1       4.732   3.283  -2.146  1.00  0.00     0.010 A 
ATOM     50  C   UNL     1       2.995   2.739  -3.497  1.00  0.00     0.010 A 
ATOM     51  C   UNL     1       3.839   2.251  -2.453  1.00  0.00    -0.014 A 
BRANCH  51  52
ATOM     52  C   UNL     1       3.739   0.666  -1.772  1.00  0.00     0.031 A 
ATOM     53  C   UNL     1       2.437  -0.313  -1.203  1.00  0.00     0.074 A 
ATOM     54  C   UNL     1       4.795  -0.133  -2.005  1.00  0.00     0.049 A 
ATOM     55  N   UNL     1       2.187  -1.574  -1.517  1.00  0.00    -0.248 NA
ATOM     56  C   UNL     1       1.253   0.162  -0.448  1.00  0.00     0.031 C 
ATOM     57  C   UNL     1       4.861  -1.592  -1.973  1.00  0.00     0.029 A 
ATOM     58  N   UNL     1       6.122   0.259  -2.042  1.00  0.00    -0.354 N 
ATOM     59  C   UNL     1       0.872  -1.920  -1.171  1.00  0.00     0.074 A 
ATOM     60  C   UNL     1       0.272  -0.714  -0.709  1.00  0.00     0.031 C 
ATOM     61  C   UNL     1       6.081  -1.958  -1.576  1.00  0.00     0.029 A 
ATOM     62  C   UNL     1       6.798  -0.737  -1.307  1.00  0.00     0.049 A 
ATOM     63  H   UNL     1       6.506   1.053  -2.480  1.00  0.00     0.167 HD
ATOM     64  C   UNL     1       0.440  -3.155  -0.763  1.00  0.00     0.037 A 
ATOM     65  C   UNL     1       7.324  -0.384  -0.106  1.00  0.00     0.037 A 
ATOM     66  C   UNL     1       1.564  -3.794  -0.115  1.00  0.00     0.049 A 
ATOM     67  C   UNL     1       6.612  -1.068   1.044  1.00  0.00     0.074 A 
ATOM     68  C   UNL     1       2.616  -4.569  -0.549  1.00  0.00     0.029 A 
ATOM     69  N   UNL     1       1.938  -3.267   1.117  1.00  0.00    -0.354 N 
ATOM     70  N   UNL     1       5.391  -1.558   1.017  1.00  0.00    -0.248 NA
ATOM     71  C   UNL     1       7.311  -1.380   2.283  1.00  0.00     0.031 C 
ATOM     72  C   UNL     1       3.699  -4.327   0.350  1.00  0.00     0.029 A 
ATOM     73  C   UNL     1       3.279  -3.467   1.362  1.00  0.00     0.049 A 
ATOM     74  H   UNL     1       1.323  -2.809   1.734  1.00  0.00     0.167 HD
ATOM     75  C   UNL     1       5.139  -2.220   2.201  1.00  0.00     0.074 A 
ATOM     76  C   UNL     1       6.389  -2.109   2.930  1.00  0.00     0.031 C 
ATOM     77  C   UNL     1       3.962  -2.860   2.513  1.00  0.00     0.037 A 
BRANCH  64  78
ATOM     78  C   UNL     1      -1.022  -3.639  -0.684  1.00  0.00     0.058 A 
ATOM     79  C   UNL     1      -1.368  -4.881  -0.099  1.00  0.00     0.135 A 
ATOM     80  C   UNL     1      -2.112  -2.982  -1.311  1.00  0.00     0.135 A 
ATOM     81  F   UNL     1      -0.431  -5.642   0.487  1.00  0.00    -0.206 F 
ATOM     82  C   UNL     1      -2.672  -5.422  -0.128  1.00  0.00     0.059 A 
ATOM     83  C   UNL     1      -3.430  -3.485  -1.322  1.00  0.00     0.059 A 
ATOM     84  F   UNL     1      -1.929  -1.838  -1.987  1.00  0.00    -0.206 F 
ATOM     85  C   UNL     1      -3.699  -4.722  -0.753  1.00  0.00     0.060 A 
BRANCH  85  86
ATOM     86  S   UNL     1      -5.356  -5.460  -0.870  1.00  0.00     0.124 S 
ATOM     87  O   UNL     1      -5.153  -6.499  -1.875  1.00  0.00    -0.237 OA
ATOM     88  O   UNL     1      -5.596  -5.934   0.489  1.00  0.00    -0.237 OA
ATOM     89  O   UNL     1      -6.198  -4.344  -1.292  1.00  0.00    -0.744 OA
ENDBRANCH  85  86
ENDBRANCH  64  78
BRANCH  65  90
ATOM     90  C   UNL     1       8.017   0.944  -0.242  1.00  0.00     0.058 A 
ATOM     91  C   UNL     1       8.986   0.984  -1.282  1.00  0.00     0.135 A 
ATOM     92  C   UNL     1       7.450   2.172   0.125  1.00  0.00     0.135 A 
ATOM     93  F   UNL     1       9.575  -0.156  -1.683  1.00  0.00    -0.206 F 
ATOM     94  C   UNL     1       9.181   2.106  -2.078  1.00  0.00     0.059 A 
ATOM     95  C   UNL     1       7.719   3.348  -0.608  1.00  0.00     0.059 A 
ATOM     96  F   UNL     1       6.497   2.225   1.069  1.00  0.00    -0.206 F 
ATOM     97  C   UNL     1       8.497   3.272  -1.769  1.00  0.00     0.060 A 
BRANCH  97  98
ATOM     98  S   UNL     1       8.529   4.600  -3.006  1.00  0.00     0.124 S 
ATOM     99  O   UNL     1       9.956   4.738  -3.279  1.00  0.00    -0.237 OA
ATOM    100  O   UNL     1       7.740   4.015  -4.088  1.00  0.00    -0.237 OA
ATOM    101  O   UNL     1       7.918   5.721  -2.302  1.00  0.00    -0.744 OA
ENDBRANCH  97  98
ENDBRANCH  65  90
BRANCH  77 102
ATOM    102  C   UNL     1       3.483  -3.090   3.958  1.00  0.00     0.058 A 
ATOM    103  C   UNL     1       4.115  -2.535   5.092  1.00  0.00     0.135 A 
ATOM    104  C   UNL     1       2.294  -3.800   4.271  1.00  0.00     0.135 A 
ATOM    105  F   UNL     1       5.089  -1.623   4.987  1.00  0.00    -0.206 F 
ATOM    106  C   UNL     1       3.743  -2.827   6.405  1.00  0.00     0.059 A 
ATOM    107  C   UNL     1       1.856  -4.045   5.580  1.00  0.00     0.059 A 
ATOM    108  F   UNL     1       1.462  -4.242   3.319  1.00  0.00    -0.206 F 
ATOM    109  C   UNL     1       2.625  -3.606   6.644  1.00  0.00     0.060 A 
BRANCH 109 110
ATOM    110  S   UNL     1       2.168  -3.968   8.347  1.00  0.00     0.124 S 
ATOM    111  O   UNL     1       3.110  -5.033   8.678  1.00  0.00    -0.237 OA
ATOM    112  O   UNL     1       2.401  -2.691   9.015  1.00  0.00    -0.237 OA
ATOM    113  O   UNL     1       0.769  -4.370   8.245  1.00  0.00    -0.744 OA
ENDBRANCH 109 110
ENDBRANCH  77 102
ENDBRANCH  51  52
ENDBRANCH  44  46
ENDBRANCH  43  44
ENDBRANCH  42  43
ENDBRANCH  41  42
ENDBRANCH  40  41
ENDBRANCH  39  40
ENDBRANCH   1  39
TORSDOF 26
