REMARK SMILES CCC[C@H]([NH2+]Cc1c(O)ccc2c(-c3ccccc3)cc(=O)oc12)C(=O)OCCOCCOCCOC(=O)c1ccc(-c2c3nc(c(-c4c(F)cc(S(=O)(=O)[O-])cc4F)c4ccc([nH]4)c(-c4c(F)cc(S(=O)(=O)[O-])cc4F)c4nc(c(-c5c(F)cc(S(=O)(=O)[O-])cc5F)c5ccc2[nH]5)C=C4)C=C3)cc1
REMARK SMILES IDX 31 1 30 2 29 3 28 4 27 5 25 6 26 7 4 8 3 9 2 10 1 11 5 12
REMARK SMILES IDX 6 15 7 16 8 17 24 18 10 19 12 20 23 21 11 22 13 23 21 24
REMARK SMILES IDX 20 25 22 26 9 27 14 29 15 30 19 31 16 32 18 33 17 34 32 35
REMARK SMILES IDX 33 36 34 37 35 38 36 39 37 40 38 41 39 42 40 43 104 44 41 45
REMARK SMILES IDX 103 46 42 47 43 48 44 49 97 50 45 51 102 52 96 53 98 54
REMARK SMILES IDX 46 55 101 56 95 57 94 58 47 60 81 61 60 62 80 63 61 64 64 65
REMARK SMILES IDX 79 66 99 67 62 68 63 69 78 71 100 72 65 73 48 74 49 75 58 76
REMARK SMILES IDX 50 77 51 78 57 79 59 80 52 81 53 82 54 83 55 84 56 85 82 86
REMARK SMILES IDX 83 87 92 88 84 89 85 90 91 91 93 92 86 93 87 94 88 95 89 96
REMARK SMILES IDX 90 97 66 98 67 99 76 100 68 101 69 102 75 103 77 104 70 105
REMARK SMILES IDX 71 106 72 107 73 108 74 109
REMARK H PARENT 5 13 5 14 9 28 98 59 64 70
REMARK Flexibility Score: inf
ROOT
ATOM      1  C   UNL     1       3.271  -2.972   4.260  1.00  0.00     0.188 C 
ENDROOT
BRANCH   1   2
ATOM      2  O   UNL     1       2.675  -3.314   5.509  1.00  0.00    -0.376 OA
BRANCH   2   3
ATOM      3  C   UNL     1       1.671  -4.314   5.519  1.00  0.00     0.202 C 
BRANCH   3   4
ATOM      4  C   UNL     1       0.289  -3.890   5.010  1.00  0.00     0.261 C 
BRANCH   4   5
ATOM      5  O   UNL     1       0.247  -3.401   3.653  1.00  0.00    -0.459 OA
BRANCH   5   6
ATOM      6  C   UNL     1       0.226  -2.046   3.513  1.00  0.00     0.364 C 
ATOM      7  O   UNL     1       0.321  -1.262   4.454  1.00  0.00    -0.245 OA
BRANCH   6   8
ATOM      8  C   UNL     1      -0.105  -1.554   2.090  1.00  0.00     0.293 C 
BRANCH   8   9
ATOM      9  C   UNL     1      -1.647  -1.609   1.931  1.00  0.00     0.077 C 
BRANCH   9  10
ATOM     10  C   UNL     1      -2.254  -2.608   0.934  1.00  0.00     0.003 C 
ATOM     11  C   UNL     1      -1.881  -4.069   1.145  1.00  0.00     0.004 C 
ENDBRANCH   9  10
ENDBRANCH   8   9
BRANCH   8  12
ATOM     12  N   UNL     1       0.608  -2.217   0.976  1.00  0.00    -0.331 N 
ATOM     13  H   UNL     1       0.007  -2.179   0.152  1.00  0.00     0.347 HD
ATOM     14  H   UNL     1       0.807  -3.165   1.296  1.00  0.00     0.347 HD
BRANCH  12  15
ATOM     15  C   UNL     1       1.902  -1.633   0.618  1.00  0.00     0.306 C 
BRANCH  15  16
ATOM     16  C   UNL     1       2.422  -2.191  -0.705  1.00  0.00     0.091 A 
ATOM     17  C   UNL     1       2.750  -3.546  -0.853  1.00  0.00     0.128 A 
ATOM     18  C   UNL     1       2.599  -1.377  -1.845  1.00  0.00     0.151 A 
ATOM     19  C   UNL     1       3.267  -4.055  -2.046  1.00  0.00     0.047 A 
ATOM     20  C   UNL     1       3.068  -1.873  -3.074  1.00  0.00     0.026 A 
ATOM     21  O   UNL     1       2.289  -0.004  -1.729  1.00  0.00    -0.422 OA
ATOM     22  C   UNL     1       3.432  -3.220  -3.148  1.00  0.00     0.016 A 
ATOM     23  C   UNL     1       3.160  -0.989  -4.253  1.00  0.00    -0.000 A 
ATOM     24  C   UNL     1       2.431   0.874  -2.790  1.00  0.00     0.336 A 
ATOM     25  C   UNL     1       2.858   0.306  -4.076  1.00  0.00     0.103 A 
ATOM     26  O   UNL     1       2.169   2.066  -2.691  1.00  0.00    -0.246 OA
BRANCH  17  27
ATOM     27  O   UNL     1       2.549  -4.407   0.185  1.00  0.00    -0.507 OA
ATOM     28  H   UNL     1       2.203  -4.091   0.996  1.00  0.00     0.293 HD
ENDBRANCH  17  27
BRANCH  23  29
ATOM     29  C   UNL     1       3.467  -1.413  -5.644  1.00  0.00    -0.017 A 
ATOM     30  C   UNL     1       4.574  -0.904  -6.337  1.00  0.00     0.009 A 
ATOM     31  C   UNL     1       2.639  -2.345  -6.290  1.00  0.00     0.009 A 
ATOM     32  C   UNL     1       4.846  -1.319  -7.644  1.00  0.00     0.001 A 
ATOM     33  C   UNL     1       2.918  -2.767  -7.593  1.00  0.00     0.001 A 
ATOM     34  C   UNL     1       4.021  -2.252  -8.270  1.00  0.00     0.000 A 
ENDBRANCH  23  29
ENDBRANCH  15  16
ENDBRANCH  12  15
ENDBRANCH   8  12
ENDBRANCH   6   8
ENDBRANCH   5   6
ENDBRANCH   4   5
ENDBRANCH   3   4
ENDBRANCH   2   3
ENDBRANCH   1   2
BRANCH   1  35
ATOM     35  C   UNL     1       3.235  -3.999   3.125  1.00  0.00     0.188 C 
BRANCH  35  36
ATOM     36  O   UNL     1       3.793  -5.250   3.530  1.00  0.00    -0.376 OA
BRANCH  36  37
ATOM     37  C   UNL     1       4.716  -5.779   2.587  1.00  0.00     0.202 C 
BRANCH  37  38
ATOM     38  C   UNL     1       6.142  -5.375   2.960  1.00  0.00     0.261 C 
BRANCH  38  39
ATOM     39  O   UNL     1       6.344  -3.956   3.104  1.00  0.00    -0.460 OA
BRANCH  39  40
ATOM     40  C   UNL     1       6.283  -3.204   1.984  1.00  0.00     0.338 C 
ATOM     41  O   UNL     1       6.054  -3.608   0.849  1.00  0.00    -0.246 OA
BRANCH  40  42
ATOM     42  C   UNL     1       6.416  -1.778   2.359  1.00  0.00     0.060 A 
ATOM     43  C   UNL     1       5.525  -0.839   1.827  1.00  0.00     0.016 A 
ATOM     44  C   UNL     1       7.443  -1.359   3.208  1.00  0.00     0.016 A 
ATOM     45  C   UNL     1       5.666   0.520   2.128  1.00  0.00     0.010 A 
ATOM     46  C   UNL     1       7.599   0.003   3.491  1.00  0.00     0.010 A 
ATOM     47  C   UNL     1       6.728   0.956   2.932  1.00  0.00    -0.014 A 
BRANCH  47  48
ATOM     48  C   UNL     1       7.049   2.404   3.046  1.00  0.00     0.031 A 
ATOM     49  C   UNL     1       8.167   2.960   2.201  1.00  0.00     0.074 A 
ATOM     50  C   UNL     1       6.371   3.219   3.876  1.00  0.00     0.049 A 
ATOM     51  N   UNL     1       8.702   4.153   2.207  1.00  0.00    -0.248 NA
ATOM     52  C   UNL     1       8.762   2.039   1.220  1.00  0.00     0.031 C 
ATOM     53  C   UNL     1       5.235   2.826   4.707  1.00  0.00     0.029 A 
ATOM     54  N   UNL     1       6.552   4.551   4.164  1.00  0.00    -0.354 N 
ATOM     55  C   UNL     1       9.706   4.123   1.245  1.00  0.00     0.074 A 
ATOM     56  C   UNL     1       9.719   2.787   0.691  1.00  0.00     0.031 C 
ATOM     57  C   UNL     1       4.828   3.891   5.421  1.00  0.00     0.029 A 
ATOM     58  C   UNL     1       5.700   5.029   5.131  1.00  0.00     0.049 A 
ATOM     59  H   UNL     1       7.229   5.110   3.719  1.00  0.00     0.167 HD
ATOM     60  C   UNL     1      10.537   5.119   0.853  1.00  0.00     0.037 A 
ATOM     61  C   UNL     1       5.649   6.235   5.735  1.00  0.00     0.037 A 
ATOM     62  C   UNL     1      10.517   6.450   1.400  1.00  0.00     0.049 A 
ATOM     63  C   UNL     1       6.635   7.308   5.337  1.00  0.00     0.074 A 
ATOM     64  C   UNL     1      11.317   7.529   1.066  1.00  0.00     0.029 A 
ATOM     65  N   UNL     1       9.657   6.886   2.397  1.00  0.00    -0.354 N 
ATOM     66  N   UNL     1       7.582   7.266   4.430  1.00  0.00    -0.248 NA
ATOM     67  C   UNL     1       6.548   8.592   6.050  1.00  0.00     0.031 C 
ATOM     68  C   UNL     1      10.974   8.603   1.894  1.00  0.00     0.029 A 
ATOM     69  C   UNL     1       9.922   8.210   2.706  1.00  0.00     0.049 A 
ATOM     70  H   UNL     1       8.961   6.335   2.823  1.00  0.00     0.167 HD
ATOM     71  C   UNL     1       8.181   8.523   4.442  1.00  0.00     0.074 A 
ATOM     72  C   UNL     1       7.485   9.306   5.441  1.00  0.00     0.031 C 
ATOM     73  C   UNL     1       9.213   8.986   3.694  1.00  0.00     0.037 A 
BRANCH  60  74
ATOM     74  C   UNL     1      11.563   4.795  -0.198  1.00  0.00     0.058 A 
ATOM     75  C   UNL     1      11.209   4.582  -1.540  1.00  0.00     0.135 A 
ATOM     76  C   UNL     1      12.925   4.726   0.138  1.00  0.00     0.135 A 
ATOM     77  F   UNL     1       9.920   4.617  -1.913  1.00  0.00    -0.206 F 
ATOM     78  C   UNL     1      12.165   4.285  -2.506  1.00  0.00     0.059 A 
ATOM     79  C   UNL     1      13.902   4.458  -0.817  1.00  0.00     0.059 A 
ATOM     80  F   UNL     1      13.319   4.919   1.406  1.00  0.00    -0.206 F 
ATOM     81  C   UNL     1      13.510   4.224  -2.134  1.00  0.00     0.060 A 
BRANCH  81  82
ATOM     82  S   UNL     1      14.737   3.836  -3.399  1.00  0.00     0.124 S 
ATOM     83  O   UNL     1      14.479   2.418  -3.630  1.00  0.00    -0.237 OA
ATOM     84  O   UNL     1      14.360   4.733  -4.487  1.00  0.00    -0.237 OA
ATOM     85  O   UNL     1      16.007   4.144  -2.749  1.00  0.00    -0.744 OA
ENDBRANCH  81  82
ENDBRANCH  60  74
BRANCH  61  86
ATOM     86  C   UNL     1       4.645   6.496   6.805  1.00  0.00     0.058 A 
ATOM     87  C   UNL     1       3.598   7.410   6.615  1.00  0.00     0.135 A 
ATOM     88  C   UNL     1       4.727   5.852   8.050  1.00  0.00     0.135 A 
ATOM     89  F   UNL     1       3.486   8.068   5.451  1.00  0.00    -0.206 F 
ATOM     90  C   UNL     1       2.678   7.688   7.622  1.00  0.00     0.059 A 
ATOM     91  C   UNL     1       3.802   6.092   9.063  1.00  0.00     0.059 A 
ATOM     92  F   UNL     1       5.708   4.968   8.287  1.00  0.00    -0.206 F 
ATOM     93  C   UNL     1       2.787   7.021   8.843  1.00  0.00     0.060 A 
BRANCH  93  94
ATOM     94  S   UNL     1       1.566   7.362  10.131  1.00  0.00     0.124 S 
ATOM     95  O   UNL     1       1.962   8.697  10.565  1.00  0.00    -0.237 OA
ATOM     96  O   UNL     1       0.310   7.277   9.393  1.00  0.00    -0.237 OA
ATOM     97  O   UNL     1       1.790   6.292  11.098  1.00  0.00    -0.744 OA
ENDBRANCH  93  94
ENDBRANCH  61  86
BRANCH  73  98
ATOM     98  C   UNL     1       9.632  10.420   3.887  1.00  0.00     0.058 A 
ATOM     99  C   UNL     1      10.322  10.843   5.034  1.00  0.00     0.135 A 
ATOM    100  C   UNL     1       9.394  11.371   2.880  1.00  0.00     0.135 A 
ATOM    101  F   UNL     1      10.574   9.978   6.029  1.00  0.00    -0.206 F 
ATOM    102  C   UNL     1      10.741  12.162   5.185  1.00  0.00     0.059 A 
ATOM    103  C   UNL     1       9.829  12.688   2.998  1.00  0.00     0.059 A 
ATOM    104  F   UNL     1       8.750  11.018   1.756  1.00  0.00    -0.206 F 
ATOM    105  C   UNL     1      10.492  13.077   4.160  1.00  0.00     0.060 A 
BRANCH 105 106
ATOM    106  S   UNL     1      11.076  14.775   4.352  1.00  0.00     0.124 S 
ATOM    107  O   UNL     1      10.135  15.300   5.337  1.00  0.00    -0.237 OA
ATOM    108  O   UNL     1      12.444  14.585   4.822  1.00  0.00    -0.237 OA
ATOM    109  O   UNL     1      10.954  15.332   3.008  1.00  0.00    -0.744 OA
ENDBRANCH 105 106
ENDBRANCH  73  98
ENDBRANCH  47  48
ENDBRANCH  40  42
ENDBRANCH  39  40
ENDBRANCH  38  39
ENDBRANCH  37  38
ENDBRANCH  36  37
ENDBRANCH  35  36
ENDBRANCH   1  35
TORSDOF 27
