REMARK SMILES COc1cccc(-c2cc(OCC(=O)OCCOCCOCCOC(=O)c3ccc(-c4c5nc(c(-c6c(F)cc(S(=O)(=O)[O-])cc6F)c6ccc([nH]6)c(-c6c(F)cc(S(=O)(=O)[O-])cc6F)c6nc(c(-c7c(F)cc(S(=O)(=O)[O-])cc7F)c7ccc4[nH]7)C=C6)C=C5)cc3)nc(Nc3ccccc3Br)n2)c1
REMARK SMILES IDX 19 1 18 2 17 3 16 4 15 5 13 6 14 7 12 8 11 9 10 10 8 11 9 12
REMARK SMILES IDX 103 13 94 14 93 15 7 16 3 17 4 18 104 19 5 20 6 21 2 22 1 23
REMARK SMILES IDX 95 24 96 26 97 27 101 28 98 29 100 30 102 31 99 32 20 33
REMARK SMILES IDX 21 34 22 35 23 36 24 37 25 38 26 39 27 40 28 41 92 42 29 43
REMARK SMILES IDX 91 44 30 45 31 46 32 47 85 48 33 49 90 50 84 51 86 52 34 53
REMARK SMILES IDX 89 54 83 55 82 56 35 58 69 59 48 60 68 61 49 62 52 63 67 64
REMARK SMILES IDX 87 65 50 66 51 67 66 69 88 70 53 71 36 72 37 73 46 74 38 75
REMARK SMILES IDX 39 76 45 77 47 78 40 79 41 80 42 81 43 82 44 83 70 84 71 85
REMARK SMILES IDX 80 86 72 87 73 88 79 89 81 90 74 91 75 92 76 93 77 94 78 95
REMARK SMILES IDX 54 96 55 97 64 98 56 99 57 100 63 101 65 102 58 103 59 104
REMARK SMILES IDX 60 105 61 106 62 107
REMARK H PARENT 95 25 86 57 52 68
REMARK Flexibility Score: inf
ROOT
ATOM      1  C   UNL     1       5.032   0.065   1.124  1.00  0.00     0.188 C 
ENDROOT
BRANCH   1   2
ATOM      2  O   UNL     1       5.044   1.416   0.696  1.00  0.00    -0.376 OA
BRANCH   2   3
ATOM      3  C   UNL     1       6.267   1.834   0.127  1.00  0.00     0.202 C 
BRANCH   3   4
ATOM      4  C   UNL     1       7.456   1.793   1.113  1.00  0.00     0.261 C 
BRANCH   4   5
ATOM      5  O   UNL     1       7.667   0.486   1.762  1.00  0.00    -0.461 OA
BRANCH   5   6
ATOM      6  C   UNL     1       7.435   0.356   3.100  1.00  0.00     0.344 C 
ATOM      7  O   UNL     1       7.342   1.325   3.850  1.00  0.00    -0.248 OA
BRANCH   6   8
ATOM      8  C   UNL     1       7.136  -1.132   3.621  1.00  0.00     0.353 C 
BRANCH   8   9
ATOM      9  O   UNL     1       7.212  -2.336   2.847  1.00  0.00    -0.466 OA
BRANCH   9  10
ATOM     10  C   UNL     1       6.350  -3.425   3.019  1.00  0.00     0.219 A 
ATOM     11  C   UNL     1       4.125  -4.392   2.879  1.00  0.00     0.080 A 
ATOM     12  C   UNL     1       4.990  -3.320   3.241  1.00  0.00     0.097 A 
ATOM     13  N   UNL     1       4.643  -5.537   2.505  1.00  0.00    -0.212 NA
ATOM     14  C   UNL     1       5.989  -5.627   2.439  1.00  0.00     0.231 A 
ATOM     15  N   UNL     1       6.866  -4.616   2.670  1.00  0.00    -0.177 NA
BRANCH  11  16
ATOM     16  C   UNL     1       2.595  -4.231   2.702  1.00  0.00     0.004 A 
ATOM     17  C   UNL     1       0.502  -2.887   0.696  1.00  0.00     0.119 A 
ATOM     18  C   UNL     1      -0.091  -1.698   1.853  1.00  0.00     0.046 A 
ATOM     19  C   UNL     1       1.746  -4.157   1.103  1.00  0.00     0.056 A 
ATOM     20  C   UNL     1       0.603  -1.733   3.484  1.00  0.00     0.005 A 
ATOM     21  C   UNL     1       2.004  -3.106   3.933  1.00  0.00     0.010 A 
BRANCH  17  22
ATOM     22  O   UNL     1       0.234  -2.644  -0.644  1.00  0.00    -0.497 OA
ATOM     23  C   UNL     1      -0.001  -1.243  -0.916  1.00  0.00     0.278 C 
ENDBRANCH  17  22
ENDBRANCH  11  16
BRANCH  14  24
ATOM     24  N   UNL     1       6.476  -6.901   2.116  1.00  0.00    -0.323 N 
ATOM     25  H   UNL     1       7.447  -7.069   2.104  1.00  0.00     0.170 HD
BRANCH  24  26
ATOM     26  C   UNL     1       5.575  -7.946   1.808  1.00  0.00     0.055 A 
ATOM     27  C   UNL     1       5.276  -8.894   2.798  1.00  0.00     0.027 A 
ATOM     28  C   UNL     1       4.718  -7.862   0.683  1.00  0.00     0.041 A 
ATOM     29  C   UNL     1       4.131  -9.692   2.696  1.00  0.00     0.002 A 
ATOM     30  C   UNL     1       3.572  -8.654   0.590  1.00  0.00     0.018 A 
ATOM     31  Br  UNL     1       5.050  -6.641  -0.746  1.00  0.00    -0.049 Br
ATOM     32  C   UNL     1       3.273  -9.559   1.605  1.00  0.00     0.001 A 
ENDBRANCH  24  26
ENDBRANCH  14  24
ENDBRANCH   9  10
ENDBRANCH   8   9
ENDBRANCH   6   8
ENDBRANCH   5   6
ENDBRANCH   4   5
ENDBRANCH   3   4
ENDBRANCH   2   3
ENDBRANCH   1   2
BRANCH   1  33
ATOM     33  C   UNL     1       5.823  -0.965   0.285  1.00  0.00     0.188 C 
BRANCH  33  34
ATOM     34  O   UNL     1       5.518  -0.870  -1.100  1.00  0.00    -0.376 OA
BRANCH  34  35
ATOM     35  C   UNL     1       4.729  -1.947  -1.565  1.00  0.00     0.202 C 
BRANCH  35  36
ATOM     36  C   UNL     1       3.223  -1.688  -1.390  1.00  0.00     0.261 C 
BRANCH  36  37
ATOM     37  O   UNL     1       2.682  -1.295  -0.090  1.00  0.00    -0.460 OA
BRANCH  37  38
ATOM     38  C   UNL     1       2.974  -2.142   0.921  1.00  0.00     0.338 C 
ATOM     39  O   UNL     1       3.908  -2.918   0.791  1.00  0.00    -0.246 OA
BRANCH  38  40
ATOM     40  C   UNL     1       1.992  -2.195   2.232  1.00  0.00     0.060 A 
ATOM     41  C   UNL     1       2.646  -1.112   3.520  1.00  0.00     0.016 A 
ATOM     42  C   UNL     1       0.552  -3.501   2.791  1.00  0.00     0.016 A 
ATOM     43  C   UNL     1       2.033  -1.301   5.172  1.00  0.00     0.010 A 
ATOM     44  C   UNL     1      -0.044  -3.516   4.471  1.00  0.00     0.010 A 
ATOM     45  C   UNL     1       0.710  -2.434   5.631  1.00  0.00    -0.014 A 
BRANCH  45  46
ATOM     46  C   UNL     1       0.092  -2.416   6.984  1.00  0.00     0.031 A 
ATOM     47  C   UNL     1      -0.486  -3.682   7.591  1.00  0.00     0.074 A 
ATOM     48  C   UNL     1      -0.104  -1.213   7.554  1.00  0.00     0.049 A 
ATOM     49  N   UNL     1      -1.423  -3.808   8.496  1.00  0.00    -0.248 NA
ATOM     50  C   UNL     1      -0.023  -4.975   7.051  1.00  0.00     0.031 C 
ATOM     51  C   UNL     1       0.316   0.075   6.999  1.00  0.00     0.029 A 
ATOM     52  N   UNL     1      -0.735  -0.857   8.714  1.00  0.00    -0.354 N 
ATOM     53  C   UNL     1      -1.730  -5.170   8.557  1.00  0.00     0.074 A 
ATOM     54  C   UNL     1      -0.901  -5.825   7.571  1.00  0.00     0.031 C 
ATOM     55  C   UNL     1       0.046   1.060   7.852  1.00  0.00     0.029 A 
ATOM     56  C   UNL     1      -0.751   0.504   8.919  1.00  0.00     0.049 A 
ATOM     57  H   UNL     1      -1.135  -1.505   9.337  1.00  0.00     0.167 HD
ATOM     58  C   UNL     1      -2.616  -5.798   9.374  1.00  0.00     0.037 A 
ATOM     59  C   UNL     1      -1.413   1.257   9.808  1.00  0.00     0.037 A 
ATOM     60  C   UNL     1      -3.325  -5.089  10.415  1.00  0.00     0.049 A 
ATOM     61  C   UNL     1      -2.297   0.536  10.762  1.00  0.00     0.074 A 
ATOM     62  C   UNL     1      -4.179  -5.584  11.384  1.00  0.00     0.029 A 
ATOM     63  N   UNL     1      -3.216  -3.719  10.643  1.00  0.00    -0.354 N 
ATOM     64  N   UNL     1      -2.605  -0.740  10.778  1.00  0.00    -0.248 NA
ATOM     65  C   UNL     1      -2.914   1.338  11.815  1.00  0.00     0.031 C 
ATOM     66  C   UNL     1      -4.591  -4.513  12.188  1.00  0.00     0.029 A 
ATOM     67  C   UNL     1      -3.965  -3.355  11.747  1.00  0.00     0.049 A 
ATOM     68  H   UNL     1      -2.681  -3.098  10.096  1.00  0.00     0.167 HD
ATOM     69  C   UNL     1      -3.440  -0.907  11.866  1.00  0.00     0.074 A 
ATOM     70  C   UNL     1      -3.570   0.403  12.487  1.00  0.00     0.031 C 
ATOM     71  C   UNL     1      -4.048  -2.031  12.315  1.00  0.00     0.037 A 
BRANCH  58  72
ATOM     72  C   UNL     1      -2.848  -7.289   9.208  1.00  0.00     0.058 A 
ATOM     73  C   UNL     1      -1.835  -8.236   9.439  1.00  0.00     0.135 A 
ATOM     74  C   UNL     1      -4.112  -7.792   8.841  1.00  0.00     0.135 A 
ATOM     75  F   UNL     1      -0.606  -7.835   9.801  1.00  0.00    -0.206 F 
ATOM     76  C   UNL     1      -2.044  -9.604   9.260  1.00  0.00     0.059 A 
ATOM     77  C   UNL     1      -4.354  -9.160   8.688  1.00  0.00     0.059 A 
ATOM     78  F   UNL     1      -5.135  -6.952   8.620  1.00  0.00    -0.206 F 
ATOM     79  C   UNL     1      -3.306 -10.058   8.878  1.00  0.00     0.060 A 
BRANCH  79  80
ATOM     80  S   UNL     1      -3.550 -11.834   8.634  1.00  0.00     0.124 S 
ATOM     81  O   UNL     1      -2.829 -12.059   7.385  1.00  0.00    -0.237 OA
ATOM     82  O   UNL     1      -2.935 -12.402   9.829  1.00  0.00    -0.237 OA
ATOM     83  O   UNL     1      -5.001 -11.972   8.553  1.00  0.00    -0.744 OA
ENDBRANCH  79  80
ENDBRANCH  58  72
BRANCH  59  84
ATOM     84  C   UNL     1      -1.212   2.728   9.806  1.00  0.00     0.058 A 
ATOM     85  C   UNL     1      -0.416   3.323  10.793  1.00  0.00     0.135 A 
ATOM     86  C   UNL     1      -1.659   3.540   8.748  1.00  0.00     0.135 A 
ATOM     87  F   UNL     1       0.061   2.582  11.804  1.00  0.00    -0.206 F 
ATOM     88  C   UNL     1      -0.081   4.671  10.742  1.00  0.00     0.059 A 
ATOM     89  C   UNL     1      -1.309   4.884   8.658  1.00  0.00     0.059 A 
ATOM     90  F   UNL     1      -2.368   3.004   7.740  1.00  0.00    -0.206 F 
ATOM     91  C   UNL     1      -0.528   5.442   9.668  1.00  0.00     0.060 A 
BRANCH  91  92
ATOM     92  S   UNL     1      -0.039   7.178   9.596  1.00  0.00     0.124 S 
ATOM     93  O   UNL     1      -0.838   7.749  10.674  1.00  0.00    -0.237 OA
ATOM     94  O   UNL     1       1.399   7.102   9.836  1.00  0.00    -0.237 OA
ATOM     95  O   UNL     1      -0.422   7.580   8.245  1.00  0.00    -0.744 OA
ENDBRANCH  91  92
ENDBRANCH  59  84
BRANCH  71  96
ATOM     96  C   UNL     1      -4.862  -1.867  13.557  1.00  0.00     0.058 A 
ATOM     97  C   UNL     1      -6.109  -1.226  13.532  1.00  0.00     0.135 A 
ATOM     98  C   UNL     1      -4.382  -2.359  14.779  1.00  0.00     0.135 A 
ATOM     99  F   UNL     1      -6.588  -0.719  12.385  1.00  0.00    -0.206 F 
ATOM    100  C   UNL     1      -6.848  -1.056  14.693  1.00  0.00     0.059 A 
ATOM    101  C   UNL     1      -5.120  -2.227  15.946  1.00  0.00     0.059 A 
ATOM    102  F   UNL     1      -3.191  -2.975  14.842  1.00  0.00    -0.206 F 
ATOM    103  C   UNL     1      -6.346  -1.564  15.893  1.00  0.00     0.060 A 
BRANCH 103 104
ATOM    104  S   UNL     1      -7.337  -1.371  17.385  1.00  0.00     0.124 S 
ATOM    105  O   UNL     1      -7.149   0.045  17.680  1.00  0.00    -0.237 OA
ATOM    106  O   UNL     1      -8.668  -1.754  16.924  1.00  0.00    -0.237 OA
ATOM    107  O   UNL     1      -6.715  -2.298  18.326  1.00  0.00    -0.744 OA
ENDBRANCH 103 104
ENDBRANCH  71  96
ENDBRANCH  45  46
ENDBRANCH  38  40
ENDBRANCH  37  38
ENDBRANCH  36  37
ENDBRANCH  35  36
ENDBRANCH  34  35
ENDBRANCH  33  34
ENDBRANCH   1  33
TORSDOF 26
