REMARK SMILES C[NH+]1CCC(C(=O)N2C[C@@H](C(=O)OCCOCCOCCOC(=O)c3ccc(-c4c5nc(c(-c6c(F)cc(S(=O)(=O)[O-])cc6F)c6ccc([nH]6)c(-c6c(F)cc(S(=O)(=O)[O-])cc6F)c6nc(c(-c7c(F)cc(S(=O)(=O)[O-])cc7F)c7ccc4[nH]7)C=C6)C=C5)cc3)[C@H](c3ccc4c(c3)OCO4)C2)CC1
REMARK SMILES IDX 18 1 17 2 16 3 15 4 14 5 13 6 11 7 12 8 10 9 8 10 9 11
REMARK SMILES IDX 101 12 91 13 6 14 7 15 5 16 1 17 2 18 3 19 103 20 4 22
REMARK SMILES IDX 102 23 92 24 93 25 97 26 94 27 96 28 95 29 98 30 100 31
REMARK SMILES IDX 99 32 19 33 20 34 21 35 22 36 23 37 24 38 25 39 26 40 90 41
REMARK SMILES IDX 27 42 89 43 28 44 29 45 30 46 83 47 31 48 88 49 82 50 84 51
REMARK SMILES IDX 32 52 87 53 81 54 80 55 33 57 67 58 46 59 66 60 47 61 50 62
REMARK SMILES IDX 65 63 85 64 48 65 49 66 64 68 86 69 51 70 34 71 35 72 44 73
REMARK SMILES IDX 36 74 37 75 43 76 45 77 38 78 39 79 40 80 41 81 42 82 68 83
REMARK SMILES IDX 69 84 78 85 70 86 71 87 77 88 79 89 72 90 73 91 74 92 75 93
REMARK SMILES IDX 76 94 52 95 53 96 62 97 54 98 55 99 61 100 63 101 56 102
REMARK SMILES IDX 57 103 58 104 59 105 60 106
REMARK H PARENT 2 21 84 56 50 67
REMARK Flexibility Score: inf
ROOT
ATOM      1  C   UNL     1       0.619  -1.802   5.065  1.00  0.00     0.188 C 
ENDROOT
BRANCH   1   2
ATOM      2  C   UNL     1       1.609  -2.986   5.137  1.00  0.00     0.188 C 
BRANCH   2   3
ATOM      3  O   UNL     1       1.944  -3.564   6.390  1.00  0.00    -0.376 OA
BRANCH   3   4
ATOM      4  C   UNL     1       2.370  -2.743   7.466  1.00  0.00     0.202 C 
BRANCH   4   5
ATOM      5  C   UNL     1       3.403  -1.631   7.244  1.00  0.00     0.261 C 
BRANCH   5   6
ATOM      6  O   UNL     1       3.164  -0.814   6.093  1.00  0.00    -0.463 OA
BRANCH   6   7
ATOM      7  C   UNL     1       4.066  -0.900   5.074  1.00  0.00     0.311 C 
ATOM      8  O   UNL     1       5.056  -1.616   5.063  1.00  0.00    -0.252 OA
BRANCH   7   9
ATOM      9  C   UNL     1       3.677   0.040   3.962  1.00  0.00     0.128 C 
ATOM     10  N   UNL     1       3.672   0.372   1.672  1.00  0.00    -0.341 N 
ATOM     11  C   UNL     1       3.486  -0.681   2.645  1.00  0.00     0.135 C 
ATOM     12  C   UNL     1       4.679   1.308   2.163  1.00  0.00     0.128 C 
ATOM     13  C   UNL     1       4.776   1.096   3.692  1.00  0.00     0.055 C 
BRANCH  10  14
ATOM     14  C   UNL     1       3.407   0.300   0.320  1.00  0.00     0.226 C 
ATOM     15  O   UNL     1       4.270   0.628  -0.501  1.00  0.00    -0.275 OA
BRANCH  14  16
ATOM     16  C   UNL     1       1.959   0.122  -0.161  1.00  0.00     0.090 C 
ATOM     17  C   UNL     1      -2.345   0.009  -0.168  1.00  0.00     0.332 C 
ATOM     18  N   UNL     1      -0.931   0.024   0.212  1.00  0.00    -0.337 N 
ATOM     19  C   UNL     1      -0.297   1.276  -0.216  1.00  0.00     0.262 C 
ATOM     20  C   UNL     1      -0.223  -1.126  -0.372  1.00  0.00     0.262 C 
ATOM     21  H   UNL     1      -0.874  -0.043   1.229  1.00  0.00     0.347 HD
ATOM     22  C   UNL     1       1.141   1.339   0.293  1.00  0.00     0.075 C 
ATOM     23  C   UNL     1       1.220  -1.172   0.154  1.00  0.00     0.075 C 
ENDBRANCH  14  16
ENDBRANCH  10  14
BRANCH  13  24
ATOM     24  C   UNL     1       4.531   2.258   4.654  1.00  0.00    -0.038 A 
ATOM     25  C   UNL     1       3.975   3.494   4.263  1.00  0.00     0.008 A 
ATOM     26  C   UNL     1       4.678   1.992   6.034  1.00  0.00     0.054 A 
ATOM     27  C   UNL     1       3.460   4.388   5.213  1.00  0.00     0.051 A 
ATOM     28  C   UNL     1       4.075   2.837   6.934  1.00  0.00     0.166 A 
ATOM     29  C   UNL     1       3.467   3.999   6.533  1.00  0.00     0.165 A 
ATOM     30  O   UNL     1       3.909   2.593   8.263  1.00  0.00    -0.454 OA
ATOM     31  O   UNL     1       2.849   4.633   7.567  1.00  0.00    -0.454 OA
ATOM     32  C   UNL     1       2.924   3.598   8.572  1.00  0.00     0.468 C 
ENDBRANCH  13  24
ENDBRANCH   7   9
ENDBRANCH   6   7
ENDBRANCH   5   6
ENDBRANCH   4   5
ENDBRANCH   3   4
ENDBRANCH   2   3
ENDBRANCH   1   2
BRANCH   1  33
ATOM     33  O   UNL     1       0.189  -1.300   6.306  1.00  0.00    -0.376 OA
BRANCH  33  34
ATOM     34  C   UNL     1      -0.973  -1.833   6.915  1.00  0.00     0.202 C 
BRANCH  34  35
ATOM     35  C   UNL     1      -1.679  -3.152   6.526  1.00  0.00     0.261 C 
BRANCH  35  36
ATOM     36  O   UNL     1      -1.148  -3.929   5.448  1.00  0.00    -0.460 OA
BRANCH  36  37
ATOM     37  C   UNL     1      -1.812  -3.858   4.271  1.00  0.00     0.338 C 
ATOM     38  O   UNL     1      -2.791  -3.164   4.019  1.00  0.00    -0.246 OA
BRANCH  37  39
ATOM     39  C   UNL     1      -1.061  -4.611   3.249  1.00  0.00     0.060 A 
ATOM     40  C   UNL     1      -0.390  -3.896   2.251  1.00  0.00     0.016 A 
ATOM     41  C   UNL     1      -1.035  -6.006   3.251  1.00  0.00     0.016 A 
ATOM     42  C   UNL     1       0.297  -4.573   1.243  1.00  0.00     0.010 A 
ATOM     43  C   UNL     1      -0.370  -6.683   2.219  1.00  0.00     0.010 A 
ATOM     44  C   UNL     1       0.277  -5.970   1.193  1.00  0.00    -0.014 A 
BRANCH  44  45
ATOM     45  C   UNL     1       0.754  -6.662  -0.033  1.00  0.00     0.031 A 
ATOM     46  C   UNL     1      -0.272  -7.116  -1.039  1.00  0.00     0.074 A 
ATOM     47  C   UNL     1       2.065  -6.848  -0.280  1.00  0.00     0.049 A 
ATOM     48  N   UNL     1      -0.112  -7.815  -2.131  1.00  0.00    -0.248 NA
ATOM     49  C   UNL     1      -1.667  -6.722  -0.776  1.00  0.00     0.031 C 
ATOM     50  C   UNL     1       3.163  -6.383   0.568  1.00  0.00     0.029 A 
ATOM     51  N   UNL     1       2.695  -7.489  -1.319  1.00  0.00    -0.354 N 
ATOM     52  C   UNL     1      -1.385  -7.977  -2.666  1.00  0.00     0.074 A 
ATOM     53  C   UNL     1      -2.308  -7.303  -1.781  1.00  0.00     0.031 C 
ATOM     54  C   UNL     1       4.330  -6.774   0.024  1.00  0.00     0.029 A 
ATOM     55  C   UNL     1       4.064  -7.554  -1.183  1.00  0.00     0.049 A 
ATOM     56  H   UNL     1       2.213  -7.867  -2.090  1.00  0.00     0.167 HD
ATOM     57  C   UNL     1      -1.751  -8.634  -3.792  1.00  0.00     0.037 A 
ATOM     58  C   UNL     1       4.986  -8.201  -1.926  1.00  0.00     0.037 A 
ATOM     59  C   UNL     1      -0.827  -9.281  -4.685  1.00  0.00     0.049 A 
ATOM     60  C   UNL     1       4.540  -8.990  -3.136  1.00  0.00     0.074 A 
ATOM     61  C   UNL     1      -1.101  -9.947  -5.867  1.00  0.00     0.029 A 
ATOM     62  N   UNL     1       0.545  -9.351  -4.495  1.00  0.00    -0.354 N 
ATOM     63  N   UNL     1       3.334  -9.129  -3.635  1.00  0.00    -0.248 NA
ATOM     64  C   UNL     1       5.581  -9.713  -3.883  1.00  0.00     0.031 C 
ATOM     65  C   UNL     1       0.096 -10.474  -6.359  1.00  0.00     0.029 A 
ATOM     66  C   UNL     1       1.125 -10.076  -5.522  1.00  0.00     0.049 A 
ATOM     67  H   UNL     1       1.033  -8.945  -3.743  1.00  0.00     0.167 HD
ATOM     68  C   UNL     1       3.482  -9.915  -4.777  1.00  0.00     0.074 A 
ATOM     69  C   UNL     1       4.891 -10.217  -4.896  1.00  0.00     0.031 C 
ATOM     70  C   UNL     1       2.536 -10.345  -5.649  1.00  0.00     0.037 A 
BRANCH  57  71
ATOM     71  C   UNL     1      -3.217  -8.734  -4.109  1.00  0.00     0.058 A 
ATOM     72  C   UNL     1      -3.957  -7.639  -4.580  1.00  0.00     0.135 A 
ATOM     73  C   UNL     1      -3.869  -9.975  -4.012  1.00  0.00     0.135 A 
ATOM     74  F   UNL     1      -3.389  -6.426  -4.669  1.00  0.00    -0.206 F 
ATOM     75  C   UNL     1      -5.294  -7.771  -4.942  1.00  0.00     0.059 A 
ATOM     76  C   UNL     1      -5.197 -10.135  -4.394  1.00  0.00     0.059 A 
ATOM     77  F   UNL     1      -3.208 -11.052  -3.559  1.00  0.00    -0.206 F 
ATOM     78  C   UNL     1      -5.902  -9.025  -4.854  1.00  0.00     0.060 A 
BRANCH  78  79
ATOM     79  S   UNL     1      -7.623  -9.189  -5.374  1.00  0.00     0.124 S 
ATOM     80  O   UNL     1      -8.319  -8.475  -4.308  1.00  0.00    -0.237 OA
ATOM     81  O   UNL     1      -7.617  -8.532  -6.677  1.00  0.00    -0.237 OA
ATOM     82  O   UNL     1      -7.835 -10.632  -5.404  1.00  0.00    -0.744 OA
ENDBRANCH  78  79
ENDBRANCH  57  71
BRANCH  58  83
ATOM     83  C   UNL     1       6.427  -8.182  -1.539  1.00  0.00     0.058 A 
ATOM     84  C   UNL     1       7.397  -7.594  -2.366  1.00  0.00     0.135 A 
ATOM     85  C   UNL     1       6.872  -8.814  -0.367  1.00  0.00     0.135 A 
ATOM     86  F   UNL     1       7.028  -6.991  -3.507  1.00  0.00    -0.206 F 
ATOM     87  C   UNL     1       8.755  -7.667  -2.068  1.00  0.00     0.059 A 
ATOM     88  C   UNL     1       8.222  -8.870  -0.030  1.00  0.00     0.059 A 
ATOM     89  F   UNL     1       5.990  -9.389   0.466  1.00  0.00    -0.206 F 
ATOM     90  C   UNL     1       9.158  -8.313  -0.899  1.00  0.00     0.060 A 
BRANCH  90  91
ATOM     91  S   UNL     1      10.922  -8.409  -0.522  1.00  0.00     0.124 S 
ATOM     92  O   UNL     1      11.376  -9.393  -1.497  1.00  0.00    -0.237 OA
ATOM     93  O   UNL     1      11.360  -7.035  -0.749  1.00  0.00    -0.237 OA
ATOM     94  O   UNL     1      10.944  -8.845   0.871  1.00  0.00    -0.744 OA
ENDBRANCH  90  91
ENDBRANCH  58  83
BRANCH  70  95
ATOM     95  C   UNL     1       2.991 -11.125  -6.854  1.00  0.00     0.058 A 
ATOM     96  C   UNL     1       3.467 -12.441  -6.757  1.00  0.00     0.135 A 
ATOM     97  C   UNL     1       2.889 -10.560  -8.137  1.00  0.00     0.135 A 
ATOM     98  F   UNL     1       3.588 -13.029  -5.556  1.00  0.00    -0.206 F 
ATOM     99  C   UNL     1       3.852 -13.160  -7.885  1.00  0.00     0.059 A 
ATOM    100  C   UNL     1       3.236 -11.271  -9.281  1.00  0.00     0.059 A 
ATOM    101  F   UNL     1       2.426  -9.309  -8.291  1.00  0.00    -0.206 F 
ATOM    102  C   UNL     1       3.729 -12.567  -9.144  1.00  0.00     0.060 A 
BRANCH 102 103
ATOM    103  S   UNL     1       4.200 -13.522 -10.602  1.00  0.00     0.124 S 
ATOM    104  O   UNL     1       5.655 -13.528 -10.493  1.00  0.00    -0.237 OA
ATOM    105  O   UNL     1       3.542 -14.803 -10.362  1.00  0.00    -0.237 OA
ATOM    106  O   UNL     1       3.657 -12.743 -11.710  1.00  0.00    -0.744 OA
ENDBRANCH 102 103
ENDBRANCH  70  95
ENDBRANCH  44  45
ENDBRANCH  37  39
ENDBRANCH  36  37
ENDBRANCH  35  36
ENDBRANCH  34  35
ENDBRANCH  33  34
ENDBRANCH   1  33
TORSDOF 23
