REMARK SMILES Cc1ccccc1N[C@H](C(=O)OCCOCCOCCOC(=O)c1ccc(-c2c3nc(c(-c4c(F)cc(S(=O)(=O)[O-])cc4F)c4ccc([nH]4)c(-c4c(F)cc(S(=O)(=O)[O-])cc4F)c4nc(c(-c5c(F)cc(S(=O)(=O)[O-])cc5F)c5ccc2[nH]5)C=C4)C=C3)cc1)c1cccc(C2CC2)c1
REMARK SMILES IDX 17 1 16 2 15 3 14 4 13 5 12 6 10 7 11 8 9 9 8 10 7 12 1 13
REMARK SMILES IDX 2 14 3 15 4 16 6 17 5 18 90 19 91 20 98 21 92 22 94 23 93 24
REMARK SMILES IDX 95 25 96 26 97 27 18 28 19 29 20 30 21 31 22 32 23 33 24 34
REMARK SMILES IDX 25 35 89 36 26 37 88 38 27 39 28 40 29 41 82 42 30 43 87 44
REMARK SMILES IDX 81 45 83 46 31 47 86 48 80 49 79 50 32 52 66 53 45 54 65 55
REMARK SMILES IDX 46 56 49 57 64 58 84 59 47 60 48 61 63 63 85 64 50 65 33 66
REMARK SMILES IDX 34 67 43 68 35 69 36 70 42 71 44 72 37 73 38 74 39 75 40 76
REMARK SMILES IDX 41 77 67 78 68 79 77 80 69 81 70 82 76 83 78 84 71 85 72 86
REMARK SMILES IDX 73 87 74 88 75 89 51 90 52 91 61 92 53 93 54 94 60 95 62 96
REMARK SMILES IDX 55 97 56 98 57 99 58 100 59 101
REMARK H PARENT 8 11 83 51 49 62
REMARK Flexibility Score: inf
ROOT
ATOM      1  C   UNL     1       1.947  -1.626   2.675  1.00  0.00     0.188 C 
ENDROOT
BRANCH   1   2
ATOM      2  C   UNL     1       2.370  -1.346   1.252  1.00  0.00     0.188 C 
BRANCH   2   3
ATOM      3  O   UNL     1       3.490  -0.474   1.058  1.00  0.00    -0.376 OA
BRANCH   3   4
ATOM      4  C   UNL     1       4.011   0.351   2.109  1.00  0.00     0.202 C 
BRANCH   4   5
ATOM      5  C   UNL     1       3.823   1.952   2.240  1.00  0.00     0.261 C 
BRANCH   5   6
ATOM      6  O   UNL     1       2.480   2.850   2.668  1.00  0.00    -0.461 OA
BRANCH   6   7
ATOM      7  C   UNL     1       1.671   4.162   2.315  1.00  0.00     0.333 C 
ATOM      8  O   UNL     1       1.618   4.946   3.279  1.00  0.00    -0.249 OA
BRANCH   7   9
ATOM      9  C   UNL     1       0.452   4.337   0.921  1.00  0.00     0.221 C 
BRANCH   9  10
ATOM     10  N   UNL     1      -0.806   4.894   1.438  1.00  0.00    -0.368 N 
ATOM     11  H   UNL     1      -1.593   4.325   1.273  1.00  0.00     0.161 HD
BRANCH  10  12
ATOM     12  C   UNL     1      -1.089   6.047   2.101  1.00  0.00     0.038 A 
ATOM     13  C   UNL     1      -2.668   4.701   3.584  1.00  0.00     0.046 C 
ATOM     14  C   UNL     1      -2.089   6.008   3.094  1.00  0.00    -0.028 A 
ATOM     15  C   UNL     1      -2.498   7.197   3.705  1.00  0.00     0.005 A 
ATOM     16  C   UNL     1      -1.942   8.414   3.318  1.00  0.00     0.000 A 
ATOM     17  C   UNL     1      -0.467   7.258   1.799  1.00  0.00     0.026 A 
ATOM     18  C   UNL     1      -0.921   8.444   2.373  1.00  0.00     0.002 A 
ENDBRANCH  10  12
ENDBRANCH   9  10
BRANCH   9  19
ATOM     19  C   UNL     1       0.611   4.570  -0.625  1.00  0.00    -0.014 A 
ATOM     20  C   UNL     1       0.005   5.622  -1.267  1.00  0.00     0.006 A 
ATOM     21  C   UNL     1       1.291   3.648  -1.540  1.00  0.00     0.010 A 
ATOM     22  C   UNL     1       0.607   6.012  -2.432  1.00  0.00     0.001 A 
ATOM     23  C   UNL     1       2.328   4.074  -2.366  1.00  0.00    -0.045 A 
ATOM     24  C   UNL     1       1.819   5.349  -2.770  1.00  0.00     0.004 A 
BRANCH  23  25
ATOM     25  C   UNL     1       4.081   3.833  -2.223  1.00  0.00     0.019 C 
ATOM     26  C   UNL     1       5.159   3.458  -1.176  1.00  0.00     0.009 C 
ATOM     27  C   UNL     1       5.343   3.107  -2.620  1.00  0.00     0.009 C 
ENDBRANCH  23  25
ENDBRANCH   9  19
ENDBRANCH   7   9
ENDBRANCH   6   7
ENDBRANCH   5   6
ENDBRANCH   4   5
ENDBRANCH   3   4
ENDBRANCH   2   3
ENDBRANCH   1   2
BRANCH   1  28
ATOM     28  O   UNL     1       1.810  -0.369   3.317  1.00  0.00    -0.376 OA
BRANCH  28  29
ATOM     29  C   UNL     1       1.959  -0.354   4.718  1.00  0.00     0.202 C 
BRANCH  29  30
ATOM     30  C   UNL     1       0.863  -1.155   5.408  1.00  0.00     0.261 C 
BRANCH  30  31
ATOM     31  O   UNL     1      -0.441  -0.525   5.355  1.00  0.00    -0.460 OA
BRANCH  31  32
ATOM     32  C   UNL     1      -1.236  -0.798   4.274  1.00  0.00     0.338 C 
ATOM     33  O   UNL     1      -2.136  -1.648   4.306  1.00  0.00    -0.246 OA
BRANCH  32  34
ATOM     34  C   UNL     1      -0.967   0.145   3.170  1.00  0.00     0.060 A 
ATOM     35  C   UNL     1      -0.989  -0.082   1.801  1.00  0.00     0.016 A 
ATOM     36  C   UNL     1      -0.555   1.380   3.521  1.00  0.00     0.016 A 
ATOM     37  C   UNL     1      -0.160   0.688   0.888  1.00  0.00     0.010 A 
ATOM     38  C   UNL     1       0.205   2.087   2.597  1.00  0.00     0.010 A 
ATOM     39  C   UNL     1       0.757   1.671   1.318  1.00  0.00    -0.014 A 
BRANCH  39  40
ATOM     40  C   UNL     1       2.170   2.353   0.356  1.00  0.00     0.031 A 
ATOM     41  C   UNL     1       3.166   4.030   0.460  1.00  0.00     0.074 A 
ATOM     42  C   UNL     1       2.472   1.398  -0.610  1.00  0.00     0.049 A 
ATOM     43  N   UNL     1       3.216   5.068  -0.419  1.00  0.00    -0.248 NA
ATOM     44  C   UNL     1       3.974   4.728   1.602  1.00  0.00     0.031 C 
ATOM     45  C   UNL     1       3.693   1.091  -1.327  1.00  0.00     0.029 A 
ATOM     46  N   UNL     1       1.558   0.659  -1.402  1.00  0.00    -0.354 N 
ATOM     47  C   UNL     1       4.099   6.152  -0.225  1.00  0.00     0.074 A 
ATOM     48  C   UNL     1       4.294   5.981   1.196  1.00  0.00     0.031 C 
ATOM     49  C   UNL     1       3.444   0.747  -2.597  1.00  0.00     0.029 A 
ATOM     50  C   UNL     1       2.035   0.646  -2.722  1.00  0.00     0.049 A 
ATOM     51  H   UNL     1       0.732   0.230  -1.082  1.00  0.00     0.167 HD
ATOM     52  C   UNL     1       4.779   7.023  -1.151  1.00  0.00     0.037 A 
ATOM     53  C   UNL     1       1.337   0.645  -3.870  1.00  0.00     0.037 A 
ATOM     54  C   UNL     1       5.038   6.656  -2.671  1.00  0.00     0.049 A 
ATOM     55  C   UNL     1       1.744   1.833  -4.780  1.00  0.00     0.074 A 
ATOM     56  C   UNL     1       6.141   6.067  -3.323  1.00  0.00     0.029 A 
ATOM     57  N   UNL     1       4.182   6.740  -3.808  1.00  0.00    -0.354 N 
ATOM     58  N   UNL     1       2.766   2.672  -4.650  1.00  0.00    -0.248 NA
ATOM     59  C   UNL     1       0.895   2.181  -5.912  1.00  0.00     0.031 C 
ATOM     60  C   UNL     1       5.702   5.391  -4.538  1.00  0.00     0.029 A 
ATOM     61  C   UNL     1       4.333   5.570  -4.668  1.00  0.00     0.049 A 
ATOM     62  H   UNL     1       3.570   7.489  -3.990  1.00  0.00     0.167 HD
ATOM     63  C   UNL     1       2.603   3.770  -5.511  1.00  0.00     0.074 A 
ATOM     64  C   UNL     1       1.433   3.344  -6.310  1.00  0.00     0.031 C 
ATOM     65  C   UNL     1       3.253   5.016  -5.581  1.00  0.00     0.037 A 
BRANCH  52  66
ATOM     66  C   UNL     1       5.703   8.144  -0.559  1.00  0.00     0.058 A 
ATOM     67  C   UNL     1       6.924   8.517  -1.168  1.00  0.00     0.135 A 
ATOM     68  C   UNL     1       5.413   8.884   0.611  1.00  0.00     0.135 A 
ATOM     69  F   UNL     1       7.272   8.103  -2.389  1.00  0.00    -0.206 F 
ATOM     70  C   UNL     1       7.859   9.370  -0.580  1.00  0.00     0.059 A 
ATOM     71  C   UNL     1       6.348   9.732   1.240  1.00  0.00     0.059 A 
ATOM     72  F   UNL     1       4.195   8.822   1.173  1.00  0.00    -0.206 F 
ATOM     73  C   UNL     1       7.588   9.940   0.649  1.00  0.00     0.060 A 
BRANCH  73  74
ATOM     74  S   UNL     1       8.868  10.970   1.396  1.00  0.00     0.124 S 
ATOM     75  O   UNL     1       9.988  10.038   1.498  1.00  0.00    -0.237 OA
ATOM     76  O   UNL     1       9.020  12.032   0.407  1.00  0.00    -0.237 OA
ATOM     77  O   UNL     1       8.280  11.377   2.668  1.00  0.00    -0.744 OA
ENDBRANCH  73  74
ENDBRANCH  52  66
BRANCH  53  78
ATOM     78  C   UNL     1       0.069  -0.145  -3.661  1.00  0.00     0.058 A 
ATOM     79  C   UNL     1       0.253  -1.533  -3.383  1.00  0.00     0.135 A 
ATOM     80  C   UNL     1      -1.125   0.417  -3.191  1.00  0.00     0.135 A 
ATOM     81  F   UNL     1       1.379  -2.151  -3.779  1.00  0.00    -0.206 F 
ATOM     82  C   UNL     1      -0.596  -2.259  -2.545  1.00  0.00     0.059 A 
ATOM     83  C   UNL     1      -2.009  -0.306  -2.361  1.00  0.00     0.059 A 
ATOM     84  F   UNL     1      -1.381   1.714  -3.410  1.00  0.00    -0.206 F 
ATOM     85  C   UNL     1      -1.703  -1.624  -2.000  1.00  0.00     0.060 A 
BRANCH  85  86
ATOM     86  S   UNL     1      -2.574  -2.488  -0.659  1.00  0.00     0.124 S 
ATOM     87  O   UNL     1      -3.161  -3.630  -1.347  1.00  0.00    -0.237 OA
ATOM     88  O   UNL     1      -1.466  -2.806   0.241  1.00  0.00    -0.237 OA
ATOM     89  O   UNL     1      -3.513  -1.484  -0.172  1.00  0.00    -0.744 OA
ENDBRANCH  85  86
ENDBRANCH  53  78
BRANCH  65  90
ATOM     90  C   UNL     1       2.878   5.909  -6.734  1.00  0.00     0.058 A 
ATOM     91  C   UNL     1       2.927   5.459  -8.067  1.00  0.00     0.135 A 
ATOM     92  C   UNL     1       2.602   7.270  -6.532  1.00  0.00     0.135 A 
ATOM     93  F   UNL     1       3.197   4.175  -8.352  1.00  0.00    -0.206 F 
ATOM     94  C   UNL     1       2.686   6.311  -9.138  1.00  0.00     0.059 A 
ATOM     95  C   UNL     1       2.459   8.157  -7.588  1.00  0.00     0.059 A 
ATOM     96  F   UNL     1       2.457   7.773  -5.296  1.00  0.00    -0.206 F 
ATOM     97  C   UNL     1       2.482   7.665  -8.887  1.00  0.00     0.060 A 
BRANCH  97  98
ATOM     98  S   UNL     1       2.299   8.805 -10.267  1.00  0.00     0.124 S 
ATOM     99  O   UNL     1       3.115   8.186 -11.307  1.00  0.00    -0.237 OA
ATOM    100  O   UNL     1       0.858   8.764 -10.485  1.00  0.00    -0.237 OA
ATOM    101  O   UNL     1       2.825  10.056  -9.730  1.00  0.00    -0.744 OA
ENDBRANCH  97  98
ENDBRANCH  65  90
ENDBRANCH  39  40
ENDBRANCH  32  34
ENDBRANCH  31  32
ENDBRANCH  30  31
ENDBRANCH  29  30
ENDBRANCH  28  29
ENDBRANCH   1  28
TORSDOF 24
