REMARK SMILES C[C@H](c1cccc(-c2cc(C(=O)OCCOCCOCCOC(=O)c3ccc(-c4c5nc(c(-c6c(F)cc(S(=O)(=O)[O-])cc6F)c6ccc([nH]6)c(-c6c(F)cc(S(=O)(=O)[O-])cc6F)c6nc(c(-c7c(F)cc(S(=O)(=O)[O-])cc7F)c7ccc4[nH]7)C=C6)C=C5)cc3)cc(S(=O)(=O)N3CCOCC3)c2)c1)[NH+](C)C
REMARK SMILES IDX 17 1 16 2 15 3 14 4 13 5 11 6 12 7 10 8 8 9 9 10 102 11
REMARK SMILES IDX 92 12 91 13 7 14 3 15 4 16 103 17 5 18 6 19 2 20 1 21 104 22
REMARK SMILES IDX 105 23 106 24 93 26 94 27 95 28 96 29 97 30 101 31 98 32
REMARK SMILES IDX 100 33 99 34 18 35 19 36 20 37 21 38 22 39 23 40 24 41 25 42
REMARK SMILES IDX 26 43 90 44 27 45 89 46 28 47 29 48 30 49 83 50 31 51 88 52
REMARK SMILES IDX 82 53 84 54 32 55 87 56 81 57 80 58 33 60 67 61 46 62 66 63
REMARK SMILES IDX 47 64 50 65 65 66 85 67 48 68 49 69 64 71 86 72 51 73 34 74
REMARK SMILES IDX 35 75 44 76 36 77 37 78 43 79 45 80 38 81 39 82 40 83 41 84
REMARK SMILES IDX 42 85 68 86 69 87 78 88 70 89 71 90 77 91 79 92 72 93 73 94
REMARK SMILES IDX 74 95 75 96 76 97 52 98 53 99 62 100 54 101 55 102 61 103
REMARK SMILES IDX 63 104 56 105 57 106 58 107 59 108 60 109
REMARK H PARENT 104 25 84 59 50 70
REMARK Flexibility Score: inf
ROOT
ATOM      1  C   UNL     1       5.832  -4.842  -4.176  1.00  0.00     0.188 C 
ENDROOT
BRANCH   1   2
ATOM      2  O   UNL     1       6.884  -5.347  -4.978  1.00  0.00    -0.376 OA
BRANCH   2   3
ATOM      3  C   UNL     1       7.921  -4.452  -5.336  1.00  0.00     0.202 C 
BRANCH   3   4
ATOM      4  C   UNL     1       8.777  -3.851  -4.210  1.00  0.00     0.261 C 
BRANCH   4   5
ATOM      5  O   UNL     1       8.062  -3.400  -3.050  1.00  0.00    -0.460 OA
BRANCH   5   6
ATOM      6  C   UNL     1       7.559  -2.145  -3.059  1.00  0.00     0.338 C 
ATOM      7  O   UNL     1       7.629  -1.336  -3.967  1.00  0.00    -0.246 OA
BRANCH   6   8
ATOM      8  C   UNL     1       6.747  -1.980  -1.827  1.00  0.00     0.062 A 
ATOM      9  C   UNL     1       4.591  -1.470  -0.836  1.00  0.00    -0.016 A 
ATOM     10  C   UNL     1       5.428  -1.492  -1.953  1.00  0.00     0.024 A 
ATOM     11  C   UNL     1       5.114  -1.896   0.388  1.00  0.00     0.030 A 
ATOM     12  C   UNL     1       6.404  -2.378   0.529  1.00  0.00     0.084 A 
ATOM     13  C   UNL     1       7.239  -2.427  -0.584  1.00  0.00     0.037 A 
BRANCH   9  14
ATOM     14  C   UNL     1       3.146  -1.209  -0.849  1.00  0.00    -0.018 A 
ATOM     15  C   UNL     1       1.220   0.107  -0.061  1.00  0.00     0.010 A 
ATOM     16  C   UNL     1       0.401  -1.009  -0.304  1.00  0.00     0.010 A 
ATOM     17  C   UNL     1       2.600  -0.018  -0.340  1.00  0.00     0.018 A 
ATOM     18  C   UNL     1       0.921  -2.188  -0.823  1.00  0.00     0.001 A 
ATOM     19  C   UNL     1       2.283  -2.286  -1.085  1.00  0.00     0.009 A 
BRANCH  15  20
ATOM     20  C   UNL     1       0.651   1.361   0.631  1.00  0.00     0.211 C 
ATOM     21  C   UNL     1       1.291   2.665   0.126  1.00  0.00     0.081 C 
BRANCH  20  22
ATOM     22  N   UNL     1      -0.831   1.399   0.639  1.00  0.00    -0.334 N 
ATOM     23  C   UNL     1      -1.377   2.189   1.738  1.00  0.00     0.333 C 
ATOM     24  C   UNL     1      -1.428   1.807  -0.635  1.00  0.00     0.333 C 
ATOM     25  H   UNL     1      -1.098   0.425   0.788  1.00  0.00     0.348 HD
ENDBRANCH  20  22
ENDBRANCH  15  20
ENDBRANCH   9  14
BRANCH  12  26
ATOM     26  S   UNL     1       6.939  -3.010   2.103  1.00  0.00     0.243 S 
ATOM     27  O   UNL     1       7.139  -4.431   1.923  1.00  0.00    -0.207 OA
ATOM     28  O   UNL     1       8.010  -2.140   2.540  1.00  0.00    -0.207 OA
BRANCH  26  29
ATOM     29  N   UNL     1       5.638  -2.796   3.146  1.00  0.00    -0.193 NA
ATOM     30  C   UNL     1       4.576  -3.816   3.315  1.00  0.00     0.131 C 
ATOM     31  C   UNL     1       5.423  -1.534   3.885  1.00  0.00     0.131 C 
ATOM     32  C   UNL     1       3.172  -3.198   3.213  1.00  0.00     0.177 C 
ATOM     33  C   UNL     1       3.981  -1.032   3.737  1.00  0.00     0.177 C 
ATOM     34  O   UNL     1       3.030  -2.052   4.063  1.00  0.00    -0.379 OA
ENDBRANCH  26  29
ENDBRANCH  12  26
ENDBRANCH   6   8
ENDBRANCH   5   6
ENDBRANCH   4   5
ENDBRANCH   3   4
ENDBRANCH   2   3
ENDBRANCH   1   2
BRANCH   1  35
ATOM     35  C   UNL     1       5.813  -5.467  -2.765  1.00  0.00     0.188 C 
BRANCH  35  36
ATOM     36  O   UNL     1       6.696  -6.545  -2.473  1.00  0.00    -0.376 OA
BRANCH  36  37
ATOM     37  C   UNL     1       6.758  -7.638  -3.385  1.00  0.00     0.202 C 
BRANCH  37  38
ATOM     38  C   UNL     1       5.453  -8.370  -3.722  1.00  0.00     0.261 C 
BRANCH  38  39
ATOM     39  O   UNL     1       4.424  -7.515  -4.254  1.00  0.00    -0.460 OA
BRANCH  39  40
ATOM     40  C   UNL     1       3.202  -7.648  -3.680  1.00  0.00     0.338 C 
ATOM     41  O   UNL     1       2.871  -8.434  -2.810  1.00  0.00    -0.246 OA
BRANCH  40  42
ATOM     42  C   UNL     1       2.308  -6.585  -4.173  1.00  0.00     0.060 A 
ATOM     43  C   UNL     1       2.148  -5.435  -3.397  1.00  0.00     0.016 A 
ATOM     44  C   UNL     1       1.558  -6.756  -5.338  1.00  0.00     0.016 A 
ATOM     45  C   UNL     1       1.257  -4.443  -3.800  1.00  0.00     0.010 A 
ATOM     46  C   UNL     1       0.640  -5.767  -5.720  1.00  0.00     0.010 A 
ATOM     47  C   UNL     1       0.477  -4.607  -4.946  1.00  0.00    -0.014 A 
BRANCH  47  48
ATOM     48  C   UNL     1      -0.584  -3.611  -5.241  1.00  0.00     0.031 A 
ATOM     49  C   UNL     1      -2.006  -3.926  -4.874  1.00  0.00     0.074 A 
ATOM     50  C   UNL     1      -0.278  -2.405  -5.754  1.00  0.00     0.049 A 
ATOM     51  N   UNL     1      -3.099  -3.262  -5.148  1.00  0.00    -0.248 NA
ATOM     52  C   UNL     1      -2.224  -5.144  -4.077  1.00  0.00     0.031 C 
ATOM     53  C   UNL     1       1.075  -1.921  -6.029  1.00  0.00     0.029 A 
ATOM     54  N   UNL     1      -1.090  -1.366  -6.137  1.00  0.00    -0.354 N 
ATOM     55  C   UNL     1      -4.137  -3.993  -4.583  1.00  0.00     0.074 A 
ATOM     56  C   UNL     1      -3.543  -5.149  -3.945  1.00  0.00     0.031 C 
ATOM     57  C   UNL     1       0.998  -0.687  -6.557  1.00  0.00     0.029 A 
ATOM     58  C   UNL     1      -0.409  -0.320  -6.713  1.00  0.00     0.049 A 
ATOM     59  H   UNL     1      -2.067  -1.369  -6.011  1.00  0.00     0.167 HD
ATOM     60  C   UNL     1      -5.464  -3.727  -4.605  1.00  0.00     0.037 A 
ATOM     61  C   UNL     1      -0.868   0.781  -7.343  1.00  0.00     0.037 A 
ATOM     62  C   UNL     1      -6.047  -2.571  -5.233  1.00  0.00     0.049 A 
ATOM     63  C   UNL     1      -2.354   0.988  -7.477  1.00  0.00     0.074 A 
ATOM     64  C   UNL     1      -7.383  -2.217  -5.317  1.00  0.00     0.029 A 
ATOM     65  N   UNL     1      -5.330  -1.583  -5.892  1.00  0.00    -0.354 N 
ATOM     66  N   UNL     1      -3.334   0.267  -6.987  1.00  0.00    -0.248 NA
ATOM     67  C   UNL     1      -2.798   2.143  -8.271  1.00  0.00     0.031 C 
ATOM     68  C   UNL     1      -7.477  -1.042  -6.070  1.00  0.00     0.029 A 
ATOM     69  C   UNL     1      -6.197  -0.638  -6.416  1.00  0.00     0.049 A 
ATOM     70  H   UNL     1      -4.350  -1.556  -5.974  1.00  0.00     0.167 HD
ATOM     71  C   UNL     1      -4.509   0.882  -7.409  1.00  0.00     0.074 A 
ATOM     72  C   UNL     1      -4.118   2.046  -8.176  1.00  0.00     0.031 C 
ATOM     73  C   UNL     1      -5.794   0.513  -7.185  1.00  0.00     0.037 A 
BRANCH  60  74
ATOM     74  C   UNL     1      -6.384  -4.737  -3.980  1.00  0.00     0.058 A 
ATOM     75  C   UNL     1      -6.512  -4.868  -2.590  1.00  0.00     0.135 A 
ATOM     76  C   UNL     1      -7.169  -5.570  -4.794  1.00  0.00     0.135 A 
ATOM     77  F   UNL     1      -5.768  -4.110  -1.768  1.00  0.00    -0.206 F 
ATOM     78  C   UNL     1      -7.372  -5.805  -2.026  1.00  0.00     0.059 A 
ATOM     79  C   UNL     1      -8.052  -6.498  -4.253  1.00  0.00     0.059 A 
ATOM     80  F   UNL     1      -7.079  -5.487  -6.131  1.00  0.00    -0.206 F 
ATOM     81  C   UNL     1      -8.137  -6.617  -2.867  1.00  0.00     0.060 A 
BRANCH  81  82
ATOM     82  S   UNL     1      -9.248  -7.830  -2.123  1.00  0.00     0.124 S 
ATOM     83  O   UNL     1      -8.303  -8.835  -1.645  1.00  0.00    -0.237 OA
ATOM     84  O   UNL     1      -9.918  -7.048  -1.089  1.00  0.00    -0.237 OA
ATOM     85  O   UNL     1     -10.094  -8.245  -3.237  1.00  0.00    -0.744 OA
ENDBRANCH  81  82
ENDBRANCH  60  74
BRANCH  61  86
ATOM     86  C   UNL     1       0.089   1.732  -7.971  1.00  0.00     0.058 A 
ATOM     87  C   UNL     1       0.250   3.035  -7.479  1.00  0.00     0.135 A 
ATOM     88  C   UNL     1       0.854   1.356  -9.087  1.00  0.00     0.135 A 
ATOM     89  F   UNL     1      -0.473   3.450  -6.427  1.00  0.00    -0.206 F 
ATOM     90  C   UNL     1       1.132   3.933  -8.073  1.00  0.00     0.059 A 
ATOM     91  C   UNL     1       1.760   2.227  -9.682  1.00  0.00     0.059 A 
ATOM     92  F   UNL     1       0.737   0.120  -9.598  1.00  0.00    -0.206 F 
ATOM     93  C   UNL     1       1.886   3.518  -9.173  1.00  0.00     0.060 A 
BRANCH  93  94
ATOM     94  S   UNL     1       3.066   4.672  -9.906  1.00  0.00     0.124 S 
ATOM     95  O   UNL     1       2.180   5.576 -10.630  1.00  0.00    -0.237 OA
ATOM     96  O   UNL     1       3.723   5.230  -8.728  1.00  0.00    -0.237 OA
ATOM     97  O   UNL     1       3.905   3.811 -10.734  1.00  0.00    -0.744 OA
ENDBRANCH  93  94
ENDBRANCH  61  86
BRANCH  73  98
ATOM     98  C   UNL     1      -6.879   1.373  -7.772  1.00  0.00     0.058 A 
ATOM     99  C   UNL     1      -7.178   1.337  -9.142  1.00  0.00     0.135 A 
ATOM    100  C   UNL     1      -7.672   2.187  -6.947  1.00  0.00     0.135 A 
ATOM    101  F   UNL     1      -6.444   0.582  -9.974  1.00  0.00    -0.206 F 
ATOM    102  C   UNL     1      -8.222   2.085  -9.677  1.00  0.00     0.059 A 
ATOM    103  C   UNL     1      -8.736   2.926  -7.457  1.00  0.00     0.059 A 
ATOM    104  F   UNL     1      -7.432   2.251  -5.628  1.00  0.00    -0.206 F 
ATOM    105  C   UNL     1      -8.999   2.873  -8.825  1.00  0.00     0.060 A 
BRANCH 105 106
ATOM    106  S   UNL     1     -10.383   3.799  -9.524  1.00  0.00     0.124 S 
ATOM    107  O   UNL     1      -9.693   4.881 -10.217  1.00  0.00    -0.237 OA
ATOM    108  O   UNL     1     -11.024   2.805 -10.380  1.00  0.00    -0.237 OA
ATOM    109  O   UNL     1     -11.154   4.196  -8.350  1.00  0.00    -0.744 OA
ENDBRANCH 105 106
ENDBRANCH  73  98
ENDBRANCH  47  48
ENDBRANCH  40  42
ENDBRANCH  39  40
ENDBRANCH  38  39
ENDBRANCH  37  38
ENDBRANCH  36  37
ENDBRANCH  35  36
ENDBRANCH   1  35
TORSDOF 25
