REMARK SMILES O=C(OCCOCCOCCOC(=O)c1cc(Br)ccc1OC(=O)c1ccc(F)cc1)c1ccc(-c2c3nc(c(-c4c(F)cc(S(=O)(=O)[O-])cc4F)c4ccc([nH]4)c(-c4c(F)cc(S(=O)(=O)[O-])cc4F)c4nc(c(-c5c(F)cc(S(=O)(=O)[O-])cc5F)c5ccc2[nH]5)C=C4)C=C3)cc1
REMARK SMILES IDX 7 1 6 2 5 3 4 4 3 5 2 6 1 7 32 8 33 9 97 10 34 11 96 12
REMARK SMILES IDX 35 13 36 14 37 15 90 16 38 17 95 18 89 19 91 20 39 21 94 22
REMARK SMILES IDX 88 23 87 24 40 26 74 27 53 28 73 29 54 30 57 31 72 32 92 33
REMARK SMILES IDX 55 34 56 35 71 37 93 38 58 39 41 40 42 41 51 42 43 43 44 44
REMARK SMILES IDX 50 45 52 46 45 47 46 48 47 49 48 50 49 51 75 52 76 53 85 54
REMARK SMILES IDX 77 55 78 56 84 57 86 58 79 59 80 60 81 61 82 62 83 63 59 64
REMARK SMILES IDX 60 65 69 66 61 67 62 68 68 69 70 70 63 71 64 72 65 73 66 74
REMARK SMILES IDX 67 75 8 76 9 77 10 78 11 79 12 80 13 81 14 82 15 83 16 84
REMARK SMILES IDX 21 85 17 86 20 87 18 88 19 89 22 90 23 91 24 92 25 93 26 94
REMARK SMILES IDX 31 95 27 96 30 97 28 98 29 99
REMARK H PARENT 91 25 57 36
REMARK Flexibility Score: inf
ROOT
ATOM      1  C   UNL     1       3.614  -0.040   2.478  1.00  0.00     0.188 C 
ENDROOT
BRANCH   1   2
ATOM      2  O   UNL     1       4.884  -0.392   1.963  1.00  0.00    -0.376 OA
BRANCH   2   3
ATOM      3  C   UNL     1       5.529   0.597   1.154  1.00  0.00     0.202 C 
BRANCH   3   4
ATOM      4  C   UNL     1       4.698   1.516   0.220  1.00  0.00     0.261 C 
BRANCH   4   5
ATOM      5  O   UNL     1       3.304   1.178   0.073  1.00  0.00    -0.460 OA
BRANCH   5   6
ATOM      6  C   UNL     1       2.735   0.799  -1.095  1.00  0.00     0.338 C 
ATOM      7  O   UNL     1       1.698   1.320  -1.487  1.00  0.00    -0.246 OA
BRANCH   6   8
ATOM      8  C   UNL     1       3.310  -0.371  -1.807  1.00  0.00     0.060 A 
ATOM      9  C   UNL     1       4.228  -1.235  -1.215  1.00  0.00     0.016 A 
ATOM     10  C   UNL     1       2.866  -0.653  -3.105  1.00  0.00     0.016 A 
ATOM     11  C   UNL     1       4.839  -2.243  -1.946  1.00  0.00     0.010 A 
ATOM     12  C   UNL     1       3.397  -1.736  -3.812  1.00  0.00     0.010 A 
ATOM     13  C   UNL     1       4.426  -2.507  -3.251  1.00  0.00    -0.014 A 
BRANCH  13  14
ATOM     14  C   UNL     1       5.116  -3.556  -4.034  1.00  0.00     0.031 A 
ATOM     15  C   UNL     1       5.928  -3.151  -5.229  1.00  0.00     0.074 A 
ATOM     16  C   UNL     1       5.061  -4.842  -3.635  1.00  0.00     0.049 A 
ATOM     17  N   UNL     1       6.516  -3.906  -6.116  1.00  0.00    -0.248 NA
ATOM     18  C   UNL     1       6.118  -1.706  -5.451  1.00  0.00     0.031 C 
ATOM     19  C   UNL     1       4.391  -5.323  -2.424  1.00  0.00     0.029 A 
ATOM     20  N   UNL     1       5.571  -5.983  -4.198  1.00  0.00    -0.354 N 
ATOM     21  C   UNL     1       7.132  -3.034  -7.004  1.00  0.00     0.074 A 
ATOM     22  C   UNL     1       6.836  -1.690  -6.566  1.00  0.00     0.031 C 
ATOM     23  C   UNL     1       4.512  -6.657  -2.350  1.00  0.00     0.029 A 
ATOM     24  C   UNL     1       5.203  -7.132  -3.536  1.00  0.00     0.049 A 
ATOM     25  H   UNL     1       6.145  -5.981  -4.998  1.00  0.00     0.167 HD
ATOM     26  C   UNL     1       7.884  -3.341  -8.084  1.00  0.00     0.037 A 
ATOM     27  C   UNL     1       5.354  -8.425  -3.875  1.00  0.00     0.037 A 
ATOM     28  C   UNL     1       8.179  -4.691  -8.482  1.00  0.00     0.049 A 
ATOM     29  C   UNL     1       6.081  -8.739  -5.146  1.00  0.00     0.074 A 
ATOM     30  C   UNL     1       8.936  -5.124  -9.555  1.00  0.00     0.029 A 
ATOM     31  N   UNL     1       7.725  -5.824  -7.823  1.00  0.00    -0.354 N 
ATOM     32  N   UNL     1       6.639  -7.905  -5.991  1.00  0.00    -0.248 NA
ATOM     33  C   UNL     1       6.198 -10.153  -5.516  1.00  0.00     0.031 C 
ATOM     34  C   UNL     1       8.895  -6.520  -9.575  1.00  0.00     0.029 A 
ATOM     35  C   UNL     1       8.151  -6.958  -8.489  1.00  0.00     0.049 A 
ATOM     36  H   UNL     1       7.181  -5.822  -7.002  1.00  0.00     0.167 HD
ATOM     37  C   UNL     1       7.176  -8.694  -6.996  1.00  0.00     0.074 A 
ATOM     38  C   UNL     1       6.892 -10.072  -6.644  1.00  0.00     0.031 C 
ATOM     39  C   UNL     1       7.842  -8.313  -8.111  1.00  0.00     0.037 A 
BRANCH  26  40
ATOM     40  C   UNL     1       8.417  -2.220  -8.925  1.00  0.00     0.058 A 
ATOM     41  C   UNL     1       7.871  -1.971 -10.194  1.00  0.00     0.135 A 
ATOM     42  C   UNL     1       9.517  -1.448  -8.521  1.00  0.00     0.135 A 
ATOM     43  F   UNL     1       6.805  -2.668 -10.619  1.00  0.00    -0.206 F 
ATOM     44  C   UNL     1       8.419  -1.021 -11.049  1.00  0.00     0.059 A 
ATOM     45  C   UNL     1      10.070  -0.478  -9.352  1.00  0.00     0.059 A 
ATOM     46  F   UNL     1      10.054  -1.624  -7.303  1.00  0.00    -0.206 F 
ATOM     47  C   UNL     1       9.527  -0.287 -10.623  1.00  0.00     0.060 A 
BRANCH  47  48
ATOM     48  S   UNL     1      10.238   0.927 -11.754  1.00  0.00     0.124 S 
ATOM     49  O   UNL     1      10.785   0.075 -12.804  1.00  0.00    -0.237 OA
ATOM     50  O   UNL     1       9.069   1.721 -12.122  1.00  0.00    -0.237 OA
ATOM     51  O   UNL     1      11.222   1.622 -10.930  1.00  0.00    -0.744 OA
ENDBRANCH  47  48
ENDBRANCH  26  40
BRANCH  27  52
ATOM     52  C   UNL     1       4.722  -9.499  -3.066  1.00  0.00     0.058 A 
ATOM     53  C   UNL     1       3.335  -9.711  -3.125  1.00  0.00     0.135 A 
ATOM     54  C   UNL     1       5.477 -10.341  -2.238  1.00  0.00     0.135 A 
ATOM     55  F   UNL     1       2.566  -8.919  -3.888  1.00  0.00    -0.206 F 
ATOM     56  C   UNL     1       2.718 -10.717  -2.389  1.00  0.00     0.059 A 
ATOM     57  C   UNL     1       4.881 -11.355  -1.490  1.00  0.00     0.059 A 
ATOM     58  F   UNL     1       6.808 -10.190  -2.166  1.00  0.00    -0.206 F 
ATOM     59  C   UNL     1       3.498 -11.525  -1.560  1.00  0.00     0.060 A 
BRANCH  59  60
ATOM     60  S   UNL     1       2.688 -12.819  -0.592  1.00  0.00     0.124 S 
ATOM     61  O   UNL     1       2.173 -12.061   0.543  1.00  0.00    -0.237 OA
ATOM     62  O   UNL     1       1.686 -13.328  -1.523  1.00  0.00    -0.237 OA
ATOM     63  O   UNL     1       3.780 -13.738  -0.291  1.00  0.00    -0.744 OA
ENDBRANCH  59  60
ENDBRANCH  27  52
BRANCH  39  64
ATOM     64  C   UNL     1       8.300  -9.395  -9.036  1.00  0.00     0.058 A 
ATOM     65  C   UNL     1       9.662  -9.717  -9.129  1.00  0.00     0.135 A 
ATOM     66  C   UNL     1       7.402 -10.023  -9.910  1.00  0.00     0.135 A 
ATOM     67  F   UNL     1      10.554  -9.139  -8.309  1.00  0.00    -0.206 F 
ATOM     68  C   UNL     1      10.126 -10.600 -10.094  1.00  0.00     0.059 A 
ATOM     69  C   UNL     1       7.842 -10.929 -10.867  1.00  0.00     0.059 A 
ATOM     70  F   UNL     1       6.089  -9.755  -9.838  1.00  0.00    -0.206 F 
ATOM     71  C   UNL     1       9.210 -11.189 -10.968  1.00  0.00     0.060 A 
BRANCH  71  72
ATOM     72  S   UNL     1       9.838 -12.292 -12.248  1.00  0.00     0.124 S 
ATOM     73  O   UNL     1      10.542 -11.361 -13.123  1.00  0.00    -0.237 OA
ATOM     74  O   UNL     1      10.680 -13.204 -11.480  1.00  0.00    -0.237 OA
ATOM     75  O   UNL     1       8.628 -12.887 -12.807  1.00  0.00    -0.744 OA
ENDBRANCH  71  72
ENDBRANCH  39  64
ENDBRANCH  13  14
ENDBRANCH   6   8
ENDBRANCH   5   6
ENDBRANCH   4   5
ENDBRANCH   3   4
ENDBRANCH   2   3
ENDBRANCH   1   2
BRANCH   1  76
ATOM     76  C   UNL     1       3.053  -0.883   3.630  1.00  0.00     0.188 C 
BRANCH  76  77
ATOM     77  O   UNL     1       3.920  -1.236   4.688  1.00  0.00    -0.376 OA
BRANCH  77  78
ATOM     78  C   UNL     1       5.090  -1.963   4.332  1.00  0.00     0.202 C 
BRANCH  78  79
ATOM     79  C   UNL     1       4.939  -3.337   3.657  1.00  0.00     0.261 C 
BRANCH  79  80
ATOM     80  O   UNL     1       4.114  -3.408   2.477  1.00  0.00    -0.460 OA
BRANCH  80  81
ATOM     81  C   UNL     1       2.918  -4.024   2.680  1.00  0.00     0.342 C 
ATOM     82  O   UNL     1       2.412  -4.300   3.754  1.00  0.00    -0.246 OA
BRANCH  81  83
ATOM     83  C   UNL     1       2.365  -4.521   1.417  1.00  0.00     0.103 A 
ATOM     84  C   UNL     1       2.480  -5.906   1.245  1.00  0.00     0.035 A 
ATOM     85  C   UNL     1       1.605  -3.764   0.517  1.00  0.00     0.145 A 
ATOM     86  C   UNL     1       1.839  -6.525   0.179  1.00  0.00     0.019 A 
ATOM     87  C   UNL     1       1.067  -4.385  -0.624  1.00  0.00     0.049 A 
ATOM     88  Br  UNL     1       1.812  -8.406   0.106  1.00  0.00    -0.051 Br
ATOM     89  C   UNL     1       1.168  -5.771  -0.781  1.00  0.00     0.019 A 
BRANCH  85  90
ATOM     90  O   UNL     1       1.290  -2.412   0.741  1.00  0.00    -0.422 OA
BRANCH  90  91
ATOM     91  C   UNL     1      -0.035  -2.289   1.142  1.00  0.00     0.343 C 
ATOM     92  O   UNL     1      -0.780  -3.187   1.510  1.00  0.00    -0.246 OA
BRANCH  91  93
ATOM     93  C   UNL     1      -0.548  -0.904   0.983  1.00  0.00     0.060 A 
ATOM     94  C   UNL     1      -1.819  -0.731   0.421  1.00  0.00     0.019 A 
ATOM     95  C   UNL     1       0.130   0.212   1.472  1.00  0.00     0.019 A 
ATOM     96  C   UNL     1      -2.385   0.546   0.336  1.00  0.00     0.040 A 
ATOM     97  C   UNL     1      -0.422   1.492   1.372  1.00  0.00     0.040 A 
ATOM     98  C   UNL     1      -1.680   1.646   0.809  1.00  0.00     0.123 A 
ATOM     99  F   UNL     1      -2.233   2.865   0.754  1.00  0.00    -0.207 F 
ENDBRANCH  91  93
ENDBRANCH  90  91
ENDBRANCH  85  90
ENDBRANCH  81  83
ENDBRANCH  80  81
ENDBRANCH  79  80
ENDBRANCH  78  79
ENDBRANCH  77  78
ENDBRANCH  76  77
ENDBRANCH   1  76
TORSDOF 23
