REMARK SMILES C[C@H](C[C@H]1CSc2ccccc21)C(=O)OCCOCCOCCOC(=O)c1ccc(-c2c3nc(c(-c4c(F)cc(S(=O)(=O)[O-])cc4F)c4ccc([nH]4)c(-c4c(F)cc(S(=O)(=O)[O-])cc4F)c4nc(c(-c5c(F)cc(S(=O)(=O)[O-])cc5F)c5ccc2[nH]5)C=C4)C=C3)cc1
REMARK SMILES IDX 20 1 19 2 18 3 17 4 16 5 15 6 13 7 14 8 2 9 1 10 3 11 4 12
REMARK SMILES IDX 5 13 12 14 6 15 7 16 11 17 8 18 10 19 9 20 21 21 22 22 23 23
REMARK SMILES IDX 24 24 25 25 26 26 27 27 28 28 92 29 29 30 91 31 30 32 31 33
REMARK SMILES IDX 32 34 85 35 33 36 90 37 84 38 86 39 34 40 89 41 83 42 82 43
REMARK SMILES IDX 35 45 69 46 48 47 68 48 49 49 52 50 67 51 87 52 50 53 51 54
REMARK SMILES IDX 66 56 88 57 53 58 36 59 37 60 46 61 38 62 39 63 45 64 47 65
REMARK SMILES IDX 40 66 41 67 42 68 43 69 44 70 70 71 71 72 80 73 72 74 73 75
REMARK SMILES IDX 79 76 81 77 74 78 75 79 76 80 77 81 78 82 54 83 55 84 64 85
REMARK SMILES IDX 56 86 57 87 63 88 65 89 58 90 59 91 60 92 61 93 62 94
REMARK H PARENT 86 44 52 55
REMARK Flexibility Score: inf
ROOT
ATOM      1  C   UNL     1      -1.764   1.363   0.927  1.00  0.00     0.188 C 
ENDROOT
BRANCH   1   2
ATOM      2  C   UNL     1      -2.654   2.267   0.066  1.00  0.00     0.188 C 
BRANCH   2   3
ATOM      3  O   UNL     1      -3.962   1.802  -0.247  1.00  0.00    -0.376 OA
BRANCH   3   4
ATOM      4  C   UNL     1      -4.090   0.510  -0.847  1.00  0.00     0.202 C 
BRANCH   4   5
ATOM      5  C   UNL     1      -3.153   0.185  -2.016  1.00  0.00     0.261 C 
BRANCH   5   6
ATOM      6  O   UNL     1      -1.781   0.031  -1.593  1.00  0.00    -0.463 OA
BRANCH   6   7
ATOM      7  C   UNL     1      -0.851   0.245  -2.558  1.00  0.00     0.308 C 
ATOM      8  O   UNL     1      -1.135   0.485  -3.725  1.00  0.00    -0.252 OA
BRANCH   7   9
ATOM      9  C   UNL     1       0.589   0.269  -2.025  1.00  0.00     0.097 C 
ATOM     10  C   UNL     1       1.602   0.043  -3.151  1.00  0.00     0.020 C 
BRANCH   9  11
ATOM     11  C   UNL     1       0.936  -0.538  -0.751  1.00  0.00     0.024 C 
BRANCH  11  12
ATOM     12  C   UNL     1       1.270  -2.048  -0.794  1.00  0.00     0.031 C 
ATOM     13  C   UNL     1       1.792  -2.444   0.622  1.00  0.00     0.083 C 
ATOM     14  C   UNL     1       0.088  -2.938  -1.095  1.00  0.00    -0.030 A 
ATOM     15  S   UNL     1       0.966  -3.951   1.190  1.00  0.00    -0.125 SA
ATOM     16  C   UNL     1      -0.208  -3.894  -0.122  1.00  0.00     0.011 A 
ATOM     17  C   UNL     1      -0.678  -2.901  -2.257  1.00  0.00     0.005 A 
ATOM     18  C   UNL     1      -1.309  -4.733  -0.239  1.00  0.00     0.015 A 
ATOM     19  C   UNL     1      -1.801  -3.722  -2.376  1.00  0.00     0.000 A 
ATOM     20  C   UNL     1      -2.125  -4.625  -1.363  1.00  0.00     0.001 A 
ENDBRANCH  11  12
ENDBRANCH   9  11
ENDBRANCH   7   9
ENDBRANCH   6   7
ENDBRANCH   5   6
ENDBRANCH   4   5
ENDBRANCH   3   4
ENDBRANCH   2   3
ENDBRANCH   1   2
BRANCH   1  21
ATOM     21  O   UNL     1      -2.369   0.151   1.341  1.00  0.00    -0.376 OA
BRANCH  21  22
ATOM     22  C   UNL     1      -2.547  -0.024   2.742  1.00  0.00     0.202 C 
BRANCH  22  23
ATOM     23  C   UNL     1      -3.492   0.978   3.425  1.00  0.00     0.261 C 
BRANCH  23  24
ATOM     24  O   UNL     1      -3.092   2.357   3.329  1.00  0.00    -0.460 OA
BRANCH  24  25
ATOM     25  C   UNL     1      -1.921   2.716   3.906  1.00  0.00     0.338 C 
ATOM     26  O   UNL     1      -1.196   2.017   4.591  1.00  0.00    -0.246 OA
BRANCH  25  27
ATOM     27  C   UNL     1      -1.537   4.018   3.303  1.00  0.00     0.060 A 
ATOM     28  C   UNL     1      -2.468   5.053   3.195  1.00  0.00     0.016 A 
ATOM     29  C   UNL     1      -0.262   4.152   2.732  1.00  0.00     0.016 A 
ATOM     30  C   UNL     1      -2.122   6.227   2.523  1.00  0.00     0.010 A 
ATOM     31  C   UNL     1       0.075   5.320   2.044  1.00  0.00     0.010 A 
ATOM     32  C   UNL     1      -0.848   6.371   1.948  1.00  0.00    -0.014 A 
BRANCH  32  33
ATOM     33  C   UNL     1      -0.427   7.691   1.423  1.00  0.00     0.031 A 
ATOM     34  C   UNL     1      -0.493   8.038  -0.033  1.00  0.00     0.074 A 
ATOM     35  C   UNL     1       0.020   8.595   2.314  1.00  0.00     0.049 A 
ATOM     36  N   UNL     1      -0.241   9.184  -0.613  1.00  0.00    -0.248 NA
ATOM     37  C   UNL     1      -0.883   6.965  -0.958  1.00  0.00     0.031 C 
ATOM     38  C   UNL     1       0.143   8.356   3.754  1.00  0.00     0.029 A 
ATOM     39  N   UNL     1       0.442   9.887   2.150  1.00  0.00    -0.354 N 
ATOM     40  C   UNL     1      -0.470   8.988  -1.968  1.00  0.00     0.074 A 
ATOM     41  C   UNL     1      -0.832   7.592  -2.128  1.00  0.00     0.031 C 
ATOM     42  C   UNL     1       0.590   9.473   4.345  1.00  0.00     0.029 A 
ATOM     43  C   UNL     1       0.798  10.498   3.326  1.00  0.00     0.049 A 
ATOM     44  H   UNL     1       0.485  10.334   1.274  1.00  0.00     0.167 HD
ATOM     45  C   UNL     1      -0.400   9.893  -2.976  1.00  0.00     0.037 A 
ATOM     46  C   UNL     1       1.235  11.748   3.565  1.00  0.00     0.037 A 
ATOM     47  C   UNL     1      -0.008  11.273  -2.808  1.00  0.00     0.049 A 
ATOM     48  C   UNL     1       1.354  12.715   2.425  1.00  0.00     0.074 A 
ATOM     49  C   UNL     1       0.059  12.274  -3.763  1.00  0.00     0.029 A 
ATOM     50  N   UNL     1       0.403  11.845  -1.611  1.00  0.00    -0.354 N 
ATOM     51  N   UNL     1       1.072  12.532   1.158  1.00  0.00    -0.248 NA
ATOM     52  C   UNL     1       1.843  14.060   2.750  1.00  0.00     0.031 C 
ATOM     53  C   UNL     1       0.554  13.434  -3.155  1.00  0.00     0.029 A 
ATOM     54  C   UNL     1       0.754  13.173  -1.809  1.00  0.00     0.049 A 
ATOM     55  H   UNL     1       0.439  11.376  -0.746  1.00  0.00     0.167 HD
ATOM     56  C   UNL     1       1.342  13.743   0.532  1.00  0.00     0.074 A 
ATOM     57  C   UNL     1       1.788  14.656   1.566  1.00  0.00     0.031 C 
ATOM     58  C   UNL     1       1.230  14.066  -0.781  1.00  0.00     0.037 A 
BRANCH  45  59
ATOM     59  C   UNL     1      -0.761   9.423  -4.360  1.00  0.00     0.058 A 
ATOM     60  C   UNL     1      -2.091   9.140  -4.711  1.00  0.00     0.135 A 
ATOM     61  C   UNL     1       0.217   9.303  -5.361  1.00  0.00     0.135 A 
ATOM     62  F   UNL     1      -3.067   9.234  -3.793  1.00  0.00    -0.206 F 
ATOM     63  C   UNL     1      -2.435   8.729  -5.996  1.00  0.00     0.059 A 
ATOM     64  C   UNL     1      -0.107   8.915  -6.659  1.00  0.00     0.059 A 
ATOM     65  F   UNL     1       1.504   9.566  -5.084  1.00  0.00    -0.206 F 
ATOM     66  C   UNL     1      -1.435   8.617  -6.963  1.00  0.00     0.060 A 
BRANCH  66  67
ATOM     67  S   UNL     1      -1.899   8.077  -8.623  1.00  0.00     0.124 S 
ATOM     68  O   UNL     1      -2.204   6.668  -8.396  1.00  0.00    -0.237 OA
ATOM     69  O   UNL     1      -3.044   8.932  -8.920  1.00  0.00    -0.237 OA
ATOM     70  O   UNL     1      -0.702   8.340  -9.414  1.00  0.00    -0.744 OA
ENDBRANCH  66  67
ENDBRANCH  45  59
BRANCH  46  71
ATOM     71  C   UNL     1       1.541  12.150   4.959  1.00  0.00     0.058 A 
ATOM     72  C   UNL     1       0.669  12.987   5.668  1.00  0.00     0.135 A 
ATOM     73  C   UNL     1       2.666  11.647   5.630  1.00  0.00     0.135 A 
ATOM     74  F   UNL     1      -0.417  13.491   5.064  1.00  0.00    -0.206 F 
ATOM     75  C   UNL     1       0.898  13.308   7.001  1.00  0.00     0.059 A 
ATOM     76  C   UNL     1       2.905  11.937   6.968  1.00  0.00     0.059 A 
ATOM     77  F   UNL     1       3.517  10.826   4.994  1.00  0.00    -0.206 F 
ATOM     78  C   UNL     1       2.014  12.769   7.645  1.00  0.00     0.060 A 
BRANCH  78  79
ATOM     79  S   UNL     1       2.249  13.124   9.400  1.00  0.00     0.124 S 
ATOM     80  O   UNL     1       2.627  14.531   9.367  1.00  0.00    -0.237 OA
ATOM     81  O   UNL     1       0.929  12.828   9.949  1.00  0.00    -0.237 OA
ATOM     82  O   UNL     1       3.304  12.195   9.792  1.00  0.00    -0.744 OA
ENDBRANCH  78  79
ENDBRANCH  46  71
BRANCH  58  83
ATOM     83  C   UNL     1       1.616  15.467  -1.172  1.00  0.00     0.058 A 
ATOM     84  C   UNL     1       2.959  15.877  -1.187  1.00  0.00     0.135 A 
ATOM     85  C   UNL     1       0.641  16.405  -1.545  1.00  0.00     0.135 A 
ATOM     86  F   UNL     1       3.931  15.023  -0.829  1.00  0.00    -0.206 F 
ATOM     87  C   UNL     1       3.319  17.177  -1.529  1.00  0.00     0.059 A 
ATOM     88  C   UNL     1       0.981  17.704  -1.916  1.00  0.00     0.059 A 
ATOM     89  F   UNL     1      -0.657  16.065  -1.554  1.00  0.00    -0.206 F 
ATOM     90  C   UNL     1       2.322  18.085  -1.890  1.00  0.00     0.060 A 
BRANCH  90  91
ATOM     91  S   UNL     1       2.805  19.765  -2.339  1.00  0.00     0.124 S 
ATOM     92  O   UNL     1       3.153  20.329  -1.039  1.00  0.00    -0.237 OA
ATOM     93  O   UNL     1       3.923  19.537  -3.250  1.00  0.00    -0.237 OA
ATOM     94  O   UNL     1       1.601  20.311  -2.959  1.00  0.00    -0.744 OA
ENDBRANCH  90  91
ENDBRANCH  58  83
ENDBRANCH  32  33
ENDBRANCH  25  27
ENDBRANCH  24  25
ENDBRANCH  23  24
ENDBRANCH  22  23
ENDBRANCH  21  22
ENDBRANCH   1  21
TORSDOF 22
