REMARK SMILES C[C@]1(C(=O)OCCOCCOCCOC(=O)c2ccc(-c3c4nc(c(-c5c(F)cc(S(=O)(=O)[O-])cc5F)c5ccc([nH]5)c(-c5c(F)cc(S(=O)(=O)[O-])cc5F)c5nc(c(-c6c(F)cc(S(=O)(=O)[O-])cc6F)c6ccc3[nH]6)C=C5)C=C4)cc2)[NH2+]C2(C(=O)c3ccccc3C2=O)[C@@H]2C(=O)N(c3ccccc3)C(=O)[C@H]21
REMARK SMILES IDX 10 1 9 2 8 3 7 4 6 5 5 6 3 7 4 8 2 9 1 10 83 11 107 12 84 13
REMARK SMILES IDX 95 16 105 17 85 18 93 19 96 20 98 21 106 22 86 23 87 24
REMARK SMILES IDX 92 25 94 26 97 27 88 28 91 29 89 30 90 31 99 32 100 33
REMARK SMILES IDX 104 34 101 35 103 36 102 37 11 38 12 39 13 40 14 41 15 42
REMARK SMILES IDX 16 43 17 44 18 45 82 46 19 47 81 48 20 49 21 50 22 51 75 52
REMARK SMILES IDX 23 53 80 54 74 55 76 56 24 57 79 58 73 59 72 60 25 62 59 63
REMARK SMILES IDX 38 64 58 65 39 66 42 67 57 68 77 69 40 70 41 71 56 73 78 74
REMARK SMILES IDX 43 75 26 76 27 77 36 78 28 79 29 80 35 81 37 82 30 83 31 84
REMARK SMILES IDX 32 85 33 86 34 87 60 88 61 89 70 90 62 91 63 92 69 93 71 94
REMARK SMILES IDX 64 95 65 96 66 97 67 98 68 99 44 100 45 101 54 102 46 103
REMARK SMILES IDX 47 104 53 105 55 106 48 107 49 108 50 109 51 110 52 111
REMARK H PARENT 83 14 83 15 76 61 42 72
REMARK Flexibility Score: inf
ROOT
ATOM      1  C   UNL     1      -1.228   0.140   3.095  1.00  0.00     0.188 C 
ENDROOT
BRANCH   1   2
ATOM      2  C   UNL     1      -0.005  -0.527   3.742  1.00  0.00     0.188 C 
BRANCH   2   3
ATOM      3  O   UNL     1       0.504  -0.023   4.963  1.00  0.00    -0.376 OA
BRANCH   3   4
ATOM      4  C   UNL     1       0.697   1.372   5.126  1.00  0.00     0.202 C 
BRANCH   4   5
ATOM      5  C   UNL     1       1.377   2.213   4.036  1.00  0.00     0.261 C 
BRANCH   5   6
ATOM      6  O   UNL     1       0.790   2.159   2.721  1.00  0.00    -0.459 OA
BRANCH   6   7
ATOM      7  C   UNL     1       1.512   1.508   1.767  1.00  0.00     0.368 C 
ATOM      8  O   UNL     1       2.565   0.929   2.007  1.00  0.00    -0.245 OA
BRANCH   7   9
ATOM      9  C   UNL     1       0.924   1.622   0.322  1.00  0.00     0.205 C 
ATOM     10  C   UNL     1       1.437   0.407  -0.458  1.00  0.00     0.093 C 
ATOM     11  N   UNL     1      -0.603   1.657   0.193  1.00  0.00    -0.313 N 
ATOM     12  C   UNL     1       1.294   2.950  -0.272  1.00  0.00     0.172 C 
ATOM     13  C   UNL     1      -1.028   3.072  -0.170  1.00  0.00     0.237 C 
ATOM     14  H   UNL     1      -1.028   1.388   1.080  1.00  0.00     0.348 HD
ATOM     15  H   UNL     1      -0.906   1.006  -0.531  1.00  0.00     0.348 HD
ATOM     16  C   UNL     1       0.174   3.828   0.265  1.00  0.00     0.177 C 
ATOM     17  C   UNL     1       2.484   3.748   0.120  1.00  0.00     0.244 C 
ATOM     18  C   UNL     1      -1.419   3.165  -1.648  1.00  0.00     0.232 C 
ATOM     19  C   UNL     1      -2.329   3.454   0.544  1.00  0.00     0.232 C 
ATOM     20  C   UNL     1       0.681   5.176  -0.080  1.00  0.00     0.245 C 
ATOM     21  N   UNL     1       2.054   5.072   0.140  1.00  0.00    -0.250 N 
ATOM     22  O   UNL     1       3.588   3.277   0.324  1.00  0.00    -0.273 OA
ATOM     23  O   UNL     1      -0.714   2.956  -2.619  1.00  0.00    -0.286 OA
ATOM     24  C   UNL     1      -2.846   3.468  -1.737  1.00  0.00     0.036 A 
ATOM     25  C   UNL     1      -3.382   3.611  -0.465  1.00  0.00     0.036 A 
ATOM     26  O   UNL     1      -2.514   3.662   1.730  1.00  0.00    -0.286 OA
ATOM     27  O   UNL     1      -0.016   6.139  -0.342  1.00  0.00    -0.273 OA
ATOM     28  C   UNL     1      -3.626   3.588  -2.876  1.00  0.00     0.013 A 
ATOM     29  C   UNL     1      -4.727   3.877  -0.277  1.00  0.00     0.013 A 
ATOM     30  C   UNL     1      -4.986   3.862  -2.704  1.00  0.00     0.001 A 
ATOM     31  C   UNL     1      -5.533   4.001  -1.415  1.00  0.00     0.001 A 
BRANCH  21  32
ATOM     32  C   UNL     1       2.900   6.118   0.561  1.00  0.00     0.052 A 
ATOM     33  C   UNL     1       4.266   6.094   0.252  1.00  0.00     0.027 A 
ATOM     34  C   UNL     1       2.419   7.098   1.439  1.00  0.00     0.027 A 
ATOM     35  C   UNL     1       5.143   7.014   0.824  1.00  0.00     0.002 A 
ATOM     36  C   UNL     1       3.306   7.995   2.042  1.00  0.00     0.002 A 
ATOM     37  C   UNL     1       4.665   7.952   1.734  1.00  0.00     0.000 A 
ENDBRANCH  21  32
ENDBRANCH   7   9
ENDBRANCH   6   7
ENDBRANCH   5   6
ENDBRANCH   4   5
ENDBRANCH   3   4
ENDBRANCH   2   3
ENDBRANCH   1   2
BRANCH   1  38
ATOM     38  O   UNL     1      -1.829   1.207   3.774  1.00  0.00    -0.376 OA
BRANCH  38  39
ATOM     39  C   UNL     1      -2.800   0.974   4.771  1.00  0.00     0.202 C 
BRANCH  39  40
ATOM     40  C   UNL     1      -3.312  -0.409   5.223  1.00  0.00     0.261 C 
BRANCH  40  41
ATOM     41  O   UNL     1      -2.657  -1.580   4.732  1.00  0.00    -0.460 OA
BRANCH  41  42
ATOM     42  C   UNL     1      -3.250  -2.221   3.685  1.00  0.00     0.338 C 
ATOM     43  O   UNL     1      -4.273  -1.909   3.119  1.00  0.00    -0.246 OA
BRANCH  42  44
ATOM     44  C   UNL     1      -2.279  -3.232   3.191  1.00  0.00     0.060 A 
ATOM     45  C   UNL     1      -1.806  -4.227   4.045  1.00  0.00     0.016 A 
ATOM     46  C   UNL     1      -1.776  -3.121   1.885  1.00  0.00     0.016 A 
ATOM     47  C   UNL     1      -0.836  -5.121   3.586  1.00  0.00     0.010 A 
ATOM     48  C   UNL     1      -0.788  -4.005   1.435  1.00  0.00     0.010 A 
ATOM     49  C   UNL     1      -0.325  -5.025   2.277  1.00  0.00    -0.014 A 
BRANCH  49  50
ATOM     50  C   UNL     1       0.530  -6.120   1.751  1.00  0.00     0.031 A 
ATOM     51  C   UNL     1       2.024  -6.013   1.662  1.00  0.00     0.074 A 
ATOM     52  C   UNL     1      -0.088  -7.258   1.379  1.00  0.00     0.049 A 
ATOM     53  N   UNL     1       2.891  -6.947   1.359  1.00  0.00    -0.248 NA
ATOM     54  C   UNL     1       2.623  -4.701   1.937  1.00  0.00     0.031 C 
ATOM     55  C   UNL     1      -1.538  -7.461   1.396  1.00  0.00     0.029 A 
ATOM     56  N   UNL     1       0.413  -8.457   0.942  1.00  0.00    -0.354 N 
ATOM     57  C   UNL     1       4.143  -6.351   1.439  1.00  0.00     0.074 A 
ATOM     58  C   UNL     1       3.916  -4.956   1.766  1.00  0.00     0.031 C 
ATOM     59  C   UNL     1      -1.808  -8.722   1.028  1.00  0.00     0.029 A 
ATOM     60  C   UNL     1      -0.555  -9.408   0.726  1.00  0.00     0.049 A 
ATOM     61  H   UNL     1       1.373  -8.620   0.797  1.00  0.00     0.167 HD
ATOM     62  C   UNL     1       5.363  -6.923   1.275  1.00  0.00     0.037 A 
ATOM     63  C   UNL     1      -0.452 -10.695   0.343  1.00  0.00     0.037 A 
ATOM     64  C   UNL     1       5.572  -8.310   0.925  1.00  0.00     0.049 A 
ATOM     65  C   UNL     1       0.910 -11.291   0.126  1.00  0.00     0.074 A 
ATOM     66  C   UNL     1       6.773  -8.984   0.768  1.00  0.00     0.029 A 
ATOM     67  N   UNL     1       4.567  -9.232   0.665  1.00  0.00    -0.354 N 
ATOM     68  N   UNL     1       2.087 -10.733   0.280  1.00  0.00    -0.248 NA
ATOM     69  C   UNL     1       0.960 -12.694  -0.306  1.00  0.00     0.031 C 
ATOM     70  C   UNL     1       6.495 -10.293   0.359  1.00  0.00     0.029 A 
ATOM     71  C   UNL     1       5.121 -10.457   0.320  1.00  0.00     0.049 A 
ATOM     72  H   UNL     1       3.602  -9.044   0.717  1.00  0.00     0.167 HD
ATOM     73  C   UNL     1       3.018 -11.724  -0.012  1.00  0.00     0.074 A 
ATOM     74  C   UNL     1       2.267 -12.919  -0.338  1.00  0.00     0.031 C 
ATOM     75  C   UNL     1       4.371 -11.646  -0.008  1.00  0.00     0.037 A 
BRANCH  62  76
ATOM     76  C   UNL     1       6.585  -6.064   1.482  1.00  0.00     0.058 A 
ATOM     77  C   UNL     1       6.963  -5.630   2.763  1.00  0.00     0.135 A 
ATOM     78  C   UNL     1       7.443  -5.759   0.412  1.00  0.00     0.135 A 
ATOM     79  F   UNL     1       6.182  -5.892   3.824  1.00  0.00    -0.206 F 
ATOM     80  C   UNL     1       8.137  -4.913   2.974  1.00  0.00     0.059 A 
ATOM     81  C   UNL     1       8.637  -5.066   0.604  1.00  0.00     0.059 A 
ATOM     82  F   UNL     1       7.139  -6.157  -0.833  1.00  0.00    -0.206 F 
ATOM     83  C   UNL     1       8.972  -4.641   1.888  1.00  0.00     0.060 A 
BRANCH  83  84
ATOM     84  S   UNL     1      10.506  -3.735   2.188  1.00  0.00     0.124 S 
ATOM     85  O   UNL     1      10.002  -2.417   2.559  1.00  0.00    -0.237 OA
ATOM     86  O   UNL     1      11.115  -4.506   3.268  1.00  0.00    -0.237 OA
ATOM     87  O   UNL     1      11.200  -3.802   0.906  1.00  0.00    -0.744 OA
ENDBRANCH  83  84
ENDBRANCH  62  76
BRANCH  63  88
ATOM     88  C   UNL     1      -1.684 -11.510   0.183  1.00  0.00     0.058 A 
ATOM     89  C   UNL     1      -1.988 -12.543   1.080  1.00  0.00     0.135 A 
ATOM     90  C   UNL     1      -2.603 -11.242  -0.844  1.00  0.00     0.135 A 
ATOM     91  F   UNL     1      -1.139 -12.838   2.077  1.00  0.00    -0.206 F 
ATOM     92  C   UNL     1      -3.154 -13.291   0.960  1.00  0.00     0.059 A 
ATOM     93  C   UNL     1      -3.789 -11.957  -0.968  1.00  0.00     0.059 A 
ATOM     94  F   UNL     1      -2.366 -10.250  -1.717  1.00  0.00    -0.206 F 
ATOM     95  C   UNL     1      -4.052 -12.985  -0.065  1.00  0.00     0.060 A 
BRANCH  95  96
ATOM     96  S   UNL     1      -5.588 -13.927  -0.176  1.00  0.00     0.124 S 
ATOM     97  O   UNL     1      -5.099 -15.239  -0.581  1.00  0.00    -0.237 OA
ATOM     98  O   UNL     1      -6.103 -13.829   1.187  1.00  0.00    -0.237 OA
ATOM     99  O   UNL     1      -6.356 -13.201  -1.183  1.00  0.00    -0.744 OA
ENDBRANCH  95  96
ENDBRANCH  63  88
BRANCH  75 100
ATOM    100  C   UNL     1       5.144 -12.894  -0.351  1.00  0.00     0.058 A 
ATOM    101  C   UNL     1       5.181 -13.405  -1.658  1.00  0.00     0.135 A 
ATOM    102  C   UNL     1       5.904 -13.555   0.629  1.00  0.00     0.135 A 
ATOM    103  F   UNL     1       4.467 -12.820  -2.633  1.00  0.00    -0.206 F 
ATOM    104  C   UNL     1       5.930 -14.534  -1.978  1.00  0.00     0.059 A 
ATOM    105  C   UNL     1       6.684 -14.667   0.325  1.00  0.00     0.059 A 
ATOM    106  F   UNL     1       5.911 -13.108   1.895  1.00  0.00    -0.206 F 
ATOM    107  C   UNL     1       6.683 -15.155  -0.981  1.00  0.00     0.060 A 
BRANCH 107 108
ATOM    108  S   UNL     1       7.680 -16.594  -1.423  1.00  0.00     0.124 S 
ATOM    109  O   UNL     1       6.652 -17.596  -1.688  1.00  0.00    -0.237 OA
ATOM    110  O   UNL     1       8.414 -16.116  -2.591  1.00  0.00    -0.237 OA
ATOM    111  O   UNL     1       8.491 -16.829  -0.232  1.00  0.00    -0.744 OA
ENDBRANCH 107 108
ENDBRANCH  75 100
ENDBRANCH  49  50
ENDBRANCH  42  44
ENDBRANCH  41  42
ENDBRANCH  40  41
ENDBRANCH  39  40
ENDBRANCH  38  39
ENDBRANCH   1  38
TORSDOF 21
