REMARK SMILES Cc1[nH]c2ccccc2c1/C=C1/SC(=S)N(c2cccc(C(=O)OCCOCCOCCOC(=O)c3ccc(-c4c5nc(c(-c6c(F)cc(S(=O)(=O)[O-])cc6F)c6ccc([nH]6)c(-c6c(F)cc(S(=O)(=O)[O-])cc6F)c6nc(c(-c7c(F)cc(S(=O)(=O)[O-])cc7F)c7ccc4[nH]7)C=C6)C=C5)cc3)c2)C1=O
REMARK SMILES IDX 29 1 28 2 27 3 26 4 25 5 24 6 22 7 23 8 21 9 17 10 18 11
REMARK SMILES IDX 102 12 19 13 20 14 16 15 11 16 12 17 13 18 103 19 14 20
REMARK SMILES IDX 104 21 15 22 10 23 1 24 2 25 3 26 4 27 9 29 5 30 8 31 6 32
REMARK SMILES IDX 7 33 30 34 31 35 32 36 33 37 34 38 35 39 36 40 37 41 101 42
REMARK SMILES IDX 38 43 100 44 39 45 40 46 41 47 94 48 42 49 99 50 93 51 95 52
REMARK SMILES IDX 43 53 98 54 92 55 91 56 44 58 78 59 57 60 77 61 58 62 61 63
REMARK SMILES IDX 76 64 96 65 59 66 60 67 75 69 97 70 62 71 45 72 46 73 55 74
REMARK SMILES IDX 47 75 48 76 54 77 56 78 49 79 50 80 51 81 52 82 53 83 79 84
REMARK SMILES IDX 80 85 89 86 81 87 82 88 88 89 90 90 83 91 84 92 85 93 86 94
REMARK SMILES IDX 87 95 63 96 64 97 73 98 65 99 66 100 72 101 74 102 67 103
REMARK SMILES IDX 68 104 69 105 70 106 71 107
REMARK H PARENT 3 28 95 57 61 68
REMARK Flexibility Score: inf
ROOT
ATOM      1  C   UNL     1      -7.402   0.378  -4.848  1.00  0.00     0.188 C 
ENDROOT
BRANCH   1   2
ATOM      2  C   UNL     1      -8.091   0.264  -6.223  1.00  0.00     0.188 C 
BRANCH   2   3
ATOM      3  O   UNL     1      -9.497   0.198  -6.199  1.00  0.00    -0.376 OA
BRANCH   3   4
ATOM      4  C   UNL     1     -10.163  -1.043  -6.048  1.00  0.00     0.202 C 
BRANCH   4   5
ATOM      5  C   UNL     1      -9.505  -2.405  -5.746  1.00  0.00     0.261 C 
BRANCH   5   6
ATOM      6  O   UNL     1      -8.115  -2.429  -5.419  1.00  0.00    -0.460 OA
BRANCH   6   7
ATOM      7  C   UNL     1      -7.291  -2.918  -6.380  1.00  0.00     0.338 C 
ATOM      8  O   UNL     1      -7.612  -3.337  -7.481  1.00  0.00    -0.246 OA
BRANCH   7   9
ATOM      9  C   UNL     1      -5.891  -2.680  -5.972  1.00  0.00     0.062 A 
ATOM     10  C   UNL     1      -4.111  -2.788  -4.316  1.00  0.00     0.051 A 
ATOM     11  C   UNL     1      -3.298  -2.060  -5.204  1.00  0.00     0.027 A 
ATOM     12  C   UNL     1      -5.432  -3.058  -4.703  1.00  0.00     0.042 A 
ATOM     13  C   UNL     1      -3.762  -1.671  -6.464  1.00  0.00     0.003 A 
ATOM     14  C   UNL     1      -5.053  -2.002  -6.860  1.00  0.00     0.016 A 
BRANCH  10  15
ATOM     15  N   UNL     1      -3.597  -3.226  -3.047  1.00  0.00    -0.261 N 
ATOM     16  C   UNL     1      -1.694  -2.481   0.001  1.00  0.00     0.032 C 
ATOM     17  C   UNL     1      -2.395  -3.021  -1.008  1.00  0.00     0.081 C 
ATOM     18  S   UNL     1      -3.029  -4.617  -0.934  1.00  0.00    -0.054 SA
ATOM     19  C   UNL     1      -2.772  -2.377  -2.304  1.00  0.00     0.270 C 
ATOM     20  C   UNL     1      -3.821  -4.485  -2.504  1.00  0.00     0.152 C 
ATOM     21  O   UNL     1      -2.406  -1.255  -2.627  1.00  0.00    -0.268 OA
ATOM     22  S   UNL     1      -4.590  -5.830  -3.144  1.00  0.00    -0.051 S 
BRANCH  16  23
ATOM     23  C   UNL     1      -1.204  -1.146   0.074  1.00  0.00     0.004 A 
ATOM     24  C   UNL     1      -3.469   0.180   0.164  1.00  0.00     0.065 C 
ATOM     25  C   UNL     1      -1.996  -0.015   0.144  1.00  0.00     0.020 A 
ATOM     26  N   UNL     1      -1.146   1.066   0.130  1.00  0.00    -0.358 N 
ATOM     27  C   UNL     1       0.167   0.654   0.104  1.00  0.00     0.046 A 
ATOM     28  H   UNL     1      -1.437   2.006   0.138  1.00  0.00     0.166 HD
ATOM     29  C   UNL     1       0.162  -0.741   0.088  1.00  0.00     0.007 A 
ATOM     30  C   UNL     1       1.344   1.410   0.070  1.00  0.00     0.027 A 
ATOM     31  C   UNL     1       1.401  -1.416   0.051  1.00  0.00     0.011 A 
ATOM     32  C   UNL     1       2.557   0.717   0.026  1.00  0.00     0.002 A 
ATOM     33  C   UNL     1       2.588  -0.675   0.021  1.00  0.00     0.001 A 
ENDBRANCH  16  23
ENDBRANCH  10  15
ENDBRANCH   7   9
ENDBRANCH   6   7
ENDBRANCH   5   6
ENDBRANCH   4   5
ENDBRANCH   3   4
ENDBRANCH   2   3
ENDBRANCH   1   2
BRANCH   1  34
ATOM     34  O   UNL     1      -8.156   0.235  -3.657  1.00  0.00    -0.376 OA
BRANCH  34  35
ATOM     35  C   UNL     1      -9.290   1.062  -3.441  1.00  0.00     0.202 C 
BRANCH  35  36
ATOM     36  C   UNL     1      -9.336   2.554  -3.827  1.00  0.00     0.261 C 
BRANCH  36  37
ATOM     37  O   UNL     1      -8.704   2.930  -5.055  1.00  0.00    -0.460 OA
BRANCH  37  38
ATOM     38  C   UNL     1      -7.547   3.627  -4.928  1.00  0.00     0.338 C 
ATOM     39  O   UNL     1      -6.985   3.945  -3.893  1.00  0.00    -0.246 OA
BRANCH  38  40
ATOM     40  C   UNL     1      -6.954   3.812  -6.265  1.00  0.00     0.060 A 
ATOM     41  C   UNL     1      -5.756   3.151  -6.577  1.00  0.00     0.016 A 
ATOM     42  C   UNL     1      -7.558   4.662  -7.189  1.00  0.00     0.016 A 
ATOM     43  C   UNL     1      -5.153   3.345  -7.819  1.00  0.00     0.010 A 
ATOM     44  C   UNL     1      -6.939   4.877  -8.422  1.00  0.00     0.010 A 
ATOM     45  C   UNL     1      -5.723   4.239  -8.733  1.00  0.00    -0.014 A 
BRANCH  45  46
ATOM     46  C   UNL     1      -4.975   4.658  -9.942  1.00  0.00     0.031 A 
ATOM     47  C   UNL     1      -4.250   5.973  -9.911  1.00  0.00     0.074 A 
ATOM     48  C   UNL     1      -4.978   3.911 -11.060  1.00  0.00     0.049 A 
ATOM     49  N   UNL     1      -3.660   6.621 -10.880  1.00  0.00    -0.248 NA
ATOM     50  C   UNL     1      -4.200   6.655  -8.607  1.00  0.00     0.031 C 
ATOM     51  C   UNL     1      -5.616   2.604 -11.200  1.00  0.00     0.029 A 
ATOM     52  N   UNL     1      -4.455   4.169 -12.303  1.00  0.00    -0.354 N 
ATOM     53  C   UNL     1      -3.192   7.800 -10.312  1.00  0.00     0.074 A 
ATOM     54  C   UNL     1      -3.585   7.785  -8.919  1.00  0.00     0.031 C 
ATOM     55  C   UNL     1      -5.482   2.192 -12.472  1.00  0.00     0.029 A 
ATOM     56  C   UNL     1      -4.789   3.224 -13.243  1.00  0.00     0.049 A 
ATOM     57  H   UNL     1      -3.895   4.955 -12.501  1.00  0.00     0.167 HD
ATOM     58  C   UNL     1      -2.502   8.805 -10.902  1.00  0.00     0.037 A 
ATOM     59  C   UNL     1      -4.601   3.216 -14.578  1.00  0.00     0.037 A 
ATOM     60  C   UNL     1      -2.128   8.811 -12.291  1.00  0.00     0.049 A 
ATOM     61  C   UNL     1      -3.881   4.367 -15.233  1.00  0.00     0.074 A 
ATOM     62  C   UNL     1      -1.398   9.763 -12.980  1.00  0.00     0.029 A 
ATOM     63  N   UNL     1      -2.475   7.830 -13.210  1.00  0.00    -0.354 N 
ATOM     64  N   UNL     1      -3.407   5.461 -14.684  1.00  0.00    -0.248 NA
ATOM     65  C   UNL     1      -3.668   4.286 -16.685  1.00  0.00     0.031 C 
ATOM     66  C   UNL     1      -1.361   9.392 -14.328  1.00  0.00     0.029 A 
ATOM     67  C   UNL     1      -2.004   8.171 -14.467  1.00  0.00     0.049 A 
ATOM     68  H   UNL     1      -2.982   7.013 -12.999  1.00  0.00     0.167 HD
ATOM     69  C   UNL     1      -2.816   6.184 -15.716  1.00  0.00     0.074 A 
ATOM     70  C   UNL     1      -2.991   5.404 -16.924  1.00  0.00     0.031 C 
ATOM     71  C   UNL     1      -2.177   7.380 -15.664  1.00  0.00     0.037 A 
BRANCH  58  72
ATOM     72  C   UNL     1      -2.163  10.001 -10.053  1.00  0.00     0.058 A 
ATOM     73  C   UNL     1      -1.246   9.929  -8.991  1.00  0.00     0.135 A 
ATOM     74  C   UNL     1      -2.778  11.240 -10.301  1.00  0.00     0.135 A 
ATOM     75  F   UNL     1      -0.638   8.768  -8.699  1.00  0.00    -0.206 F 
ATOM     76  C   UNL     1      -0.993  11.026  -8.174  1.00  0.00     0.059 A 
ATOM     77  C   UNL     1      -2.512  12.359  -9.519  1.00  0.00     0.059 A 
ATOM     78  F   UNL     1      -3.660  11.368 -11.305  1.00  0.00    -0.206 F 
ATOM     79  C   UNL     1      -1.638  12.235  -8.441  1.00  0.00     0.060 A 
BRANCH  79  80
ATOM     80  S   UNL     1      -1.332  13.637  -7.347  1.00  0.00     0.124 S 
ATOM     81  O   UNL     1      -2.050  13.228  -6.143  1.00  0.00    -0.237 OA
ATOM     82  O   UNL     1       0.124  13.641  -7.244  1.00  0.00    -0.237 OA
ATOM     83  O   UNL     1      -1.910  14.766  -8.068  1.00  0.00    -0.744 OA
ENDBRANCH  79  80
ENDBRANCH  58  72
BRANCH  59  84
ATOM     84  C   UNL     1      -5.134   2.082 -15.380  1.00  0.00     0.058 A 
ATOM     85  C   UNL     1      -4.281   1.130 -15.954  1.00  0.00     0.135 A 
ATOM     86  C   UNL     1      -6.518   1.899 -15.538  1.00  0.00     0.135 A 
ATOM     87  F   UNL     1      -2.951   1.268 -15.846  1.00  0.00    -0.206 F 
ATOM     88  C   UNL     1      -4.779   0.031 -16.648  1.00  0.00     0.059 A 
ATOM     89  C   UNL     1      -7.041   0.796 -16.204  1.00  0.00     0.059 A 
ATOM     90  F   UNL     1      -7.378   2.780 -15.002  1.00  0.00    -0.206 F 
ATOM     91  C   UNL     1      -6.162  -0.135 -16.755  1.00  0.00     0.060 A 
BRANCH  91  92
ATOM     92  S   UNL     1      -6.795  -1.617 -17.572  1.00  0.00     0.124 S 
ATOM     93  O   UNL     1      -6.451  -1.356 -18.965  1.00  0.00    -0.237 OA
ATOM     94  O   UNL     1      -6.033  -2.674 -16.914  1.00  0.00    -0.237 OA
ATOM     95  O   UNL     1      -8.220  -1.591 -17.258  1.00  0.00    -0.744 OA
ENDBRANCH  91  92
ENDBRANCH  59  84
BRANCH  71  96
ATOM     96  C   UNL     1      -1.569   7.918 -16.932  1.00  0.00     0.058 A 
ATOM     97  C   UNL     1      -2.353   8.460 -17.962  1.00  0.00     0.135 A 
ATOM     98  C   UNL     1      -0.172   7.994 -17.065  1.00  0.00     0.135 A 
ATOM     99  F   UNL     1      -3.692   8.407 -17.892  1.00  0.00    -0.206 F 
ATOM    100  C   UNL     1      -1.773   9.060 -19.077  1.00  0.00     0.059 A 
ATOM    101  C   UNL     1       0.428   8.614 -18.156  1.00  0.00     0.059 A 
ATOM    102  F   UNL     1       0.626   7.498 -16.105  1.00  0.00    -0.206 F 
ATOM    103  C   UNL     1      -0.381   9.143 -19.159  1.00  0.00     0.060 A 
BRANCH 103 104
ATOM    104  S   UNL     1       0.355   9.996 -20.571  1.00  0.00     0.124 S 
ATOM    105  O   UNL     1       0.091   9.055 -21.654  1.00  0.00    -0.237 OA
ATOM    106  O   UNL     1      -0.406  11.241 -20.613  1.00  0.00    -0.237 OA
ATOM    107  O   UNL     1       1.757  10.138 -20.191  1.00  0.00    -0.744 OA
ENDBRANCH 103 104
ENDBRANCH  71  96
ENDBRANCH  45  46
ENDBRANCH  38  40
ENDBRANCH  37  38
ENDBRANCH  36  37
ENDBRANCH  35  36
ENDBRANCH  34  35
ENDBRANCH   1  34
TORSDOF 22
