REMARK SMILES Cc1nc(-c2ccc(S(=O)(=O)N3CC[NH2+][C@H](C(=O)OCCOCCOCCOC(=O)c4ccc(-c5c6nc(c(-c7c(F)cc(S(=O)(=O)[O-])cc7F)c7ccc([nH]7)c(-c7c(F)cc(S(=O)(=O)[O-])cc7F)c7nc(c(-c8c(F)cc(S(=O)(=O)[O-])cc8F)c8ccc5[nH]8)C=C7)C=C6)cc4)C3)s2)cs1
REMARK SMILES IDX 23 1 22 2 21 3 20 4 19 5 17 6 18 7 16 8 12 9 13 10 97 11
REMARK SMILES IDX 14 12 15 13 9 16 10 17 11 18 8 19 5 20 6 21 98 22 7 23 4 24
REMARK SMILES IDX 1 25 2 26 3 27 100 28 99 29 24 30 25 31 26 32 27 33 28 34
REMARK SMILES IDX 29 35 30 36 31 37 32 38 96 39 33 40 95 41 34 42 35 43 36 44
REMARK SMILES IDX 89 45 37 46 94 47 88 48 90 49 38 50 93 51 87 52 86 53 39 55
REMARK SMILES IDX 73 56 52 57 72 58 53 59 56 60 71 61 91 62 54 63 55 64 70 66
REMARK SMILES IDX 92 67 57 68 40 69 41 70 50 71 42 72 43 73 49 74 51 75 44 76
REMARK SMILES IDX 45 77 46 78 47 79 48 80 74 81 75 82 84 83 76 84 77 85 83 86
REMARK SMILES IDX 85 87 78 88 79 89 80 90 81 91 82 92 58 93 59 94 68 95 60 96
REMARK SMILES IDX 61 97 67 98 69 99 62 100 63 101 64 102 65 103 66 104
REMARK H PARENT 15 14 15 15 90 54 56 65
REMARK Flexibility Score: inf
ROOT
ATOM      1  C   UNL     1       4.639  -5.960  -5.767  1.00  0.00     0.188 C 
ENDROOT
BRANCH   1   2
ATOM      2  O   UNL     1       5.318  -4.949  -6.504  1.00  0.00    -0.376 OA
BRANCH   2   3
ATOM      3  C   UNL     1       6.580  -4.500  -6.032  1.00  0.00     0.202 C 
BRANCH   3   4
ATOM      4  C   UNL     1       6.551  -3.684  -4.742  1.00  0.00     0.261 C 
BRANCH   4   5
ATOM      5  O   UNL     1       6.163  -4.484  -3.607  1.00  0.00    -0.459 OA
BRANCH   5   6
ATOM      6  C   UNL     1       5.018  -4.092  -2.989  1.00  0.00     0.366 C 
ATOM      7  O   UNL     1       4.353  -3.115  -3.315  1.00  0.00    -0.245 OA
BRANCH   6   8
ATOM      8  C   UNL     1       4.612  -5.005  -1.841  1.00  0.00     0.308 C 
ATOM      9  N   UNL     1       5.171  -5.860   0.374  1.00  0.00    -0.185 NA
ATOM     10  C   UNL     1       4.389  -7.105   0.148  1.00  0.00     0.164 C 
ATOM     11  C   UNL     1       5.756  -5.319  -0.881  1.00  0.00     0.180 C 
ATOM     12  C   UNL     1       3.467  -7.050  -1.097  1.00  0.00     0.278 C 
ATOM     13  N   UNL     1       3.910  -6.254  -2.266  1.00  0.00    -0.332 N 
ATOM     14  H   UNL     1       3.095  -6.002  -2.825  1.00  0.00     0.347 HD
ATOM     15  H   UNL     1       4.562  -6.818  -2.811  1.00  0.00     0.347 HD
BRANCH   9  16
ATOM     16  S   UNL     1       4.692  -4.748   1.573  1.00  0.00     0.253 S 
ATOM     17  O   UNL     1       5.793  -3.803   1.699  1.00  0.00    -0.206 OA
ATOM     18  O   UNL     1       4.211  -5.495   2.704  1.00  0.00    -0.206 OA
BRANCH  16  19
ATOM     19  C   UNL     1       3.280  -3.773   1.044  1.00  0.00     0.135 A 
ATOM     20  C   UNL     1       1.765  -1.843   0.692  1.00  0.00     0.055 A 
ATOM     21  C   UNL     1       1.288  -2.993   0.109  1.00  0.00     0.023 A 
ATOM     22  S   UNL     1       3.280  -2.091   1.431  1.00  0.00    -0.121 S 
ATOM     23  C   UNL     1       2.116  -4.107   0.379  1.00  0.00     0.034 A 
BRANCH  20  24
ATOM     24  C   UNL     1       0.948  -0.590   0.654  1.00  0.00     0.091 A 
ATOM     25  C   UNL     1      -2.378   0.724  -0.079  1.00  0.00     0.079 C 
ATOM     26  C   UNL     1      -0.951   0.498   0.283  1.00  0.00     0.090 A 
ATOM     27  N   UNL     1      -0.361  -0.671   0.210  1.00  0.00    -0.241 NA
ATOM     28  S   UNL     1       0.045   1.777   0.855  1.00  0.00    -0.127 S 
ATOM     29  C   UNL     1       1.349   0.667   1.049  1.00  0.00     0.096 A 
ENDBRANCH  20  24
ENDBRANCH  16  19
ENDBRANCH   9  16
ENDBRANCH   6   8
ENDBRANCH   5   6
ENDBRANCH   4   5
ENDBRANCH   3   4
ENDBRANCH   2   3
ENDBRANCH   1   2
BRANCH   1  30
ATOM     30  C   UNL     1       5.481  -7.092  -5.147  1.00  0.00     0.188 C 
BRANCH  30  31
ATOM     31  O   UNL     1       6.539  -7.660  -5.905  1.00  0.00    -0.376 OA
BRANCH  31  32
ATOM     32  C   UNL     1       6.300  -7.921  -7.281  1.00  0.00     0.202 C 
BRANCH  32  33
ATOM     33  C   UNL     1       5.364  -9.096  -7.557  1.00  0.00     0.261 C 
BRANCH  33  34
ATOM     34  O   UNL     1       3.987  -8.740  -7.340  1.00  0.00    -0.460 OA
BRANCH  34  35
ATOM     35  C   UNL     1       3.369  -9.344  -6.296  1.00  0.00     0.338 C 
ATOM     36  O   UNL     1       3.855 -10.156  -5.526  1.00  0.00    -0.246 OA
BRANCH  35  37
ATOM     37  C   UNL     1       2.027  -8.757  -6.106  1.00  0.00     0.060 A 
ATOM     38  C   UNL     1       1.609  -8.457  -4.802  1.00  0.00     0.016 A 
ATOM     39  C   UNL     1       1.163  -8.562  -7.186  1.00  0.00     0.016 A 
ATOM     40  C   UNL     1       0.308  -8.009  -4.568  1.00  0.00     0.010 A 
ATOM     41  C   UNL     1      -0.143  -8.128  -6.949  1.00  0.00     0.010 A 
ATOM     42  C   UNL     1      -0.587  -7.884  -5.637  1.00  0.00    -0.014 A 
BRANCH  42  43
ATOM     43  C   UNL     1      -2.034  -7.670  -5.400  1.00  0.00     0.031 A 
ATOM     44  C   UNL     1      -2.939  -8.871  -5.375  1.00  0.00     0.074 A 
ATOM     45  C   UNL     1      -2.544  -6.434  -5.263  1.00  0.00     0.049 A 
ATOM     46  N   UNL     1      -4.244  -8.926  -5.374  1.00  0.00    -0.248 NA
ATOM     47  C   UNL     1      -2.278 -10.187  -5.352  1.00  0.00     0.031 C 
ATOM     48  C   UNL     1      -1.766  -5.199  -5.208  1.00  0.00     0.029 A 
ATOM     49  N   UNL     1      -3.849  -6.018  -5.172  1.00  0.00    -0.354 N 
ATOM     50  C   UNL     1      -4.564 -10.278  -5.372  1.00  0.00     0.074 A 
ATOM     51  C   UNL     1      -3.316 -11.011  -5.375  1.00  0.00     0.031 C 
ATOM     52  C   UNL     1      -2.612  -4.157  -5.125  1.00  0.00     0.029 A 
ATOM     53  C   UNL     1      -3.988  -4.651  -5.166  1.00  0.00     0.049 A 
ATOM     54  H   UNL     1      -4.611  -6.639  -5.116  1.00  0.00     0.167 HD
ATOM     55  C   UNL     1      -5.787 -10.856  -5.375  1.00  0.00     0.037 A 
ATOM     56  C   UNL     1      -5.099  -3.889  -5.232  1.00  0.00     0.037 A 
ATOM     57  C   UNL     1      -7.025 -10.124  -5.381  1.00  0.00     0.049 A 
ATOM     58  C   UNL     1      -6.451  -4.551  -5.319  1.00  0.00     0.074 A 
ATOM     59  C   UNL     1      -8.317 -10.619  -5.391  1.00  0.00     0.029 A 
ATOM     60  N   UNL     1      -7.123  -8.742  -5.385  1.00  0.00    -0.354 N 
ATOM     61  N   UNL     1      -6.743  -5.830  -5.325  1.00  0.00    -0.248 NA
ATOM     62  C   UNL     1      -7.623  -3.669  -5.421  1.00  0.00     0.031 C 
ATOM     63  C   UNL     1      -9.198  -9.533  -5.438  1.00  0.00     0.029 A 
ATOM     64  C   UNL     1      -8.454  -8.364  -5.414  1.00  0.00     0.049 A 
ATOM     65  H   UNL     1      -6.360  -8.120  -5.368  1.00  0.00     0.167 HD
ATOM     66  C   UNL     1      -8.131  -5.904  -5.400  1.00  0.00     0.074 A 
ATOM     67  C   UNL     1      -8.621  -4.543  -5.441  1.00  0.00     0.031 C 
ATOM     68  C   UNL     1      -8.926  -7.002  -5.429  1.00  0.00     0.037 A 
BRANCH  55  69
ATOM     69  C   UNL     1      -5.843 -12.356  -5.410  1.00  0.00     0.058 A 
ATOM     70  C   UNL     1      -5.547 -13.131  -4.279  1.00  0.00     0.135 A 
ATOM     71  C   UNL     1      -6.213 -13.024  -6.588  1.00  0.00     0.135 A 
ATOM     72  F   UNL     1      -5.168 -12.540  -3.135  1.00  0.00    -0.206 F 
ATOM     73  C   UNL     1      -5.593 -14.520  -4.321  1.00  0.00     0.059 A 
ATOM     74  C   UNL     1      -6.286 -14.412  -6.646  1.00  0.00     0.059 A 
ATOM     75  F   UNL     1      -6.501 -12.327  -7.699  1.00  0.00    -0.206 F 
ATOM     76  C   UNL     1      -5.959 -15.152  -5.511  1.00  0.00     0.060 A 
BRANCH  76  77
ATOM     77  S   UNL     1      -6.003 -16.956  -5.556  1.00  0.00     0.124 S 
ATOM     78  O   UNL     1      -4.581 -17.279  -5.612  1.00  0.00    -0.237 OA
ATOM     79  O   UNL     1      -6.678 -17.285  -4.304  1.00  0.00    -0.237 OA
ATOM     80  O   UNL     1      -6.762 -17.247  -6.768  1.00  0.00    -0.744 OA
ENDBRANCH  76  77
ENDBRANCH  55  69
BRANCH  56  81
ATOM     81  C   UNL     1      -4.981  -2.408  -5.247  1.00  0.00     0.058 A 
ATOM     82  C   UNL     1      -5.382  -1.643  -4.143  1.00  0.00     0.135 A 
ATOM     83  C   UNL     1      -4.467  -1.728  -6.363  1.00  0.00     0.135 A 
ATOM     84  F   UNL     1      -5.894  -2.245  -3.059  1.00  0.00    -0.206 F 
ATOM     85  C   UNL     1      -5.285  -0.255  -4.145  1.00  0.00     0.059 A 
ATOM     86  C   UNL     1      -4.338  -0.343  -6.380  1.00  0.00     0.059 A 
ATOM     87  F   UNL     1      -4.066  -2.417  -7.443  1.00  0.00    -0.206 F 
ATOM     88  C   UNL     1      -4.758   0.386  -5.268  1.00  0.00     0.060 A 
BRANCH  88  89
ATOM     89  S   UNL     1      -4.582   2.183  -5.234  1.00  0.00     0.124 S 
ATOM     90  O   UNL     1      -5.959   2.615  -5.440  1.00  0.00    -0.237 OA
ATOM     91  O   UNL     1      -4.033   2.413  -3.901  1.00  0.00    -0.237 OA
ATOM     92  O   UNL     1      -3.663   2.450  -6.337  1.00  0.00    -0.744 OA
ENDBRANCH  88  89
ENDBRANCH  56  81
BRANCH  68  93
ATOM     93  C   UNL     1     -10.414  -6.795  -5.457  1.00  0.00     0.058 A 
ATOM     94  C   UNL     1     -11.086  -6.447  -6.638  1.00  0.00     0.135 A 
ATOM     95  C   UNL     1     -11.185  -7.060  -4.313  1.00  0.00     0.135 A 
ATOM     96  F   UNL     1     -10.394  -6.178  -7.756  1.00  0.00    -0.206 F 
ATOM     97  C   UNL     1     -12.475  -6.373  -6.685  1.00  0.00     0.059 A 
ATOM     98  C   UNL     1     -12.574  -7.010  -4.343  1.00  0.00     0.059 A 
ATOM     99  F   UNL     1     -10.587  -7.405  -3.162  1.00  0.00    -0.206 F 
ATOM    100  C   UNL     1     -13.211  -6.665  -5.535  1.00  0.00     0.060 A 
BRANCH 100 101
ATOM    101  S   UNL     1     -15.015  -6.650  -5.630  1.00  0.00     0.124 S 
ATOM    102  O   UNL     1     -15.297  -5.218  -5.631  1.00  0.00    -0.237 OA
ATOM    103  O   UNL     1     -15.269  -7.347  -6.886  1.00  0.00    -0.237 OA
ATOM    104  O   UNL     1     -15.424  -7.370  -4.427  1.00  0.00    -0.744 OA
ENDBRANCH 100 101
ENDBRANCH  68  93
ENDBRANCH  42  43
ENDBRANCH  35  37
ENDBRANCH  34  35
ENDBRANCH  33  34
ENDBRANCH  32  33
ENDBRANCH  31  32
ENDBRANCH  30  31
ENDBRANCH   1  30
TORSDOF 23
