REMARK SMILES CC1=C(C(=O)OCCOCCOCCOC(=O)c2ccc(-c3c4nc(c(-c5c(F)cc(S(=O)(=O)[O-])cc5F)c5ccc([nH]5)c(-c5c(F)cc(S(=O)(=O)[O-])cc5F)c5nc(c(-c6c(F)cc(S(=O)(=O)[O-])cc6F)c6ccc3[nH]6)C=C5)C=C4)cc2)N2C(=O)[C@@H](NC(=O)c3ccn(C)n3)[C@H]2SC1
REMARK SMILES IDX 11 1 10 2 9 3 8 4 7 5 6 6 4 7 5 8 3 9 1 10 2 11 99 12 84 13
REMARK SMILES IDX 98 14 85 15 97 16 86 17 87 18 88 19 89 20 90 22 91 23 92 24
REMARK SMILES IDX 96 25 93 26 94 27 95 28 12 29 13 30 14 31 15 32 16 33 17 34
REMARK SMILES IDX 18 35 19 36 83 37 20 38 82 39 21 40 22 41 23 42 76 43 24 44
REMARK SMILES IDX 81 45 75 46 77 47 25 48 80 49 74 50 73 51 26 53 60 54 39 55
REMARK SMILES IDX 59 56 40 57 43 58 58 59 78 60 41 61 42 62 57 64 79 65 44 66
REMARK SMILES IDX 27 67 28 68 37 69 29 70 30 71 36 72 38 73 31 74 32 75 33 76
REMARK SMILES IDX 34 77 35 78 61 79 62 80 71 81 63 82 64 83 70 84 72 85 65 86
REMARK SMILES IDX 66 87 67 88 68 89 69 90 45 91 46 92 55 93 47 94 48 95 54 96
REMARK SMILES IDX 56 97 49 98 50 99 51 100 52 101 53 102
REMARK H PARENT 88 21 77 52 43 63
REMARK Flexibility Score: inf
ROOT
ATOM      1  C   UNL     1       0.021  -3.076   2.171  1.00  0.00     0.188 C 
ENDROOT
BRANCH   1   2
ATOM      2  C   UNL     1      -0.954  -3.920   1.321  1.00  0.00     0.188 C 
BRANCH   2   3
ATOM      3  O   UNL     1      -0.716  -5.307   1.155  1.00  0.00    -0.376 OA
BRANCH   3   4
ATOM      4  C   UNL     1       0.422  -5.740   0.420  1.00  0.00     0.202 C 
BRANCH   4   5
ATOM      5  C   UNL     1       0.917  -4.944  -0.789  1.00  0.00     0.261 C 
BRANCH   5   6
ATOM      6  O   UNL     1       1.203  -3.574  -0.471  1.00  0.00    -0.459 OA
BRANCH   6   7
ATOM      7  C   UNL     1       0.808  -2.675  -1.408  1.00  0.00     0.355 C 
ATOM      8  O   UNL     1       0.362  -2.939  -2.515  1.00  0.00    -0.244 OA
BRANCH   7   9
ATOM      9  C   UNL     1       0.936  -1.265  -0.916  1.00  0.00     0.131 C 
ATOM     10  C   UNL     1       3.371  -1.486  -0.253  1.00  0.00     0.043 C 
ATOM     11  C   UNL     1       2.070  -0.737  -0.396  1.00  0.00    -0.032 C 
ATOM     12  C   UNL     1       2.172   0.690   0.130  1.00  0.00     0.105 C 
ATOM     13  N   UNL     1      -0.157  -0.476  -1.092  1.00  0.00    -0.289 N 
ATOM     14  S   UNL     1       0.576   1.506   0.445  1.00  0.00    -0.129 SA
ATOM     15  C   UNL     1      -1.496  -0.616  -1.062  1.00  0.00     0.253 C 
ATOM     16  C   UNL     1      -0.120   0.964  -1.139  1.00  0.00     0.181 C 
ATOM     17  O   UNL     1      -2.214  -1.569  -0.834  1.00  0.00    -0.272 OA
ATOM     18  C   UNL     1      -1.665   0.916  -1.291  1.00  0.00     0.206 C 
BRANCH  18  19
ATOM     19  N   UNL     1      -2.456   1.700  -0.314  1.00  0.00    -0.336 N 
ATOM     20  C   UNL     1      -3.607   2.412  -0.598  1.00  0.00     0.272 C 
ATOM     21  H   UNL     1      -2.135   1.716   0.617  1.00  0.00     0.164 HD
ATOM     22  O   UNL     1      -4.017   3.235   0.217  1.00  0.00    -0.267 OA
BRANCH  20  23
ATOM     23  C   UNL     1      -4.245   2.138  -1.890  1.00  0.00     0.150 A 
ATOM     24  C   UNL     1      -4.740   0.884  -2.337  1.00  0.00     0.056 A 
ATOM     25  N   UNL     1      -4.310   3.055  -2.875  1.00  0.00    -0.168 NA
ATOM     26  C   UNL     1      -5.157   1.089  -3.627  1.00  0.00     0.109 A 
ATOM     27  N   UNL     1      -4.926   2.407  -3.885  1.00  0.00    -0.275 N 
ATOM     28  C   UNL     1      -5.199   3.084  -5.129  1.00  0.00     0.173 C 
ENDBRANCH  20  23
ENDBRANCH  18  19
ENDBRANCH   7   9
ENDBRANCH   6   7
ENDBRANCH   5   6
ENDBRANCH   4   5
ENDBRANCH   3   4
ENDBRANCH   2   3
ENDBRANCH   1   2
BRANCH   1  29
ATOM     29  O   UNL     1       1.108  -3.671   2.859  1.00  0.00    -0.376 OA
BRANCH  29  30
ATOM     30  C   UNL     1       0.872  -4.793   3.693  1.00  0.00     0.202 C 
BRANCH  30  31
ATOM     31  C   UNL     1      -0.227  -4.777   4.762  1.00  0.00     0.261 C 
BRANCH  31  32
ATOM     32  O   UNL     1      -1.497  -4.284   4.323  1.00  0.00    -0.460 OA
BRANCH  32  33
ATOM     33  C   UNL     1      -1.865  -3.092   4.858  1.00  0.00     0.338 C 
ATOM     34  O   UNL     1      -1.244  -2.425   5.667  1.00  0.00    -0.246 OA
BRANCH  33  35
ATOM     35  C   UNL     1      -3.075  -2.605   4.170  1.00  0.00     0.060 A 
ATOM     36  C   UNL     1      -3.014  -1.369   3.513  1.00  0.00     0.016 A 
ATOM     37  C   UNL     1      -4.263  -3.336   4.205  1.00  0.00     0.016 A 
ATOM     38  C   UNL     1      -4.152  -0.847   2.901  1.00  0.00     0.010 A 
ATOM     39  C   UNL     1      -5.410  -2.799   3.615  1.00  0.00     0.010 A 
ATOM     40  C   UNL     1      -5.365  -1.542   2.985  1.00  0.00    -0.014 A 
BRANCH  40  41
ATOM     41  C   UNL     1      -6.622  -0.880   2.565  1.00  0.00     0.031 A 
ATOM     42  C   UNL     1      -7.431  -0.152   3.600  1.00  0.00     0.074 A 
ATOM     43  C   UNL     1      -7.041  -0.932   1.289  1.00  0.00     0.049 A 
ATOM     44  N   UNL     1      -8.579   0.460   3.477  1.00  0.00    -0.248 NA
ATOM     45  C   UNL     1      -6.874  -0.123   4.962  1.00  0.00     0.031 C 
ATOM     46  C   UNL     1      -6.334  -1.593   0.195  1.00  0.00     0.029 A 
ATOM     47  N   UNL     1      -8.172  -0.421   0.704  1.00  0.00    -0.354 N 
ATOM     48  C   UNL     1      -8.888   0.939   4.744  1.00  0.00     0.074 A 
ATOM     49  C   UNL     1      -7.818   0.525   5.626  1.00  0.00     0.031 C 
ATOM     50  C   UNL     1      -7.053  -1.450  -0.932  1.00  0.00     0.029 A 
ATOM     51  C   UNL     1      -8.273  -0.701  -0.637  1.00  0.00     0.049 A 
ATOM     52  H   UNL     1      -8.847   0.097   1.198  1.00  0.00     0.167 HD
ATOM     53  C   UNL     1      -9.966   1.658   5.137  1.00  0.00     0.037 A 
ATOM     54  C   UNL     1      -9.245  -0.394  -1.520  1.00  0.00     0.037 A 
ATOM     55  C   UNL     1     -11.033   2.060   4.258  1.00  0.00     0.049 A 
ATOM     56  C   UNL     1     -10.459   0.366  -1.050  1.00  0.00     0.074 A 
ATOM     57  C   UNL     1     -12.161   2.804   4.557  1.00  0.00     0.029 A 
ATOM     58  N   UNL     1     -11.111   1.742   2.910  1.00  0.00    -0.354 N 
ATOM     59  N   UNL     1     -10.731   0.835   0.145  1.00  0.00    -0.248 NA
ATOM     60  C   UNL     1     -11.507   0.627  -2.048  1.00  0.00     0.031 C 
ATOM     61  C   UNL     1     -12.946   2.890   3.402  1.00  0.00     0.029 A 
ATOM     62  C   UNL     1     -12.283   2.246   2.370  1.00  0.00     0.049 A 
ATOM     63  H   UNL     1     -10.432   1.232   2.410  1.00  0.00     0.167 HD
ATOM     64  C   UNL     1     -11.967   1.464   0.037  1.00  0.00     0.074 A 
ATOM     65  C   UNL     1     -12.387   1.325  -1.342  1.00  0.00     0.031 C 
ATOM     66  C   UNL     1     -12.690   2.100   0.994  1.00  0.00     0.037 A 
BRANCH  53  67
ATOM     67  C   UNL     1     -10.060   2.013   6.594  1.00  0.00     0.058 A 
ATOM     68  C   UNL     1      -9.213   2.966   7.182  1.00  0.00     0.135 A 
ATOM     69  C   UNL     1     -11.010   1.386   7.416  1.00  0.00     0.135 A 
ATOM     70  F   UNL     1      -8.274   3.582   6.447  1.00  0.00    -0.206 F 
ATOM     71  C   UNL     1      -9.279   3.257   8.541  1.00  0.00     0.059 A 
ATOM     72  C   UNL     1     -11.112   1.681   8.772  1.00  0.00     0.059 A 
ATOM     73  F   UNL     1     -11.843   0.465   6.906  1.00  0.00    -0.206 F 
ATOM     74  C   UNL     1     -10.229   2.604   9.329  1.00  0.00     0.060 A 
BRANCH  74  75
ATOM     75  S   UNL     1     -10.289   2.973  11.095  1.00  0.00     0.124 S 
ATOM     76  O   UNL     1      -9.103   2.273  11.579  1.00  0.00    -0.237 OA
ATOM     77  O   UNL     1     -10.216   4.430  11.115  1.00  0.00    -0.237 OA
ATOM     78  O   UNL     1     -11.567   2.407  11.517  1.00  0.00    -0.744 OA
ENDBRANCH  74  75
ENDBRANCH  53  67
BRANCH  54  79
ATOM     79  C   UNL     1      -9.107  -0.797  -2.944  1.00  0.00     0.058 A 
ATOM     80  C   UNL     1      -8.896   0.162  -3.945  1.00  0.00     0.135 A 
ATOM     81  C   UNL     1      -9.170  -2.144  -3.333  1.00  0.00     0.135 A 
ATOM     82  F   UNL     1      -8.840   1.465  -3.630  1.00  0.00    -0.206 F 
ATOM     83  C   UNL     1      -8.753  -0.198  -5.280  1.00  0.00     0.059 A 
ATOM     84  C   UNL     1      -9.001  -2.532  -4.659  1.00  0.00     0.059 A 
ATOM     85  F   UNL     1      -9.368  -3.102  -2.414  1.00  0.00    -0.206 F 
ATOM     86  C   UNL     1      -8.796  -1.549  -5.626  1.00  0.00     0.060 A 
BRANCH  86  87
ATOM     87  S   UNL     1      -8.514  -2.002  -7.351  1.00  0.00     0.124 S 
ATOM     88  O   UNL     1      -9.764  -1.586  -7.974  1.00  0.00    -0.237 OA
ATOM     89  O   UNL     1      -7.338  -1.202  -7.683  1.00  0.00    -0.237 OA
ATOM     90  O   UNL     1      -8.286  -3.442  -7.287  1.00  0.00    -0.744 OA
ENDBRANCH  86  87
ENDBRANCH  54  79
BRANCH  66  91
ATOM     91  C   UNL     1     -14.000   2.717   0.584  1.00  0.00     0.058 A 
ATOM     92  C   UNL     1     -15.131   1.933   0.307  1.00  0.00     0.135 A 
ATOM     93  C   UNL     1     -14.142   4.113   0.527  1.00  0.00     0.135 A 
ATOM     94  F   UNL     1     -15.050   0.594   0.341  1.00  0.00    -0.206 F 
ATOM     95  C   UNL     1     -16.351   2.511  -0.030  1.00  0.00     0.059 A 
ATOM     96  C   UNL     1     -15.359   4.713   0.217  1.00  0.00     0.059 A 
ATOM     97  F   UNL     1     -13.095   4.910   0.793  1.00  0.00    -0.206 F 
ATOM     98  C   UNL     1     -16.456   3.903  -0.071  1.00  0.00     0.060 A 
BRANCH  98  99
ATOM     99  S   UNL     1     -18.054   4.641  -0.474  1.00  0.00     0.124 S 
ATOM    100  O   UNL     1     -18.136   4.399  -1.911  1.00  0.00    -0.237 OA
ATOM    101  O   UNL     1     -18.975   3.868   0.353  1.00  0.00    -0.237 OA
ATOM    102  O   UNL     1     -17.892   6.038  -0.081  1.00  0.00    -0.744 OA
ENDBRANCH  98  99
ENDBRANCH  66  91
ENDBRANCH  40  41
ENDBRANCH  33  35
ENDBRANCH  32  33
ENDBRANCH  31  32
ENDBRANCH  30  31
ENDBRANCH  29  30
ENDBRANCH   1  29
TORSDOF 22
