REMARK SMILES O=C(OCCOCCOCCOC(=O)[C@@H]1[C@@H](C(=O)Nc2cccc([N+](=O)[O-])c2)[C@@H]2C=C[C@H]1O2)c1ccc(-c2c3nc(c(-c4c(F)cc(S(=O)(=O)[O-])cc4F)c4ccc([nH]4)c(-c4c(F)cc(S(=O)(=O)[O-])cc4F)c4nc(c(-c5c(F)cc(S(=O)(=O)[O-])cc5F)c5ccc2[nH]5)C=C4)C=C3)cc1
REMARK SMILES IDX 7 1 6 2 5 3 4 4 3 5 2 6 1 7 34 8 35 9 99 10 36 11 98 12
REMARK SMILES IDX 37 13 38 14 39 15 92 16 40 17 97 18 91 19 93 20 41 21 96 22
REMARK SMILES IDX 90 23 89 24 42 26 76 27 55 28 75 29 56 30 59 31 74 32 94 33
REMARK SMILES IDX 57 34 58 35 73 37 95 38 60 39 43 40 44 41 53 42 45 43 46 44
REMARK SMILES IDX 52 45 54 46 47 47 48 48 49 49 50 50 51 51 77 52 78 53 87 54
REMARK SMILES IDX 79 55 80 56 86 57 88 58 81 59 82 60 83 61 84 62 85 63 61 64
REMARK SMILES IDX 62 65 71 66 63 67 64 68 70 69 72 70 65 71 66 72 67 73 68 74
REMARK SMILES IDX 69 75 8 76 9 77 10 78 11 79 12 80 13 81 14 82 15 83 16 84
REMARK SMILES IDX 32 85 29 86 31 87 33 88 30 89 17 90 18 91 19 92 20 94 21 95
REMARK SMILES IDX 28 96 22 97 24 98 23 99 25 100 26 101 27 102
REMARK H PARENT 93 25 59 36 19 93
REMARK Flexibility Score: inf
ROOT
ATOM      1  C   UNL     1       2.570   0.021  -2.044  1.00  0.00     0.188 C 
ENDROOT
BRANCH   1   2
ATOM      2  O   UNL     1       3.929   0.387  -1.815  1.00  0.00    -0.376 OA
BRANCH   2   3
ATOM      3  C   UNL     1       4.786  -0.643  -1.305  1.00  0.00     0.202 C 
BRANCH   3   4
ATOM      4  C   UNL     1       4.364  -1.397  -0.026  1.00  0.00     0.261 C 
BRANCH   4   5
ATOM      5  O   UNL     1       2.973  -1.280   0.328  1.00  0.00    -0.460 OA
BRANCH   5   6
ATOM      6  C   UNL     1       2.397  -0.399   1.183  1.00  0.00     0.338 C 
ATOM      7  O   UNL     1       1.210  -0.526   1.474  1.00  0.00    -0.246 OA
BRANCH   6   8
ATOM      8  C   UNL     1       3.148   0.743   1.764  1.00  0.00     0.060 A 
ATOM      9  C   UNL     1       4.159   1.421   1.092  1.00  0.00     0.016 A 
ATOM     10  C   UNL     1       2.749   1.226   3.011  1.00  0.00     0.016 A 
ATOM     11  C   UNL     1       4.889   2.429   1.693  1.00  0.00     0.010 A 
ATOM     12  C   UNL     1       3.390   2.335   3.570  1.00  0.00     0.010 A 
ATOM     13  C   UNL     1       4.509   2.903   2.939  1.00  0.00    -0.014 A 
BRANCH  13  14
ATOM     14  C   UNL     1       5.391   3.865   3.633  1.00  0.00     0.031 A 
ATOM     15  C   UNL     1       5.989   3.434   4.938  1.00  0.00     0.074 A 
ATOM     16  C   UNL     1       5.712   5.046   3.067  1.00  0.00     0.049 A 
ATOM     17  N   UNL     1       6.670   4.125   5.806  1.00  0.00    -0.248 NA
ATOM     18  C   UNL     1       5.758   2.032   5.336  1.00  0.00     0.031 C 
ATOM     19  C   UNL     1       5.238   5.513   1.764  1.00  0.00     0.029 A 
ATOM     20  N   UNL     1       6.520   6.063   3.498  1.00  0.00    -0.354 N 
ATOM     21  C   UNL     1       6.881   3.265   6.876  1.00  0.00     0.074 A 
ATOM     22  C   UNL     1       6.208   2.025   6.578  1.00  0.00     0.031 C 
ATOM     23  C   UNL     1       5.779   6.709   1.487  1.00  0.00     0.029 A 
ATOM     24  C   UNL     1       6.577   7.129   2.627  1.00  0.00     0.049 A 
ATOM     25  H   UNL     1       7.014   6.036   4.349  1.00  0.00     0.167 HD
ATOM     26  C   UNL     1       7.605   3.488   7.995  1.00  0.00     0.037 A 
ATOM     27  C   UNL     1       7.181   8.324   2.761  1.00  0.00     0.037 A 
ATOM     28  C   UNL     1       8.319   4.713   8.220  1.00  0.00     0.049 A 
ATOM     29  C   UNL     1       7.942   8.568   4.035  1.00  0.00     0.074 A 
ATOM     30  C   UNL     1       9.103   5.073   9.296  1.00  0.00     0.029 A 
ATOM     31  N   UNL     1       8.343   5.777   7.323  1.00  0.00    -0.354 N 
ATOM     32  N   UNL     1       8.109   7.763   5.060  1.00  0.00    -0.248 NA
ATOM     33  C   UNL     1       8.604   9.869   4.174  1.00  0.00     0.031 C 
ATOM     34  C   UNL     1       9.572   6.371   9.068  1.00  0.00     0.029 A 
ATOM     35  C   UNL     1       9.128   6.797   7.823  1.00  0.00     0.049 A 
ATOM     36  H   UNL     1       7.869   5.799   6.460  1.00  0.00     0.167 HD
ATOM     37  C   UNL     1       8.934   8.440   5.947  1.00  0.00     0.074 A 
ATOM     38  C   UNL     1       9.230   9.722   5.333  1.00  0.00     0.031 C 
ATOM     39  C   UNL     1       9.415   8.042   7.151  1.00  0.00     0.037 A 
BRANCH  26  40
ATOM     40  C   UNL     1       7.612   2.398   9.030  1.00  0.00     0.058 A 
ATOM     41  C   UNL     1       8.218   1.151   8.798  1.00  0.00     0.135 A 
ATOM     42  C   UNL     1       6.929   2.575  10.243  1.00  0.00     0.135 A 
ATOM     43  F   UNL     1       8.854   0.911   7.639  1.00  0.00    -0.206 F 
ATOM     44  C   UNL     1       8.099   0.103   9.706  1.00  0.00     0.059 A 
ATOM     45  C   UNL     1       6.827   1.552  11.181  1.00  0.00     0.059 A 
ATOM     46  F   UNL     1       6.321   3.741  10.512  1.00  0.00    -0.206 F 
ATOM     47  C   UNL     1       7.395   0.312  10.892  1.00  0.00     0.060 A 
BRANCH  47  48
ATOM     48  S   UNL     1       7.224  -1.065  12.046  1.00  0.00     0.124 S 
ATOM     49  O   UNL     1       6.258  -1.910  11.349  1.00  0.00    -0.237 OA
ATOM     50  O   UNL     1       8.586  -1.585  12.114  1.00  0.00    -0.237 OA
ATOM     51  O   UNL     1       6.736  -0.429  13.265  1.00  0.00    -0.744 OA
ENDBRANCH  47  48
ENDBRANCH  26  40
BRANCH  27  52
ATOM     52  C   UNL     1       7.094   9.353   1.686  1.00  0.00     0.058 A 
ATOM     53  C   UNL     1       8.228   9.731   0.951  1.00  0.00     0.135 A 
ATOM     54  C   UNL     1       5.878   9.979   1.364  1.00  0.00     0.135 A 
ATOM     55  F   UNL     1       9.416   9.167   1.215  1.00  0.00    -0.206 F 
ATOM     56  C   UNL     1       8.168  10.706  -0.042  1.00  0.00     0.059 A 
ATOM     57  C   UNL     1       5.786  10.936   0.355  1.00  0.00     0.059 A 
ATOM     58  F   UNL     1       4.757   9.651   2.023  1.00  0.00    -0.206 F 
ATOM     59  C   UNL     1       6.941  11.303  -0.334  1.00  0.00     0.060 A 
BRANCH  59  60
ATOM     60  S   UNL     1       6.874  12.548  -1.642  1.00  0.00     0.124 S 
ATOM     61  O   UNL     1       7.609  13.653  -1.037  1.00  0.00    -0.237 OA
ATOM     62  O   UNL     1       7.543  11.865  -2.745  1.00  0.00    -0.237 OA
ATOM     63  O   UNL     1       5.443  12.769  -1.827  1.00  0.00    -0.744 OA
ENDBRANCH  59  60
ENDBRANCH  27  52
BRANCH  39  64
ATOM     64  C   UNL     1      10.380   8.966   7.830  1.00  0.00     0.058 A 
ATOM     65  C   UNL     1       9.968  10.164   8.429  1.00  0.00     0.135 A 
ATOM     66  C   UNL     1      11.734   8.607   7.923  1.00  0.00     0.135 A 
ATOM     67  F   UNL     1       8.684  10.552   8.357  1.00  0.00    -0.206 F 
ATOM     68  C   UNL     1      10.874  10.993   9.077  1.00  0.00     0.059 A 
ATOM     69  C   UNL     1      12.650   9.402   8.597  1.00  0.00     0.059 A 
ATOM     70  F   UNL     1      12.171   7.461   7.375  1.00  0.00    -0.206 F 
ATOM     71  C   UNL     1      12.213  10.600   9.158  1.00  0.00     0.060 A 
BRANCH  71  72
ATOM     72  S   UNL     1      13.374  11.665  10.035  1.00  0.00     0.124 S 
ATOM     73  O   UNL     1      13.551  12.753   9.079  1.00  0.00    -0.237 OA
ATOM     74  O   UNL     1      12.635  11.999  11.249  1.00  0.00    -0.237 OA
ATOM     75  O   UNL     1      14.537  10.806  10.234  1.00  0.00    -0.744 OA
ENDBRANCH  71  72
ENDBRANCH  39  64
ENDBRANCH  13  14
ENDBRANCH   6   8
ENDBRANCH   5   6
ENDBRANCH   4   5
ENDBRANCH   3   4
ENDBRANCH   2   3
ENDBRANCH   1   2
BRANCH   1  76
ATOM     76  C   UNL     1       1.963   0.662  -3.292  1.00  0.00     0.188 C 
BRANCH  76  77
ATOM     77  O   UNL     1       2.536   0.308  -4.547  1.00  0.00    -0.376 OA
BRANCH  77  78
ATOM     78  C   UNL     1       3.950   0.415  -4.675  1.00  0.00     0.202 C 
BRANCH  78  79
ATOM     79  C   UNL     1       4.580   1.817  -4.645  1.00  0.00     0.261 C 
BRANCH  79  80
ATOM     80  O   UNL     1       4.144   2.652  -3.563  1.00  0.00    -0.463 OA
BRANCH  80  81
ATOM     81  C   UNL     1       3.300   3.669  -3.892  1.00  0.00     0.312 C 
ATOM     82  O   UNL     1       2.890   3.898  -5.030  1.00  0.00    -0.252 OA
BRANCH  81  83
ATOM     83  C   UNL     1       2.793   4.365  -2.658  1.00  0.00     0.147 C 
ATOM     84  C   UNL     1       2.178   5.763  -2.948  1.00  0.00     0.129 C 
ATOM     85  C   UNL     1       3.916   4.722  -1.683  1.00  0.00     0.157 C 
ATOM     86  C   UNL     1       3.007   6.672  -2.043  1.00  0.00     0.155 C 
ATOM     87  C   UNL     1       4.981   5.558  -2.317  1.00  0.00     0.004 C 
ATOM     88  O   UNL     1       3.256   5.770  -0.931  1.00  0.00    -0.365 OA
ATOM     89  C   UNL     1       4.420   6.753  -2.556  1.00  0.00     0.004 C 
BRANCH  84  90
ATOM     90  C   UNL     1       0.660   5.871  -2.797  1.00  0.00     0.231 C 
ATOM     91  O   UNL     1       0.024   6.559  -3.607  1.00  0.00    -0.274 OA
ATOM     92  N   UNL     1      -0.081   5.130  -1.923  1.00  0.00    -0.325 N 
ATOM     93  H   UNL     1      -0.966   4.872  -2.269  1.00  0.00     0.169 HD
BRANCH  92  94
ATOM     94  C   UNL     1       0.178   4.667  -0.629  1.00  0.00     0.048 A 
ATOM     95  C   UNL     1      -0.353   3.425  -0.258  1.00  0.00     0.026 A 
ATOM     96  C   UNL     1       0.832   5.447   0.321  1.00  0.00     0.111 A 
ATOM     97  C   UNL     1      -0.147   2.921   1.027  1.00  0.00     0.009 A 
ATOM     98  C   UNL     1       1.030   4.946   1.613  1.00  0.00     0.271 A 
ATOM     99  C   UNL     1       0.542   3.683   1.968  1.00  0.00     0.086 A 
BRANCH  98 100
ATOM    100  N   UNL     1       1.721   5.768   2.616  1.00  0.00     0.062 N 
ATOM    101  O   UNL     1       1.902   5.267   3.735  1.00  0.00    -0.258 OA
ATOM    102  O   UNL     1       2.042   6.918   2.293  1.00  0.00    -0.258 OA
ENDBRANCH  98 100
ENDBRANCH  92  94
ENDBRANCH  84  90
ENDBRANCH  81  83
ENDBRANCH  80  81
ENDBRANCH  79  80
ENDBRANCH  78  79
ENDBRANCH  77  78
ENDBRANCH  76  77
ENDBRANCH   1  76
TORSDOF 23
