REMARK SMILES COc1cc(S(=O)(=O)Nc2cccc(C(=O)OCCOCCOCCOC(=O)c3ccc(-c4c5nc(c(-c6c(F)cc(S(=O)(=O)[O-])cc6F)c6ccc([nH]6)c(-c6c(F)cc(S(=O)(=O)[O-])cc6F)c6nc(c(-c7c(F)cc(S(=O)(=O)[O-])cc7F)c7ccc4[nH]7)C=C6)C=C5)cc3)c2)c(OC)cc1C
REMARK SMILES IDX 21 1 20 2 19 3 18 4 17 5 15 6 16 7 14 8 10 9 11 10 95 11
REMARK SMILES IDX 12 12 13 13 9 14 6 16 7 17 8 18 5 19 3 20 4 21 100 22 99 23
REMARK SMILES IDX 101 24 96 25 2 26 1 27 97 28 98 29 22 30 23 31 24 32 25 33
REMARK SMILES IDX 26 34 27 35 28 36 29 37 30 38 94 39 31 40 93 41 32 42 33 43
REMARK SMILES IDX 34 44 87 45 35 46 92 47 86 48 88 49 36 50 91 51 85 52 84 53
REMARK SMILES IDX 37 55 71 56 50 57 70 58 51 59 54 60 69 61 89 62 52 63 53 64
REMARK SMILES IDX 68 66 90 67 55 68 38 69 39 70 48 71 40 72 41 73 47 74 49 75
REMARK SMILES IDX 42 76 43 77 44 78 45 79 46 80 72 81 73 82 82 83 74 84 75 85
REMARK SMILES IDX 81 86 83 87 76 88 77 89 78 90 79 91 80 92 56 93 57 94 66 95
REMARK SMILES IDX 58 96 59 97 65 98 67 99 60 100 61 101 62 102 63 103 64 104
REMARK H PARENT 9 15 88 54 54 65
REMARK Flexibility Score: inf
ROOT
ATOM      1  C   UNL     1       4.199  -4.609 -12.647  1.00  0.00     0.188 C 
ENDROOT
BRANCH   1   2
ATOM      2  O   UNL     1       5.059  -3.475 -12.479  1.00  0.00    -0.376 OA
BRANCH   2   3
ATOM      3  C   UNL     1       6.321  -3.571 -11.805  1.00  0.00     0.202 C 
BRANCH   3   4
ATOM      4  C   UNL     1       6.608  -3.075 -10.288  1.00  0.00     0.261 C 
BRANCH   4   5
ATOM      5  O   UNL     1       5.871  -3.615  -9.080  1.00  0.00    -0.460 OA
BRANCH   5   6
ATOM      6  C   UNL     1       6.215  -4.309  -7.925  1.00  0.00     0.338 C 
ATOM      7  O   UNL     1       7.394  -4.516  -7.663  1.00  0.00    -0.246 OA
BRANCH   6   8
ATOM      8  C   UNL     1       4.987  -4.911  -6.880  1.00  0.00     0.062 A 
ATOM      9  C   UNL     1       2.675  -5.006  -5.657  1.00  0.00     0.050 A 
ATOM     10  C   UNL     1       3.205  -5.914  -4.780  1.00  0.00     0.027 A 
ATOM     11  C   UNL     1       3.566  -4.563  -6.676  1.00  0.00     0.042 A 
ATOM     12  C   UNL     1       4.563  -6.298  -4.918  1.00  0.00     0.003 A 
ATOM     13  C   UNL     1       5.433  -5.810  -5.931  1.00  0.00     0.016 A 
BRANCH   9  14
ATOM     14  N   UNL     1       1.300  -4.528  -5.659  1.00  0.00    -0.279 N 
ATOM     15  H   UNL     1       0.935  -4.299  -6.545  1.00  0.00     0.180 HD
BRANCH  14  16
ATOM     16  S   UNL     1       0.234  -4.306  -4.354  1.00  0.00     0.265 S 
ATOM     17  O   UNL     1       0.183  -5.536  -3.588  1.00  0.00    -0.201 OA
ATOM     18  O   UNL     1      -0.984  -3.751  -4.917  1.00  0.00    -0.201 OA
BRANCH  16  19
ATOM     19  C   UNL     1       0.854  -3.059  -3.246  1.00  0.00     0.133 A 
ATOM     20  C   UNL     1       0.781  -1.913  -1.088  1.00  0.00     0.123 A 
ATOM     21  C   UNL     1       0.175  -2.752  -2.047  1.00  0.00     0.073 A 
ATOM     22  C   UNL     1       2.132  -1.578  -1.230  1.00  0.00    -0.005 A 
ATOM     23  C   UNL     1       2.739  -1.824  -2.460  1.00  0.00     0.055 A 
ATOM     24  C   UNL     1       2.975  -0.884  -0.204  1.00  0.00     0.048 C 
ATOM     25  C   UNL     1       2.036  -2.403  -3.509  1.00  0.00     0.139 A 
BRANCH  20  26
ATOM     26  O   UNL     1       0.008  -1.511  -0.027  1.00  0.00    -0.496 OA
ATOM     27  C   UNL     1       0.094  -0.102   0.245  1.00  0.00     0.278 C 
ENDBRANCH  20  26
BRANCH  25  28
ATOM     28  O   UNL     1       2.445  -2.221  -4.795  1.00  0.00    -0.495 OA
ATOM     29  C   UNL     1       2.906  -0.885  -5.019  1.00  0.00     0.278 C 
ENDBRANCH  25  28
ENDBRANCH  16  19
ENDBRANCH  14  16
ENDBRANCH   9  14
ENDBRANCH   6   8
ENDBRANCH   5   6
ENDBRANCH   4   5
ENDBRANCH   3   4
ENDBRANCH   2   3
ENDBRANCH   1   2
BRANCH   1  30
ATOM     30  C   UNL     1       4.737  -6.006 -12.939  1.00  0.00     0.188 C 
BRANCH  30  31
ATOM     31  O   UNL     1       5.658  -6.377 -11.926  1.00  0.00    -0.376 OA
BRANCH  31  32
ATOM     32  C   UNL     1       6.245  -7.659 -12.031  1.00  0.00     0.202 C 
BRANCH  32  33
ATOM     33  C   UNL     1       5.256  -8.841 -11.980  1.00  0.00     0.261 C 
BRANCH  33  34
ATOM     34  O   UNL     1       4.758  -9.124 -10.642  1.00  0.00    -0.460 OA
BRANCH  34  35
ATOM     35  C   UNL     1       3.416  -8.902 -10.351  1.00  0.00     0.338 C 
ATOM     36  O   UNL     1       2.595  -9.776 -10.410  1.00  0.00    -0.246 OA
BRANCH  35  37
ATOM     37  C   UNL     1       3.213  -7.515  -9.775  1.00  0.00     0.060 A 
ATOM     38  C   UNL     1       2.032  -6.769  -9.650  1.00  0.00     0.016 A 
ATOM     39  C   UNL     1       4.347  -6.840  -9.480  1.00  0.00     0.016 A 
ATOM     40  C   UNL     1       2.042  -5.318  -9.407  1.00  0.00     0.010 A 
ATOM     41  C   UNL     1       4.306  -5.451  -9.571  1.00  0.00     0.010 A 
ATOM     42  C   UNL     1       3.225  -4.560  -9.397  1.00  0.00    -0.014 A 
BRANCH  42  43
ATOM     43  C   UNL     1       3.438  -2.923  -9.328  1.00  0.00     0.031 A 
ATOM     44  C   UNL     1       4.300  -1.895  -8.272  1.00  0.00     0.074 A 
ATOM     45  C   UNL     1       3.076  -2.274 -10.456  1.00  0.00     0.049 A 
ATOM     46  N   UNL     1       4.630  -0.649  -8.535  1.00  0.00    -0.248 NA
ATOM     47  C   UNL     1       4.913  -2.153  -6.944  1.00  0.00     0.031 C 
ATOM     48  C   UNL     1       3.543  -0.985 -10.958  1.00  0.00     0.029 A 
ATOM     49  N   UNL     1       2.042  -2.610 -11.327  1.00  0.00    -0.354 N 
ATOM     50  C   UNL     1       5.575  -0.158  -7.622  1.00  0.00     0.074 A 
ATOM     51  C   UNL     1       5.839  -1.222  -6.736  1.00  0.00     0.031 C 
ATOM     52  C   UNL     1       2.635  -0.485 -11.801  1.00  0.00     0.029 A 
ATOM     53  C   UNL     1       1.514  -1.393 -11.788  1.00  0.00     0.049 A 
ATOM     54  H   UNL     1       1.743  -3.515 -11.569  1.00  0.00     0.167 HD
ATOM     55  C   UNL     1       6.005   1.136  -7.588  1.00  0.00     0.037 A 
ATOM     56  C   UNL     1       0.219  -1.077 -11.540  1.00  0.00     0.037 A 
ATOM     57  C   UNL     1       5.112   1.925  -8.402  1.00  0.00     0.049 A 
ATOM     58  C   UNL     1       0.104   0.187 -10.729  1.00  0.00     0.074 A 
ATOM     59  C   UNL     1       5.116   2.296  -9.730  1.00  0.00     0.029 A 
ATOM     60  N   UNL     1       3.817   2.099  -7.935  1.00  0.00    -0.354 N 
ATOM     61  N   UNL     1       1.096   0.708 -10.052  1.00  0.00    -0.248 NA
ATOM     62  C   UNL     1      -1.095   1.013 -10.669  1.00  0.00     0.031 C 
ATOM     63  C   UNL     1       3.771   2.587 -10.088  1.00  0.00     0.029 A 
ATOM     64  C   UNL     1       2.969   2.443  -8.965  1.00  0.00     0.049 A 
ATOM     65  H   UNL     1       3.542   1.991  -6.996  1.00  0.00     0.167 HD
ATOM     66  C   UNL     1       0.704   1.889  -9.482  1.00  0.00     0.074 A 
ATOM     67  C   UNL     1      -0.676   2.037  -9.903  1.00  0.00     0.031 C 
ATOM     68  C   UNL     1       1.545   2.648  -8.714  1.00  0.00     0.037 A 
BRANCH  55  69
ATOM     69  C   UNL     1       7.263   1.675  -6.895  1.00  0.00     0.058 A 
ATOM     70  C   UNL     1       7.958   2.764  -7.473  1.00  0.00     0.135 A 
ATOM     71  C   UNL     1       7.893   1.152  -5.742  1.00  0.00     0.135 A 
ATOM     72  F   UNL     1       7.454   3.420  -8.528  1.00  0.00    -0.206 F 
ATOM     73  C   UNL     1       9.207   3.218  -7.018  1.00  0.00     0.059 A 
ATOM     74  C   UNL     1       9.170   1.547  -5.303  1.00  0.00     0.059 A 
ATOM     75  F   UNL     1       7.273   0.282  -4.936  1.00  0.00    -0.206 F 
ATOM     76  C   UNL     1       9.827   2.579  -5.954  1.00  0.00     0.060 A 
BRANCH  76  77
ATOM     77  S   UNL     1      11.480   3.106  -5.442  1.00  0.00     0.124 S 
ATOM     78  O   UNL     1      12.211   3.118  -6.706  1.00  0.00    -0.237 OA
ATOM     79  O   UNL     1      11.213   4.413  -4.852  1.00  0.00    -0.237 OA
ATOM     80  O   UNL     1      11.894   2.068  -4.501  1.00  0.00    -0.744 OA
ENDBRANCH  76  77
ENDBRANCH  55  69
BRANCH  56  81
ATOM     81  C   UNL     1      -0.649  -2.292 -11.636  1.00  0.00     0.058 A 
ATOM     82  C   UNL     1      -0.665  -2.909 -12.912  1.00  0.00     0.135 A 
ATOM     83  C   UNL     1      -0.947  -3.112 -10.536  1.00  0.00     0.135 A 
ATOM     84  F   UNL     1      -0.366  -2.186 -14.005  1.00  0.00    -0.206 F 
ATOM     85  C   UNL     1      -0.772  -4.287 -13.072  1.00  0.00     0.059 A 
ATOM     86  C   UNL     1      -1.118  -4.501 -10.685  1.00  0.00     0.059 A 
ATOM     87  F   UNL     1      -0.903  -2.614  -9.291  1.00  0.00    -0.206 F 
ATOM     88  C   UNL     1      -0.940  -5.081 -11.945  1.00  0.00     0.060 A 
BRANCH  88  89
ATOM     89  S   UNL     1      -0.734  -6.869 -12.159  1.00  0.00     0.124 S 
ATOM     90  O   UNL     1      -1.673  -7.164 -13.235  1.00  0.00    -0.237 OA
ATOM     91  O   UNL     1       0.681  -6.956 -12.520  1.00  0.00    -0.237 OA
ATOM     92  O   UNL     1      -1.090  -7.404 -10.850  1.00  0.00    -0.744 OA
ENDBRANCH  88  89
ENDBRANCH  56  81
BRANCH  68  93
ATOM     93  C   UNL     1       1.108   3.691  -7.699  1.00  0.00     0.058 A 
ATOM     94  C   UNL     1      -0.179   3.741  -7.135  1.00  0.00     0.135 A 
ATOM     95  C   UNL     1       2.047   4.587  -7.121  1.00  0.00     0.135 A 
ATOM     96  F   UNL     1      -1.136   2.873  -7.487  1.00  0.00    -0.206 F 
ATOM     97  C   UNL     1      -0.533   4.654  -6.142  1.00  0.00     0.059 A 
ATOM     98  C   UNL     1       1.735   5.451  -6.074  1.00  0.00     0.059 A 
ATOM     99  F   UNL     1       3.321   4.641  -7.536  1.00  0.00    -0.206 F 
ATOM    100  C   UNL     1       0.430   5.507  -5.617  1.00  0.00     0.060 A 
BRANCH 100 101
ATOM    101  S   UNL     1      -0.021   6.665  -4.317  1.00  0.00     0.124 S 
ATOM    102  O   UNL     1      -0.502   7.799  -5.099  1.00  0.00    -0.237 OA
ATOM    103  O   UNL     1      -1.041   5.932  -3.572  1.00  0.00    -0.237 OA
ATOM    104  O   UNL     1       1.235   6.872  -3.603  1.00  0.00    -0.744 OA
ENDBRANCH 100 101
ENDBRANCH  68  93
ENDBRANCH  42  43
ENDBRANCH  35  37
ENDBRANCH  34  35
ENDBRANCH  33  34
ENDBRANCH  32  33
ENDBRANCH  31  32
ENDBRANCH  30  31
ENDBRANCH   1  30
TORSDOF 25
