REMARK SMILES CC[C@H]1SC[C@H](C(=O)OCCOCCOCCOC(=O)c2ccc(-c3c4nc(c(-c5c(F)cc(S(=O)(=O)[O-])cc5F)c5ccc([nH]5)c(-c5c(F)cc(S(=O)(=O)[O-])cc5F)c5nc(c(-c6c(F)cc(S(=O)(=O)[O-])cc6F)c6ccc3[nH]6)C=C5)C=C4)cc2)N1C(=O)C[C@@H]1CSCC[NH2+]1
REMARK SMILES IDX 13 1 12 2 11 3 10 4 9 5 7 6 8 7 6 8 3 9 4 10 87 11 5 12 2 13
REMARK SMILES IDX 1 14 88 15 89 16 90 17 91 18 92 19 96 20 93 21 95 22 94 25
REMARK SMILES IDX 14 26 15 27 16 28 17 29 18 30 19 31 20 32 21 33 22 34 86 35
REMARK SMILES IDX 23 36 85 37 24 38 25 39 26 40 79 41 27 42 84 43 78 44 80 45
REMARK SMILES IDX 28 46 83 47 77 48 76 49 29 51 63 52 42 53 62 54 43 55 46 56
REMARK SMILES IDX 61 57 81 58 44 59 45 60 60 62 82 63 47 64 30 65 31 66 40 67
REMARK SMILES IDX 32 68 33 69 39 70 41 71 34 72 35 73 36 74 37 75 38 76 64 77
REMARK SMILES IDX 65 78 74 79 66 80 67 81 73 82 75 83 68 84 69 85 70 86 71 87
REMARK SMILES IDX 72 88 48 89 49 90 58 91 50 92 51 93 57 94 59 95 52 96 53 97
REMARK SMILES IDX 54 98 55 99 56 100
REMARK H PARENT 96 23 96 24 80 50 46 61
REMARK Flexibility Score: inf
ROOT
ATOM      1  C   UNL     1       5.037  -2.393   4.080  1.00  0.00     0.188 C 
ENDROOT
BRANCH   1   2
ATOM      2  O   UNL     1       6.308  -2.869   3.640  1.00  0.00    -0.376 OA
BRANCH   2   3
ATOM      3  C   UNL     1       7.122  -2.028   2.841  1.00  0.00     0.202 C 
BRANCH   3   4
ATOM      4  C   UNL     1       6.862  -2.117   1.334  1.00  0.00     0.261 C 
BRANCH   4   5
ATOM      5  O   UNL     1       5.651  -1.483   0.877  1.00  0.00    -0.462 OA
BRANCH   5   6
ATOM      6  C   UNL     1       4.538  -2.271   0.802  1.00  0.00     0.329 C 
ATOM      7  O   UNL     1       4.454  -3.403   1.256  1.00  0.00    -0.250 OA
BRANCH   6   8
ATOM      8  C   UNL     1       3.456  -1.598  -0.059  1.00  0.00     0.206 C 
ATOM      9  C   UNL     1       1.202  -2.625  -0.056  1.00  0.00     0.144 C 
ATOM     10  S   UNL     1       2.211  -3.647  -1.169  1.00  0.00    -0.134 SA
ATOM     11  N   UNL     1       2.086  -1.607   0.516  1.00  0.00    -0.316 N 
ATOM     12  C   UNL     1       3.465  -2.369  -1.379  1.00  0.00     0.109 C 
BRANCH   9  13
ATOM     13  C   UNL     1       0.039  -2.032  -0.872  1.00  0.00     0.033 C 
ATOM     14  C   UNL     1       0.422  -0.918  -1.846  1.00  0.00     0.007 C 
ENDBRANCH   9  13
BRANCH  11  15
ATOM     15  C   UNL     1       1.741  -0.649   1.464  1.00  0.00     0.230 C 
ATOM     16  O   UNL     1       2.555   0.220   1.785  1.00  0.00    -0.275 OA
BRANCH  15  17
ATOM     17  C   UNL     1       0.419  -0.780   2.228  1.00  0.00     0.166 C 
BRANCH  17  18
ATOM     18  C   UNL     1      -0.673   0.318   2.237  1.00  0.00     0.201 C 
ATOM     19  C   UNL     1      -0.975   1.062   0.929  1.00  0.00     0.135 C 
ATOM     20  N   UNL     1      -0.636   1.223   3.409  1.00  0.00    -0.342 N 
ATOM     21  S   UNL     1       0.222   2.357   0.510  1.00  0.00    -0.150 SA
ATOM     22  C   UNL     1       0.366   2.287   3.301  1.00  0.00     0.271 C 
ATOM     23  H   UNL     1      -0.428   0.667   4.238  1.00  0.00     0.346 HD
ATOM     24  H   UNL     1      -1.548   1.677   3.463  1.00  0.00     0.346 HD
ATOM     25  C   UNL     1       0.167   3.226   2.107  1.00  0.00     0.131 C 
ENDBRANCH  17  18
ENDBRANCH  15  17
ENDBRANCH  11  15
ENDBRANCH   6   8
ENDBRANCH   5   6
ENDBRANCH   4   5
ENDBRANCH   3   4
ENDBRANCH   2   3
ENDBRANCH   1   2
BRANCH   1  26
ATOM     26  C   UNL     1       4.726  -0.897   3.976  1.00  0.00     0.188 C 
BRANCH  26  27
ATOM     27  O   UNL     1       5.572  -0.147   4.851  1.00  0.00    -0.376 OA
BRANCH  27  28
ATOM     28  C   UNL     1       4.846   0.678   5.761  1.00  0.00     0.202 C 
BRANCH  28  29
ATOM     29  C   UNL     1       4.576  -0.060   7.078  1.00  0.00     0.261 C 
BRANCH  29  30
ATOM     30  O   UNL     1       3.785  -1.256   6.942  1.00  0.00    -0.460 OA
BRANCH  30  31
ATOM     31  C   UNL     1       2.495  -1.072   6.601  1.00  0.00     0.338 C 
ATOM     32  O   UNL     1       1.936  -0.008   6.373  1.00  0.00    -0.246 OA
BRANCH  31  33
ATOM     33  C   UNL     1       1.845  -2.377   6.410  1.00  0.00     0.060 A 
ATOM     34  C   UNL     1       1.471  -2.743   5.117  1.00  0.00     0.016 A 
ATOM     35  C   UNL     1       1.486  -3.172   7.495  1.00  0.00     0.016 A 
ATOM     36  C   UNL     1       0.620  -3.825   4.908  1.00  0.00     0.010 A 
ATOM     37  C   UNL     1       0.687  -4.300   7.277  1.00  0.00     0.010 A 
ATOM     38  C   UNL     1       0.197  -4.604   5.991  1.00  0.00    -0.014 A 
BRANCH  38  39
ATOM     39  C   UNL     1      -0.838  -5.660   5.809  1.00  0.00     0.031 A 
ATOM     40  C   UNL     1      -2.170  -5.513   6.500  1.00  0.00     0.074 A 
ATOM     41  C   UNL     1      -0.619  -6.728   5.018  1.00  0.00     0.049 A 
ATOM     42  N   UNL     1      -3.134  -6.386   6.643  1.00  0.00    -0.248 NA
ATOM     43  C   UNL     1      -2.448  -4.207   7.120  1.00  0.00     0.031 C 
ATOM     44  C   UNL     1       0.585  -6.965   4.221  1.00  0.00     0.029 A 
ATOM     45  N   UNL     1      -1.411  -7.820   4.757  1.00  0.00    -0.354 N 
ATOM     46  C   UNL     1      -4.104  -5.757   7.416  1.00  0.00     0.074 A 
ATOM     47  C   UNL     1      -3.614  -4.428   7.710  1.00  0.00     0.031 C 
ATOM     48  C   UNL     1       0.448  -8.122   3.553  1.00  0.00     0.029 A 
ATOM     49  C   UNL     1      -0.818  -8.745   3.931  1.00  0.00     0.049 A 
ATOM     50  H   UNL     1      -2.317  -7.930   5.127  1.00  0.00     0.167 HD
ATOM     51  C   UNL     1      -5.294  -6.244   7.844  1.00  0.00     0.037 A 
ATOM     52  C   UNL     1      -1.223  -9.975   3.556  1.00  0.00     0.037 A 
ATOM     53  C   UNL     1      -5.803  -7.548   7.510  1.00  0.00     0.049 A 
ATOM     54  C   UNL     1      -2.524 -10.519   4.082  1.00  0.00     0.074 A 
ATOM     55  C   UNL     1      -6.997  -8.133   7.895  1.00  0.00     0.029 A 
ATOM     56  N   UNL     1      -5.153  -8.466   6.698  1.00  0.00    -0.354 N 
ATOM     57  N   UNL     1      -3.399  -9.944   4.873  1.00  0.00    -0.248 NA
ATOM     58  C   UNL     1      -2.884 -11.886   3.681  1.00  0.00     0.031 C 
ATOM     59  C   UNL     1      -7.055  -9.417   7.339  1.00  0.00     0.029 A 
ATOM     60  C   UNL     1      -5.915  -9.616   6.577  1.00  0.00     0.049 A 
ATOM     61  H   UNL     1      -4.278  -8.321   6.270  1.00  0.00     0.167 HD
ATOM     62  C   UNL     1      -4.417 -10.874   5.054  1.00  0.00     0.074 A 
ATOM     63  C   UNL     1      -4.057 -12.044   4.279  1.00  0.00     0.031 C 
ATOM     64  C   UNL     1      -5.546 -10.771   5.798  1.00  0.00     0.037 A 
BRANCH  51  65
ATOM     65  C   UNL     1      -6.108  -5.373   8.760  1.00  0.00     0.058 A 
ATOM     66  C   UNL     1      -6.796  -4.241   8.296  1.00  0.00     0.135 A 
ATOM     67  C   UNL     1      -6.203  -5.684  10.126  1.00  0.00     0.135 A 
ATOM     68  F   UNL     1      -6.722  -3.888   7.003  1.00  0.00    -0.206 F 
ATOM     69  C   UNL     1      -7.523  -3.429   9.161  1.00  0.00     0.059 A 
ATOM     70  C   UNL     1      -6.944  -4.900  11.005  1.00  0.00     0.059 A 
ATOM     71  F   UNL     1      -5.563  -6.754  10.622  1.00  0.00    -0.206 F 
ATOM     72  C   UNL     1      -7.585  -3.763  10.515  1.00  0.00     0.060 A 
BRANCH  72  73
ATOM     73  S   UNL     1      -8.515  -2.691  11.632  1.00  0.00     0.124 S 
ATOM     74  O   UNL     1      -7.597  -1.566  11.784  1.00  0.00    -0.237 OA
ATOM     75  O   UNL     1      -9.729  -2.419  10.870  1.00  0.00    -0.237 OA
ATOM     76  O   UNL     1      -8.697  -3.517  12.821  1.00  0.00    -0.744 OA
ENDBRANCH  72  73
ENDBRANCH  51  65
BRANCH  52  77
ATOM     77  C   UNL     1      -0.362 -10.797   2.665  1.00  0.00     0.058 A 
ATOM     78  C   UNL     1      -0.734 -11.053   1.338  1.00  0.00     0.135 A 
ATOM     79  C   UNL     1       0.856 -11.329   3.118  1.00  0.00     0.135 A 
ATOM     80  F   UNL     1      -1.897 -10.580   0.864  1.00  0.00    -0.206 F 
ATOM     81  C   UNL     1       0.069 -11.809   0.490  1.00  0.00     0.059 A 
ATOM     82  C   UNL     1       1.688 -12.066   2.282  1.00  0.00     0.059 A 
ATOM     83  F   UNL     1       1.258 -11.107   4.379  1.00  0.00    -0.206 F 
ATOM     84  C   UNL     1       1.281 -12.308   0.970  1.00  0.00     0.060 A 
BRANCH  84  85
ATOM     85  S   UNL     1       2.349 -13.234  -0.155  1.00  0.00     0.124 S 
ATOM     86  O   UNL     1       1.673 -14.526  -0.202  1.00  0.00    -0.237 OA
ATOM     87  O   UNL     1       2.282 -12.434  -1.374  1.00  0.00    -0.237 OA
ATOM     88  O   UNL     1       3.641 -13.220   0.524  1.00  0.00    -0.744 OA
ENDBRANCH  84  85
ENDBRANCH  52  77
BRANCH  64  89
ATOM     89  C   UNL     1      -6.490 -11.940   5.787  1.00  0.00     0.058 A 
ATOM     90  C   UNL     1      -6.215 -13.114   6.505  1.00  0.00     0.135 A 
ATOM     91  C   UNL     1      -7.704 -11.867   5.086  1.00  0.00     0.135 A 
ATOM     92  F   UNL     1      -5.065 -13.236   7.186  1.00  0.00    -0.206 F 
ATOM     93  C   UNL     1      -7.103 -14.185   6.511  1.00  0.00     0.059 A 
ATOM     94  C   UNL     1      -8.617 -12.917   5.096  1.00  0.00     0.059 A 
ATOM     95  F   UNL     1      -8.019 -10.761   4.393  1.00  0.00    -0.206 F 
ATOM     96  C   UNL     1      -8.301 -14.078   5.802  1.00  0.00     0.060 A 
BRANCH  96  97
ATOM     97  S   UNL     1      -9.461 -15.462   5.838  1.00  0.00     0.124 S 
ATOM     98  O   UNL     1      -8.833 -16.395   4.909  1.00  0.00    -0.237 OA
ATOM     99  O   UNL     1      -9.438 -15.856   7.244  1.00  0.00    -0.237 OA
ATOM    100  O   UNL     1     -10.713 -14.866   5.382  1.00  0.00    -0.744 OA
ENDBRANCH  96  97
ENDBRANCH  64  89
ENDBRANCH  38  39
ENDBRANCH  31  33
ENDBRANCH  30  31
ENDBRANCH  29  30
ENDBRANCH  28  29
ENDBRANCH  27  28
ENDBRANCH  26  27
ENDBRANCH   1  26
TORSDOF 24
