REMARK SMILES NC(=O)C[C@H](NC(=O)c1cccc2[nH]ccc12)C(=O)OCCOCCOCCOC(=O)c1ccc(-c2c3nc(c(-c4c(F)cc(S(=O)(=O)[O-])cc4F)c4ccc([nH]4)c(-c4c(F)cc(S(=O)(=O)[O-])cc4F)c4nc(c(-c5c(F)cc(S(=O)(=O)[O-])cc5F)c5ccc2[nH]5)C=C4)C=C3)cc1
REMARK SMILES IDX 25 1 24 2 23 3 22 4 21 5 20 6 18 7 19 8 5 9 4 10 2 11 1 12
REMARK SMILES IDX 3 15 6 16 7 17 8 19 9 20 10 21 17 22 11 23 13 24 16 25 12 26
REMARK SMILES IDX 14 27 15 28 26 30 27 31 28 32 29 33 30 34 31 35 32 36 33 37
REMARK SMILES IDX 97 38 34 39 96 40 35 41 36 42 37 43 90 44 38 45 95 46 89 47
REMARK SMILES IDX 91 48 39 49 94 50 88 51 87 52 40 54 74 55 53 56 73 57 54 58
REMARK SMILES IDX 57 59 72 60 92 61 55 62 56 63 71 65 93 66 58 67 41 68 42 69
REMARK SMILES IDX 51 70 43 71 44 72 50 73 52 74 45 75 46 76 47 77 48 78 49 79
REMARK SMILES IDX 75 80 76 81 85 82 77 83 78 84 84 85 86 86 79 87 80 88 81 89
REMARK SMILES IDX 82 90 83 91 59 92 60 93 69 94 61 95 62 96 68 97 70 98 63 99
REMARK SMILES IDX 64 100 65 101 66 102 67 103
REMARK H PARENT 1 13 1 14 6 18 14 29 91 53 57 64
REMARK Flexibility Score: inf
ROOT
ATOM      1  C   UNL     1       0.933   5.312   1.020  1.00  0.00     0.188 C 
ENDROOT
BRANCH   1   2
ATOM      2  C   UNL     1       1.658   6.061   2.150  1.00  0.00     0.188 C 
BRANCH   2   3
ATOM      3  O   UNL     1       2.639   6.953   1.679  1.00  0.00    -0.376 OA
BRANCH   3   4
ATOM      4  C   UNL     1       3.997   6.571   1.670  1.00  0.00     0.202 C 
BRANCH   4   5
ATOM      5  C   UNL     1       4.508   5.133   1.473  1.00  0.00     0.261 C 
BRANCH   5   6
ATOM      6  O   UNL     1       3.592   4.095   1.107  1.00  0.00    -0.462 OA
BRANCH   6   7
ATOM      7  C   UNL     1       3.324   3.199   2.104  1.00  0.00     0.329 C 
ATOM      8  O   UNL     1       3.654   3.369   3.272  1.00  0.00    -0.250 OA
BRANCH   7   9
ATOM      9  C   UNL     1       2.740   1.874   1.578  1.00  0.00     0.201 C 
BRANCH   9  10
ATOM     10  C   UNL     1       3.888   0.915   1.260  1.00  0.00     0.136 C 
BRANCH  10  11
ATOM     11  C   UNL     1       4.828   0.783   2.429  1.00  0.00     0.220 C 
ATOM     12  N   UNL     1       5.942   1.567   2.371  1.00  0.00    -0.370 N 
ATOM     13  H   UNL     1       6.604   1.537   3.098  1.00  0.00     0.159 HD
ATOM     14  H   UNL     1       6.083   2.165   1.601  1.00  0.00     0.159 HD
ATOM     15  O   UNL     1       4.609   0.052   3.386  1.00  0.00    -0.275 OA
ENDBRANCH  10  11
ENDBRANCH   9  10
BRANCH   9  16
ATOM     16  N   UNL     1       1.867   2.041   0.401  1.00  0.00    -0.338 N 
ATOM     17  C   UNL     1       0.927   1.178  -0.116  1.00  0.00     0.252 C 
ATOM     18  H   UNL     1       1.970   2.892  -0.084  1.00  0.00     0.164 HD
ATOM     19  O   UNL     1       0.263   1.503  -1.095  1.00  0.00    -0.269 OA
BRANCH  17  20
ATOM     20  C   UNL     1       0.794  -0.179   0.451  1.00  0.00     0.049 A 
ATOM     21  C   UNL     1       0.460  -0.389   1.797  1.00  0.00     0.014 A 
ATOM     22  C   UNL     1       1.067  -1.289  -0.381  1.00  0.00     0.012 A 
ATOM     23  C   UNL     1       0.516  -1.669   2.345  1.00  0.00     0.003 A 
ATOM     24  C   UNL     1       1.115  -2.557   0.202  1.00  0.00     0.046 A 
ATOM     25  C   UNL     1       1.351  -1.462  -1.767  1.00  0.00     0.029 A 
ATOM     26  C   UNL     1       0.869  -2.773   1.564  1.00  0.00     0.027 A 
ATOM     27  N   UNL     1       1.442  -3.450  -0.793  1.00  0.00    -0.361 N 
ATOM     28  C   UNL     1       1.569  -2.801  -1.992  1.00  0.00     0.083 A 
ATOM     29  H   UNL     1       1.568  -4.418  -0.661  1.00  0.00     0.166 HD
ENDBRANCH  17  20
ENDBRANCH   9  16
ENDBRANCH   7   9
ENDBRANCH   6   7
ENDBRANCH   5   6
ENDBRANCH   4   5
ENDBRANCH   3   4
ENDBRANCH   2   3
ENDBRANCH   1   2
BRANCH   1  30
ATOM     30  O   UNL     1       1.271   5.563  -0.339  1.00  0.00    -0.376 OA
BRANCH  30  31
ATOM     31  C   UNL     1       1.343   6.912  -0.793  1.00  0.00     0.202 C 
BRANCH  31  32
ATOM     32  C   UNL     1       0.185   7.898  -0.545  1.00  0.00     0.261 C 
BRANCH  32  33
ATOM     33  O   UNL     1      -0.491   7.758   0.711  1.00  0.00    -0.460 OA
BRANCH  33  34
ATOM     34  C   UNL     1      -1.729   7.205   0.635  1.00  0.00     0.338 C 
ATOM     35  O   UNL     1      -2.344   6.909  -0.375  1.00  0.00    -0.246 OA
BRANCH  34  36
ATOM     36  C   UNL     1      -2.156   6.798   1.991  1.00  0.00     0.060 A 
ATOM     37  C   UNL     1      -2.481   5.449   2.198  1.00  0.00     0.016 A 
ATOM     38  C   UNL     1      -2.232   7.715   3.041  1.00  0.00     0.016 A 
ATOM     39  C   UNL     1      -2.905   5.014   3.451  1.00  0.00     0.010 A 
ATOM     40  C   UNL     1      -2.696   7.285   4.289  1.00  0.00     0.010 A 
ATOM     41  C   UNL     1      -3.062   5.941   4.488  1.00  0.00    -0.014 A 
BRANCH  41  42
ATOM     42  C   UNL     1      -3.838   5.553   5.690  1.00  0.00     0.031 A 
ATOM     43  C   UNL     1      -5.325   5.782   5.665  1.00  0.00     0.074 A 
ATOM     44  C   UNL     1      -3.252   4.991   6.762  1.00  0.00     0.049 A 
ATOM     45  N   UNL     1      -6.214   5.570   6.599  1.00  0.00    -0.248 NA
ATOM     46  C   UNL     1      -5.882   6.323   4.413  1.00  0.00     0.031 C 
ATOM     47  C   UNL     1      -1.831   4.673   6.885  1.00  0.00     0.029 A 
ATOM     48  N   UNL     1      -3.792   4.593   7.960  1.00  0.00    -0.354 N 
ATOM     49  C   UNL     1      -7.432   5.950   6.050  1.00  0.00     0.074 A 
ATOM     50  C   UNL     1      -7.168   6.429   4.711  1.00  0.00     0.031 C 
ATOM     51  C   UNL     1      -1.608   4.144   8.103  1.00  0.00     0.029 A 
ATOM     52  C   UNL     1      -2.864   4.111   8.851  1.00  0.00     0.049 A 
ATOM     53  H   UNL     1      -4.754   4.649   8.161  1.00  0.00     0.167 HD
ATOM     54  C   UNL     1      -8.664   5.901   6.608  1.00  0.00     0.037 A 
ATOM     55  C   UNL     1      -3.014   3.710  10.130  1.00  0.00     0.037 A 
ATOM     56  C   UNL     1      -8.925   5.438   7.943  1.00  0.00     0.049 A 
ATOM     57  C   UNL     1      -4.387   3.736  10.758  1.00  0.00     0.074 A 
ATOM     58  C   UNL     1     -10.138   5.357   8.604  1.00  0.00     0.029 A 
ATOM     59  N   UNL     1      -7.956   4.984   8.824  1.00  0.00    -0.354 N 
ATOM     60  N   UNL     1      -5.533   4.091  10.226  1.00  0.00    -0.248 NA
ATOM     61  C   UNL     1      -4.486   3.307  12.161  1.00  0.00     0.031 C 
ATOM     62  C   UNL     1      -9.896   4.888   9.900  1.00  0.00     0.029 A 
ATOM     63  C   UNL     1      -8.540   4.636  10.030  1.00  0.00     0.049 A 
ATOM     64  H   UNL     1      -6.995   4.918   8.622  1.00  0.00     0.167 HD
ATOM     65  C   UNL     1      -6.490   3.899  11.218  1.00  0.00     0.074 A 
ATOM     66  C   UNL     1      -5.791   3.392  12.380  1.00  0.00     0.031 C 
ATOM     67  C   UNL     1      -7.828   4.119  11.171  1.00  0.00     0.037 A 
BRANCH  54  68
ATOM     68  C   UNL     1      -9.815   6.389   5.777  1.00  0.00     0.058 A 
ATOM     69  C   UNL     1     -10.313   5.639   4.699  1.00  0.00     0.135 A 
ATOM     70  C   UNL     1     -10.434   7.614   6.068  1.00  0.00     0.135 A 
ATOM     71  F   UNL     1      -9.739   4.473   4.364  1.00  0.00    -0.206 F 
ATOM     72  C   UNL     1     -11.374   6.098   3.926  1.00  0.00     0.059 A 
ATOM     73  C   UNL     1     -11.511   8.082   5.322  1.00  0.00     0.059 A 
ATOM     74  F   UNL     1      -9.988   8.372   7.082  1.00  0.00    -0.206 F 
ATOM     75  C   UNL     1     -11.966   7.322   4.245  1.00  0.00     0.060 A 
BRANCH  75  76
ATOM     76  S   UNL     1     -13.347   7.903   3.238  1.00  0.00     0.124 S 
ATOM     77  O   UNL     1     -12.661   8.330   2.022  1.00  0.00    -0.237 OA
ATOM     78  O   UNL     1     -14.170   6.705   3.113  1.00  0.00    -0.237 OA
ATOM     79  O   UNL     1     -13.925   8.976   4.042  1.00  0.00    -0.744 OA
ENDBRANCH  75  76
ENDBRANCH  54  68
BRANCH  55  80
ATOM     80  C   UNL     1      -1.835   3.265  10.920  1.00  0.00     0.058 A 
ATOM     81  C   UNL     1      -1.679   1.923  11.298  1.00  0.00     0.135 A 
ATOM     82  C   UNL     1      -0.854   4.179  11.335  1.00  0.00     0.135 A 
ATOM     83  F   UNL     1      -2.598   1.014  10.938  1.00  0.00    -0.206 F 
ATOM     84  C   UNL     1      -0.604   1.506  12.078  1.00  0.00     0.059 A 
ATOM     85  C   UNL     1       0.242   3.781  12.095  1.00  0.00     0.059 A 
ATOM     86  F   UNL     1      -0.953   5.473  10.995  1.00  0.00    -0.206 F 
ATOM     87  C   UNL     1       0.351   2.444  12.473  1.00  0.00     0.060 A 
BRANCH  87  88
ATOM     88  S   UNL     1       1.760   1.889  13.458  1.00  0.00     0.124 S 
ATOM     89  O   UNL     1       1.148   1.712  14.770  1.00  0.00    -0.237 OA
ATOM     90  O   UNL     1       2.157   0.666  12.769  1.00  0.00    -0.237 OA
ATOM     91  O   UNL     1       2.703   2.998  13.345  1.00  0.00    -0.744 OA
ENDBRANCH  87  88
ENDBRANCH  55  80
BRANCH  67  92
ATOM     92  C   UNL     1      -8.633   3.775  12.393  1.00  0.00     0.058 A 
ATOM     93  C   UNL     1      -8.606   4.575  13.546  1.00  0.00     0.135 A 
ATOM     94  C   UNL     1      -9.490   2.662  12.387  1.00  0.00     0.135 A 
ATOM     95  F   UNL     1      -7.802   5.648  13.604  1.00  0.00    -0.206 F 
ATOM     96  C   UNL     1      -9.385   4.271  14.658  1.00  0.00     0.059 A 
ATOM     97  C   UNL     1     -10.295   2.353  13.479  1.00  0.00     0.059 A 
ATOM     98  F   UNL     1      -9.564   1.872  11.304  1.00  0.00    -0.206 F 
ATOM     99  C   UNL     1     -10.227   3.158  14.615  1.00  0.00     0.060 A 
BRANCH  99 100
ATOM    100  S   UNL     1     -11.258   2.791  16.052  1.00  0.00     0.124 S 
ATOM    101  O   UNL     1     -10.284   2.211  16.971  1.00  0.00    -0.237 OA
ATOM    102  O   UNL     1     -11.768   4.109  16.418  1.00  0.00    -0.237 OA
ATOM    103  O   UNL     1     -12.256   1.865  15.525  1.00  0.00    -0.744 OA
ENDBRANCH  99 100
ENDBRANCH  67  92
ENDBRANCH  41  42
ENDBRANCH  34  36
ENDBRANCH  33  34
ENDBRANCH  32  33
ENDBRANCH  31  32
ENDBRANCH  30  31
ENDBRANCH   1  30
TORSDOF 24
