REMARK SMILES CCC1(C(=O)N[C@H]2C=C[C@H](C(=O)OCCOCCOCCOC(=O)c3ccc(-c4c5nc(c(-c6c(F)cc(S(=O)(=O)[O-])cc6F)c6ccc([nH]6)c(-c6c(F)cc(S(=O)(=O)[O-])cc6F)c6nc(c(-c7c(F)cc(S(=O)(=O)[O-])cc7F)c7ccc4[nH]7)C=C6)C=C5)cc3)C2)CC[NH2+]CC1
REMARK SMILES IDX 17 1 16 2 15 3 14 4 13 5 11 6 12 7 10 8 7 9 8 10 91 11 9 12
REMARK SMILES IDX 6 13 4 14 5 15 3 17 92 18 96 19 93 20 95 21 94 22 2 25 1 26
REMARK SMILES IDX 18 27 19 28 20 29 21 30 22 31 23 32 24 33 25 34 26 35 90 36
REMARK SMILES IDX 27 37 89 38 28 39 29 40 30 41 83 42 31 43 88 44 82 45 84 46
REMARK SMILES IDX 32 47 87 48 81 49 80 50 33 52 67 53 46 54 66 55 47 56 50 57
REMARK SMILES IDX 65 58 85 59 48 60 49 61 64 63 86 64 51 65 34 66 35 67 44 68
REMARK SMILES IDX 36 69 37 70 43 71 45 72 38 73 39 74 40 75 41 76 42 77 68 78
REMARK SMILES IDX 69 79 78 80 70 81 71 82 77 83 79 84 72 85 73 86 74 87 75 88
REMARK SMILES IDX 76 89 52 90 53 91 62 92 54 93 55 94 61 95 63 96 56 97 57 98
REMARK SMILES IDX 58 99 59 100 60 101
REMARK H PARENT 6 16 94 23 94 24 84 51 50 62
REMARK Flexibility Score: inf
ROOT
ATOM      1  C   UNL     1       4.153  -7.073  -1.440  1.00  0.00     0.188 C 
ENDROOT
BRANCH   1   2
ATOM      2  O   UNL     1       4.641  -8.394  -1.224  1.00  0.00    -0.376 OA
BRANCH   2   3
ATOM      3  C   UNL     1       5.198  -9.048  -2.362  1.00  0.00     0.202 C 
BRANCH   3   4
ATOM      4  C   UNL     1       4.220  -9.326  -3.513  1.00  0.00     0.261 C 
BRANCH   4   5
ATOM      5  O   UNL     1       3.624  -8.140  -4.098  1.00  0.00    -0.463 OA
BRANCH   5   6
ATOM      6  C   UNL     1       2.260  -8.105  -4.082  1.00  0.00     0.312 C 
ATOM      7  O   UNL     1       1.564  -9.045  -3.704  1.00  0.00    -0.252 OA
BRANCH   6   8
ATOM      8  C   UNL     1       1.652  -6.819  -4.670  1.00  0.00     0.124 C 
ATOM      9  C   UNL     1       1.675  -4.571  -3.516  1.00  0.00     0.106 C 
ATOM     10  C   UNL     1       0.428  -5.343  -3.284  1.00  0.00    -0.006 C 
ATOM     11  C   UNL     1       2.404  -5.476  -4.563  1.00  0.00     0.048 C 
ATOM     12  C   UNL     1       0.391  -6.517  -3.920  1.00  0.00    -0.014 C 
BRANCH   9  13
ATOM     13  N   UNL     1       1.433  -3.215  -4.043  1.00  0.00    -0.349 N 
ATOM     14  C   UNL     1       1.011  -1.995  -3.588  1.00  0.00     0.227 C 
ATOM     15  O   UNL     1       1.276  -1.065  -4.364  1.00  0.00    -0.274 OA
ATOM     16  H   UNL     1       1.636  -3.175  -5.006  1.00  0.00     0.164 HD
BRANCH  14  17
ATOM     17  C   UNL     1       0.213  -1.717  -2.273  1.00  0.00     0.060 C 
ATOM     18  C   UNL     1      -1.142  -2.487  -2.389  1.00  0.00     0.078 C 
ATOM     19  C   UNL     1       1.052  -2.160  -1.069  1.00  0.00     0.078 C 
ATOM     20  C   UNL     1      -1.715  -3.044  -1.078  1.00  0.00     0.261 C 
ATOM     21  C   UNL     1       0.189  -2.409   0.154  1.00  0.00     0.261 C 
ATOM     22  N   UNL     1      -0.687  -3.527  -0.164  1.00  0.00    -0.346 N 
ATOM     23  H   UNL     1      -0.150  -4.272  -0.608  1.00  0.00     0.346 HD
ATOM     24  H   UNL     1      -1.112  -3.900   0.685  1.00  0.00     0.346 HD
BRANCH  17  25
ATOM     25  C   UNL     1      -0.176  -0.179  -2.139  1.00  0.00     0.014 C 
ATOM     26  C   UNL     1       0.593   0.709  -1.156  1.00  0.00     0.005 C 
ENDBRANCH  17  25
ENDBRANCH  14  17
ENDBRANCH   9  13
ENDBRANCH   6   8
ENDBRANCH   5   6
ENDBRANCH   4   5
ENDBRANCH   3   4
ENDBRANCH   2   3
ENDBRANCH   1   2
BRANCH   1  27
ATOM     27  C   UNL     1       5.211  -6.079  -1.922  1.00  0.00     0.188 C 
BRANCH  27  28
ATOM     28  O   UNL     1       5.893  -6.433  -3.104  1.00  0.00    -0.376 OA
BRANCH  28  29
ATOM     29  C   UNL     1       7.068  -5.707  -3.445  1.00  0.00     0.202 C 
BRANCH  29  30
ATOM     30  C   UNL     1       7.861  -4.774  -2.487  1.00  0.00     0.261 C 
BRANCH  30  31
ATOM     31  O   UNL     1       7.230  -4.304  -1.284  1.00  0.00    -0.460 OA
BRANCH  31  32
ATOM     32  C   UNL     1       6.527  -3.156  -1.358  1.00  0.00     0.338 C 
ATOM     33  O   UNL     1       6.396  -2.448  -2.353  1.00  0.00    -0.246 OA
BRANCH  32  34
ATOM     34  C   UNL     1       5.727  -2.996  -0.124  1.00  0.00     0.060 A 
ATOM     35  C   UNL     1       4.398  -3.392  -0.181  1.00  0.00     0.016 A 
ATOM     36  C   UNL     1       6.203  -2.412   1.051  1.00  0.00     0.016 A 
ATOM     37  C   UNL     1       3.551  -3.223   0.903  1.00  0.00     0.010 A 
ATOM     38  C   UNL     1       5.307  -2.154   2.119  1.00  0.00     0.010 A 
ATOM     39  C   UNL     1       3.944  -2.501   2.030  1.00  0.00    -0.014 A 
BRANCH  39  40
ATOM     40  C   UNL     1       2.857  -1.899   2.886  1.00  0.00     0.031 A 
ATOM     41  C   UNL     1       2.679  -0.390   2.895  1.00  0.00     0.074 A 
ATOM     42  C   UNL     1       1.855  -2.634   3.425  1.00  0.00     0.049 A 
ATOM     43  N   UNL     1       1.830   0.344   3.573  1.00  0.00    -0.248 NA
ATOM     44  C   UNL     1       3.556   0.393   2.009  1.00  0.00     0.031 C 
ATOM     45  C   UNL     1       1.727  -4.089   3.335  1.00  0.00     0.029 A 
ATOM     46  N   UNL     1       0.685  -2.244   4.048  1.00  0.00    -0.354 N 
ATOM     47  C   UNL     1       2.144   1.667   3.279  1.00  0.00     0.074 A 
ATOM     48  C   UNL     1       3.225   1.637   2.320  1.00  0.00     0.031 C 
ATOM     49  C   UNL     1       0.507  -4.451   3.768  1.00  0.00     0.029 A 
ATOM     50  C   UNL     1      -0.194  -3.279   4.291  1.00  0.00     0.049 A 
ATOM     51  H   UNL     1       0.496  -1.311   4.297  1.00  0.00     0.167 HD
ATOM     52  C   UNL     1       1.603   2.805   3.775  1.00  0.00     0.037 A 
ATOM     53  C   UNL     1      -1.406  -3.300   4.889  1.00  0.00     0.037 A 
ATOM     54  C   UNL     1       0.458   2.864   4.645  1.00  0.00     0.049 A 
ATOM     55  C   UNL     1      -1.976  -2.031   5.477  1.00  0.00     0.074 A 
ATOM     56  C   UNL     1      -0.114   3.977   5.240  1.00  0.00     0.029 A 
ATOM     57  N   UNL     1      -0.317   1.777   5.011  1.00  0.00    -0.354 N 
ATOM     58  N   UNL     1      -1.550  -0.797   5.353  1.00  0.00    -0.248 NA
ATOM     59  C   UNL     1      -3.167  -2.168   6.332  1.00  0.00     0.031 C 
ATOM     60  C   UNL     1      -1.210   3.556   6.001  1.00  0.00     0.029 A 
ATOM     61  C   UNL     1      -1.349   2.189   5.839  1.00  0.00     0.049 A 
ATOM     62  H   UNL     1      -0.159   0.849   4.725  1.00  0.00     0.167 HD
ATOM     63  C   UNL     1      -2.406  -0.020   6.131  1.00  0.00     0.074 A 
ATOM     64  C   UNL     1      -3.408  -0.910   6.674  1.00  0.00     0.031 C 
ATOM     65  C   UNL     1      -2.345   1.309   6.395  1.00  0.00     0.037 A 
BRANCH  52  66
ATOM     66  C   UNL     1       2.312   4.097   3.479  1.00  0.00     0.058 A 
ATOM     67  C   UNL     1       2.205   4.763   2.251  1.00  0.00     0.135 A 
ATOM     68  C   UNL     1       3.076   4.701   4.492  1.00  0.00     0.135 A 
ATOM     69  F   UNL     1       1.509   4.215   1.242  1.00  0.00    -0.206 F 
ATOM     70  C   UNL     1       2.843   5.982   2.034  1.00  0.00     0.059 A 
ATOM     71  C   UNL     1       3.699   5.929   4.307  1.00  0.00     0.059 A 
ATOM     72  F   UNL     1       3.211   4.099   5.685  1.00  0.00    -0.206 F 
ATOM     73  C   UNL     1       3.584   6.558   3.070  1.00  0.00     0.060 A 
BRANCH  73  74
ATOM     74  S   UNL     1       4.388   8.149   2.786  1.00  0.00     0.124 S 
ATOM     75  O   UNL     1       5.487   7.767   1.905  1.00  0.00    -0.237 OA
ATOM     76  O   UNL     1       3.322   8.932   2.170  1.00  0.00    -0.237 OA
ATOM     77  O   UNL     1       4.780   8.576   4.126  1.00  0.00    -0.744 OA
ENDBRANCH  73  74
ENDBRANCH  52  66
BRANCH  53  78
ATOM     78  C   UNL     1      -2.148  -4.586   5.065  1.00  0.00     0.058 A 
ATOM     79  C   UNL     1      -3.422  -4.782   4.508  1.00  0.00     0.135 A 
ATOM     80  C   UNL     1      -1.619  -5.625   5.848  1.00  0.00     0.135 A 
ATOM     81  F   UNL     1      -3.991  -3.812   3.776  1.00  0.00    -0.206 F 
ATOM     82  C   UNL     1      -4.146  -5.953   4.728  1.00  0.00     0.059 A 
ATOM     83  C   UNL     1      -2.304  -6.818   6.048  1.00  0.00     0.059 A 
ATOM     84  F   UNL     1      -0.412  -5.490   6.421  1.00  0.00    -0.206 F 
ATOM     85  C   UNL     1      -3.575  -6.967   5.498  1.00  0.00     0.060 A 
BRANCH  85  86
ATOM     86  S   UNL     1      -4.486  -8.506   5.751  1.00  0.00     0.124 S 
ATOM     87  O   UNL     1      -5.399  -8.132   6.824  1.00  0.00    -0.237 OA
ATOM     88  O   UNL     1      -5.093  -8.728   4.443  1.00  0.00    -0.237 OA
ATOM     89  O   UNL     1      -3.437  -9.454   6.115  1.00  0.00    -0.744 OA
ENDBRANCH  85  86
ENDBRANCH  53  78
BRANCH  65  90
ATOM     90  C   UNL     1      -3.374   1.891   7.328  1.00  0.00     0.058 A 
ATOM     91  C   UNL     1      -3.352   1.610   8.705  1.00  0.00     0.135 A 
ATOM     92  C   UNL     1      -4.366   2.767   6.859  1.00  0.00     0.135 A 
ATOM     93  F   UNL     1      -2.425   0.780   9.210  1.00  0.00    -0.206 F 
ATOM     94  C   UNL     1      -4.295   2.148   9.575  1.00  0.00     0.059 A 
ATOM     95  C   UNL     1      -5.304   3.339   7.717  1.00  0.00     0.059 A 
ATOM     96  F   UNL     1      -4.426   3.085   5.556  1.00  0.00    -0.206 F 
ATOM     97  C   UNL     1      -5.271   3.010   9.071  1.00  0.00     0.060 A 
BRANCH  97  98
ATOM     98  S   UNL     1      -6.484   3.707  10.213  1.00  0.00     0.124 S 
ATOM     99  O   UNL     1      -7.345   2.556  10.465  1.00  0.00    -0.237 OA
ATOM    100  O   UNL     1      -5.652   4.133  11.334  1.00  0.00    -0.237 OA
ATOM    101  O   UNL     1      -7.092   4.789   9.445  1.00  0.00    -0.744 OA
ENDBRANCH  97  98
ENDBRANCH  65  90
ENDBRANCH  39  40
ENDBRANCH  32  34
ENDBRANCH  31  32
ENDBRANCH  30  31
ENDBRANCH  29  30
ENDBRANCH  28  29
ENDBRANCH  27  28
ENDBRANCH   1  27
TORSDOF 23
