REMARK SMILES CC(C)Oc1ccc(-c2ccc(/C(=C\c3ccc(S(C)(=O)=O)cc3)C(=O)OCCOCCOCCOC(=O)c3ccc(-c4c5nc(c(-c6c(F)cc(S(=O)(=O)[O-])cc6F)c6ccc([nH]6)c(-c6c(F)cc(S(=O)(=O)[O-])cc6F)c6nc(c(-c7c(F)cc(S(=O)(=O)[O-])cc7F)c7ccc4[nH]7)C=C6)C=C5)cc3)cc2)cc1
REMARK SMILES IDX 31 1 30 2 29 3 28 4 27 5 25 6 26 7 13 8 14 9 12 10 9 11
REMARK SMILES IDX 10 12 106 13 11 14 105 15 8 16 5 17 6 18 108 19 7 20 107 21
REMARK SMILES IDX 4 22 2 23 1 24 3 25 15 26 16 27 24 28 17 29 23 30 18 31
REMARK SMILES IDX 19 32 20 33 21 34 22 35 32 36 33 37 34 38 35 39 36 40 37 41
REMARK SMILES IDX 38 42 39 43 40 44 104 45 41 46 103 47 42 48 43 49 44 50
REMARK SMILES IDX 97 51 45 52 102 53 96 54 98 55 46 56 101 57 95 58 94 59
REMARK SMILES IDX 47 61 81 62 60 63 80 64 61 65 64 66 79 67 99 68 62 69 63 70
REMARK SMILES IDX 78 72 100 73 65 74 48 75 49 76 58 77 50 78 51 79 57 80 59 81
REMARK SMILES IDX 52 82 53 83 54 84 55 85 56 86 82 87 83 88 92 89 84 90 85 91
REMARK SMILES IDX 91 92 93 93 86 94 87 95 88 96 89 97 90 98 66 99 67 100
REMARK SMILES IDX 76 101 68 102 69 103 75 104 77 105 70 106 71 107 72 108
REMARK SMILES IDX 73 109 74 110
REMARK H PARENT 98 60 64 71
REMARK Flexibility Score: inf
ROOT
ATOM      1  C   UNL     1      -5.774  -1.712   8.601  1.00  0.00     0.188 C 
ENDROOT
BRANCH   1   2
ATOM      2  O   UNL     1      -6.509  -1.182   9.678  1.00  0.00    -0.376 OA
BRANCH   2   3
ATOM      3  C   UNL     1      -7.919  -1.098   9.572  1.00  0.00     0.202 C 
BRANCH   3   4
ATOM      4  C   UNL     1      -8.789  -2.106   8.789  1.00  0.00     0.261 C 
BRANCH   4   5
ATOM      5  O   UNL     1      -8.121  -3.026   7.918  1.00  0.00    -0.460 OA
BRANCH   5   6
ATOM      6  C   UNL     1      -8.182  -2.789   6.578  1.00  0.00     0.338 C 
ATOM      7  O   UNL     1      -8.771  -1.857   6.055  1.00  0.00    -0.246 OA
BRANCH   6   8
ATOM      8  C   UNL     1      -7.314  -3.769   5.825  1.00  0.00     0.067 C 
ATOM      9  C   UNL     1      -7.401  -5.058   6.250  1.00  0.00     0.024 C 
BRANCH   8  10
ATOM     10  C   UNL     1      -6.418  -3.265   4.733  1.00  0.00    -0.011 A 
ATOM     11  C   UNL     1      -4.450  -2.392   2.823  1.00  0.00    -0.018 A 
ATOM     12  C   UNL     1      -5.075  -3.641   2.722  1.00  0.00     0.009 A 
ATOM     13  C   UNL     1      -4.870  -1.563   3.869  1.00  0.00     0.009 A 
ATOM     14  C   UNL     1      -6.071  -4.040   3.622  1.00  0.00     0.009 A 
ATOM     15  C   UNL     1      -5.832  -1.991   4.803  1.00  0.00     0.009 A 
BRANCH  11  16
ATOM     16  C   UNL     1      -3.455  -1.957   1.820  1.00  0.00    -0.018 A 
ATOM     17  C   UNL     1      -1.625  -1.059  -0.155  1.00  0.00     0.119 A 
ATOM     18  C   UNL     1      -2.742  -1.807  -0.514  1.00  0.00     0.047 A 
ATOM     19  C   UNL     1      -1.421  -0.747   1.183  1.00  0.00     0.047 A 
ATOM     20  C   UNL     1      -3.640  -2.253   0.459  1.00  0.00     0.012 A 
ATOM     21  C   UNL     1      -2.319  -1.204   2.160  1.00  0.00     0.012 A 
BRANCH  17  22
ATOM     22  O   UNL     1      -0.897  -0.553  -1.190  1.00  0.00    -0.491 OA
BRANCH  22  23
ATOM     23  C   UNL     1       0.524  -0.749  -1.232  1.00  0.00     0.167 C 
ATOM     24  C   UNL     1       1.308   0.139  -0.273  1.00  0.00     0.052 C 
ATOM     25  C   UNL     1       0.935  -2.218  -1.165  1.00  0.00     0.052 C 
ENDBRANCH  22  23
ENDBRANCH  17  22
ENDBRANCH  11  16
ENDBRANCH   8  10
BRANCH   9  26
ATOM     26  C   UNL     1      -6.757  -6.244   5.661  1.00  0.00    -0.025 A 
ATOM     27  C   UNL     1      -7.599  -7.173   5.032  1.00  0.00     0.009 A 
ATOM     28  C   UNL     1      -5.366  -6.391   5.554  1.00  0.00     0.009 A 
ATOM     29  C   UNL     1      -7.068  -8.150   4.192  1.00  0.00     0.021 A 
ATOM     30  C   UNL     1      -4.827  -7.364   4.702  1.00  0.00     0.021 A 
ATOM     31  C   UNL     1      -5.686  -8.216   4.000  1.00  0.00     0.067 A 
BRANCH  31  32
ATOM     32  S   UNL     1      -5.061  -9.268   2.710  1.00  0.00     0.175 S 
ATOM     33  C   UNL     1      -5.155 -10.895   3.399  1.00  0.00     0.163 C 
ATOM     34  O   UNL     1      -6.006  -9.197   1.611  1.00  0.00    -0.224 OA
ATOM     35  O   UNL     1      -3.661  -8.951   2.509  1.00  0.00    -0.224 OA
ENDBRANCH  31  32
ENDBRANCH   9  26
ENDBRANCH   6   8
ENDBRANCH   5   6
ENDBRANCH   4   5
ENDBRANCH   3   4
ENDBRANCH   2   3
ENDBRANCH   1   2
BRANCH   1  36
ATOM     36  C   UNL     1      -5.359  -3.186   8.804  1.00  0.00     0.188 C 
BRANCH  36  37
ATOM     37  O   UNL     1      -5.768  -3.881   9.973  1.00  0.00    -0.376 OA
BRANCH  37  38
ATOM     38  C   UNL     1      -5.579  -3.261  11.238  1.00  0.00     0.202 C 
BRANCH  38  39
ATOM     39  C   UNL     1      -4.234  -2.610  11.614  1.00  0.00     0.261 C 
BRANCH  39  40
ATOM     40  O   UNL     1      -3.609  -1.792  10.611  1.00  0.00    -0.460 OA
BRANCH  40  41
ATOM     41  C   UNL     1      -2.511  -2.320  10.018  1.00  0.00     0.338 C 
ATOM     42  O   UNL     1      -2.004  -3.412  10.242  1.00  0.00    -0.246 OA
BRANCH  41  43
ATOM     43  C   UNL     1      -2.091  -1.452   8.900  1.00  0.00     0.060 A 
ATOM     44  C   UNL     1      -2.181  -1.935   7.585  1.00  0.00     0.016 A 
ATOM     45  C   UNL     1      -1.562  -0.187   9.152  1.00  0.00     0.016 A 
ATOM     46  C   UNL     1      -1.733  -1.157   6.518  1.00  0.00     0.010 A 
ATOM     47  C   UNL     1      -1.086   0.578   8.084  1.00  0.00     0.010 A 
ATOM     48  C   UNL     1      -1.146   0.088   6.766  1.00  0.00    -0.014 A 
BRANCH  48  49
ATOM     49  C   UNL     1      -0.409   0.804   5.696  1.00  0.00     0.031 A 
ATOM     50  C   UNL     1       1.084   0.642   5.636  1.00  0.00     0.074 A 
ATOM     51  C   UNL     1      -1.038   1.608   4.821  1.00  0.00     0.049 A 
ATOM     52  N   UNL     1       1.961   1.288   4.915  1.00  0.00    -0.248 NA
ATOM     53  C   UNL     1       1.664  -0.382   6.521  1.00  0.00     0.031 C 
ATOM     54  C   UNL     1      -2.484   1.802   4.740  1.00  0.00     0.029 A 
ATOM     55  N   UNL     1      -0.531   2.428   3.842  1.00  0.00    -0.354 N 
ATOM     56  C   UNL     1       3.199   0.769   5.277  1.00  0.00     0.074 A 
ATOM     57  C   UNL     1       2.959  -0.234   6.291  1.00  0.00     0.031 C 
ATOM     58  C   UNL     1      -2.748   2.699   3.773  1.00  0.00     0.029 A 
ATOM     59  C   UNL     1      -1.489   3.187   3.211  1.00  0.00     0.049 A 
ATOM     60  H   UNL     1       0.425   2.468   3.615  1.00  0.00     0.167 HD
ATOM     61  C   UNL     1       4.425   1.105   4.809  1.00  0.00     0.037 A 
ATOM     62  C   UNL     1      -1.358   4.191   2.319  1.00  0.00     0.037 A 
ATOM     63  C   UNL     1       4.654   2.114   3.810  1.00  0.00     0.049 A 
ATOM     64  C   UNL     1       0.023   4.612   1.877  1.00  0.00     0.074 A 
ATOM     65  C   UNL     1       5.857   2.530   3.269  1.00  0.00     0.029 A 
ATOM     66  N   UNL     1       3.660   2.874   3.210  1.00  0.00    -0.354 N 
ATOM     67  N   UNL     1       1.189   4.119   2.226  1.00  0.00    -0.248 NA
ATOM     68  C   UNL     1       0.110   5.734   0.930  1.00  0.00     0.031 C 
ATOM     69  C   UNL     1       5.597   3.580   2.384  1.00  0.00     0.029 A 
ATOM     70  C   UNL     1       4.226   3.770   2.319  1.00  0.00     0.049 A 
ATOM     71  H   UNL     1       2.696   2.789   3.391  1.00  0.00     0.167 HD
ATOM     72  C   UNL     1       2.140   4.840   1.508  1.00  0.00     0.074 A 
ATOM     73  C   UNL     1       1.416   5.807   0.711  1.00  0.00     0.031 C 
ATOM     74  C   UNL     1       3.490   4.707   1.505  1.00  0.00     0.037 A 
BRANCH  61  75
ATOM     75  C   UNL     1       5.612   0.402   5.406  1.00  0.00     0.058 A 
ATOM     76  C   UNL     1       5.870  -0.957   5.161  1.00  0.00     0.135 A 
ATOM     77  C   UNL     1       6.517   1.103   6.220  1.00  0.00     0.135 A 
ATOM     78  F   UNL     1       5.028  -1.679   4.406  1.00  0.00    -0.206 F 
ATOM     79  C   UNL     1       6.964  -1.602   5.728  1.00  0.00     0.059 A 
ATOM     80  C   UNL     1       7.636   0.485   6.771  1.00  0.00     0.059 A 
ATOM     81  F   UNL     1       6.318   2.402   6.490  1.00  0.00    -0.206 F 
ATOM     82  C   UNL     1       7.841  -0.872   6.532  1.00  0.00     0.060 A 
BRANCH  82  83
ATOM     83  S   UNL     1       9.254  -1.727   7.262  1.00  0.00     0.124 S 
ATOM     84  O   UNL     1       8.601  -2.562   8.266  1.00  0.00    -0.237 OA
ATOM     85  O   UNL     1       9.814  -2.436   6.116  1.00  0.00    -0.237 OA
ATOM     86  O   UNL     1      10.075  -0.641   7.787  1.00  0.00    -0.744 OA
ENDBRANCH  82  83
ENDBRANCH  61  75
BRANCH  62  87
ATOM     87  C   UNL     1      -2.564   4.895   1.802  1.00  0.00     0.058 A 
ATOM     88  C   UNL     1      -2.942   4.787   0.455  1.00  0.00     0.135 A 
ATOM     89  C   UNL     1      -3.358   5.698   2.637  1.00  0.00     0.135 A 
ATOM     90  F   UNL     1      -2.204   4.052  -0.390  1.00  0.00    -0.206 F 
ATOM     91  C   UNL     1      -4.053   5.457  -0.049  1.00  0.00     0.059 A 
ATOM     92  C   UNL     1      -4.490   6.355   2.163  1.00  0.00     0.059 A 
ATOM     93  F   UNL     1      -3.044   5.835   3.935  1.00  0.00    -0.206 F 
ATOM     94  C   UNL     1      -4.824   6.236   0.816  1.00  0.00     0.060 A 
BRANCH  94  95
ATOM     95  S   UNL     1      -6.287   7.068   0.160  1.00  0.00     0.124 S 
ATOM     96  O   UNL     1      -5.689   8.104  -0.674  1.00  0.00    -0.237 OA
ATOM     97  O   UNL     1      -6.962   5.987  -0.550  1.00  0.00    -0.237 OA
ATOM     98  O   UNL     1      -6.971   7.542   1.360  1.00  0.00    -0.744 OA
ENDBRANCH  94  95
ENDBRANCH  62  87
BRANCH  74  99
ATOM     99  C   UNL     1       4.288   5.566   0.560  1.00  0.00     0.058 A 
ATOM    100  C   UNL     1       4.495   6.935   0.786  1.00  0.00     0.135 A 
ATOM    101  C   UNL     1       4.943   4.977  -0.535  1.00  0.00     0.135 A 
ATOM    102  F   UNL     1       3.889   7.551   1.813  1.00  0.00    -0.206 F 
ATOM    103  C   UNL     1       5.322   7.690  -0.042  1.00  0.00     0.059 A 
ATOM    104  C   UNL     1       5.796   5.705  -1.358  1.00  0.00     0.059 A 
ATOM    105  F   UNL     1       4.786   3.668  -0.792  1.00  0.00    -0.206 F 
ATOM    106  C   UNL     1       5.978   7.063  -1.105  1.00  0.00     0.060 A 
BRANCH 106 107
ATOM    107  S   UNL     1       7.107   8.038  -2.123  1.00  0.00     0.124 S 
ATOM    108  O   UNL     1       6.180   8.883  -2.867  1.00  0.00    -0.237 OA
ATOM    109  O   UNL     1       7.921   8.718  -1.120  1.00  0.00    -0.237 OA
ATOM    110  O   UNL     1       7.810   7.030  -2.912  1.00  0.00    -0.744 OA
ENDBRANCH 106 107
ENDBRANCH  74  99
ENDBRANCH  48  49
ENDBRANCH  41  43
ENDBRANCH  40  41
ENDBRANCH  39  40
ENDBRANCH  38  39
ENDBRANCH  37  38
ENDBRANCH  36  37
ENDBRANCH   1  36
TORSDOF 26
