REMARK SMILES Cc1nsc(NC(=O)[C@H]2Cc3[nH]cnc3C[NH2+]2)c1C(=O)OCCOCCOCCOC(=O)c1ccc(-c2c3nc(c(-c4c(F)cc(S(=O)(=O)[O-])cc4F)c4ccc([nH]4)c(-c4c(F)cc(S(=O)(=O)[O-])cc4F)c4nc(c(-c5c(F)cc(S(=O)(=O)[O-])cc5F)c5ccc2[nH]5)C=C4)C=C3)cc1
REMARK SMILES IDX 26 1 25 2 24 3 23 4 22 5 21 6 19 7 20 8 18 9 1 10 2 11 3 12
REMARK SMILES IDX 4 13 5 14 6 15 7 16 8 18 9 19 10 20 17 21 11 22 16 23 12 26
REMARK SMILES IDX 15 27 13 28 14 30 27 31 28 32 29 33 30 34 31 35 32 36 33 37
REMARK SMILES IDX 34 38 98 39 35 40 97 41 36 42 37 43 38 44 91 45 39 46 96 47
REMARK SMILES IDX 90 48 92 49 40 50 95 51 89 52 88 53 41 55 75 56 54 57 74 58
REMARK SMILES IDX 55 59 58 60 73 61 93 62 56 63 57 64 72 66 94 67 59 68 42 69
REMARK SMILES IDX 43 70 52 71 44 72 45 73 51 74 53 75 46 76 47 77 48 78 49 79
REMARK SMILES IDX 50 80 76 81 77 82 86 83 78 84 79 85 85 86 87 87 80 88 81 89
REMARK SMILES IDX 82 90 83 91 84 92 60 93 61 94 70 95 62 96 63 97 69 98 71 99
REMARK SMILES IDX 64 100 65 101 66 102 67 103 68 104
REMARK H PARENT 6 17 17 24 17 25 12 29 92 54 58 65
REMARK Flexibility Score: inf
ROOT
ATOM      1  C   UNL     1       3.361   2.724  -1.133  1.00  0.00     0.188 C 
ENDROOT
BRANCH   1   2
ATOM      2  C   UNL     1       2.866   4.176  -1.285  1.00  0.00     0.188 C 
BRANCH   2   3
ATOM      3  O   UNL     1       3.032   5.120  -0.241  1.00  0.00    -0.376 OA
BRANCH   3   4
ATOM      4  C   UNL     1       2.669   4.823   1.098  1.00  0.00     0.202 C 
BRANCH   4   5
ATOM      5  C   UNL     1       1.350   4.117   1.469  1.00  0.00     0.261 C 
BRANCH   5   6
ATOM      6  O   UNL     1       1.034   2.932   0.728  1.00  0.00    -0.460 OA
BRANCH   6   7
ATOM      7  C   UNL     1       0.050   3.065  -0.215  1.00  0.00     0.343 C 
ATOM      8  O   UNL     1      -0.610   4.058  -0.384  1.00  0.00    -0.246 OA
BRANCH   7   9
ATOM      9  C   UNL     1       0.003   1.924  -1.128  1.00  0.00     0.117 A 
ATOM     10  C   UNL     1       0.809  -0.044   0.429  1.00  0.00     0.069 C 
ATOM     11  C   UNL     1       0.301   0.538  -0.845  1.00  0.00     0.068 A 
ATOM     12  N   UNL     1       0.156  -0.301  -1.868  1.00  0.00    -0.195 NA
ATOM     13  S   UNL     1      -0.227   0.561  -3.207  1.00  0.00    -0.017 S 
ATOM     14  C   UNL     1      -0.186   2.092  -2.501  1.00  0.00     0.131 A 
BRANCH  14  15
ATOM     15  N   UNL     1      -0.207   3.290  -3.199  1.00  0.00    -0.310 N 
ATOM     16  C   UNL     1      -0.223   3.658  -4.513  1.00  0.00     0.283 C 
ATOM     17  H   UNL     1      -0.212   4.068  -2.596  1.00  0.00     0.171 HD
ATOM     18  O   UNL     1       0.126   4.827  -4.741  1.00  0.00    -0.268 OA
BRANCH  16  19
ATOM     19  C   UNL     1      -0.634   2.766  -5.696  1.00  0.00     0.279 C 
ATOM     20  C   UNL     1       0.552   1.866  -6.180  1.00  0.00     0.131 C 
ATOM     21  N   UNL     1      -1.972   2.157  -5.394  1.00  0.00    -0.331 N 
ATOM     22  C   UNL     1       0.038   0.512  -6.505  1.00  0.00     0.050 A 
ATOM     23  C   UNL     1      -2.390   1.167  -6.410  1.00  0.00     0.320 C 
ATOM     24  H   UNL     1      -2.669   2.901  -5.358  1.00  0.00     0.347 HD
ATOM     25  H   UNL     1      -1.895   1.669  -4.502  1.00  0.00     0.347 HD
ATOM     26  N   UNL     1       0.724  -0.659  -6.620  1.00  0.00    -0.348 N 
ATOM     27  C   UNL     1      -1.294   0.178  -6.587  1.00  0.00     0.116 A 
ATOM     28  C   UNL     1      -0.218  -1.654  -6.705  1.00  0.00     0.197 A 
ATOM     29  H   UNL     1       1.702  -0.770  -6.639  1.00  0.00     0.167 HD
ATOM     30  N   UNL     1      -1.446  -1.176  -6.700  1.00  0.00    -0.236 NA
ENDBRANCH  16  19
ENDBRANCH  14  15
ENDBRANCH   7   9
ENDBRANCH   6   7
ENDBRANCH   5   6
ENDBRANCH   4   5
ENDBRANCH   3   4
ENDBRANCH   2   3
ENDBRANCH   1   2
BRANCH   1  31
ATOM     31  O   UNL     1       3.619   2.319   0.191  1.00  0.00    -0.376 OA
BRANCH  31  32
ATOM     32  C   UNL     1       4.943   2.308   0.700  1.00  0.00     0.202 C 
BRANCH  32  33
ATOM     33  C   UNL     1       6.074   3.211   0.203  1.00  0.00     0.261 C 
BRANCH  33  34
ATOM     34  O   UNL     1       5.845   3.961  -0.972  1.00  0.00    -0.460 OA
BRANCH  34  35
ATOM     35  C   UNL     1       6.242   3.342  -2.104  1.00  0.00     0.338 C 
ATOM     36  O   UNL     1       6.414   2.146  -2.265  1.00  0.00    -0.246 OA
BRANCH  35  37
ATOM     37  C   UNL     1       6.529   4.360  -3.112  1.00  0.00     0.060 A 
ATOM     38  C   UNL     1       6.594   3.950  -4.444  1.00  0.00     0.016 A 
ATOM     39  C   UNL     1       7.008   5.606  -2.683  1.00  0.00     0.016 A 
ATOM     40  C   UNL     1       7.325   4.718  -5.322  1.00  0.00     0.010 A 
ATOM     41  C   UNL     1       7.753   6.360  -3.555  1.00  0.00     0.010 A 
ATOM     42  C   UNL     1       7.971   5.863  -4.837  1.00  0.00    -0.014 A 
BRANCH  42  43
ATOM     43  C   UNL     1       8.823   6.603  -5.743  1.00  0.00     0.031 A 
ATOM     44  C   UNL     1       8.043   7.340  -6.759  1.00  0.00     0.074 A 
ATOM     45  C   UNL     1      10.158   6.673  -5.576  1.00  0.00     0.049 A 
ATOM     46  N   UNL     1       7.977   7.100  -8.024  1.00  0.00    -0.248 NA
ATOM     47  C   UNL     1       7.063   8.333  -6.285  1.00  0.00     0.031 C 
ATOM     48  C   UNL     1      10.938   6.172  -4.437  1.00  0.00     0.029 A 
ATOM     49  N   UNL     1      11.101   7.292  -6.341  1.00  0.00    -0.354 N 
ATOM     50  C   UNL     1       7.161   8.101  -8.538  1.00  0.00     0.074 A 
ATOM     51  C   UNL     1       6.454   8.667  -7.423  1.00  0.00     0.031 C 
ATOM     52  C   UNL     1      12.183   6.697  -4.480  1.00  0.00     0.029 A 
ATOM     53  C   UNL     1      12.333   7.450  -5.714  1.00  0.00     0.049 A 
ATOM     54  H   UNL     1      10.926   7.600  -7.260  1.00  0.00     0.167 HD
ATOM     55  C   UNL     1       7.396   8.604  -9.779  1.00  0.00     0.037 A 
ATOM     56  C   UNL     1      13.389   8.173  -6.164  1.00  0.00     0.037 A 
ATOM     57  C   UNL     1       8.249   7.725 -10.537  1.00  0.00     0.049 A 
ATOM     58  C   UNL     1      13.225   8.324  -7.629  1.00  0.00     0.074 A 
ATOM     59  C   UNL     1       8.111   6.499 -11.150  1.00  0.00     0.029 A 
ATOM     60  N   UNL     1       9.590   7.947 -10.357  1.00  0.00    -0.354 N 
ATOM     61  N   UNL     1      13.292   7.322  -8.462  1.00  0.00    -0.248 NA
ATOM     62  C   UNL     1      12.610   9.534  -8.163  1.00  0.00     0.031 C 
ATOM     63  C   UNL     1       9.409   5.908 -11.152  1.00  0.00     0.029 A 
ATOM     64  C   UNL     1      10.312   6.803 -10.580  1.00  0.00     0.049 A 
ATOM     65  H   UNL     1       9.983   8.813 -10.101  1.00  0.00     0.167 HD
ATOM     66  C   UNL     1      12.363   7.623  -9.440  1.00  0.00     0.074 A 
ATOM     67  C   UNL     1      12.114   9.052  -9.306  1.00  0.00     0.031 C 
ATOM     68  C   UNL     1      11.648   6.634 -10.047  1.00  0.00     0.037 A 
BRANCH  55  69
ATOM     69  C   UNL     1       7.274  10.073 -10.117  1.00  0.00     0.058 A 
ATOM     70  C   UNL     1       7.357  10.485 -11.461  1.00  0.00     0.135 A 
ATOM     71  C   UNL     1       7.363  11.109  -9.157  1.00  0.00     0.135 A 
ATOM     72  F   UNL     1       7.320   9.582 -12.454  1.00  0.00    -0.206 F 
ATOM     73  C   UNL     1       7.548  11.821 -11.822  1.00  0.00     0.059 A 
ATOM     74  C   UNL     1       7.495  12.449  -9.495  1.00  0.00     0.059 A 
ATOM     75  F   UNL     1       7.432  10.867  -7.843  1.00  0.00    -0.206 F 
ATOM     76  C   UNL     1       7.620  12.795 -10.829  1.00  0.00     0.060 A 
BRANCH  76  77
ATOM     77  S   UNL     1       7.929  14.511 -11.278  1.00  0.00     0.124 S 
ATOM     78  O   UNL     1       9.311  14.449 -11.738  1.00  0.00    -0.237 OA
ATOM     79  O   UNL     1       6.920  14.740 -12.307  1.00  0.00    -0.237 OA
ATOM     80  O   UNL     1       7.711  15.230 -10.026  1.00  0.00    -0.744 OA
ENDBRANCH  76  77
ENDBRANCH  55  69
BRANCH  56  81
ATOM     81  C   UNL     1      14.403   8.937  -5.393  1.00  0.00     0.058 A 
ATOM     82  C   UNL     1      15.614   9.354  -5.975  1.00  0.00     0.135 A 
ATOM     83  C   UNL     1      14.077   9.520  -4.153  1.00  0.00     0.135 A 
ATOM     84  F   UNL     1      15.994   8.866  -7.166  1.00  0.00    -0.206 F 
ATOM     85  C   UNL     1      16.430  10.328  -5.386  1.00  0.00     0.059 A 
ATOM     86  C   UNL     1      14.876  10.489  -3.545  1.00  0.00     0.059 A 
ATOM     87  F   UNL     1      12.919   9.230  -3.541  1.00  0.00    -0.206 F 
ATOM     88  C   UNL     1      16.040  10.906  -4.179  1.00  0.00     0.060 A 
BRANCH  88  89
ATOM     89  S   UNL     1      16.999  12.284  -3.501  1.00  0.00     0.124 S 
ATOM     90  O   UNL     1      18.235  11.622  -3.097  1.00  0.00    -0.237 OA
ATOM     91  O   UNL     1      17.101  13.182  -4.646  1.00  0.00    -0.237 OA
ATOM     92  O   UNL     1      16.165  12.770  -2.405  1.00  0.00    -0.744 OA
ENDBRANCH  88  89
ENDBRANCH  56  81
BRANCH  68  93
ATOM     93  C   UNL     1      12.234   5.251 -10.027  1.00  0.00     0.058 A 
ATOM     94  C   UNL     1      12.372   4.452  -8.879  1.00  0.00     0.135 A 
ATOM     95  C   UNL     1      12.611   4.685 -11.253  1.00  0.00     0.135 A 
ATOM     96  F   UNL     1      11.959   4.889  -7.681  1.00  0.00    -0.206 F 
ATOM     97  C   UNL     1      12.900   3.161  -8.944  1.00  0.00     0.059 A 
ATOM     98  C   UNL     1      13.109   3.391 -11.347  1.00  0.00     0.059 A 
ATOM     99  F   UNL     1      12.457   5.383 -12.390  1.00  0.00    -0.206 F 
ATOM    100  C   UNL     1      13.267   2.639 -10.185  1.00  0.00     0.060 A 
BRANCH 100 101
ATOM    101  S   UNL     1      13.890   0.947 -10.283  1.00  0.00     0.124 S 
ATOM    102  O   UNL     1      15.220   1.075  -9.697  1.00  0.00    -0.237 OA
ATOM    103  O   UNL     1      12.915   0.204  -9.489  1.00  0.00    -0.237 OA
ATOM    104  O   UNL     1      13.863   0.656 -11.714  1.00  0.00    -0.744 OA
ENDBRANCH 100 101
ENDBRANCH  68  93
ENDBRANCH  42  43
ENDBRANCH  35  37
ENDBRANCH  34  35
ENDBRANCH  33  34
ENDBRANCH  32  33
ENDBRANCH  31  32
ENDBRANCH   1  31
TORSDOF 22
