REMARK SMILES O=C(CSc1ccc2ccccc2c1)OCCOCCOCCOC(=O)c1ccc(-c2c3nc(c(-c4c(F)cc(S(=O)(=O)[O-])cc4F)c4ccc([nH]4)c(-c4c(F)cc(S(=O)(=O)[O-])cc4F)c4nc(c(-c5c(F)cc(S(=O)(=O)[O-])cc5F)c5ccc2[nH]5)C=C4)C=C3)cc1
REMARK SMILES IDX 20 1 19 2 18 3 17 4 16 5 15 6 2 7 1 8 3 9 4 10 5 11 6 12
REMARK SMILES IDX 14 13 7 14 13 15 8 16 12 17 9 18 11 19 10 20 21 21 22 22
REMARK SMILES IDX 23 23 24 24 25 25 26 26 27 27 28 28 92 29 29 30 91 31 30 32
REMARK SMILES IDX 31 33 32 34 85 35 33 36 90 37 84 38 86 39 34 40 89 41 83 42
REMARK SMILES IDX 82 43 35 45 69 46 48 47 68 48 49 49 52 50 67 51 87 52 50 53
REMARK SMILES IDX 51 54 66 56 88 57 53 58 36 59 37 60 46 61 38 62 39 63 45 64
REMARK SMILES IDX 47 65 40 66 41 67 42 68 43 69 44 70 70 71 71 72 80 73 72 74
REMARK SMILES IDX 73 75 79 76 81 77 74 78 75 79 76 80 77 81 78 82 54 83 55 84
REMARK SMILES IDX 64 85 56 86 57 87 63 88 65 89 58 90 59 91 60 92 61 93 62 94
REMARK H PARENT 86 44 52 55
REMARK Flexibility Score: inf
ROOT
ATOM      1  C   UNL     1       2.422  -1.816  -2.422  1.00  0.00     0.188 C 
ENDROOT
BRANCH   1   2
ATOM      2  C   UNL     1       3.275  -0.610  -2.000  1.00  0.00     0.188 C 
BRANCH   2   3
ATOM      3  O   UNL     1       4.528  -1.023  -1.485  1.00  0.00    -0.376 OA
BRANCH   3   4
ATOM      4  C   UNL     1       5.105  -0.238  -0.462  1.00  0.00     0.202 C 
BRANCH   4   5
ATOM      5  C   UNL     1       4.529  -0.644   0.889  1.00  0.00     0.261 C 
BRANCH   5   6
ATOM      6  O   UNL     1       3.118  -0.385   1.085  1.00  0.00    -0.463 OA
BRANCH   6   7
ATOM      7  C   UNL     1       2.438   0.776   0.972  1.00  0.00     0.316 C 
ATOM      8  O   UNL     1       1.209   0.746   1.051  1.00  0.00    -0.251 OA
BRANCH   7   9
ATOM      9  C   UNL     1       3.155   2.070   0.662  1.00  0.00     0.197 C 
BRANCH   9  10
ATOM     10  S   UNL     1       4.458   2.498   1.857  1.00  0.00    -0.114 SA
BRANCH  10  11
ATOM     11  C   UNL     1       3.379   2.831   3.229  1.00  0.00     0.008 A 
ATOM     12  C   UNL     1       3.016   4.146   3.506  1.00  0.00     0.016 A 
ATOM     13  C   UNL     1       2.768   1.773   3.908  1.00  0.00     0.023 A 
ATOM     14  C   UNL     1       2.002   4.403   4.427  1.00  0.00     0.010 A 
ATOM     15  C   UNL     1       1.712   2.014   4.790  1.00  0.00    -0.017 A 
ATOM     16  C   UNL     1       1.325   3.347   5.056  1.00  0.00    -0.018 A 
ATOM     17  C   UNL     1       1.004   0.953   5.372  1.00  0.00     0.009 A 
ATOM     18  C   UNL     1       0.248   3.581   5.921  1.00  0.00     0.009 A 
ATOM     19  C   UNL     1      -0.077   1.203   6.215  1.00  0.00     0.001 A 
ATOM     20  C   UNL     1      -0.450   2.516   6.494  1.00  0.00     0.001 A 
ENDBRANCH  10  11
ENDBRANCH   9  10
ENDBRANCH   7   9
ENDBRANCH   6   7
ENDBRANCH   5   6
ENDBRANCH   4   5
ENDBRANCH   3   4
ENDBRANCH   2   3
ENDBRANCH   1   2
BRANCH   1  21
ATOM     21  O   UNL     1       3.054  -3.052  -2.743  1.00  0.00    -0.376 OA
BRANCH  21  22
ATOM     22  C   UNL     1       4.320  -3.049  -3.387  1.00  0.00     0.202 C 
BRANCH  22  23
ATOM     23  C   UNL     1       4.402  -2.436  -4.788  1.00  0.00     0.261 C 
BRANCH  23  24
ATOM     24  O   UNL     1       4.028  -1.047  -4.864  1.00  0.00    -0.460 OA
BRANCH  24  25
ATOM     25  C   UNL     1       2.893  -0.788  -5.562  1.00  0.00     0.338 C 
ATOM     26  O   UNL     1       2.168  -1.600  -6.110  1.00  0.00    -0.246 OA
BRANCH  25  27
ATOM     27  C   UNL     1       2.549   0.648  -5.486  1.00  0.00     0.060 A 
ATOM     28  C   UNL     1       1.324   1.010  -4.909  1.00  0.00     0.016 A 
ATOM     29  C   UNL     1       3.358   1.618  -6.080  1.00  0.00     0.016 A 
ATOM     30  C   UNL     1       0.891   2.339  -4.951  1.00  0.00     0.010 A 
ATOM     31  C   UNL     1       2.913   2.947  -6.137  1.00  0.00     0.010 A 
ATOM     32  C   UNL     1       1.665   3.311  -5.599  1.00  0.00    -0.014 A 
BRANCH  32  33
ATOM     33  C   UNL     1       1.120   4.677  -5.825  1.00  0.00     0.031 A 
ATOM     34  C   UNL     1       0.481   5.007  -7.149  1.00  0.00     0.074 A 
ATOM     35  C   UNL     1       1.194   5.621  -4.868  1.00  0.00     0.049 A 
ATOM     36  N   UNL     1       0.018   6.152  -7.583  1.00  0.00    -0.248 NA
ATOM     37  C   UNL     1       0.345   3.900  -8.110  1.00  0.00     0.031 C 
ATOM     38  C   UNL     1       1.750   5.427  -3.530  1.00  0.00     0.029 A 
ATOM     39  N   UNL     1       0.813   6.942  -4.885  1.00  0.00    -0.354 N 
ATOM     40  C   UNL     1      -0.456   5.908  -8.867  1.00  0.00     0.074 A 
ATOM     41  C   UNL     1      -0.210   4.509  -9.148  1.00  0.00     0.031 C 
ATOM     42  C   UNL     1       1.699   6.595  -2.864  1.00  0.00     0.029 A 
ATOM     43  C   UNL     1       1.137   7.625  -3.736  1.00  0.00     0.049 A 
ATOM     44  H   UNL     1       0.352   7.359  -5.648  1.00  0.00     0.167 HD
ATOM     45  C   UNL     1      -1.044   6.769  -9.732  1.00  0.00     0.037 A 
ATOM     46  C   UNL     1       1.025   8.935  -3.435  1.00  0.00     0.037 A 
ATOM     47  C   UNL     1      -1.296   8.160  -9.456  1.00  0.00     0.049 A 
ATOM     48  C   UNL     1       0.435   9.889  -4.444  1.00  0.00     0.074 A 
ATOM     49  C   UNL     1      -1.920   9.097 -10.263  1.00  0.00     0.029 A 
ATOM     50  N   UNL     1      -0.929   8.818  -8.293  1.00  0.00    -0.354 N 
ATOM     51  N   UNL     1      -0.038   9.636  -5.641  1.00  0.00    -0.248 NA
ATOM     52  C   UNL     1       0.367  11.308  -4.062  1.00  0.00     0.031 C 
ATOM     53  C   UNL     1      -1.887  10.332  -9.608  1.00  0.00     0.029 A 
ATOM     54  C   UNL     1      -1.284  10.155  -8.374  1.00  0.00     0.049 A 
ATOM     55  H   UNL     1      -0.482   8.398  -7.523  1.00  0.00     0.167 HD
ATOM     56  C   UNL     1      -0.479  10.858  -6.142  1.00  0.00     0.074 A 
ATOM     57  C   UNL     1      -0.230  11.847  -5.116  1.00  0.00     0.031 C 
ATOM     58  C   UNL     1      -1.038  11.134  -7.346  1.00  0.00     0.037 A 
BRANCH  45  59
ATOM     59  C   UNL     1      -1.448   6.243 -11.081  1.00  0.00     0.058 A 
ATOM     60  C   UNL     1      -2.577   5.428 -11.246  1.00  0.00     0.135 A 
ATOM     61  C   UNL     1      -0.738   6.625 -12.231  1.00  0.00     0.135 A 
ATOM     62  F   UNL     1      -3.281   5.023 -10.177  1.00  0.00    -0.206 F 
ATOM     63  C   UNL     1      -2.986   5.003 -12.506  1.00  0.00     0.059 A 
ATOM     64  C   UNL     1      -1.141   6.229 -13.503  1.00  0.00     0.059 A 
ATOM     65  F   UNL     1       0.351   7.402 -12.126  1.00  0.00    -0.206 F 
ATOM     66  C   UNL     1      -2.264   5.412 -13.629  1.00  0.00     0.060 A 
BRANCH  66  67
ATOM     67  S   UNL     1      -2.828   4.881 -15.260  1.00  0.00     0.124 S 
ATOM     68  O   UNL     1      -2.455   3.470 -15.251  1.00  0.00    -0.237 OA
ATOM     69  O   UNL     1      -4.260   5.158 -15.201  1.00  0.00    -0.237 OA
ATOM     70  O   UNL     1      -2.067   5.725 -16.175  1.00  0.00    -0.744 OA
ENDBRANCH  66  67
ENDBRANCH  45  59
BRANCH  46  71
ATOM     71  C   UNL     1       1.521   9.447  -2.128  1.00  0.00     0.058 A 
ATOM     72  C   UNL     1       0.636   9.933  -1.154  1.00  0.00     0.135 A 
ATOM     73  C   UNL     1       2.895   9.496  -1.846  1.00  0.00     0.135 A 
ATOM     74  F   UNL     1      -0.686   9.923  -1.385  1.00  0.00    -0.206 F 
ATOM     75  C   UNL     1       1.095  10.468   0.045  1.00  0.00     0.059 A 
ATOM     76  C   UNL     1       3.377  10.003  -0.644  1.00  0.00     0.059 A 
ATOM     77  F   UNL     1       3.783   9.037  -2.742  1.00  0.00    -0.206 F 
ATOM     78  C   UNL     1       2.469  10.499   0.290  1.00  0.00     0.060 A 
BRANCH  78  79
ATOM     79  S   UNL     1       3.057  11.163   1.863  1.00  0.00     0.124 S 
ATOM     80  O   UNL     1       2.889  12.596   1.659  1.00  0.00    -0.237 OA
ATOM     81  O   UNL     1       2.146  10.541   2.819  1.00  0.00    -0.237 OA
ATOM     82  O   UNL     1       4.437  10.690   1.929  1.00  0.00    -0.744 OA
ENDBRANCH  78  79
ENDBRANCH  46  71
BRANCH  58  83
ATOM     83  C   UNL     1      -1.447  12.557  -7.617  1.00  0.00     0.058 A 
ATOM     84  C   UNL     1      -0.499  13.558  -7.879  1.00  0.00     0.135 A 
ATOM     85  C   UNL     1      -2.805  12.913  -7.667  1.00  0.00     0.135 A 
ATOM     86  F   UNL     1       0.812  13.274  -7.838  1.00  0.00    -0.206 F 
ATOM     87  C   UNL     1      -0.881  14.867  -8.161  1.00  0.00     0.059 A 
ATOM     88  C   UNL     1      -3.211  14.209  -7.972  1.00  0.00     0.059 A 
ATOM     89  F   UNL     1      -3.754  11.992  -7.435  1.00  0.00    -0.206 F 
ATOM     90  C   UNL     1      -2.240  15.183  -8.206  1.00  0.00     0.060 A 
BRANCH  90  91
ATOM     91  S   UNL     1      -2.725  16.876  -8.605  1.00  0.00     0.124 S 
ATOM     92  O   UNL     1      -2.423  17.570  -7.357  1.00  0.00    -0.237 OA
ATOM     93  O   UNL     1      -1.856  17.194  -9.733  1.00  0.00    -0.237 OA
ATOM     94  O   UNL     1      -4.143  16.756  -8.929  1.00  0.00    -0.744 OA
ENDBRANCH  90  91
ENDBRANCH  58  83
ENDBRANCH  32  33
ENDBRANCH  25  27
ENDBRANCH  24  25
ENDBRANCH  23  24
ENDBRANCH  22  23
ENDBRANCH  21  22
ENDBRANCH   1  21
TORSDOF 22
