REMARK SMILES Cc1c(Cl)cc2c(c1C)O[C@H](C(F)(F)F)C(C(=O)OCCOCCOCCOC(=O)c1ccc(-c3c4nc(c(-c5c(F)cc(S(=O)(=O)[O-])cc5F)c5ccc([nH]5)c(-c5c(F)cc(S(=O)(=O)[O-])cc5F)c5nc(c(-c6c(F)cc(S(=O)(=O)[O-])cc6F)c6ccc3[nH]6)C=C5)C=C4)cc1)=C2
REMARK SMILES IDX 24 1 23 2 22 3 21 4 20 5 19 6 17 7 18 8 16 9 1 10 2 11 3 12
REMARK SMILES IDX 8 13 4 14 5 15 7 16 9 17 6 18 10 19 97 20 11 21 12 22 13 23
REMARK SMILES IDX 14 24 15 25 25 26 26 27 27 28 28 29 29 30 30 31 31 32 32 33
REMARK SMILES IDX 96 34 33 35 95 36 34 37 35 38 36 39 89 40 37 41 94 42 88 43
REMARK SMILES IDX 90 44 38 45 93 46 87 47 86 48 39 50 73 51 52 52 72 53 53 54
REMARK SMILES IDX 56 55 71 56 91 57 54 58 55 59 70 61 92 62 57 63 40 64 41 65
REMARK SMILES IDX 50 66 42 67 43 68 49 69 51 70 44 71 45 72 46 73 47 74 48 75
REMARK SMILES IDX 74 76 75 77 84 78 76 79 77 80 83 81 85 82 78 83 79 84 80 85
REMARK SMILES IDX 81 86 82 87 58 88 59 89 68 90 60 91 61 92 67 93 69 94 62 95
REMARK SMILES IDX 63 96 64 97 65 98 66 99
REMARK H PARENT 90 49 56 60
REMARK Flexibility Score: inf
ROOT
ATOM      1  C   UNL     1      -2.695  -5.419  -5.597  1.00  0.00     0.188 C 
ENDROOT
BRANCH   1   2
ATOM      2  C   UNL     1      -2.515  -4.788  -6.995  1.00  0.00     0.188 C 
BRANCH   2   3
ATOM      3  O   UNL     1      -2.388  -5.597  -8.147  1.00  0.00    -0.376 OA
BRANCH   3   4
ATOM      4  C   UNL     1      -1.341  -6.544  -8.276  1.00  0.00     0.202 C 
BRANCH   4   5
ATOM      5  C   UNL     1       0.080  -6.270  -7.778  1.00  0.00     0.261 C 
BRANCH   5   6
ATOM      6  O   UNL     1       0.151  -5.692  -6.471  1.00  0.00    -0.460 OA
BRANCH   6   7
ATOM      7  C   UNL     1       0.775  -4.492  -6.418  1.00  0.00     0.338 C 
ATOM      8  O   UNL     1       1.307  -3.901  -7.344  1.00  0.00    -0.246 OA
BRANCH   7   9
ATOM      9  C   UNL     1       0.636  -3.918  -5.069  1.00  0.00     0.087 C 
ATOM     10  C   UNL     1       0.682   0.032   0.091  1.00  0.00     0.046 C 
ATOM     11  C   UNL     1       0.446  -0.690  -1.212  1.00  0.00    -0.026 A 
ATOM     12  C   UNL     1      -0.006  -0.006  -2.357  1.00  0.00     0.045 A 
ATOM     13  C   UNL     1       0.735  -2.076  -1.318  1.00  0.00    -0.004 A 
ATOM     14  Cl  UNL     1      -0.413   1.674  -2.338  1.00  0.00    -0.084 Cl
ATOM     15  C   UNL     1      -0.120  -0.660  -3.587  1.00  0.00     0.032 A 
ATOM     16  C   UNL     1       0.600  -2.723  -2.565  1.00  0.00     0.131 A 
ATOM     17  C   UNL     1       1.206  -2.896  -0.141  1.00  0.00     0.049 C 
ATOM     18  C   UNL     1       0.213  -2.009  -3.700  1.00  0.00     0.019 A 
ATOM     19  O   UNL     1       0.875  -4.065  -2.594  1.00  0.00    -0.475 OA
ATOM     20  C   UNL     1       0.239  -2.642  -5.006  1.00  0.00     0.027 C 
ATOM     21  C   UNL     1       0.965  -4.756  -3.868  1.00  0.00     0.316 C 
BRANCH  21  22
ATOM     22  C   UNL     1       2.352  -5.409  -3.959  1.00  0.00     0.430 C 
ATOM     23  F   UNL     1       2.623  -6.138  -2.848  1.00  0.00    -0.167 F 
ATOM     24  F   UNL     1       2.442  -6.263  -5.006  1.00  0.00    -0.167 F 
ATOM     25  F   UNL     1       3.340  -4.496  -4.093  1.00  0.00    -0.167 F 
ENDBRANCH  21  22
ENDBRANCH   7   9
ENDBRANCH   6   7
ENDBRANCH   5   6
ENDBRANCH   4   5
ENDBRANCH   3   4
ENDBRANCH   2   3
ENDBRANCH   1   2
BRANCH   1  26
ATOM     26  O   UNL     1      -2.849  -6.816  -5.437  1.00  0.00    -0.376 OA
BRANCH  26  27
ATOM     27  C   UNL     1      -3.865  -7.493  -6.161  1.00  0.00     0.202 C 
BRANCH  27  28
ATOM     28  C   UNL     1      -5.310  -6.985  -6.166  1.00  0.00     0.261 C 
BRANCH  28  29
ATOM     29  O   UNL     1      -5.451  -5.600  -6.506  1.00  0.00    -0.460 OA
BRANCH  29  30
ATOM     30  C   UNL     1      -5.957  -4.818  -5.520  1.00  0.00     0.338 C 
ATOM     31  O   UNL     1      -6.310  -5.169  -4.407  1.00  0.00    -0.246 OA
BRANCH  30  32
ATOM     32  C   UNL     1      -5.849  -3.404  -5.918  1.00  0.00     0.060 A 
ATOM     33  C   UNL     1      -5.064  -2.552  -5.129  1.00  0.00     0.016 A 
ATOM     34  C   UNL     1      -6.545  -2.912  -7.023  1.00  0.00     0.016 A 
ATOM     35  C   UNL     1      -4.989  -1.195  -5.432  1.00  0.00     0.010 A 
ATOM     36  C   UNL     1      -6.492  -1.545  -7.309  1.00  0.00     0.010 A 
ATOM     37  C   UNL     1      -5.736  -0.679  -6.499  1.00  0.00    -0.014 A 
BRANCH  37  38
ATOM     38  C   UNL     1      -5.872   0.788  -6.652  1.00  0.00     0.031 A 
ATOM     39  C   UNL     1      -7.038   1.470  -5.992  1.00  0.00     0.074 A 
ATOM     40  C   UNL     1      -4.965   1.503  -7.340  1.00  0.00     0.049 A 
ATOM     41  N   UNL     1      -7.383   2.731  -6.017  1.00  0.00    -0.248 NA
ATOM     42  C   UNL     1      -7.933   0.615  -5.194  1.00  0.00     0.031 C 
ATOM     43  C   UNL     1      -3.767   0.960  -7.979  1.00  0.00     0.029 A 
ATOM     44  N   UNL     1      -4.916   2.846  -7.618  1.00  0.00    -0.354 N 
ATOM     45  C   UNL     1      -8.526   2.823  -5.232  1.00  0.00     0.074 A 
ATOM     46  C   UNL     1      -8.836   1.487  -4.772  1.00  0.00     0.031 C 
ATOM     47  C   UNL     1      -3.103   1.963  -8.581  1.00  0.00     0.029 A 
ATOM     48  C   UNL     1      -3.844   3.211  -8.396  1.00  0.00     0.049 A 
ATOM     49  H   UNL     1      -5.587   3.488  -7.290  1.00  0.00     0.167 HD
ATOM     50  C   UNL     1      -9.246   3.924  -4.915  1.00  0.00     0.037 A 
ATOM     51  C   UNL     1      -3.513   4.411  -8.914  1.00  0.00     0.037 A 
ATOM     52  C   UNL     1      -8.945   5.248  -5.390  1.00  0.00     0.049 A 
ATOM     53  C   UNL     1      -4.387   5.606  -8.630  1.00  0.00     0.074 A 
ATOM     54  C   UNL     1      -9.625   6.427  -5.137  1.00  0.00     0.029 A 
ATOM     55  N   UNL     1      -7.882   5.569  -6.221  1.00  0.00    -0.354 N 
ATOM     56  N   UNL     1      -5.468   5.681  -7.889  1.00  0.00    -0.248 NA
ATOM     57  C   UNL     1      -4.000   6.880  -9.255  1.00  0.00     0.031 C 
ATOM     58  C   UNL     1      -8.997   7.453  -5.850  1.00  0.00     0.029 A 
ATOM     59  C   UNL     1      -7.898   6.923  -6.507  1.00  0.00     0.049 A 
ATOM     60  H   UNL     1      -7.214   4.928  -6.556  1.00  0.00     0.167 HD
ATOM     61  C   UNL     1      -5.873   7.012  -7.938  1.00  0.00     0.074 A 
ATOM     62  C   UNL     1      -4.919   7.708  -8.776  1.00  0.00     0.031 C 
ATOM     63  C   UNL     1      -6.937   7.604  -7.340  1.00  0.00     0.037 A 
BRANCH  50  64
ATOM     64  C   UNL     1     -10.440   3.739  -4.024  1.00  0.00     0.058 A 
ATOM     65  C   UNL     1     -10.297   3.477  -2.652  1.00  0.00     0.135 A 
ATOM     66  C   UNL     1     -11.741   3.858  -4.538  1.00  0.00     0.135 A 
ATOM     67  F   UNL     1      -9.075   3.330  -2.116  1.00  0.00    -0.206 F 
ATOM     68  C   UNL     1     -11.403   3.326  -1.823  1.00  0.00     0.059 A 
ATOM     69  C   UNL     1     -12.861   3.734  -3.722  1.00  0.00     0.059 A 
ATOM     70  F   UNL     1     -11.932   4.099  -5.844  1.00  0.00    -0.206 F 
ATOM     71  C   UNL     1     -12.681   3.458  -2.367  1.00  0.00     0.060 A 
BRANCH  71  72
ATOM     72  S   UNL     1     -14.105   3.272  -1.273  1.00  0.00     0.124 S 
ATOM     73  O   UNL     1     -14.070   1.840  -0.991  1.00  0.00    -0.237 OA
ATOM     74  O   UNL     1     -13.756   4.146  -0.158  1.00  0.00    -0.237 OA
ATOM     75  O   UNL     1     -15.226   3.722  -2.092  1.00  0.00    -0.744 OA
ENDBRANCH  71  72
ENDBRANCH  50  64
BRANCH  51  76
ATOM     76  C   UNL     1      -2.296   4.545  -9.758  1.00  0.00     0.058 A 
ATOM     77  C   UNL     1      -1.170   5.241  -9.295  1.00  0.00     0.135 A 
ATOM     78  C   UNL     1      -2.232   3.978 -11.040  1.00  0.00     0.135 A 
ATOM     79  F   UNL     1      -1.188   5.814  -8.082  1.00  0.00    -0.206 F 
ATOM     80  C   UNL     1      -0.025   5.375 -10.073  1.00  0.00     0.059 A 
ATOM     81  C   UNL     1      -1.090   4.079 -11.829  1.00  0.00     0.059 A 
ATOM     82  F   UNL     1      -3.281   3.298 -11.528  1.00  0.00    -0.206 F 
ATOM     83  C   UNL     1       0.007   4.785 -11.338  1.00  0.00     0.060 A 
BRANCH  83  84
ATOM     84  S   UNL     1       1.520   4.919 -12.316  1.00  0.00     0.124 S 
ATOM     85  O   UNL     1       1.509   6.330 -12.685  1.00  0.00    -0.237 OA
ATOM     86  O   UNL     1       2.541   4.518 -11.353  1.00  0.00    -0.237 OA
ATOM     87  O   UNL     1       1.297   3.979 -13.411  1.00  0.00    -0.744 OA
ENDBRANCH  83  84
ENDBRANCH  51  76
BRANCH  63  88
ATOM     88  C   UNL     1      -7.123   9.082  -7.542  1.00  0.00     0.058 A 
ATOM     89  C   UNL     1      -7.598   9.605  -8.754  1.00  0.00     0.135 A 
ATOM     90  C   UNL     1      -6.906   9.977  -6.481  1.00  0.00     0.135 A 
ATOM     91  F   UNL     1      -7.817   8.794  -9.800  1.00  0.00    -0.206 F 
ATOM     92  C   UNL     1      -7.840  10.967  -8.912  1.00  0.00     0.059 A 
ATOM     93  C   UNL     1      -7.165  11.339  -6.609  1.00  0.00     0.059 A 
ATOM     94  F   UNL     1      -6.463   9.527  -5.296  1.00  0.00    -0.206 F 
ATOM     95  C   UNL     1      -7.626  11.825  -7.831  1.00  0.00     0.060 A 
BRANCH  95  96
ATOM     96  S   UNL     1      -7.995  13.581  -8.036  1.00  0.00     0.124 S 
ATOM     97  O   UNL     1      -6.904  14.012  -8.904  1.00  0.00    -0.237 OA
ATOM     98  O   UNL     1      -9.319  13.552  -8.649  1.00  0.00    -0.237 OA
ATOM     99  O   UNL     1      -7.954  14.099  -6.672  1.00  0.00    -0.744 OA
ENDBRANCH  95  96
ENDBRANCH  63  88
ENDBRANCH  37  38
ENDBRANCH  30  32
ENDBRANCH  29  30
ENDBRANCH  28  29
ENDBRANCH  27  28
ENDBRANCH  26  27
ENDBRANCH   1  26
TORSDOF 21
