REMARK SMILES C[C@@H]1[NH2+]CC[C@@H]1C(=O)N1CCC[N@H+](CC(=O)OCCOCCOCCOC(=O)c2ccc(-c3c4nc(c(-c5c(F)cc(S(=O)(=O)[O-])cc5F)c5ccc([nH]5)c(-c5c(F)cc(S(=O)(=O)[O-])cc5F)c5nc(c(-c6c(F)cc(S(=O)(=O)[O-])cc6F)c6ccc3[nH]6)C=C5)C=C4)cc2)CC1
REMARK SMILES IDX 20 1 19 2 18 3 17 4 15 5 16 6 14 7 13 8 95 10 96 11 9 12
REMARK SMILES IDX 7 13 8 14 6 15 1 16 2 17 3 18 4 19 5 22 10 23 11 24 12 26
REMARK SMILES IDX 21 28 22 29 23 30 24 31 25 32 26 33 27 34 28 35 29 36 30 37
REMARK SMILES IDX 94 38 31 39 93 40 32 41 33 42 34 43 87 44 35 45 92 46 86 47
REMARK SMILES IDX 88 48 36 49 91 50 85 51 84 52 37 54 71 55 50 56 70 57 51 58
REMARK SMILES IDX 54 59 69 60 89 61 52 62 53 63 68 65 90 66 55 67 38 68 39 69
REMARK SMILES IDX 48 70 40 71 41 72 47 73 49 74 42 75 43 76 44 77 45 78 46 79
REMARK SMILES IDX 72 80 73 81 82 82 74 83 75 84 81 85 83 86 76 87 77 88 78 89
REMARK SMILES IDX 79 90 80 91 56 92 57 93 66 94 58 95 59 96 65 97 67 98 60 99
REMARK SMILES IDX 61 100 62 101 63 102 64 103
REMARK H PARENT 13 9 3 20 3 21 88 53 54 64
REMARK Flexibility Score: 90.00
ROOT
ATOM      1  O   UNL     1       3.238  -1.105  -0.137  1.00  0.00    -0.376 OA
ENDROOT
BRANCH   1   2
ATOM      2  C   UNL     1       4.471  -0.733   0.481  1.00  0.00     0.202 C 
BRANCH   2   3
ATOM      3  C   UNL     1       4.649   0.780   0.768  1.00  0.00     0.261 C 
BRANCH   3   4
ATOM      4  O   UNL     1       4.661   1.734  -0.317  1.00  0.00    -0.459 OA
BRANCH   4   5
ATOM      5  C   UNL     1       5.433   1.493  -1.407  1.00  0.00     0.361 C 
ATOM      6  O   UNL     1       6.080   0.467  -1.577  1.00  0.00    -0.245 OA
BRANCH   5   7
ATOM      7  C   UNL     1       5.491   2.699  -2.352  1.00  0.00     0.386 C 
BRANCH   7   8
ATOM      8  N   UNL     1       4.265   3.040  -3.066  1.00  0.00    -0.324 N 
ATOM      9  H   UNL     1       5.023   3.634  -3.402  1.00  0.00     0.348 HD
BRANCH   8  10
ATOM     10  C   UNL     1       3.426   4.171  -2.725  1.00  0.00     0.284 C 
BRANCH  10  11
ATOM     11  C   UNL     1       2.334   4.001  -1.643  1.00  0.00     0.180 C 
BRANCH  11  12
ATOM     12  N   UNL     1       1.448   2.831  -1.684  1.00  0.00    -0.336 N 
BRANCH  12  13
ATOM     13  C   UNL     1       0.131   2.969  -1.255  1.00  0.00     0.232 C 
ATOM     14  O   UNL     1      -0.512   3.948  -1.678  1.00  0.00    -0.274 OA
BRANCH  13  15
ATOM     15  C   UNL     1      -0.543   2.180  -0.059  1.00  0.00     0.142 C 
ATOM     16  C   UNL     1       1.252   0.499   0.735  1.00  0.00     0.076 C 
ATOM     17  C   UNL     1      -0.132   1.021   0.846  1.00  0.00     0.192 C 
ATOM     18  N   UNL     1      -1.046  -0.099   0.605  1.00  0.00    -0.343 N 
ATOM     19  C   UNL     1      -2.310   0.446   0.163  1.00  0.00     0.261 C 
ATOM     20  H   UNL     1      -1.180  -0.629   1.465  1.00  0.00     0.346 HD
ATOM     21  H   UNL     1      -0.662  -0.724  -0.104  1.00  0.00     0.346 HD
ATOM     22  C   UNL     1      -2.033   1.869  -0.314  1.00  0.00     0.081 C 
ENDBRANCH  13  15
ENDBRANCH  12  13
BRANCH  12  23
ATOM     23  C   UNL     1       2.022   1.578  -2.119  1.00  0.00     0.125 C 
BRANCH  23  24
ATOM     24  C   UNL     1       2.444   1.433  -3.592  1.00  0.00     0.083 CG0
ATOM     25  G   UNL     1       3.726   2.127  -4.036  1.00  0.00     0.000 G0
ENDBRANCH  23  24
ENDBRANCH  12  23
ENDBRANCH  11  12
ENDBRANCH  10  11
ENDBRANCH   8  10
BRANCH   8  26
ATOM     26  C   UNL     1       3.726   2.127  -4.036  1.00  0.00     0.264 CG0
ATOM     27  G   UNL     1       2.444   1.433  -3.592  1.00  0.00     0.000 G0
ENDBRANCH   8  26
ENDBRANCH   7   8
ENDBRANCH   5   7
ENDBRANCH   4   5
ENDBRANCH   3   4
ENDBRANCH   2   3
ENDBRANCH   1   2
BRANCH   1  28
ATOM     28  C   UNL     1       3.310  -1.586  -1.485  1.00  0.00     0.188 C 
BRANCH  28  29
ATOM     29  C   UNL     1       1.914  -2.107  -1.967  1.00  0.00     0.188 C 
BRANCH  29  30
ATOM     30  O   UNL     1       1.287  -1.207  -2.882  1.00  0.00    -0.376 OA
BRANCH  30  31
ATOM     31  C   UNL     1      -0.082  -0.826  -2.689  1.00  0.00     0.202 C 
BRANCH  31  32
ATOM     32  C   UNL     1      -1.156  -1.813  -3.125  1.00  0.00     0.261 C 
BRANCH  32  33
ATOM     33  O   UNL     1      -0.803  -2.597  -4.260  1.00  0.00    -0.460 OA
BRANCH  33  34
ATOM     34  C   UNL     1      -0.071  -1.953  -5.204  1.00  0.00     0.338 C 
ATOM     35  O   UNL     1      -0.271  -0.842  -5.641  1.00  0.00    -0.246 OA
BRANCH  34  36
ATOM     36  C   UNL     1       1.147  -2.773  -5.425  1.00  0.00     0.060 A 
ATOM     37  C   UNL     1       2.285  -2.151  -5.948  1.00  0.00     0.016 A 
ATOM     38  C   UNL     1       1.186  -4.121  -5.033  1.00  0.00     0.016 A 
ATOM     39  C   UNL     1       3.423  -2.909  -6.197  1.00  0.00     0.010 A 
ATOM     40  C   UNL     1       2.332  -4.870  -5.245  1.00  0.00     0.010 A 
ATOM     41  C   UNL     1       3.413  -4.282  -5.913  1.00  0.00    -0.014 A 
BRANCH  41  42
ATOM     42  C   UNL     1       4.361  -5.165  -6.614  1.00  0.00     0.031 A 
ATOM     43  C   UNL     1       3.864  -5.838  -7.865  1.00  0.00     0.074 A 
ATOM     44  C   UNL     1       5.615  -5.328  -6.167  1.00  0.00     0.049 A 
ATOM     45  N   UNL     1       4.484  -6.657  -8.670  1.00  0.00    -0.248 NA
ATOM     46  C   UNL     1       2.470  -5.555  -8.259  1.00  0.00     0.031 C 
ATOM     47  C   UNL     1       6.179  -4.696  -4.975  1.00  0.00     0.029 A 
ATOM     48  N   UNL     1       6.640  -6.078  -6.674  1.00  0.00    -0.354 N 
ATOM     49  C   UNL     1       3.559  -6.981  -9.658  1.00  0.00     0.074 A 
ATOM     50  C   UNL     1       2.321  -6.320  -9.326  1.00  0.00     0.031 C 
ATOM     51  C   UNL     1       7.460  -5.084  -4.846  1.00  0.00     0.029 A 
ATOM     52  C   UNL     1       7.790  -6.008  -5.928  1.00  0.00     0.049 A 
ATOM     53  H   UNL     1       6.560  -6.616  -7.494  1.00  0.00     0.167 HD
ATOM     54  C   UNL     1       3.737  -7.747 -10.757  1.00  0.00     0.037 A 
ATOM     55  C   UNL     1       8.968  -6.635  -6.109  1.00  0.00     0.037 A 
ATOM     56  C   UNL     1       4.980  -8.399 -11.062  1.00  0.00     0.049 A 
ATOM     57  C   UNL     1       9.127  -7.527  -7.315  1.00  0.00     0.074 A 
ATOM     58  C   UNL     1       5.290  -9.200 -12.144  1.00  0.00     0.029 A 
ATOM     59  N   UNL     1       6.120  -8.327 -10.272  1.00  0.00    -0.354 N 
ATOM     60  N   UNL     1       8.257  -7.809  -8.258  1.00  0.00    -0.248 NA
ATOM     61  C   UNL     1      10.431  -8.178  -7.487  1.00  0.00     0.031 C 
ATOM     62  C   UNL     1       6.600  -9.661 -11.977  1.00  0.00     0.029 A 
ATOM     63  C   UNL     1       7.129  -9.092 -10.828  1.00  0.00     0.049 A 
ATOM     64  H   UNL     1       6.197  -7.809  -9.439  1.00  0.00     0.167 HD
ATOM     65  C   UNL     1       8.917  -8.646  -9.151  1.00  0.00     0.074 A 
ATOM     66  C   UNL     1      10.265  -8.807  -8.642  1.00  0.00     0.031 C 
ATOM     67  C   UNL     1       8.459  -9.232 -10.288  1.00  0.00     0.037 A 
BRANCH  54  68
ATOM     68  C   UNL     1       2.558  -7.938 -11.672  1.00  0.00     0.058 A 
ATOM     69  C   UNL     1       2.039  -6.888 -12.448  1.00  0.00     0.135 A 
ATOM     70  C   UNL     1       1.939  -9.194 -11.776  1.00  0.00     0.135 A 
ATOM     71  F   UNL     1       2.570  -5.658 -12.365  1.00  0.00    -0.206 F 
ATOM     72  C   UNL     1       0.936  -7.071 -13.277  1.00  0.00     0.059 A 
ATOM     73  C   UNL     1       0.856  -9.407 -12.623  1.00  0.00     0.059 A 
ATOM     74  F   UNL     1       2.383 -10.229 -11.046  1.00  0.00    -0.206 F 
ATOM     75  C   UNL     1       0.354  -8.337 -13.361  1.00  0.00     0.060 A 
BRANCH  75  76
ATOM     76  S   UNL     1      -1.064  -8.563 -14.455  1.00  0.00     0.124 S 
ATOM     77  O   UNL     1      -2.104  -7.827 -13.743  1.00  0.00    -0.237 OA
ATOM     78  O   UNL     1      -0.597  -7.958 -15.697  1.00  0.00    -0.237 OA
ATOM     79  O   UNL     1      -1.237 -10.012 -14.493  1.00  0.00    -0.744 OA
ENDBRANCH  75  76
ENDBRANCH  54  68
BRANCH  55  80
ATOM     80  C   UNL     1      10.076  -6.437  -5.136  1.00  0.00     0.058 A 
ATOM     81  C   UNL     1      11.255  -5.768  -5.497  1.00  0.00     0.135 A 
ATOM     82  C   UNL     1       9.973  -6.909  -3.818  1.00  0.00     0.135 A 
ATOM     83  F   UNL     1      11.406  -5.303  -6.746  1.00  0.00    -0.206 F 
ATOM     84  C   UNL     1      12.299  -5.590  -4.594  1.00  0.00     0.059 A 
ATOM     85  C   UNL     1      10.990  -6.717  -2.888  1.00  0.00     0.059 A 
ATOM     86  F   UNL     1       8.861  -7.545  -3.415  1.00  0.00    -0.206 F 
ATOM     87  C   UNL     1      12.155  -6.065  -3.289  1.00  0.00     0.060 A 
BRANCH  87  88
ATOM     88  S   UNL     1      13.497  -5.791  -2.113  1.00  0.00     0.124 S 
ATOM     89  O   UNL     1      14.519  -6.703  -2.614  1.00  0.00    -0.237 OA
ATOM     90  O   UNL     1      13.769  -4.368  -2.287  1.00  0.00    -0.237 OA
ATOM     91  O   UNL     1      12.901  -6.155  -0.831  1.00  0.00    -0.744 OA
ENDBRANCH  87  88
ENDBRANCH  55  80
BRANCH  67  92
ATOM     92  C   UNL     1       9.437 -10.068 -11.067  1.00  0.00     0.058 A 
ATOM     93  C   UNL     1       9.904 -11.302 -10.587  1.00  0.00     0.135 A 
ATOM     94  C   UNL     1       9.891  -9.638 -12.325  1.00  0.00     0.135 A 
ATOM     95  F   UNL     1       9.500 -11.760  -9.391  1.00  0.00    -0.206 F 
ATOM     96  C   UNL     1      10.826 -12.056 -11.304  1.00  0.00     0.059 A 
ATOM     97  C   UNL     1      10.783 -10.394 -13.076  1.00  0.00     0.059 A 
ATOM     98  F   UNL     1       9.460  -8.476 -12.840  1.00  0.00    -0.206 F 
ATOM     99  C   UNL     1      11.263 -11.591 -12.546  1.00  0.00     0.060 A 
BRANCH  99 100
ATOM    100  S   UNL     1      12.466 -12.575 -13.462  1.00  0.00     0.124 S 
ATOM    101  O   UNL     1      13.682 -12.342 -12.691  1.00  0.00    -0.237 OA
ATOM    102  O   UNL     1      11.904 -13.919 -13.371  1.00  0.00    -0.237 OA
ATOM    103  O   UNL     1      12.445 -11.982 -14.796  1.00  0.00    -0.744 OA
ENDBRANCH  99 100
ENDBRANCH  67  92
ENDBRANCH  41  42
ENDBRANCH  34  36
ENDBRANCH  33  34
ENDBRANCH  32  33
ENDBRANCH  31  32
ENDBRANCH  30  31
ENDBRANCH  29  30
ENDBRANCH  28  29
ENDBRANCH   1  28
TORSDOF 23
