REMARK SMILES O=C(OCCOCCOCCOC(=O)[C@@H]1CC[C@H](CNC(=O)C2CCOCC2)O1)c1ccc(-c2c3nc(c(-c4c(F)cc(S(=O)(=O)[O-])cc4F)c4ccc([nH]4)c(-c4c(F)cc(S(=O)(=O)[O-])cc4F)c4nc(c(-c5c(F)cc(S(=O)(=O)[O-])cc5F)c5ccc2[nH]5)C=C4)C=C3)cc1
REMARK SMILES IDX 7 1 6 2 5 3 4 4 3 5 2 6 1 7 30 8 31 9 95 10 32 11 94 12
REMARK SMILES IDX 33 13 34 14 35 15 88 16 36 17 93 18 87 19 89 20 37 21 92 22
REMARK SMILES IDX 86 23 85 24 38 26 72 27 51 28 71 29 52 30 55 31 70 32 90 33
REMARK SMILES IDX 53 34 54 35 69 37 91 38 56 39 39 40 40 41 49 42 41 43 42 44
REMARK SMILES IDX 48 45 50 46 43 47 44 48 45 49 46 50 47 51 73 52 74 53 83 54
REMARK SMILES IDX 75 55 76 56 82 57 84 58 77 59 78 60 79 61 80 62 81 63 57 64
REMARK SMILES IDX 58 65 67 66 59 67 60 68 66 69 68 70 61 71 62 72 63 73 64 74
REMARK SMILES IDX 65 75 8 76 9 77 10 78 11 79 12 80 13 81 14 82 15 83 16 84
REMARK SMILES IDX 29 85 17 86 18 87 19 88 20 89 21 90 22 92 23 93 24 94 28 95
REMARK SMILES IDX 25 96 27 97 26 98
REMARK H PARENT 89 25 55 36 20 91
REMARK Flexibility Score: inf
ROOT
ATOM      1  C   UNL     1       2.556  -2.344  -0.085  1.00  0.00     0.188 C 
ENDROOT
BRANCH   1   2
ATOM      2  O   UNL     1       3.865  -1.951  -0.497  1.00  0.00    -0.376 OA
BRANCH   2   3
ATOM      3  C   UNL     1       4.826  -1.740   0.533  1.00  0.00     0.202 C 
BRANCH   3   4
ATOM      4  C   UNL     1       4.559  -0.594   1.514  1.00  0.00     0.261 C 
BRANCH   4   5
ATOM      5  O   UNL     1       3.265   0.003   1.382  1.00  0.00    -0.460 OA
BRANCH   5   6
ATOM      6  C   UNL     1       2.935   0.923   0.449  1.00  0.00     0.338 C 
ATOM      7  O   UNL     1       1.785   1.351   0.365  1.00  0.00    -0.246 OA
BRANCH   6   8
ATOM      8  C   UNL     1       3.974   1.526  -0.407  1.00  0.00     0.060 A 
ATOM      9  C   UNL     1       4.671   0.850  -1.412  1.00  0.00     0.016 A 
ATOM     10  C   UNL     1       4.104   2.898  -0.313  1.00  0.00     0.016 A 
ATOM     11  C   UNL     1       5.534   1.524  -2.288  1.00  0.00     0.010 A 
ATOM     12  C   UNL     1       4.835   3.570  -1.288  1.00  0.00     0.010 A 
ATOM     13  C   UNL     1       5.553   2.914  -2.320  1.00  0.00    -0.014 A 
BRANCH  13  14
ATOM     14  C   UNL     1       6.164   3.760  -3.417  1.00  0.00     0.031 A 
ATOM     15  C   UNL     1       6.648   5.132  -3.020  1.00  0.00     0.074 A 
ATOM     16  C   UNL     1       6.083   3.485  -4.742  1.00  0.00     0.049 A 
ATOM     17  N   UNL     1       6.568   6.267  -3.656  1.00  0.00    -0.248 NA
ATOM     18  C   UNL     1       7.154   5.242  -1.641  1.00  0.00     0.031 C 
ATOM     19  C   UNL     1       5.745   2.211  -5.374  1.00  0.00     0.029 A 
ATOM     20  N   UNL     1       6.190   4.345  -5.821  1.00  0.00    -0.354 N 
ATOM     21  C   UNL     1       6.890   7.232  -2.710  1.00  0.00     0.074 A 
ATOM     22  C   UNL     1       7.021   6.544  -1.443  1.00  0.00     0.031 C 
ATOM     23  C   UNL     1       5.542   2.393  -6.688  1.00  0.00     0.029 A 
ATOM     24  C   UNL     1       5.719   3.799  -6.999  1.00  0.00     0.049 A 
ATOM     25  H   UNL     1       6.564   5.253  -5.755  1.00  0.00     0.167 HD
ATOM     26  C   UNL     1       7.132   8.553  -2.885  1.00  0.00     0.037 A 
ATOM     27  C   UNL     1       5.419   4.358  -8.189  1.00  0.00     0.037 A 
ATOM     28  C   UNL     1       7.225   9.160  -4.183  1.00  0.00     0.049 A 
ATOM     29  C   UNL     1       5.766   5.799  -8.415  1.00  0.00     0.074 A 
ATOM     30  C   UNL     1       7.705  10.412  -4.517  1.00  0.00     0.029 A 
ATOM     31  N   UNL     1       6.884   8.527  -5.370  1.00  0.00    -0.354 N 
ATOM     32  N   UNL     1       6.133   6.698  -7.536  1.00  0.00    -0.248 NA
ATOM     33  C   UNL     1       5.755   6.279  -9.804  1.00  0.00     0.031 C 
ATOM     34  C   UNL     1       7.675  10.528  -5.912  1.00  0.00     0.029 A 
ATOM     35  C   UNL     1       7.191   9.342  -6.442  1.00  0.00     0.049 A 
ATOM     36  H   UNL     1       6.483   7.630  -5.438  1.00  0.00     0.167 HD
ATOM     37  C   UNL     1       6.491   7.819  -8.273  1.00  0.00     0.074 A 
ATOM     38  C   UNL     1       6.247   7.503  -9.665  1.00  0.00     0.031 C 
ATOM     39  C   UNL     1       7.020   8.983  -7.829  1.00  0.00     0.037 A 
BRANCH  26  40
ATOM     40  C   UNL     1       7.398   9.378  -1.652  1.00  0.00     0.058 A 
ATOM     41  C   UNL     1       8.485   9.110  -0.800  1.00  0.00     0.135 A 
ATOM     42  C   UNL     1       6.516  10.402  -1.273  1.00  0.00     0.135 A 
ATOM     43  F   UNL     1       9.373   8.153  -1.114  1.00  0.00    -0.206 F 
ATOM     44  C   UNL     1       8.612   9.729   0.437  1.00  0.00     0.059 A 
ATOM     45  C   UNL     1       6.658  11.077  -0.062  1.00  0.00     0.059 A 
ATOM     46  F   UNL     1       5.480  10.732  -2.060  1.00  0.00    -0.206 F 
ATOM     47  C   UNL     1       7.680  10.696   0.807  1.00  0.00     0.060 A 
BRANCH  47  48
ATOM     48  S   UNL     1       7.809  11.428   2.451  1.00  0.00     0.124 S 
ATOM     49  O   UNL     1       7.143  10.415   3.267  1.00  0.00    -0.237 OA
ATOM     50  O   UNL     1       9.245  11.545   2.639  1.00  0.00    -0.237 OA
ATOM     51  O   UNL     1       7.089  12.695   2.309  1.00  0.00    -0.744 OA
ENDBRANCH  47  48
ENDBRANCH  26  40
BRANCH  27  52
ATOM     52  C   UNL     1       4.825   3.533  -9.277  1.00  0.00     0.058 A 
ATOM     53  C   UNL     1       5.627   2.982 -10.285  1.00  0.00     0.135 A 
ATOM     54  C   UNL     1       3.449   3.251  -9.311  1.00  0.00     0.135 A 
ATOM     55  F   UNL     1       6.949   3.211 -10.288  1.00  0.00    -0.206 F 
ATOM     56  C   UNL     1       5.090   2.193 -11.298  1.00  0.00     0.059 A 
ATOM     57  C   UNL     1       2.887   2.464 -10.315  1.00  0.00     0.059 A 
ATOM     58  F   UNL     1       2.644   3.708  -8.340  1.00  0.00    -0.206 F 
ATOM     59  C   UNL     1       3.717   1.938 -11.305  1.00  0.00     0.060 A 
BRANCH  59  60
ATOM     60  S   UNL     1       3.051   0.865 -12.598  1.00  0.00     0.124 S 
ATOM     61  O   UNL     1       3.297   1.654 -13.799  1.00  0.00    -0.237 OA
ATOM     62  O   UNL     1       3.873  -0.332 -12.441  1.00  0.00    -0.237 OA
ATOM     63  O   UNL     1       1.650   0.710 -12.219  1.00  0.00    -0.744 OA
ENDBRANCH  59  60
ENDBRANCH  27  52
BRANCH  39  64
ATOM     64  C   UNL     1       7.539   9.953  -8.846  1.00  0.00     0.058 A 
ATOM     65  C   UNL     1       6.697  10.815  -9.559  1.00  0.00     0.135 A 
ATOM     66  C   UNL     1       8.928  10.101  -9.002  1.00  0.00     0.135 A 
ATOM     67  F   UNL     1       5.365  10.698  -9.456  1.00  0.00    -0.206 F 
ATOM     68  C   UNL     1       7.217  11.812 -10.379  1.00  0.00     0.059 A 
ATOM     69  C   UNL     1       9.469  11.102  -9.798  1.00  0.00     0.059 A 
ATOM     70  F   UNL     1       9.773   9.294  -8.339  1.00  0.00    -0.206 F 
ATOM     71  C   UNL     1       8.604  11.959 -10.476  1.00  0.00     0.060 A 
BRANCH  71  72
ATOM     72  S   UNL     1       9.265  13.334 -11.441  1.00  0.00     0.124 S 
ATOM     73  O   UNL     1       9.030  12.877 -12.806  1.00  0.00    -0.237 OA
ATOM     74  O   UNL     1       8.440  14.452 -10.995  1.00  0.00    -0.237 OA
ATOM     75  O   UNL     1      10.665  13.395 -11.031  1.00  0.00    -0.744 OA
ENDBRANCH  71  72
ENDBRANCH  39  64
ENDBRANCH  13  14
ENDBRANCH   6   8
ENDBRANCH   5   6
ENDBRANCH   4   5
ENDBRANCH   3   4
ENDBRANCH   2   3
ENDBRANCH   1   2
BRANCH   1  76
ATOM     76  C   UNL     1       1.854  -3.145  -1.187  1.00  0.00     0.188 C 
BRANCH  76  77
ATOM     77  O   UNL     1       2.372  -4.453  -1.447  1.00  0.00    -0.376 OA
BRANCH  77  78
ATOM     78  C   UNL     1       3.778  -4.562  -1.632  1.00  0.00     0.202 C 
BRANCH  78  79
ATOM     79  C   UNL     1       4.391  -3.966  -2.912  1.00  0.00     0.261 C 
BRANCH  79  80
ATOM     80  O   UNL     1       3.804  -2.737  -3.368  1.00  0.00    -0.461 OA
BRANCH  80  81
ATOM     81  C   UNL     1       2.995  -2.857  -4.458  1.00  0.00     0.335 C 
ATOM     82  O   UNL     1       2.795  -3.907  -5.064  1.00  0.00    -0.249 OA
BRANCH  81  83
ATOM     83  C   UNL     1       2.370  -1.527  -4.902  1.00  0.00     0.228 C 
ATOM     84  C   UNL     1       3.209  -0.876  -5.980  1.00  0.00     0.047 C 
ATOM     85  O   UNL     1       2.131  -0.447  -3.993  1.00  0.00    -0.361 OA
ATOM     86  C   UNL     1       2.445   0.410  -6.196  1.00  0.00     0.037 C 
ATOM     87  C   UNL     1       1.874   0.732  -4.811  1.00  0.00     0.138 C 
BRANCH  87  88
ATOM     88  C   UNL     1       2.466   1.991  -4.159  1.00  0.00     0.147 C 
BRANCH  88  89
ATOM     89  N   UNL     1       2.251   3.210  -4.930  1.00  0.00    -0.353 N 
ATOM     90  C   UNL     1       2.163   4.515  -4.544  1.00  0.00     0.223 C 
ATOM     91  H   UNL     1       2.152   3.065  -5.899  1.00  0.00     0.163 HD
ATOM     92  O   UNL     1       2.118   5.367  -5.432  1.00  0.00    -0.275 OA
BRANCH  90  93
ATOM     93  C   UNL     1       2.117   4.885  -3.070  1.00  0.00     0.083 C 
ATOM     94  C   UNL     1       0.795   4.494  -2.411  1.00  0.00     0.042 C 
ATOM     95  C   UNL     1       2.376   6.389  -2.866  1.00  0.00     0.042 C 
ATOM     96  C   UNL     1       0.750   4.986  -0.971  1.00  0.00     0.161 C 
ATOM     97  C   UNL     1       2.197   6.807  -1.413  1.00  0.00     0.161 C 
ATOM     98  O   UNL     1       0.923   6.398  -0.913  1.00  0.00    -0.381 OA
ENDBRANCH  90  93
ENDBRANCH  88  89
ENDBRANCH  87  88
ENDBRANCH  81  83
ENDBRANCH  80  81
ENDBRANCH  79  80
ENDBRANCH  78  79
ENDBRANCH  77  78
ENDBRANCH  76  77
ENDBRANCH   1  76
TORSDOF 23
