REMARK SMILES Cc1nc(CN(C)C(=O)NCc2ccc(C(=O)OCCOCCOCCOC(=O)c3ccc(-c4c5nc(c(-c6c(F)cc(S(=O)(=O)[O-])cc6F)c6ccc([nH]6)c(-c6c(F)cc(S(=O)(=O)[O-])cc6F)c6nc(c(-c7c(F)cc(S(=O)(=O)[O-])cc7F)c7ccc4[nH]7)C=C6)C=C5)cc3)o2)n[nH]1
REMARK SMILES IDX 22 1 21 2 20 3 19 4 18 5 16 6 17 7 15 8 12 9 13 10 96 11
REMARK SMILES IDX 14 12 11 13 10 14 8 15 9 16 6 18 7 19 5 20 4 21 1 22 2 23
REMARK SMILES IDX 3 24 98 25 97 26 23 28 24 29 25 30 26 31 27 32 28 33 29 34
REMARK SMILES IDX 30 35 31 36 95 37 32 38 94 39 33 40 34 41 35 42 88 43 36 44
REMARK SMILES IDX 93 45 87 46 89 47 37 48 92 49 86 50 85 51 38 53 72 54 51 55
REMARK SMILES IDX 71 56 52 57 55 58 70 59 90 60 53 61 54 62 69 64 91 65 56 66
REMARK SMILES IDX 39 67 40 68 49 69 41 70 42 71 48 72 50 73 43 74 44 75 45 76
REMARK SMILES IDX 46 77 47 78 73 79 74 80 83 81 75 82 76 83 82 84 84 85 77 86
REMARK SMILES IDX 78 87 79 88 80 89 81 90 57 91 58 92 67 93 59 94 60 95 66 96
REMARK SMILES IDX 68 97 61 98 62 99 63 100 64 101 65 102
REMARK H PARENT 10 17 98 27 89 52 55 63
REMARK Flexibility Score: inf
ROOT
ATOM      1  C   UNL     1       8.774   2.541   8.021  1.00  0.00     0.188 C 
ENDROOT
BRANCH   1   2
ATOM      2  O   UNL     1      10.109   2.937   8.319  1.00  0.00    -0.376 OA
BRANCH   2   3
ATOM      3  C   UNL     1      10.580   4.198   7.859  1.00  0.00     0.202 C 
BRANCH   3   4
ATOM      4  C   UNL     1      10.687   4.366   6.343  1.00  0.00     0.261 C 
BRANCH   4   5
ATOM      5  O   UNL     1       9.388   4.432   5.731  1.00  0.00    -0.457 OA
BRANCH   5   6
ATOM      6  C   UNL     1       9.166   3.544   4.717  1.00  0.00     0.374 C 
ATOM      7  O   UNL     1      10.027   2.846   4.199  1.00  0.00    -0.242 OA
BRANCH   6   8
ATOM      8  C   UNL     1       7.750   3.476   4.441  1.00  0.00     0.211 A 
ATOM      9  C   UNL     1       5.880   2.386   4.003  1.00  0.00     0.124 A 
ATOM     10  C   UNL     1       5.525   3.702   4.220  1.00  0.00     0.048 A 
ATOM     11  O   UNL     1       7.232   2.255   4.102  1.00  0.00    -0.452 OA
ATOM     12  C   UNL     1       6.723   4.398   4.519  1.00  0.00     0.058 A 
BRANCH   9  13
ATOM     13  C   UNL     1       5.132   1.125   3.750  1.00  0.00     0.193 C 
BRANCH  13  14
ATOM     14  N   UNL     1       3.729   1.418   3.558  1.00  0.00    -0.331 N 
ATOM     15  C   UNL     1       2.949   1.724   2.509  1.00  0.00     0.317 C 
ATOM     16  O   UNL     1       1.846   2.195   2.806  1.00  0.00    -0.249 OA
ATOM     17  H   UNL     1       3.224   1.385   4.402  1.00  0.00     0.165 HD
BRANCH  15  18
ATOM     18  N   UNL     1       3.335   1.546   1.213  1.00  0.00    -0.320 N 
ATOM     19  C   UNL     1       4.511   0.836   0.745  1.00  0.00     0.149 C 
BRANCH  18  20
ATOM     20  C   UNL     1       2.344   1.891   0.185  1.00  0.00     0.200 C 
BRANCH  20  21
ATOM     21  C   UNL     1       1.280   0.840   0.052  1.00  0.00     0.170 A 
ATOM     22  C   UNL     1      -2.112  -0.261  -0.051  1.00  0.00     0.089 C 
ATOM     23  C   UNL     1      -0.659   0.002  -0.041  1.00  0.00     0.121 A 
ATOM     24  N   UNL     1      -0.053   1.168  -0.057  1.00  0.00    -0.215 NA
ATOM     25  N   UNL     1       0.282  -0.986   0.017  1.00  0.00    -0.263 N 
ATOM     26  N   UNL     1       1.526  -0.480   0.015  1.00  0.00    -0.157 NA
ATOM     27  H   UNL     1       0.074  -1.947   0.055  1.00  0.00     0.192 HD
ENDBRANCH  20  21
ENDBRANCH  18  20
ENDBRANCH  15  18
ENDBRANCH  13  14
ENDBRANCH   9  13
ENDBRANCH   6   8
ENDBRANCH   5   6
ENDBRANCH   4   5
ENDBRANCH   3   4
ENDBRANCH   2   3
ENDBRANCH   1   2
BRANCH   1  28
ATOM     28  C   UNL     1       7.638   3.560   8.224  1.00  0.00     0.188 C 
BRANCH  28  29
ATOM     29  O   UNL     1       7.962   4.616   9.122  1.00  0.00    -0.376 OA
BRANCH  29  30
ATOM     30  C   UNL     1       7.213   4.646  10.330  1.00  0.00     0.202 C 
BRANCH  30  31
ATOM     31  C   UNL     1       7.766   3.685  11.386  1.00  0.00     0.261 C 
BRANCH  31  32
ATOM     32  O   UNL     1       7.658   2.296  11.039  1.00  0.00    -0.460 OA
BRANCH  32  33
ATOM     33  C   UNL     1       6.408   1.802  10.901  1.00  0.00     0.338 C 
ATOM     34  O   UNL     1       5.358   2.405  11.030  1.00  0.00    -0.246 OA
BRANCH  33  35
ATOM     35  C   UNL     1       6.519   0.414  10.417  1.00  0.00     0.060 A 
ATOM     36  C   UNL     1       5.816   0.039   9.266  1.00  0.00     0.016 A 
ATOM     37  C   UNL     1       7.303  -0.513  11.109  1.00  0.00     0.016 A 
ATOM     38  C   UNL     1       5.875  -1.282   8.820  1.00  0.00     0.010 A 
ATOM     39  C   UNL     1       7.348  -1.836  10.670  1.00  0.00     0.010 A 
ATOM     40  C   UNL     1       6.614  -2.232   9.540  1.00  0.00    -0.014 A 
BRANCH  40  41
ATOM     41  C   UNL     1       6.497  -3.674   9.219  1.00  0.00     0.031 A 
ATOM     42  C   UNL     1       5.475  -4.492   9.959  1.00  0.00     0.074 A 
ATOM     43  C   UNL     1       7.300  -4.251   8.309  1.00  0.00     0.049 A 
ATOM     44  N   UNL     1       5.239  -5.776   9.896  1.00  0.00    -0.248 NA
ATOM     45  C   UNL     1       4.607  -3.763  10.898  1.00  0.00     0.031 C 
ATOM     46  C   UNL     1       8.316  -3.561   7.516  1.00  0.00     0.029 A 
ATOM     47  N   UNL     1       7.395  -5.561   7.913  1.00  0.00    -0.354 N 
ATOM     48  C   UNL     1       4.196  -6.010  10.784  1.00  0.00     0.074 A 
ATOM     49  C   UNL     1       3.860  -4.740  11.390  1.00  0.00     0.031 C 
ATOM     50  C   UNL     1       8.946  -4.460   6.739  1.00  0.00     0.029 A 
ATOM     51  C   UNL     1       8.395  -5.789   6.998  1.00  0.00     0.049 A 
ATOM     52  H   UNL     1       6.803  -6.271   8.252  1.00  0.00     0.167 HD
ATOM     53  C   UNL     1       3.572  -7.178  11.066  1.00  0.00     0.037 A 
ATOM     54  C   UNL     1       8.827  -6.943   6.452  1.00  0.00     0.037 A 
ATOM     55  C   UNL     1       3.916  -8.443  10.479  1.00  0.00     0.049 A 
ATOM     56  C   UNL     1       8.158  -8.240   6.829  1.00  0.00     0.074 A 
ATOM     57  C   UNL     1       3.336  -9.681  10.695  1.00  0.00     0.029 A 
ATOM     58  N   UNL     1       4.942  -8.636   9.566  1.00  0.00    -0.354 N 
ATOM     59  N   UNL     1       7.153  -8.444   7.647  1.00  0.00    -0.248 NA
ATOM     60  C   UNL     1       8.683  -9.465   6.207  1.00  0.00     0.031 C 
ATOM     61  C   UNL     1       4.033 -10.628   9.937  1.00  0.00     0.029 A 
ATOM     62  C   UNL     1       5.024  -9.974   9.222  1.00  0.00     0.049 A 
ATOM     63  H   UNL     1       5.526  -7.926   9.214  1.00  0.00     0.167 HD
ATOM     64  C   UNL     1       6.913  -9.814   7.622  1.00  0.00     0.074 A 
ATOM     65  C   UNL     1       7.872 -10.390   6.703  1.00  0.00     0.031 C 
ATOM     66  C   UNL     1       5.980 -10.530   8.298  1.00  0.00     0.037 A 
BRANCH  53  67
ATOM     67  C   UNL     1       2.463  -7.132  12.076  1.00  0.00     0.058 A 
ATOM     68  C   UNL     1       1.204  -6.602  11.757  1.00  0.00     0.135 A 
ATOM     69  C   UNL     1       2.660  -7.628  13.375  1.00  0.00     0.135 A 
ATOM     70  F   UNL     1       0.974  -6.096  10.534  1.00  0.00    -0.206 F 
ATOM     71  C   UNL     1       0.183  -6.541  12.698  1.00  0.00     0.059 A 
ATOM     72  C   UNL     1       1.646  -7.595  14.327  1.00  0.00     0.059 A 
ATOM     73  F   UNL     1       3.849  -8.139  13.730  1.00  0.00    -0.206 F 
ATOM     74  C   UNL     1       0.416  -7.035  13.983  1.00  0.00     0.060 A 
BRANCH  74  75
ATOM     75  S   UNL     1      -0.913  -6.941  15.201  1.00  0.00     0.124 S 
ATOM     76  O   UNL     1      -0.866  -5.530  15.573  1.00  0.00    -0.237 OA
ATOM     77  O   UNL     1      -2.080  -7.353  14.427  1.00  0.00    -0.237 OA
ATOM     78  O   UNL     1      -0.490  -7.878  16.237  1.00  0.00    -0.744 OA
ENDBRANCH  74  75
ENDBRANCH  53  67
BRANCH  54  79
ATOM     79  C   UNL     1       9.966  -6.933   5.498  1.00  0.00     0.058 A 
ATOM     80  C   UNL     1       9.763  -7.165   4.130  1.00  0.00     0.135 A 
ATOM     81  C   UNL     1      11.278  -6.702   5.937  1.00  0.00     0.135 A 
ATOM     82  F   UNL     1       8.527  -7.404   3.666  1.00  0.00    -0.206 F 
ATOM     83  C   UNL     1      10.824  -7.181   3.230  1.00  0.00     0.059 A 
ATOM     84  C   UNL     1      12.353  -6.693   5.053  1.00  0.00     0.059 A 
ATOM     85  F   UNL     1      11.522  -6.469   7.236  1.00  0.00    -0.206 F 
ATOM     86  C   UNL     1      12.116  -6.944   3.702  1.00  0.00     0.060 A 
BRANCH  86  87
ATOM     87  S   UNL     1      13.484  -6.925   2.522  1.00  0.00     0.124 S 
ATOM     88  O   UNL     1      13.691  -8.350   2.291  1.00  0.00    -0.237 OA
ATOM     89  O   UNL     1      12.919  -6.173   1.405  1.00  0.00    -0.237 OA
ATOM     90  O   UNL     1      14.546  -6.241   3.253  1.00  0.00    -0.744 OA
ENDBRANCH  86  87
ENDBRANCH  54  79
BRANCH  66  91
ATOM     91  C   UNL     1       5.926 -12.011   8.048  1.00  0.00     0.058 A 
ATOM     92  C   UNL     1       6.865 -12.885   8.614  1.00  0.00     0.135 A 
ATOM     93  C   UNL     1       4.887 -12.565   7.285  1.00  0.00     0.135 A 
ATOM     94  F   UNL     1       7.881 -12.404   9.348  1.00  0.00    -0.206 F 
ATOM     95  C   UNL     1       6.785 -14.261   8.420  1.00  0.00     0.059 A 
ATOM     96  C   UNL     1       4.775 -13.938   7.093  1.00  0.00     0.059 A 
ATOM     97  F   UNL     1       3.957 -11.770   6.731  1.00  0.00    -0.206 F 
ATOM     98  C   UNL     1       5.735 -14.778   7.657  1.00  0.00     0.060 A 
BRANCH  98  99
ATOM     99  S   UNL     1       5.612 -16.567   7.444  1.00  0.00     0.124 S 
ATOM    100  O   UNL     1       6.617 -16.810   6.415  1.00  0.00    -0.237 OA
ATOM    101  O   UNL     1       5.935 -17.068   8.776  1.00  0.00    -0.237 OA
ATOM    102  O   UNL     1       4.226 -16.763   7.029  1.00  0.00    -0.744 OA
ENDBRANCH  98  99
ENDBRANCH  66  91
ENDBRANCH  40  41
ENDBRANCH  33  35
ENDBRANCH  32  33
ENDBRANCH  31  32
ENDBRANCH  30  31
ENDBRANCH  29  30
ENDBRANCH  28  29
ENDBRANCH   1  28
TORSDOF 25
