REMARK SMILES Cc1occc1C(=O)N[C@@H]1CCCCC[C@@H]1C(=O)OCCOCCOCCOC(=O)c1ccc(-c2c3nc(c(-c4c(F)cc(S(=O)(=O)[O-])cc4F)c4ccc([nH]4)c(-c4c(F)cc(S(=O)(=O)[O-])cc4F)c4nc(c(-c5c(F)cc(S(=O)(=O)[O-])cc5F)c5ccc2[nH]5)C=C4)C=C3)cc1
REMARK SMILES IDX 23 1 22 2 21 3 20 4 19 5 17 6 18 7 16 8 10 9 9 10 7 11 8 12
REMARK SMILES IDX 6 14 1 15 2 16 3 17 4 18 5 19 11 20 15 22 14 23 13 24 12 25
REMARK SMILES IDX 24 27 25 28 26 29 27 30 28 31 29 32 30 33 31 34 32 35 96 36
REMARK SMILES IDX 33 37 95 38 34 39 35 40 36 41 89 42 37 43 94 44 88 45 90 46
REMARK SMILES IDX 38 47 93 48 87 49 86 50 39 52 73 53 52 54 72 55 53 56 56 57
REMARK SMILES IDX 71 58 91 59 54 60 55 61 70 63 92 64 57 65 40 66 41 67 50 68
REMARK SMILES IDX 42 69 43 70 49 71 51 72 44 73 45 74 46 75 47 76 48 77 74 78
REMARK SMILES IDX 75 79 84 80 76 81 77 82 83 83 85 84 78 85 79 86 80 87 81 88
REMARK SMILES IDX 82 89 58 90 59 91 68 92 60 93 61 94 67 95 69 96 62 97 63 98
REMARK SMILES IDX 64 99 65 100 66 101
REMARK H PARENT 9 13 90 51 56 62
REMARK Flexibility Score: 90.00
ROOT
ATOM      1  C   UNL     1       1.199  -0.045  -4.516  1.00  0.00     0.188 C 
ENDROOT
BRANCH   1   2
ATOM      2  O   UNL     1       0.405  -1.067  -5.099  1.00  0.00    -0.376 OA
BRANCH   2   3
ATOM      3  C   UNL     1      -0.614  -1.631  -4.282  1.00  0.00     0.202 C 
BRANCH   3   4
ATOM      4  C   UNL     1      -0.173  -2.394  -3.027  1.00  0.00     0.261 C 
BRANCH   4   5
ATOM      5  O   UNL     1       0.649  -1.653  -2.102  1.00  0.00    -0.463 OA
BRANCH   5   6
ATOM      6  C   UNL     1       1.930  -2.095  -1.992  1.00  0.00     0.311 C 
ATOM      7  O   UNL     1       2.421  -2.985  -2.680  1.00  0.00    -0.252 OA
BRANCH   6   8
ATOM      8  C   UNL     1       2.714  -1.461  -0.856  1.00  0.00     0.121 C 
BRANCH   8   9
ATOM      9  C   UNL     1       2.737  -2.477   0.297  1.00  0.00     0.096 C 
BRANCH   9  10
ATOM     10  N   UNL     1       1.480  -3.144   0.697  1.00  0.00    -0.348 N 
ATOM     11  C   UNL     1       0.160  -2.866   0.918  1.00  0.00     0.255 C 
ATOM     12  O   UNL     1      -0.578  -3.850   1.021  1.00  0.00    -0.269 OA
ATOM     13  H   UNL     1       1.648  -4.101   0.856  1.00  0.00     0.164 HD
BRANCH  11  14
ATOM     14  C   UNL     1      -0.419  -1.540   0.972  1.00  0.00     0.080 A 
ATOM     15  C   UNL     1       0.788  -0.241   2.936  1.00  0.00     0.088 C 
ATOM     16  C   UNL     1      -0.158  -0.490   1.837  1.00  0.00     0.113 A 
ATOM     17  O   UNL     1      -1.033   0.537   1.624  1.00  0.00    -0.469 OA
ATOM     18  C   UNL     1      -1.909   0.135   0.676  1.00  0.00     0.196 A 
ATOM     19  C   UNL     1      -1.599  -1.135   0.263  1.00  0.00     0.056 A 
ENDBRANCH  11  14
ENDBRANCH   9  10
BRANCH   9  20
ATOM     20  C   UNL     1       3.657  -2.223   1.497  1.00  0.00     0.026 CG0
ATOM     21  G   UNL     1       4.742  -1.168   1.322  1.00  0.00     0.000 G0
ENDBRANCH   9  20
ENDBRANCH   8   9
BRANCH   8  22
ATOM     22  C   UNL     1       2.420   0.000  -0.525  1.00  0.00     0.017 C 
BRANCH  22  23
ATOM     23  C   UNL     1       3.606   0.774   0.069  1.00  0.00     0.001 C 
BRANCH  23  24
ATOM     24  C   UNL     1       4.201   0.255   1.375  1.00  0.00     0.000 C 
BRANCH  24  25
ATOM     25  C   UNL     1       4.742  -1.168   1.322  1.00  0.00     0.002 CG0
ATOM     26  G   UNL     1       3.657  -2.223   1.497  1.00  0.00     0.000 G0
ENDBRANCH  24  25
ENDBRANCH  23  24
ENDBRANCH  22  23
ENDBRANCH   8  22
ENDBRANCH   6   8
ENDBRANCH   5   6
ENDBRANCH   4   5
ENDBRANCH   3   4
ENDBRANCH   2   3
ENDBRANCH   1   2
BRANCH   1  27
ATOM     27  C   UNL     1       0.470   1.209  -4.030  1.00  0.00     0.188 C 
BRANCH  27  28
ATOM     28  O   UNL     1      -0.692   0.996  -3.236  1.00  0.00    -0.376 OA
BRANCH  28  29
ATOM     29  C   UNL     1      -1.231   2.163  -2.602  1.00  0.00     0.202 C 
BRANCH  29  30
ATOM     30  C   UNL     1      -1.433   3.399  -3.502  1.00  0.00     0.261 C 
BRANCH  30  31
ATOM     31  O   UNL     1      -0.213   3.938  -4.051  1.00  0.00    -0.460 OA
BRANCH  31  32
ATOM     32  C   UNL     1       0.760   4.293  -3.177  1.00  0.00     0.338 C 
ATOM     33  O   UNL     1       0.623   4.461  -1.977  1.00  0.00    -0.246 OA
BRANCH  32  34
ATOM     34  C   UNL     1       2.074   4.175  -3.870  1.00  0.00     0.060 A 
ATOM     35  C   UNL     1       3.180   3.733  -3.127  1.00  0.00     0.016 A 
ATOM     36  C   UNL     1       2.206   4.386  -5.248  1.00  0.00     0.016 A 
ATOM     37  C   UNL     1       4.421   3.553  -3.747  1.00  0.00     0.010 A 
ATOM     38  C   UNL     1       3.448   4.207  -5.866  1.00  0.00     0.010 A 
ATOM     39  C   UNL     1       4.572   3.827  -5.113  1.00  0.00    -0.014 A 
BRANCH  39  40
ATOM     40  C   UNL     1       5.929   3.950  -5.706  1.00  0.00     0.031 A 
ATOM     41  C   UNL     1       6.524   5.330  -5.814  1.00  0.00     0.074 A 
ATOM     42  C   UNL     1       6.632   2.884  -6.134  1.00  0.00     0.049 A 
ATOM     43  N   UNL     1       7.661   5.710  -6.335  1.00  0.00    -0.248 NA
ATOM     44  C   UNL     1       5.719   6.432  -5.258  1.00  0.00     0.031 C 
ATOM     45  C   UNL     1       6.196   1.492  -6.058  1.00  0.00     0.029 A 
ATOM     46  N   UNL     1       7.869   2.817  -6.730  1.00  0.00    -0.354 N 
ATOM     47  C   UNL     1       7.706   7.090  -6.176  1.00  0.00     0.074 A 
ATOM     48  C   UNL     1       6.469   7.485  -5.538  1.00  0.00     0.031 C 
ATOM     49  C   UNL     1       7.149   0.708  -6.598  1.00  0.00     0.029 A 
ATOM     50  C   UNL     1       8.247   1.544  -7.085  1.00  0.00     0.049 A 
ATOM     51  H   UNL     1       8.432   3.609  -6.889  1.00  0.00     0.167 HD
ATOM     52  C   UNL     1       8.690   7.953  -6.519  1.00  0.00     0.037 A 
ATOM     53  C   UNL     1       9.342   1.107  -7.744  1.00  0.00     0.037 A 
ATOM     54  C   UNL     1       9.919   7.568  -7.157  1.00  0.00     0.049 A 
ATOM     55  C   UNL     1      10.393   2.098  -8.187  1.00  0.00     0.074 A 
ATOM     56  C   UNL     1      10.981   8.373  -7.532  1.00  0.00     0.029 A 
ATOM     57  N   UNL     1      10.249   6.273  -7.526  1.00  0.00    -0.354 N 
ATOM     58  N   UNL     1      10.435   3.397  -8.005  1.00  0.00    -0.248 NA
ATOM     59  C   UNL     1      11.547   1.562  -8.926  1.00  0.00     0.031 C 
ATOM     60  C   UNL     1      11.932   7.572  -8.171  1.00  0.00     0.029 A 
ATOM     61  C   UNL     1      11.487   6.260  -8.146  1.00  0.00     0.049 A 
ATOM     62  H   UNL     1       9.687   5.481  -7.369  1.00  0.00     0.167 HD
ATOM     63  C   UNL     1      11.630   3.825  -8.579  1.00  0.00     0.074 A 
ATOM     64  C   UNL     1      12.286   2.649  -9.108  1.00  0.00     0.031 C 
ATOM     65  C   UNL     1      12.140   5.080  -8.657  1.00  0.00     0.037 A 
BRANCH  52  66
ATOM     66  C   UNL     1       8.459   9.409  -6.232  1.00  0.00     0.058 A 
ATOM     67  C   UNL     1       8.486   9.918  -4.924  1.00  0.00     0.135 A 
ATOM     68  C   UNL     1       8.223  10.310  -7.283  1.00  0.00     0.135 A 
ATOM     69  F   UNL     1       8.683   9.094  -3.882  1.00  0.00    -0.206 F 
ATOM     70  C   UNL     1       8.260  11.265  -4.665  1.00  0.00     0.059 A 
ATOM     71  C   UNL     1       8.022  11.666  -7.049  1.00  0.00     0.059 A 
ATOM     72  F   UNL     1       8.181   9.873  -8.552  1.00  0.00    -0.206 F 
ATOM     73  C   UNL     1       8.028  12.131  -5.735  1.00  0.00     0.060 A 
BRANCH  73  74
ATOM     74  S   UNL     1       7.734  13.877  -5.382  1.00  0.00     0.124 S 
ATOM     75  O   UNL     1       6.387  13.836  -4.822  1.00  0.00    -0.237 OA
ATOM     76  O   UNL     1       8.804  14.188  -4.439  1.00  0.00    -0.237 OA
ATOM     77  O   UNL     1       7.851  14.512  -6.691  1.00  0.00    -0.744 OA
ENDBRANCH  73  74
ENDBRANCH  52  66
BRANCH  53  78
ATOM     78  C   UNL     1       9.507  -0.342  -8.047  1.00  0.00     0.058 A 
ATOM     79  C   UNL     1      10.508  -1.105  -7.427  1.00  0.00     0.135 A 
ATOM     80  C   UNL     1       8.685  -0.986  -8.985  1.00  0.00     0.135 A 
ATOM     81  F   UNL     1      11.333  -0.531  -6.538  1.00  0.00    -0.206 F 
ATOM     82  C   UNL     1      10.700  -2.448  -7.736  1.00  0.00     0.059 A 
ATOM     83  C   UNL     1       8.839  -2.335  -9.291  1.00  0.00     0.059 A 
ATOM     84  F   UNL     1       7.711  -0.303  -9.607  1.00  0.00    -0.206 F 
ATOM     85  C   UNL     1       9.857  -3.056  -8.668  1.00  0.00     0.060 A 
BRANCH  85  86
ATOM     86  S   UNL     1      10.088  -4.811  -9.030  1.00  0.00     0.124 S 
ATOM     87  O   UNL     1      11.312  -4.790  -9.822  1.00  0.00    -0.237 OA
ATOM     88  O   UNL     1      10.202  -5.386  -7.694  1.00  0.00    -0.237 OA
ATOM     89  O   UNL     1       8.872  -5.166  -9.756  1.00  0.00    -0.744 OA
ENDBRANCH  85  86
ENDBRANCH  53  78
BRANCH  65  90
ATOM     90  C   UNL     1      13.491   5.256  -9.298  1.00  0.00     0.058 A 
ATOM     91  C   UNL     1      13.673   5.152 -10.685  1.00  0.00     0.135 A 
ATOM     92  C   UNL     1      14.605   5.610  -8.517  1.00  0.00     0.135 A 
ATOM     93  F   UNL     1      12.644   4.815 -11.478  1.00  0.00    -0.206 F 
ATOM     94  C   UNL     1      14.915   5.375 -11.274  1.00  0.00     0.059 A 
ATOM     95  C   UNL     1      15.849   5.863  -9.087  1.00  0.00     0.059 A 
ATOM     96  F   UNL     1      14.484   5.736  -7.186  1.00  0.00    -0.206 F 
ATOM     97  C   UNL     1      15.996   5.734 -10.467  1.00  0.00     0.060 A 
BRANCH  97  98
ATOM     98  S   UNL     1      17.591   6.064 -11.248  1.00  0.00     0.124 S 
ATOM     99  O   UNL     1      18.035   4.717 -11.592  1.00  0.00    -0.237 OA
ATOM    100  O   UNL     1      17.218   6.915 -12.374  1.00  0.00    -0.237 OA
ATOM    101  O   UNL     1      18.355   6.727 -10.196  1.00  0.00    -0.744 OA
ENDBRANCH  97  98
ENDBRANCH  65  90
ENDBRANCH  39  40
ENDBRANCH  32  34
ENDBRANCH  31  32
ENDBRANCH  30  31
ENDBRANCH  29  30
ENDBRANCH  28  29
ENDBRANCH  27  28
ENDBRANCH   1  27
TORSDOF 22
