REMARK SMILES O=C(OCCOCCOCCOC(=O)[C@@H]1C=C[C@H](NS(=O)(=O)c2ccc(Cl)cc2)C1)c1ccc(-c2c3nc(c(-c4c(F)cc(S(=O)(=O)[O-])cc4F)c4ccc([nH]4)c(-c4c(F)cc(S(=O)(=O)[O-])cc4F)c4nc(c(-c5c(F)cc(S(=O)(=O)[O-])cc5F)c5ccc2[nH]5)C=C4)C=C3)cc1
REMARK SMILES IDX 7 1 6 2 5 3 4 4 3 5 2 6 1 7 31 8 32 9 96 10 33 11 95 12
REMARK SMILES IDX 34 13 35 14 36 15 89 16 37 17 94 18 88 19 90 20 38 21 93 22
REMARK SMILES IDX 87 23 86 24 39 26 73 27 52 28 72 29 53 30 56 31 71 32 91 33
REMARK SMILES IDX 54 34 55 35 70 37 92 38 57 39 40 40 41 41 50 42 42 43 43 44
REMARK SMILES IDX 49 45 51 46 44 47 45 48 46 49 47 50 48 51 74 52 75 53 84 54
REMARK SMILES IDX 76 55 77 56 83 57 85 58 78 59 79 60 80 61 81 62 82 63 58 64
REMARK SMILES IDX 59 65 68 66 60 67 61 68 67 69 69 70 62 71 63 72 64 73 65 74
REMARK SMILES IDX 66 75 8 76 9 77 10 78 11 79 12 80 13 81 14 82 15 83 16 84
REMARK SMILES IDX 30 85 17 86 18 87 19 88 20 90 21 91 22 92 23 93 24 94 29 95
REMARK SMILES IDX 25 96 28 97 26 98 27 99
REMARK H PARENT 90 25 56 36 19 89
REMARK Flexibility Score: inf
ROOT
ATOM      1  C   UNL     1       5.496  -0.342  -8.087  1.00  0.00     0.188 C 
ENDROOT
BRANCH   1   2
ATOM      2  O   UNL     1       4.596   0.762  -8.256  1.00  0.00    -0.376 OA
BRANCH   2   3
ATOM      3  C   UNL     1       4.770   1.461  -9.485  1.00  0.00     0.202 C 
BRANCH   3   4
ATOM      4  C   UNL     1       5.928   2.463  -9.519  1.00  0.00     0.261 C 
BRANCH   4   5
ATOM      5  O   UNL     1       7.018   2.166  -8.627  1.00  0.00    -0.460 OA
BRANCH   5   6
ATOM      6  C   UNL     1       7.203   2.519  -7.329  1.00  0.00     0.338 C 
ATOM      7  O   UNL     1       8.334   2.405  -6.856  1.00  0.00    -0.246 OA
BRANCH   6   8
ATOM      8  C   UNL     1       6.108   2.936  -6.395  1.00  0.00     0.060 A 
ATOM      9  C   UNL     1       4.892   3.458  -6.793  1.00  0.00     0.016 A 
ATOM     10  C   UNL     1       6.349   2.846  -5.001  1.00  0.00     0.016 A 
ATOM     11  C   UNL     1       3.964   3.870  -5.847  1.00  0.00     0.010 A 
ATOM     12  C   UNL     1       5.412   3.280  -4.039  1.00  0.00     0.010 A 
ATOM     13  C   UNL     1       4.201   3.811  -4.461  1.00  0.00    -0.014 A 
BRANCH  13  14
ATOM     14  C   UNL     1       3.276   4.623  -3.608  1.00  0.00     0.031 A 
ATOM     15  C   UNL     1       3.110   6.121  -4.485  1.00  0.00     0.074 A 
ATOM     16  C   UNL     1       2.643   4.136  -2.423  1.00  0.00     0.049 A 
ATOM     17  N   UNL     1       2.047   6.867  -4.696  1.00  0.00    -0.248 NA
ATOM     18  C   UNL     1       4.298   6.796  -5.056  1.00  0.00     0.031 C 
ATOM     19  C   UNL     1       2.550   2.749  -1.898  1.00  0.00     0.029 A 
ATOM     20  N   UNL     1       1.714   4.713  -1.507  1.00  0.00    -0.354 N 
ATOM     21  C   UNL     1       2.403   8.160  -5.013  1.00  0.00     0.074 A 
ATOM     22  C   UNL     1       3.800   7.985  -5.438  1.00  0.00     0.031 C 
ATOM     23  C   UNL     1       1.448   2.615  -1.087  1.00  0.00     0.029 A 
ATOM     24  C   UNL     1       0.754   3.908  -0.887  1.00  0.00     0.049 A 
ATOM     25  H   UNL     1       1.749   5.677  -1.312  1.00  0.00     0.167 HD
ATOM     26  C   UNL     1       1.768   9.360  -4.728  1.00  0.00     0.037 A 
ATOM     27  C   UNL     1      -0.504   4.213  -0.341  1.00  0.00     0.037 A 
ATOM     28  C   UNL     1       0.550   9.701  -3.871  1.00  0.00     0.049 A 
ATOM     29  C   UNL     1      -1.385   5.614  -0.346  1.00  0.00     0.074 A 
ATOM     30  C   UNL     1       0.338  10.920  -3.224  1.00  0.00     0.029 A 
ATOM     31  N   UNL     1      -0.630   8.969  -3.499  1.00  0.00    -0.354 N 
ATOM     32  N   UNL     1      -1.786   6.411  -1.327  1.00  0.00    -0.248 NA
ATOM     33  C   UNL     1      -2.008   6.062   0.920  1.00  0.00     0.031 C 
ATOM     34  C   UNL     1      -0.748  10.828  -2.321  1.00  0.00     0.029 A 
ATOM     35  C   UNL     1      -1.290   9.541  -2.345  1.00  0.00     0.049 A 
ATOM     36  H   UNL     1      -0.952   8.170  -3.975  1.00  0.00     0.167 HD
ATOM     37  C   UNL     1      -2.319   7.605  -0.793  1.00  0.00     0.074 A 
ATOM     38  C   UNL     1      -2.658   7.188   0.570  1.00  0.00     0.031 C 
ATOM     39  C   UNL     1      -2.206   8.937  -1.231  1.00  0.00     0.037 A 
BRANCH  26  40
ATOM     40  C   UNL     1       2.637  10.544  -5.123  1.00  0.00     0.058 A 
ATOM     41  C   UNL     1       2.613  11.067  -6.423  1.00  0.00     0.135 A 
ATOM     42  C   UNL     1       3.549  11.110  -4.210  1.00  0.00     0.135 A 
ATOM     43  F   UNL     1       1.793  10.542  -7.347  1.00  0.00    -0.206 F 
ATOM     44  C   UNL     1       3.470  12.098  -6.810  1.00  0.00     0.059 A 
ATOM     45  C   UNL     1       4.405  12.149  -4.570  1.00  0.00     0.059 A 
ATOM     46  F   UNL     1       3.641  10.626  -2.961  1.00  0.00    -0.206 F 
ATOM     47  C   UNL     1       4.372  12.623  -5.880  1.00  0.00     0.060 A 
BRANCH  47  48
ATOM     48  S   UNL     1       5.519  13.918  -6.407  1.00  0.00     0.124 S 
ATOM     49  O   UNL     1       6.536  13.136  -7.103  1.00  0.00    -0.237 OA
ATOM     50  O   UNL     1       4.682  14.761  -7.254  1.00  0.00    -0.237 OA
ATOM     51  O   UNL     1       5.945  14.524  -5.150  1.00  0.00    -0.744 OA
ENDBRANCH  47  48
ENDBRANCH  26  40
BRANCH  27  52
ATOM     52  C   UNL     1      -1.333   3.089   0.208  1.00  0.00     0.058 A 
ATOM     53  C   UNL     1      -2.628   2.842  -0.287  1.00  0.00     0.135 A 
ATOM     54  C   UNL     1      -0.885   2.282   1.261  1.00  0.00     0.135 A 
ATOM     55  F   UNL     1      -3.149   3.609  -1.256  1.00  0.00    -0.206 F 
ATOM     56  C   UNL     1      -3.418   1.804   0.198  1.00  0.00     0.059 A 
ATOM     57  C   UNL     1      -1.649   1.224   1.749  1.00  0.00     0.059 A 
ATOM     58  F   UNL     1       0.313   2.511   1.822  1.00  0.00    -0.206 F 
ATOM     59  C   UNL     1      -2.910   0.986   1.203  1.00  0.00     0.060 A 
BRANCH  59  60
ATOM     60  S   UNL     1      -3.859  -0.460   1.725  1.00  0.00     0.124 S 
ATOM     61  O   UNL     1      -4.747   0.112   2.729  1.00  0.00    -0.237 OA
ATOM     62  O   UNL     1      -4.494  -0.892   0.483  1.00  0.00    -0.237 OA
ATOM     63  O   UNL     1      -2.826  -1.359   2.232  1.00  0.00    -0.744 OA
ENDBRANCH  59  60
ENDBRANCH  27  52
BRANCH  39  64
ATOM     64  C   UNL     1      -2.770  10.011  -0.270  1.00  0.00     0.058 A 
ATOM     65  C   UNL     1      -2.236  10.272   1.013  1.00  0.00     0.135 A 
ATOM     66  C   UNL     1      -3.770  10.897  -0.707  1.00  0.00     0.135 A 
ATOM     67  F   UNL     1      -1.251   9.515   1.516  1.00  0.00    -0.206 F 
ATOM     68  C   UNL     1      -2.703  11.300   1.835  1.00  0.00     0.059 A 
ATOM     69  C   UNL     1      -4.245  11.947   0.093  1.00  0.00     0.059 A 
ATOM     70  F   UNL     1      -4.289  10.767  -1.938  1.00  0.00    -0.206 F 
ATOM     71  C   UNL     1      -3.722  12.126   1.373  1.00  0.00     0.060 A 
BRANCH  71  72
ATOM     72  S   UNL     1      -4.340  13.436   2.459  1.00  0.00     0.124 S 
ATOM     73  O   UNL     1      -5.207  12.685   3.361  1.00  0.00    -0.237 OA
ATOM     74  O   UNL     1      -3.116  13.964   3.055  1.00  0.00    -0.237 OA
ATOM     75  O   UNL     1      -5.023  14.342   1.541  1.00  0.00    -0.744 OA
ENDBRANCH  71  72
ENDBRANCH  39  64
ENDBRANCH  13  14
ENDBRANCH   6   8
ENDBRANCH   5   6
ENDBRANCH   4   5
ENDBRANCH   3   4
ENDBRANCH   2   3
ENDBRANCH   1   2
BRANCH   1  76
ATOM     76  C   UNL     1       4.760  -1.527  -7.459  1.00  0.00     0.188 C 
BRANCH  76  77
ATOM     77  O   UNL     1       4.116  -2.361  -8.426  1.00  0.00    -0.376 OA
BRANCH  77  78
ATOM     78  C   UNL     1       3.029  -1.768  -9.139  1.00  0.00     0.202 C 
BRANCH  78  79
ATOM     79  C   UNL     1       1.745  -1.602  -8.320  1.00  0.00     0.261 C 
BRANCH  79  80
ATOM     80  O   UNL     1       1.770  -0.457  -7.426  1.00  0.00    -0.463 OA
BRANCH  80  81
ATOM     81  C   UNL     1       1.095  -0.643  -6.254  1.00  0.00     0.312 C 
ATOM     82  O   UNL     1       0.616  -1.727  -5.923  1.00  0.00    -0.252 OA
BRANCH  81  83
ATOM     83  C   UNL     1       1.053   0.573  -5.314  1.00  0.00     0.123 C 
ATOM     84  C   UNL     1      -0.328   0.855  -4.775  1.00  0.00    -0.015 C 
ATOM     85  C   UNL     1       1.402   1.994  -5.790  1.00  0.00     0.043 C 
ATOM     86  C   UNL     1      -0.508   2.166  -4.506  1.00  0.00    -0.011 C 
ATOM     87  C   UNL     1       0.771   2.915  -4.686  1.00  0.00     0.093 C 
BRANCH  87  88
ATOM     88  N   UNL     1       0.791   4.415  -4.917  1.00  0.00    -0.204 NA
ATOM     89  H   UNL     1       0.281   4.576  -5.785  1.00  0.00     0.142 HD
BRANCH  88  90
ATOM     90  S   UNL     1       0.111   5.609  -3.695  1.00  0.00     0.241 S 
ATOM     91  O   UNL     1      -0.564   6.561  -4.563  1.00  0.00    -0.207 OA
ATOM     92  O   UNL     1      -0.744   4.727  -2.925  1.00  0.00    -0.207 OA
BRANCH  90  93
ATOM     93  C   UNL     1       1.351   6.867  -2.381  1.00  0.00     0.082 A 
ATOM     94  C   UNL     1       0.622   7.518  -1.446  1.00  0.00     0.023 A 
ATOM     95  C   UNL     1       2.736   7.113  -2.088  1.00  0.00     0.023 A 
ATOM     96  C   UNL     1       1.032   8.253  -0.322  1.00  0.00     0.022 A 
ATOM     97  C   UNL     1       3.227   7.910  -1.013  1.00  0.00     0.022 A 
ATOM     98  C   UNL     1       2.360   8.460  -0.105  1.00  0.00     0.041 A 
ATOM     99  Cl  UNL     1       2.906   9.359   1.242  1.00  0.00    -0.084 Cl
ENDBRANCH  90  93
ENDBRANCH  88  90
ENDBRANCH  87  88
ENDBRANCH  81  83
ENDBRANCH  80  81
ENDBRANCH  79  80
ENDBRANCH  78  79
ENDBRANCH  77  78
ENDBRANCH  76  77
ENDBRANCH   1  76
TORSDOF 23
