REMARK SMILES O=C(OCCOCCOCCOC(=O)[C@H]1C[C@@H]2CCCC[C@H]2N1C(=O)CN1CSCC1=O)c1ccc(-c2c3nc(c(-c4c(F)cc(S(=O)(=O)[O-])cc4F)c4ccc([nH]4)c(-c4c(F)cc(S(=O)(=O)[O-])cc4F)c4nc(c(-c5c(F)cc(S(=O)(=O)[O-])cc5F)c5ccc2[nH]5)C=C4)C=C3)cc1
REMARK SMILES IDX 7 1 6 2 5 3 4 4 3 5 2 6 1 7 33 8 34 9 98 10 35 11 97 12
REMARK SMILES IDX 36 13 37 14 38 15 91 16 39 17 96 18 90 19 92 20 40 21 95 22
REMARK SMILES IDX 89 23 88 24 41 26 75 27 54 28 74 29 55 30 58 31 73 32 93 33
REMARK SMILES IDX 56 34 57 35 72 37 94 38 59 39 42 40 43 41 52 42 44 43 45 44
REMARK SMILES IDX 51 45 53 46 46 47 47 48 48 49 49 50 50 51 76 52 77 53 86 54
REMARK SMILES IDX 78 55 79 56 85 57 87 58 80 59 81 60 82 61 83 62 84 63 60 64
REMARK SMILES IDX 61 65 70 66 62 67 63 68 69 69 71 70 64 71 65 72 66 73 67 74
REMARK SMILES IDX 68 75 8 76 9 77 10 78 11 79 12 80 13 81 14 82 15 83 16 84
REMARK SMILES IDX 23 85 17 86 22 87 18 88 21 89 19 90 20 91 24 92 25 93 26 94
REMARK SMILES IDX 27 95 28 96 31 97 29 98 30 99 32 100
REMARK H PARENT 92 25 58 36
REMARK Flexibility Score: inf
ROOT
ATOM      1  C   UNL     1       2.352   1.980  -0.238  1.00  0.00     0.188 C 
ENDROOT
BRANCH   1   2
ATOM      2  O   UNL     1       3.751   1.767  -0.039  1.00  0.00    -0.376 OA
BRANCH   2   3
ATOM      3  C   UNL     1       4.483   1.660  -1.267  1.00  0.00     0.202 C 
BRANCH   3   4
ATOM      4  C   UNL     1       4.400   0.279  -1.938  1.00  0.00     0.261 C 
BRANCH   4   5
ATOM      5  O   UNL     1       3.170  -0.407  -1.653  1.00  0.00    -0.460 OA
BRANCH   5   6
ATOM      6  C   UNL     1       2.905  -1.234  -0.609  1.00  0.00     0.338 C 
ATOM      7  O   UNL     1       1.772  -1.705  -0.509  1.00  0.00    -0.246 OA
BRANCH   6   8
ATOM      8  C   UNL     1       3.930  -1.645   0.401  1.00  0.00     0.060 A 
ATOM      9  C   UNL     1       5.088  -0.936   0.723  1.00  0.00     0.016 A 
ATOM     10  C   UNL     1       3.681  -2.823   1.111  1.00  0.00     0.016 A 
ATOM     11  C   UNL     1       6.053  -1.440   1.590  1.00  0.00     0.010 A 
ATOM     12  C   UNL     1       4.581  -3.266   2.081  1.00  0.00     0.010 A 
ATOM     13  C   UNL     1       5.807  -2.602   2.299  1.00  0.00    -0.014 A 
BRANCH  13  14
ATOM     14  C   UNL     1       6.806  -3.176   3.238  1.00  0.00     0.031 A 
ATOM     15  C   UNL     1       7.102  -4.641   3.093  1.00  0.00     0.074 A 
ATOM     16  C   UNL     1       7.341  -2.460   4.252  1.00  0.00     0.049 A 
ATOM     17  N   UNL     1       7.570  -5.486   3.966  1.00  0.00    -0.248 NA
ATOM     18  C   UNL     1       6.777  -5.239   1.782  1.00  0.00     0.031 C 
ATOM     19  C   UNL     1       7.224  -1.013   4.470  1.00  0.00     0.029 A 
ATOM     20  N   UNL     1       7.968  -2.899   5.397  1.00  0.00    -0.354 N 
ATOM     21  C   UNL     1       7.661  -6.691   3.281  1.00  0.00     0.074 A 
ATOM     22  C   UNL     1       6.988  -6.523   2.015  1.00  0.00     0.031 C 
ATOM     23  C   UNL     1       7.551  -0.725   5.741  1.00  0.00     0.029 A 
ATOM     24  C   UNL     1       7.910  -1.960   6.410  1.00  0.00     0.049 A 
ATOM     25  H   UNL     1       8.405  -3.777   5.483  1.00  0.00     0.167 HD
ATOM     26  C   UNL     1       8.385  -7.785   3.610  1.00  0.00     0.037 A 
ATOM     27  C   UNL     1       8.033  -2.115   7.741  1.00  0.00     0.037 A 
ATOM     28  C   UNL     1       9.116  -7.887   4.839  1.00  0.00     0.049 A 
ATOM     29  C   UNL     1       8.583  -3.417   8.226  1.00  0.00     0.074 A 
ATOM     30  C   UNL     1      10.003  -8.862   5.251  1.00  0.00     0.029 A 
ATOM     31  N   UNL     1       9.047  -6.946   5.857  1.00  0.00    -0.354 N 
ATOM     32  N   UNL     1       8.738  -4.537   7.562  1.00  0.00    -0.248 NA
ATOM     33  C   UNL     1       9.093  -3.440   9.600  1.00  0.00     0.031 C 
ATOM     34  C   UNL     1      10.465  -8.511   6.526  1.00  0.00     0.029 A 
ATOM     35  C   UNL     1       9.880  -7.309   6.896  1.00  0.00     0.049 A 
ATOM     36  H   UNL     1       8.486  -6.137   5.840  1.00  0.00     0.167 HD
ATOM     37  C   UNL     1       9.494  -5.354   8.389  1.00  0.00     0.074 A 
ATOM     38  C   UNL     1       9.675  -4.630   9.635  1.00  0.00     0.031 C 
ATOM     39  C   UNL     1      10.057  -6.554   8.110  1.00  0.00     0.037 A 
BRANCH  26  40
ATOM     40  C   UNL     1       8.523  -8.845   2.553  1.00  0.00     0.058 A 
ATOM     41  C   UNL     1       9.210  -8.568   1.355  1.00  0.00     0.135 A 
ATOM     42  C   UNL     1       7.950 -10.115   2.698  1.00  0.00     0.135 A 
ATOM     43  F   UNL     1       9.762  -7.360   1.154  1.00  0.00    -0.206 F 
ATOM     44  C   UNL     1       9.274  -9.490   0.319  1.00  0.00     0.059 A 
ATOM     45  C   UNL     1       8.031 -11.068   1.683  1.00  0.00     0.059 A 
ATOM     46  F   UNL     1       7.282 -10.432   3.817  1.00  0.00    -0.206 F 
ATOM     47  C   UNL     1       8.677 -10.737   0.490  1.00  0.00     0.060 A 
BRANCH  47  48
ATOM     48  S   UNL     1       8.762 -11.915  -0.874  1.00  0.00     0.124 S 
ATOM     49  O   UNL     1       7.797 -11.346  -1.810  1.00  0.00    -0.237 OA
ATOM     50  O   UNL     1      10.162 -11.824  -1.277  1.00  0.00    -0.237 OA
ATOM     51  O   UNL     1       8.370 -13.177  -0.256  1.00  0.00    -0.744 OA
ENDBRANCH  47  48
ENDBRANCH  26  40
BRANCH  27  52
ATOM     52  C   UNL     1       7.650  -1.043   8.695  1.00  0.00     0.058 A 
ATOM     53  C   UNL     1       8.587  -0.141   9.213  1.00  0.00     0.135 A 
ATOM     54  C   UNL     1       6.326  -0.947   9.156  1.00  0.00     0.135 A 
ATOM     55  F   UNL     1       9.864  -0.200   8.809  1.00  0.00    -0.206 F 
ATOM     56  C   UNL     1       8.237   0.794  10.184  1.00  0.00     0.059 A 
ATOM     57  C   UNL     1       5.946  -0.010  10.116  1.00  0.00     0.059 A 
ATOM     58  F   UNL     1       5.396  -1.795   8.691  1.00  0.00    -0.206 F 
ATOM     59  C   UNL     1       6.916   0.844  10.639  1.00  0.00     0.060 A 
BRANCH  59  60
ATOM     60  S   UNL     1       6.500   2.028  11.942  1.00  0.00     0.124 S 
ATOM     61  O   UNL     1       7.212   1.466  13.085  1.00  0.00    -0.237 OA
ATOM     62  O   UNL     1       7.041   3.274  11.407  1.00  0.00    -0.237 OA
ATOM     63  O   UNL     1       5.044   1.959  12.014  1.00  0.00    -0.744 OA
ENDBRANCH  59  60
ENDBRANCH  27  52
BRANCH  39  64
ATOM     64  C   UNL     1      11.030  -7.081   9.115  1.00  0.00     0.058 A 
ATOM     65  C   UNL     1      10.618  -7.648  10.326  1.00  0.00     0.135 A 
ATOM     66  C   UNL     1      12.406  -7.018   8.839  1.00  0.00     0.135 A 
ATOM     67  F   UNL     1       9.314  -7.705  10.636  1.00  0.00    -0.206 F 
ATOM     68  C   UNL     1      11.544  -8.121  11.247  1.00  0.00     0.059 A 
ATOM     69  C   UNL     1      13.347  -7.511   9.731  1.00  0.00     0.059 A 
ATOM     70  F   UNL     1      12.844  -6.481   7.688  1.00  0.00    -0.206 F 
ATOM     71  C   UNL     1      12.905  -8.048  10.939  1.00  0.00     0.060 A 
BRANCH  71  72
ATOM     72  S   UNL     1      14.098  -8.697  12.125  1.00  0.00     0.124 S 
ATOM     73  O   UNL     1      14.147  -7.620  13.107  1.00  0.00    -0.237 OA
ATOM     74  O   UNL     1      13.460  -9.933  12.567  1.00  0.00    -0.237 OA
ATOM     75  O   UNL     1      15.306  -8.875  11.324  1.00  0.00    -0.744 OA
ENDBRANCH  71  72
ENDBRANCH  39  64
ENDBRANCH  13  14
ENDBRANCH   6   8
ENDBRANCH   5   6
ENDBRANCH   4   5
ENDBRANCH   3   4
ENDBRANCH   2   3
ENDBRANCH   1   2
BRANCH   1  76
ATOM     76  C   UNL     1       1.756   3.084   0.638  1.00  0.00     0.188 C 
BRANCH  76  77
ATOM     77  O   UNL     1       2.384   4.361   0.605  1.00  0.00    -0.376 OA
BRANCH  77  78
ATOM     78  C   UNL     1       3.742   4.431   1.029  1.00  0.00     0.202 C 
BRANCH  78  79
ATOM     79  C   UNL     1       4.095   4.079   2.485  1.00  0.00     0.261 C 
BRANCH  79  80
ATOM     80  O   UNL     1       3.468   2.904   3.029  1.00  0.00    -0.462 OA
BRANCH  80  81
ATOM     81  C   UNL     1       2.500   3.161   3.953  1.00  0.00     0.328 C 
ATOM     82  O   UNL     1       2.060   4.289   4.183  1.00  0.00    -0.250 OA
BRANCH  81  83
ATOM     83  C   UNL     1       1.927   1.925   4.675  1.00  0.00     0.195 C 
ATOM     84  C   UNL     1       0.400   1.851   4.455  1.00  0.00     0.043 C 
ATOM     85  N   UNL     1       2.406   0.541   4.481  1.00  0.00    -0.324 N 
ATOM     86  C   UNL     1       0.190   0.506   3.774  1.00  0.00     0.014 C 
ATOM     87  C   UNL     1       1.275  -0.368   4.402  1.00  0.00     0.089 C 
ATOM     88  C   UNL     1      -1.178  -0.136   3.958  1.00  0.00     0.006 C 
ATOM     89  C   UNL     1       1.339  -1.669   3.606  1.00  0.00     0.025 C 
ATOM     90  C   UNL     1      -1.196  -1.537   3.335  1.00  0.00     0.000 C 
ATOM     91  C   UNL     1      -0.004  -2.401   3.763  1.00  0.00     0.002 C 
BRANCH  85  92
ATOM     92  C   UNL     1       3.653   0.270   5.001  1.00  0.00     0.243 C 
ATOM     93  O   UNL     1       4.479   1.187   5.120  1.00  0.00    -0.273 OA
BRANCH  92  94
ATOM     94  C   UNL     1       4.124  -1.164   5.250  1.00  0.00     0.220 C 
BRANCH  94  95
ATOM     95  N   UNL     1       3.462  -2.171   6.052  1.00  0.00    -0.323 N 
ATOM     96  C   UNL     1       4.062  -3.487   6.075  1.00  0.00     0.190 C 
ATOM     97  C   UNL     1       2.791  -1.819   7.218  1.00  0.00     0.233 C 
ATOM     98  S   UNL     1       3.032  -4.479   7.151  1.00  0.00    -0.130 SA
ATOM     99  C   UNL     1       2.502  -3.030   8.089  1.00  0.00     0.171 C 
ATOM    100  O   UNL     1       2.440  -0.693   7.497  1.00  0.00    -0.274 OA
ENDBRANCH  94  95
ENDBRANCH  92  94
ENDBRANCH  85  92
ENDBRANCH  81  83
ENDBRANCH  80  81
ENDBRANCH  79  80
ENDBRANCH  78  79
ENDBRANCH  77  78
ENDBRANCH  76  77
ENDBRANCH   1  76
TORSDOF 23
