REMARK SMILES Cc1cccc(N2C(=O)/C(=C3/C(=O)N([C@@H](C)C(=O)OCCOCCOCCOC(=O)c4ccc(-c5c6nc(c(-c7c(F)cc(S(=O)(=O)[O-])cc7F)c7ccc([nH]7)c(-c7c(F)cc(S(=O)(=O)[O-])cc7F)c7nc(c(-c8c(F)cc(S(=O)(=O)[O-])cc8F)c8ccc5[nH]8)C=C7)C=C6)cc4)c4ccccc43)SC2=S)c1C
REMARK SMILES IDX 24 1 23 2 22 3 21 4 20 5 19 6 17 7 18 8 15 9 16 10 14 11
REMARK SMILES IDX 7 12 8 13 104 14 9 15 10 16 103 17 105 18 11 19 12 20 102 21
REMARK SMILES IDX 13 22 97 23 101 24 98 25 100 26 99 27 6 28 1 29 2 30 3 31
REMARK SMILES IDX 106 32 4 33 107 34 5 35 25 36 26 37 27 38 28 39 29 40 30 41
REMARK SMILES IDX 31 42 32 43 96 44 33 45 95 46 34 47 35 48 36 49 89 50 37 51
REMARK SMILES IDX 94 52 88 53 90 54 38 55 93 56 87 57 86 58 39 60 73 61 52 62
REMARK SMILES IDX 72 63 53 64 56 65 71 66 91 67 54 68 55 69 70 71 92 72 57 73
REMARK SMILES IDX 40 74 41 75 50 76 42 77 43 78 49 79 51 80 44 81 45 82 46 83
REMARK SMILES IDX 47 84 48 85 74 86 75 87 84 88 76 89 77 90 83 91 85 92 78 93
REMARK SMILES IDX 79 94 80 95 81 96 82 97 58 98 59 99 68 100 60 101 61 102
REMARK SMILES IDX 67 103 69 104 62 105 63 106 64 107 65 108 66 109
REMARK H PARENT 90 59 56 70
REMARK Flexibility Score: inf
ROOT
ATOM      1  C   UNL     1       0.162 -10.110   1.952  1.00  0.00     0.188 C 
ENDROOT
BRANCH   1   2
ATOM      2  C   UNL     1       0.403 -11.623   1.909  1.00  0.00     0.188 C 
BRANCH   2   3
ATOM      3  O   UNL     1       0.442 -12.325   3.133  1.00  0.00    -0.376 OA
BRANCH   3   4
ATOM      4  C   UNL     1       1.520 -12.074   4.028  1.00  0.00     0.202 C 
BRANCH   4   5
ATOM      5  C   UNL     1       2.884 -11.582   3.517  1.00  0.00     0.261 C 
BRANCH   5   6
ATOM      6  O   UNL     1       2.823 -10.339   2.781  1.00  0.00    -0.462 OA
BRANCH   6   7
ATOM      7  C   UNL     1       3.579 -10.280   1.654  1.00  0.00     0.329 C 
ATOM      8  O   UNL     1       4.354 -11.176   1.327  1.00  0.00    -0.250 OA
BRANCH   7   9
ATOM      9  C   UNL     1       3.351  -9.033   0.751  1.00  0.00     0.197 C 
ATOM     10  C   UNL     1       4.723  -8.551   0.271  1.00  0.00     0.044 C 
BRANCH   9  11
ATOM     11  N   UNL     1       2.500  -7.877   1.087  1.00  0.00    -0.294 N 
ATOM     12  N   UNL     1      -0.636  -3.065  -0.347  1.00  0.00    -0.261 N 
ATOM     13  C   UNL     1      -0.320  -3.895   0.717  1.00  0.00     0.271 C 
ATOM     14  C   UNL     1      -0.885  -3.688  -1.551  1.00  0.00     0.152 C 
ATOM     15  O   UNL     1      -0.494  -3.606   1.891  1.00  0.00    -0.268 OA
ATOM     16  C   UNL     1       0.162  -5.226   0.218  1.00  0.00     0.094 C 
ATOM     17  S   UNL     1      -0.474  -5.395  -1.395  1.00  0.00    -0.053 SA
ATOM     18  S   UNL     1      -1.405  -3.021  -2.991  1.00  0.00    -0.051 S 
ATOM     19  C   UNL     1       1.015  -6.072   0.839  1.00  0.00     0.069 C 
ATOM     20  C   UNL     1       1.557  -7.344   0.195  1.00  0.00     0.261 C 
ATOM     21  C   UNL     1       1.698  -5.987   2.152  1.00  0.00     0.012 A 
ATOM     22  O   UNL     1       1.257  -7.807  -0.891  1.00  0.00    -0.269 OA
ATOM     23  C   UNL     1       2.571  -7.088   2.245  1.00  0.00     0.053 A 
ATOM     24  C   UNL     1       1.641  -5.088   3.206  1.00  0.00     0.011 A 
ATOM     25  C   UNL     1       3.363  -7.305   3.362  1.00  0.00     0.027 A 
ATOM     26  C   UNL     1       2.415  -5.309   4.348  1.00  0.00     0.001 A 
ATOM     27  C   UNL     1       3.265  -6.413   4.428  1.00  0.00     0.002 A 
BRANCH  12  28
ATOM     28  C   UNL     1      -0.672  -1.654  -0.155  1.00  0.00     0.054 A 
ATOM     29  C   UNL     1       1.742   1.331   0.086  1.00  0.00     0.044 C 
ATOM     30  C   UNL     1       0.495   0.486   0.050  1.00  0.00    -0.046 A 
ATOM     31  C   UNL     1      -0.751   1.131   0.083  1.00  0.00     0.004 A 
ATOM     32  C   UNL     1       0.543  -0.925  -0.043  1.00  0.00    -0.024 A 
ATOM     33  C   UNL     1      -1.938   0.404   0.007  1.00  0.00     0.002 A 
ATOM     34  C   UNL     1       1.861  -1.661  -0.049  1.00  0.00     0.047 C 
ATOM     35  C   UNL     1      -1.901  -0.984  -0.125  1.00  0.00     0.027 A 
ENDBRANCH  12  28
ENDBRANCH   9  11
ENDBRANCH   7   9
ENDBRANCH   6   7
ENDBRANCH   5   6
ENDBRANCH   4   5
ENDBRANCH   3   4
ENDBRANCH   2   3
ENDBRANCH   1   2
BRANCH   1  36
ATOM     36  O   UNL     1       0.223  -9.377   3.154  1.00  0.00    -0.376 OA
BRANCH  36  37
ATOM     37  C   UNL     1      -0.780  -9.529   4.142  1.00  0.00     0.202 C 
BRANCH  37  38
ATOM     38  C   UNL     1      -2.255  -9.859   3.847  1.00  0.00     0.261 C 
BRANCH  38  39
ATOM     39  O   UNL     1      -2.545 -10.557   2.636  1.00  0.00    -0.460 OA
BRANCH  39  40
ATOM     40  C   UNL     1      -2.986  -9.786   1.602  1.00  0.00     0.338 C 
ATOM     41  O   UNL     1      -3.159  -8.585   1.602  1.00  0.00    -0.246 OA
BRANCH  40  42
ATOM     42  C   UNL     1      -2.971 -10.644   0.395  1.00  0.00     0.060 A 
ATOM     43  C   UNL     1      -3.728 -11.814   0.364  1.00  0.00     0.016 A 
ATOM     44  C   UNL     1      -2.120 -10.315  -0.672  1.00  0.00     0.016 A 
ATOM     45  C   UNL     1      -3.632 -12.660  -0.741  1.00  0.00     0.010 A 
ATOM     46  C   UNL     1      -2.002 -11.179  -1.762  1.00  0.00     0.010 A 
ATOM     47  C   UNL     1      -2.770 -12.350  -1.810  1.00  0.00    -0.014 A 
BRANCH  47  48
ATOM     48  C   UNL     1      -2.811 -13.168  -3.044  1.00  0.00     0.031 A 
ATOM     49  C   UNL     1      -1.777 -14.210  -3.346  1.00  0.00     0.074 A 
ATOM     50  C   UNL     1      -3.830 -12.954  -3.896  1.00  0.00     0.049 A 
ATOM     51  N   UNL     1      -1.732 -15.050  -4.348  1.00  0.00    -0.248 NA
ATOM     52  C   UNL     1      -0.650 -14.326  -2.410  1.00  0.00     0.031 C 
ATOM     53  C   UNL     1      -4.880 -11.950  -3.707  1.00  0.00     0.029 A 
ATOM     54  N   UNL     1      -4.159 -13.563  -5.078  1.00  0.00    -0.354 N 
ATOM     55  C   UNL     1      -0.588 -15.815  -4.157  1.00  0.00     0.074 A 
ATOM     56  C   UNL     1       0.057 -15.306  -2.963  1.00  0.00     0.031 C 
ATOM     57  C   UNL     1      -5.749 -12.029  -4.725  1.00  0.00     0.029 A 
ATOM     58  C   UNL     1      -5.303 -13.065  -5.652  1.00  0.00     0.049 A 
ATOM     59  H   UNL     1      -3.626 -14.289  -5.478  1.00  0.00     0.167 HD
ATOM     60  C   UNL     1      -0.133 -16.851  -4.904  1.00  0.00     0.037 A 
ATOM     61  C   UNL     1      -5.925 -13.401  -6.797  1.00  0.00     0.037 A 
ATOM     62  C   UNL     1      -0.775 -17.330  -6.106  1.00  0.00     0.049 A 
ATOM     63  C   UNL     1      -5.368 -14.519  -7.632  1.00  0.00     0.074 A 
ATOM     64  C   UNL     1      -0.404 -18.393  -6.914  1.00  0.00     0.029 A 
ATOM     65  N   UNL     1      -1.908 -16.774  -6.685  1.00  0.00    -0.354 N 
ATOM     66  N   UNL     1      -4.321 -15.275  -7.405  1.00  0.00    -0.248 NA
ATOM     67  C   UNL     1      -6.081 -14.834  -8.877  1.00  0.00     0.031 C 
ATOM     68  C   UNL     1      -1.274 -18.442  -8.008  1.00  0.00     0.029 A 
ATOM     69  C   UNL     1      -2.229 -17.451  -7.853  1.00  0.00     0.049 A 
ATOM     70  H   UNL     1      -2.411 -16.010  -6.320  1.00  0.00     0.167 HD
ATOM     71  C   UNL     1      -4.260 -16.169  -8.468  1.00  0.00     0.074 A 
ATOM     72  C   UNL     1      -5.390 -15.873  -9.325  1.00  0.00     0.031 C 
ATOM     73  C   UNL     1      -3.350 -17.145  -8.710  1.00  0.00     0.037 A 
BRANCH  60  74
ATOM     74  C   UNL     1       1.121 -17.554  -4.453  1.00  0.00     0.058 A 
ATOM     75  C   UNL     1       1.129 -18.379  -3.317  1.00  0.00     0.135 A 
ATOM     76  C   UNL     1       2.300 -17.481  -5.214  1.00  0.00     0.135 A 
ATOM     77  F   UNL     1       0.034 -18.483  -2.548  1.00  0.00    -0.206 F 
ATOM     78  C   UNL     1       2.264 -19.095  -2.944  1.00  0.00     0.059 A 
ATOM     79  C   UNL     1       3.438 -18.208  -4.874  1.00  0.00     0.059 A 
ATOM     80  F   UNL     1       2.348 -16.712  -6.313  1.00  0.00    -0.206 F 
ATOM     81  C   UNL     1       3.412 -19.007  -3.732  1.00  0.00     0.060 A 
BRANCH  81  82
ATOM     82  S   UNL     1       4.864 -19.963  -3.244  1.00  0.00     0.124 S 
ATOM     83  O   UNL     1       5.253 -19.295  -2.005  1.00  0.00    -0.237 OA
ATOM     84  O   UNL     1       4.314 -21.306  -3.092  1.00  0.00    -0.237 OA
ATOM     85  O   UNL     1       5.784 -19.788  -4.363  1.00  0.00    -0.744 OA
ENDBRANCH  81  82
ENDBRANCH  60  74
BRANCH  61  86
ATOM     86  C   UNL     1      -7.160 -12.679  -7.199  1.00  0.00     0.058 A 
ATOM     87  C   UNL     1      -8.408 -13.318  -7.183  1.00  0.00     0.135 A 
ATOM     88  C   UNL     1      -7.121 -11.327  -7.576  1.00  0.00     0.135 A 
ATOM     89  F   UNL     1      -8.496 -14.611  -6.833  1.00  0.00    -0.206 F 
ATOM     90  C   UNL     1      -9.573 -12.647  -7.538  1.00  0.00     0.059 A 
ATOM     91  C   UNL     1      -8.275 -10.627  -7.907  1.00  0.00     0.059 A 
ATOM     92  F   UNL     1      -5.952 -10.667  -7.592  1.00  0.00    -0.206 F 
ATOM     93  C   UNL     1      -9.496 -11.299  -7.892  1.00  0.00     0.060 A 
BRANCH  93  94
ATOM     94  S   UNL     1     -11.024 -10.428  -8.300  1.00  0.00     0.124 S 
ATOM     95  O   UNL     1     -11.395 -11.059  -9.561  1.00  0.00    -0.237 OA
ATOM     96  O   UNL     1     -11.870 -10.745  -7.154  1.00  0.00    -0.237 OA
ATOM     97  O   UNL     1     -10.603  -9.033  -8.393  1.00  0.00    -0.744 OA
ENDBRANCH  93  94
ENDBRANCH  61  86
BRANCH  73  98
ATOM     98  C   UNL     1      -3.542 -17.979  -9.951  1.00  0.00     0.058 A 
ATOM     99  C   UNL     1      -3.345 -17.446 -11.236  1.00  0.00     0.135 A 
ATOM    100  C   UNL     1      -3.893 -19.336  -9.855  1.00  0.00     0.135 A 
ATOM    101  F   UNL     1      -3.016 -16.154 -11.389  1.00  0.00    -0.206 F 
ATOM    102  C   UNL     1      -3.521 -18.220 -12.380  1.00  0.00     0.059 A 
ATOM    103  C   UNL     1      -4.041 -20.136 -10.985  1.00  0.00     0.059 A 
ATOM    104  F   UNL     1      -4.084 -19.902  -8.653  1.00  0.00    -0.206 F 
ATOM    105  C   UNL     1      -3.867 -19.565 -12.244  1.00  0.00     0.060 A 
BRANCH 105 106
ATOM    106  S   UNL     1      -4.075 -20.557 -13.738  1.00  0.00     0.124 S 
ATOM    107  O   UNL     1      -5.300 -19.996 -14.297  1.00  0.00    -0.237 OA
ATOM    108  O   UNL     1      -2.850 -20.267 -14.476  1.00  0.00    -0.237 OA
ATOM    109  O   UNL     1      -4.185 -21.921 -13.230  1.00  0.00    -0.744 OA
ENDBRANCH 105 106
ENDBRANCH  73  98
ENDBRANCH  47  48
ENDBRANCH  40  42
ENDBRANCH  39  40
ENDBRANCH  38  39
ENDBRANCH  37  38
ENDBRANCH  36  37
ENDBRANCH   1  36
TORSDOF 22
