REMARK SMILES C[C@@H](Oc1ccc(I)cc1)C(=O)NCc1ccc(C(=O)OCCOCCOCCOC(=O)c2ccc(-c3c4nc(c(-c5c(F)cc(S(=O)(=O)[O-])cc5F)c5ccc([nH]5)c(-c5c(F)cc(S(=O)(=O)[O-])cc5F)c5nc(c(-c6c(F)cc(S(=O)(=O)[O-])cc6F)c6ccc3[nH]6)C=C5)C=C4)cc2)cc1
REMARK SMILES IDX 25 1 24 2 23 3 22 4 21 5 19 6 20 7 18 8 15 9 16 10 100 11
REMARK SMILES IDX 17 12 99 13 14 14 13 15 11 16 12 17 2 19 1 20 3 21 4 22 5 23
REMARK SMILES IDX 10 24 6 25 9 26 7 27 8 28 26 29 27 30 28 31 29 32 30 33
REMARK SMILES IDX 31 34 32 35 33 36 34 37 98 38 35 39 97 40 36 41 37 42 38 43
REMARK SMILES IDX 91 44 39 45 96 46 90 47 92 48 40 49 95 50 89 51 88 52 41 54
REMARK SMILES IDX 75 55 54 56 74 57 55 58 58 59 73 60 93 61 56 62 57 63 72 65
REMARK SMILES IDX 94 66 59 67 42 68 43 69 52 70 44 71 45 72 51 73 53 74 46 75
REMARK SMILES IDX 47 76 48 77 49 78 50 79 76 80 77 81 86 82 78 83 79 84 85 85
REMARK SMILES IDX 87 86 80 87 81 88 82 89 83 90 84 91 60 92 61 93 70 94 62 95
REMARK SMILES IDX 63 96 69 97 71 98 64 99 65 100 66 101 67 102 68 103
REMARK H PARENT 13 18 92 53 58 64
REMARK Flexibility Score: inf
ROOT
ATOM      1  C   UNL     1      -0.450   2.598   6.562  1.00  0.00     0.188 C 
ENDROOT
BRANCH   1   2
ATOM      2  O   UNL     1      -0.706   3.043   7.872  1.00  0.00    -0.376 OA
BRANCH   2   3
ATOM      3  C   UNL     1      -1.912   2.695   8.527  1.00  0.00     0.202 C 
BRANCH   3   4
ATOM      4  C   UNL     1      -2.849   1.532   8.136  1.00  0.00     0.261 C 
BRANCH   4   5
ATOM      5  O   UNL     1      -2.507   0.737   7.000  1.00  0.00    -0.460 OA
BRANCH   5   6
ATOM      6  C   UNL     1      -3.233   0.974   5.878  1.00  0.00     0.338 C 
ATOM      7  O   UNL     1      -4.127   1.790   5.748  1.00  0.00    -0.246 OA
BRANCH   6   8
ATOM      8  C   UNL     1      -2.671   0.200   4.749  1.00  0.00     0.060 A 
ATOM      9  C   UNL     1      -1.676  -1.193   2.523  1.00  0.00    -0.029 A 
ATOM     10  C   UNL     1      -1.979   0.173   2.430  1.00  0.00     0.006 A 
ATOM     11  C   UNL     1      -1.811  -1.833   3.768  1.00  0.00     0.006 A 
ATOM     12  C   UNL     1      -2.490   0.862   3.530  1.00  0.00     0.016 A 
ATOM     13  C   UNL     1      -2.305  -1.142   4.879  1.00  0.00     0.016 A 
BRANCH   9  14
ATOM     14  C   UNL     1      -1.145  -1.970   1.342  1.00  0.00     0.151 C 
BRANCH  14  15
ATOM     15  N   UNL     1      -1.658  -1.489   0.072  1.00  0.00    -0.349 N 
ATOM     16  C   UNL     1      -0.982  -1.109  -1.054  1.00  0.00     0.261 C 
ATOM     17  O   UNL     1      -1.646  -0.818  -2.052  1.00  0.00    -0.271 OA
ATOM     18  H   UNL     1      -2.639  -1.426   0.013  1.00  0.00     0.163 HD
BRANCH  16  19
ATOM     19  C   UNL     1       0.550  -0.978  -1.049  1.00  0.00     0.258 C 
ATOM     20  C   UNL     1       0.920   0.254  -0.224  1.00  0.00     0.064 C 
BRANCH  19  21
ATOM     21  O   UNL     1       1.074  -2.217  -0.553  1.00  0.00    -0.481 OA
BRANCH  21  22
ATOM     22  C   UNL     1       2.409  -2.415  -0.746  1.00  0.00     0.120 A 
ATOM     23  C   UNL     1       3.354  -1.783   0.060  1.00  0.00     0.047 A 
ATOM     24  C   UNL     1       2.801  -3.420  -1.629  1.00  0.00     0.047 A 
ATOM     25  C   UNL     1       4.704  -2.118  -0.050  1.00  0.00     0.018 A 
ATOM     26  C   UNL     1       4.150  -3.769  -1.731  1.00  0.00     0.018 A 
ATOM     27  C   UNL     1       5.097  -3.115  -0.942  1.00  0.00     0.013 A 
ATOM     28  I   UNL     1       7.098  -3.661  -1.054  1.00  0.00    -0.044 I 
ENDBRANCH  21  22
ENDBRANCH  19  21
ENDBRANCH  16  19
ENDBRANCH  14  15
ENDBRANCH   9  14
ENDBRANCH   6   8
ENDBRANCH   5   6
ENDBRANCH   4   5
ENDBRANCH   3   4
ENDBRANCH   2   3
ENDBRANCH   1   2
BRANCH   1  29
ATOM     29  C   UNL     1       0.345   1.278   6.477  1.00  0.00     0.188 C 
BRANCH  29  30
ATOM     30  O   UNL     1       0.609   0.523   7.649  1.00  0.00    -0.376 OA
BRANCH  30  31
ATOM     31  C   UNL     1       1.200   1.156   8.776  1.00  0.00     0.202 C 
BRANCH  31  32
ATOM     32  C   UNL     1       2.383   2.134   8.651  1.00  0.00     0.261 C 
BRANCH  32  33
ATOM     33  O   UNL     1       2.337   3.070   7.567  1.00  0.00    -0.460 OA
BRANCH  33  34
ATOM     34  C   UNL     1       3.204   2.835   6.555  1.00  0.00     0.338 C 
ATOM     35  O   UNL     1       3.998   1.906   6.457  1.00  0.00    -0.246 OA
BRANCH  34  36
ATOM     36  C   UNL     1       2.945   3.790   5.466  1.00  0.00     0.060 A 
ATOM     37  C   UNL     1       2.448   3.312   4.244  1.00  0.00     0.016 A 
ATOM     38  C   UNL     1       3.234   5.144   5.635  1.00  0.00     0.016 A 
ATOM     39  C   UNL     1       2.243   4.191   3.181  1.00  0.00     0.010 A 
ATOM     40  C   UNL     1       3.053   6.017   4.561  1.00  0.00     0.010 A 
ATOM     41  C   UNL     1       2.579   5.542   3.324  1.00  0.00    -0.014 A 
BRANCH  41  42
ATOM     42  C   UNL     1       2.603   6.440   2.146  1.00  0.00     0.031 A 
ATOM     43  C   UNL     1       3.925   6.720   1.489  1.00  0.00     0.074 A 
ATOM     44  C   UNL     1       1.479   7.022   1.693  1.00  0.00     0.049 A 
ATOM     45  N   UNL     1       4.220   7.579   0.550  1.00  0.00    -0.248 NA
ATOM     46  C   UNL     1       5.071   5.926   1.963  1.00  0.00     0.031 C 
ATOM     47  C   UNL     1       0.134   6.789   2.217  1.00  0.00     0.029 A 
ATOM     48  N   UNL     1       1.298   7.954   0.700  1.00  0.00    -0.354 N 
ATOM     49  C   UNL     1       5.586   7.446   0.334  1.00  0.00     0.074 A 
ATOM     50  C   UNL     1       6.066   6.437   1.252  1.00  0.00     0.031 C 
ATOM     51  C   UNL     1      -0.732   7.580   1.560  1.00  0.00     0.029 A 
ATOM     52  C   UNL     1       0.003   8.406   0.602  1.00  0.00     0.049 A 
ATOM     53  H   UNL     1       2.025   8.268   0.116  1.00  0.00     0.167 HD
ATOM     54  C   UNL     1       6.368   8.109  -0.551  1.00  0.00     0.037 A 
ATOM     55  C   UNL     1      -0.518   9.400  -0.146  1.00  0.00     0.037 A 
ATOM     56  C   UNL     1       5.879   9.117  -1.455  1.00  0.00     0.049 A 
ATOM     57  C   UNL     1       0.385  10.180  -1.070  1.00  0.00     0.074 A 
ATOM     58  C   UNL     1       6.587   9.840  -2.399  1.00  0.00     0.029 A 
ATOM     59  N   UNL     1       4.564   9.552  -1.520  1.00  0.00    -0.354 N 
ATOM     60  N   UNL     1       1.674  10.040  -1.276  1.00  0.00    -0.248 NA
ATOM     61  C   UNL     1      -0.234  11.253  -1.862  1.00  0.00     0.031 C 
ATOM     62  C   UNL     1       5.711  10.752  -2.995  1.00  0.00     0.029 A 
ATOM     63  C   UNL     1       4.443  10.550  -2.473  1.00  0.00     0.049 A 
ATOM     64  H   UNL     1       3.825   9.203  -0.971  1.00  0.00     0.167 HD
ATOM     65  C   UNL     1       2.009  10.976  -2.251  1.00  0.00     0.074 A 
ATOM     66  C   UNL     1       0.790  11.680  -2.590  1.00  0.00     0.031 C 
ATOM     67  C   UNL     1       3.216  11.224  -2.819  1.00  0.00     0.037 A 
BRANCH  54  68
ATOM     68  C   UNL     1       7.837   7.791  -0.560  1.00  0.00     0.058 A 
ATOM     69  C   UNL     1       8.328   6.564  -1.036  1.00  0.00     0.135 A 
ATOM     70  C   UNL     1       8.771   8.742  -0.118  1.00  0.00     0.135 A 
ATOM     71  F   UNL     1       7.479   5.611  -1.452  1.00  0.00    -0.206 F 
ATOM     72  C   UNL     1       9.691   6.283  -1.049  1.00  0.00     0.059 A 
ATOM     73  C   UNL     1      10.140   8.494  -0.150  1.00  0.00     0.059 A 
ATOM     74  F   UNL     1       8.357   9.929   0.351  1.00  0.00    -0.206 F 
ATOM     75  C   UNL     1      10.589   7.255  -0.605  1.00  0.00     0.060 A 
BRANCH  75  76
ATOM     76  S   UNL     1      12.353   6.876  -0.635  1.00  0.00     0.124 S 
ATOM     77  O   UNL     1      12.459   5.901   0.446  1.00  0.00    -0.237 OA
ATOM     78  O   UNL     1      12.535   6.349  -1.984  1.00  0.00    -0.237 OA
ATOM     79  O   UNL     1      12.984   8.167  -0.378  1.00  0.00    -0.744 OA
ENDBRANCH  75  76
ENDBRANCH  54  68
BRANCH  55  80
ATOM     80  C   UNL     1      -1.966   9.730  -0.042  1.00  0.00     0.058 A 
ATOM     81  C   UNL     1      -2.842   9.489  -1.110  1.00  0.00     0.135 A 
ATOM     82  C   UNL     1      -2.502  10.296   1.126  1.00  0.00     0.135 A 
ATOM     83  F   UNL     1      -2.377   8.962  -2.253  1.00  0.00    -0.206 F 
ATOM     84  C   UNL     1      -4.194   9.809  -1.031  1.00  0.00     0.059 A 
ATOM     85  C   UNL     1      -3.855  10.599   1.239  1.00  0.00     0.059 A 
ATOM     86  F   UNL     1      -1.709  10.541   2.181  1.00  0.00    -0.206 F 
ATOM     87  C   UNL     1      -4.692  10.360   0.150  1.00  0.00     0.060 A 
BRANCH  87  88
ATOM     88  S   UNL     1      -6.457  10.729   0.256  1.00  0.00     0.124 S 
ATOM     89  O   UNL     1      -6.571  11.880  -0.632  1.00  0.00    -0.237 OA
ATOM     90  O   UNL     1      -7.057   9.489  -0.225  1.00  0.00    -0.237 OA
ATOM     91  O   UNL     1      -6.658  11.005   1.676  1.00  0.00    -0.744 OA
ENDBRANCH  87  88
ENDBRANCH  55  80
BRANCH  67  92
ATOM     92  C   UNL     1       3.283  12.249  -3.919  1.00  0.00     0.058 A 
ATOM     93  C   UNL     1       3.192  13.626  -3.663  1.00  0.00     0.135 A 
ATOM     94  C   UNL     1       3.542  11.845  -5.240  1.00  0.00     0.135 A 
ATOM     95  F   UNL     1       2.939  14.067  -2.421  1.00  0.00    -0.206 F 
ATOM     96  C   UNL     1       3.348  14.565  -4.679  1.00  0.00     0.059 A 
ATOM     97  C   UNL     1       3.730  12.766  -6.265  1.00  0.00     0.059 A 
ATOM     98  F   UNL     1       3.648  10.540  -5.538  1.00  0.00    -0.206 F 
ATOM     99  C   UNL     1       3.627  14.125  -5.975  1.00  0.00     0.060 A 
BRANCH  99 100
ATOM    100  S   UNL     1       3.896  15.356  -7.268  1.00  0.00     0.124 S 
ATOM    101  O   UNL     1       2.545  15.869  -7.473  1.00  0.00    -0.237 OA
ATOM    102  O   UNL     1       4.834  16.276  -6.632  1.00  0.00    -0.237 OA
ATOM    103  O   UNL     1       4.445  14.576  -8.373  1.00  0.00    -0.744 OA
ENDBRANCH  99 100
ENDBRANCH  67  92
ENDBRANCH  41  42
ENDBRANCH  34  36
ENDBRANCH  33  34
ENDBRANCH  32  33
ENDBRANCH  31  32
ENDBRANCH  30  31
ENDBRANCH  29  30
ENDBRANCH   1  29
TORSDOF 25
