REMARK SMILES CC(=O)c1cccc(-c2ccc(C(=O)OCCOCCOCCOC(=O)c3ccc(-c4c5nc(c(-c6c(F)cc(S(=O)(=O)[O-])cc6F)c6ccc([nH]6)c(-c6c(F)cc(S(=O)(=O)[O-])cc6F)c6nc(c(-c7c(F)cc(S(=O)(=O)[O-])cc7F)c7ccc4[nH]7)C=C6)C=C5)cc3)cc2F)c1
REMARK SMILES IDX 20 1 19 2 18 3 17 4 16 5 15 6 13 7 14 8 12 9 9 10 10 11
REMARK SMILES IDX 94 12 11 13 93 14 95 15 8 16 4 17 5 18 96 19 6 20 7 21 2 22
REMARK SMILES IDX 1 23 3 24 21 25 22 26 23 27 24 28 25 29 26 30 27 31 28 32
REMARK SMILES IDX 92 33 29 34 91 35 30 36 31 37 32 38 85 39 33 40 90 41 84 42
REMARK SMILES IDX 86 43 34 44 89 45 83 46 82 47 35 49 69 50 48 51 68 52 49 53
REMARK SMILES IDX 52 54 67 55 87 56 50 57 51 58 66 60 88 61 53 62 36 63 37 64
REMARK SMILES IDX 46 65 38 66 39 67 45 68 47 69 40 70 41 71 42 72 43 73 44 74
REMARK SMILES IDX 70 75 71 76 80 77 72 78 73 79 79 80 81 81 74 82 75 83 76 84
REMARK SMILES IDX 77 85 78 86 54 87 55 88 64 89 56 90 57 91 63 92 65 93 58 94
REMARK SMILES IDX 59 95 60 96 61 97 62 98
REMARK H PARENT 86 48 52 59
REMARK Flexibility Score: inf
ROOT
ATOM      1  C   UNL     1       8.397  -0.324   7.227  1.00  0.00     0.188 C 
ENDROOT
BRANCH   1   2
ATOM      2  C   UNL     1       8.864  -1.793   7.192  1.00  0.00     0.188 C 
BRANCH   2   3
ATOM      3  O   UNL     1      10.236  -2.110   7.023  1.00  0.00    -0.376 OA
BRANCH   3   4
ATOM      4  C   UNL     1      10.973  -1.556   5.945  1.00  0.00     0.202 C 
BRANCH   4   5
ATOM      5  C   UNL     1      10.415  -1.541   4.516  1.00  0.00     0.261 C 
BRANCH   5   6
ATOM      6  O   UNL     1       9.069  -1.065   4.402  1.00  0.00    -0.460 OA
BRANCH   6   7
ATOM      7  C   UNL     1       8.176  -1.982   3.949  1.00  0.00     0.338 C 
ATOM      8  O   UNL     1       8.409  -3.113   3.578  1.00  0.00    -0.246 OA
BRANCH   7   9
ATOM      9  C   UNL     1       6.800  -1.461   4.103  1.00  0.00     0.063 A 
ATOM     10  C   UNL     1       4.117  -0.634   4.249  1.00  0.00     0.018 A 
ATOM     11  C   UNL     1       4.488  -1.916   4.679  1.00  0.00     0.012 A 
ATOM     12  C   UNL     1       5.135   0.239   3.821  1.00  0.00     0.131 A 
ATOM     13  C   UNL     1       5.819  -2.333   4.592  1.00  0.00     0.016 A 
ATOM     14  C   UNL     1       6.468  -0.155   3.751  1.00  0.00     0.055 A 
ATOM     15  F   UNL     1       4.824   1.480   3.412  1.00  0.00    -0.206 F 
BRANCH  10  16
ATOM     16  C   UNL     1       2.699  -0.269   4.120  1.00  0.00    -0.015 A 
ATOM     17  C   UNL     1       0.848   0.376   2.659  1.00  0.00     0.018 A 
ATOM     18  C   UNL     1      -0.011   0.405   3.760  1.00  0.00     0.012 A 
ATOM     19  C   UNL     1       2.192   0.044   2.845  1.00  0.00     0.020 A 
ATOM     20  C   UNL     1       0.470   0.079   5.029  1.00  0.00     0.001 A 
ATOM     21  C   UNL     1       1.816  -0.261   5.208  1.00  0.00     0.009 A 
BRANCH  17  22
ATOM     22  C   UNL     1       0.312   0.700   1.308  1.00  0.00     0.159 C 
ATOM     23  C   UNL     1       0.980   0.090   0.101  1.00  0.00     0.093 C 
ATOM     24  O   UNL     1      -0.678   1.420   1.200  1.00  0.00    -0.295 OA
ENDBRANCH  17  22
ENDBRANCH  10  16
ENDBRANCH   7   9
ENDBRANCH   6   7
ENDBRANCH   5   6
ENDBRANCH   4   5
ENDBRANCH   3   4
ENDBRANCH   2   3
ENDBRANCH   1   2
BRANCH   1  25
ATOM     25  O   UNL     1       9.357   0.677   6.987  1.00  0.00    -0.376 OA
BRANCH  25  26
ATOM     26  C   UNL     1      10.234   1.116   8.009  1.00  0.00     0.202 C 
BRANCH  26  27
ATOM     27  C   UNL     1      10.257   0.640   9.474  1.00  0.00     0.261 C 
BRANCH  27  28
ATOM     28  O   UNL     1       9.489  -0.507   9.831  1.00  0.00    -0.460 OA
BRANCH  28  29
ATOM     29  C   UNL     1       8.333  -0.240  10.487  1.00  0.00     0.338 C 
ATOM     30  O   UNL     1       7.865   0.857  10.739  1.00  0.00    -0.246 OA
BRANCH  29  31
ATOM     31  C   UNL     1       7.609  -1.504  10.707  1.00  0.00     0.060 A 
ATOM     32  C   UNL     1       6.349  -1.658  10.116  1.00  0.00     0.016 A 
ATOM     33  C   UNL     1       8.141  -2.498  11.530  1.00  0.00     0.016 A 
ATOM     34  C   UNL     1       5.591  -2.795  10.386  1.00  0.00     0.010 A 
ATOM     35  C   UNL     1       7.372  -3.630  11.813  1.00  0.00     0.010 A 
ATOM     36  C   UNL     1       6.079  -3.762  11.276  1.00  0.00    -0.014 A 
BRANCH  36  37
ATOM     37  C   UNL     1       5.153  -4.785  11.817  1.00  0.00     0.031 A 
ATOM     38  C   UNL     1       4.492  -4.514  13.142  1.00  0.00     0.074 A 
ATOM     39  C   UNL     1       4.882  -5.914  11.141  1.00  0.00     0.049 A 
ATOM     40  N   UNL     1       3.657  -5.256  13.822  1.00  0.00    -0.248 NA
ATOM     41  C   UNL     1       4.822  -3.232  13.786  1.00  0.00     0.031 C 
ATOM     42  C   UNL     1       5.427  -6.269   9.832  1.00  0.00     0.029 A 
ATOM     43  N   UNL     1       4.075  -6.974  11.470  1.00  0.00    -0.354 N 
ATOM     44  C   UNL     1       3.373  -4.539  14.979  1.00  0.00     0.074 A 
ATOM     45  C   UNL     1       4.145  -3.317  14.921  1.00  0.00     0.031 C 
ATOM     46  C   UNL     1       4.938  -7.469   9.469  1.00  0.00     0.029 A 
ATOM     47  C   UNL     1       4.070  -7.977  10.531  1.00  0.00     0.049 A 
ATOM     48  H   UNL     1       3.550  -7.012  12.302  1.00  0.00     0.167 HD
ATOM     49  C   UNL     1       2.540  -4.866  15.995  1.00  0.00     0.037 A 
ATOM     50  C   UNL     1       3.444  -9.170  10.537  1.00  0.00     0.037 A 
ATOM     51  C   UNL     1       1.778  -6.084  16.050  1.00  0.00     0.049 A 
ATOM     52  C   UNL     1       2.570  -9.541  11.708  1.00  0.00     0.074 A 
ATOM     53  C   UNL     1       0.888  -6.500  17.025  1.00  0.00     0.029 A 
ATOM     54  N   UNL     1       1.825  -7.090  15.096  1.00  0.00    -0.354 N 
ATOM     55  N   UNL     1       2.285  -8.843  12.783  1.00  0.00    -0.248 NA
ATOM     56  C   UNL     1       1.927 -10.863  11.664  1.00  0.00     0.031 C 
ATOM     57  C   UNL     1       0.436  -7.780  16.685  1.00  0.00     0.029 A 
ATOM     58  C   UNL     1       0.999  -8.137  15.470  1.00  0.00     0.049 A 
ATOM     59  H   UNL     1       2.366  -7.063  14.274  1.00  0.00     0.167 HD
ATOM     60  C   UNL     1       1.399  -9.622  13.521  1.00  0.00     0.074 A 
ATOM     61  C   UNL     1       1.197 -10.845  12.772  1.00  0.00     0.031 C 
ATOM     62  C   UNL     1       0.798  -9.345  14.706  1.00  0.00     0.037 A 
BRANCH  49  63
ATOM     63  C   UNL     1       2.454  -3.904  17.148  1.00  0.00     0.058 A 
ATOM     64  C   UNL     1       1.839  -2.647  17.025  1.00  0.00     0.135 A 
ATOM     65  C   UNL     1       3.012  -4.239  18.393  1.00  0.00     0.135 A 
ATOM     66  F   UNL     1       1.307  -2.267  15.852  1.00  0.00    -0.206 F 
ATOM     67  C   UNL     1       1.819  -1.740  18.080  1.00  0.00     0.059 A 
ATOM     68  C   UNL     1       2.977  -3.360  19.470  1.00  0.00     0.059 A 
ATOM     69  F   UNL     1       3.613  -5.427  18.566  1.00  0.00    -0.206 F 
ATOM     70  C   UNL     1       2.399  -2.104  19.297  1.00  0.00     0.060 A 
BRANCH  70  71
ATOM     71  S   UNL     1       2.398  -0.907  20.648  1.00  0.00     0.124 S 
ATOM     72  O   UNL     1       3.424   0.032  20.204  1.00  0.00    -0.237 OA
ATOM     73  O   UNL     1       1.028  -0.405  20.621  1.00  0.00    -0.237 OA
ATOM     74  O   UNL     1       2.745  -1.711  21.815  1.00  0.00    -0.744 OA
ENDBRANCH  70  71
ENDBRANCH  49  63
BRANCH  50  75
ATOM     75  C   UNL     1       3.601 -10.095   9.384  1.00  0.00     0.058 A 
ATOM     76  C   UNL     1       2.535 -10.334   8.503  1.00  0.00     0.135 A 
ATOM     77  C   UNL     1       4.817 -10.748   9.131  1.00  0.00     0.135 A 
ATOM     78  F   UNL     1       1.349  -9.743   8.711  1.00  0.00    -0.206 F 
ATOM     79  C   UNL     1       2.667 -11.189   7.415  1.00  0.00     0.059 A 
ATOM     80  C   UNL     1       4.981 -11.590   8.035  1.00  0.00     0.059 A 
ATOM     81  F   UNL     1       5.869 -10.548   9.940  1.00  0.00    -0.206 F 
ATOM     82  C   UNL     1       3.897 -11.808   7.184  1.00  0.00     0.060 A 
BRANCH  82  83
ATOM     83  S   UNL     1       4.074 -12.861   5.728  1.00  0.00     0.124 S 
ATOM     84  O   UNL     1       3.287 -14.027   6.110  1.00  0.00    -0.237 OA
ATOM     85  O   UNL     1       3.507 -12.023   4.676  1.00  0.00    -0.237 OA
ATOM     86  O   UNL     1       5.516 -13.072   5.641  1.00  0.00    -0.744 OA
ENDBRANCH  82  83
ENDBRANCH  50  75
BRANCH  62  87
ATOM     87  C   UNL     1      -0.182 -10.353  15.244  1.00  0.00     0.058 A 
ATOM     88  C   UNL     1       0.230 -11.582  15.781  1.00  0.00     0.135 A 
ATOM     89  C   UNL     1      -1.556 -10.057  15.267  1.00  0.00     0.135 A 
ATOM     90  F   UNL     1       1.530 -11.918  15.780  1.00  0.00    -0.206 F 
ATOM     91  C   UNL     1      -0.686 -12.494  16.297  1.00  0.00     0.059 A 
ATOM     92  C   UNL     1      -2.486 -10.941  15.804  1.00  0.00     0.059 A 
ATOM     93  F   UNL     1      -2.004  -8.889  14.779  1.00  0.00    -0.206 F 
ATOM     94  C   UNL     1      -2.043 -12.164  16.304  1.00  0.00     0.060 A 
BRANCH  94  95
ATOM     95  S   UNL     1      -3.221 -13.343  16.998  1.00  0.00     0.124 S 
ATOM     96  O   UNL     1      -3.281 -14.352  15.946  1.00  0.00    -0.237 OA
ATOM     97  O   UNL     1      -2.561 -13.754  18.234  1.00  0.00    -0.237 OA
ATOM     98  O   UNL     1      -4.432 -12.549  17.177  1.00  0.00    -0.744 OA
ENDBRANCH  94  95
ENDBRANCH  62  87
ENDBRANCH  36  37
ENDBRANCH  29  31
ENDBRANCH  28  29
ENDBRANCH  27  28
ENDBRANCH  26  27
ENDBRANCH  25  26
ENDBRANCH   1  25
TORSDOF 22
