REMARK SMILES O=C(OCCOCCOCCOC(=O)c1ccc(-c2c3nc(c(-c4c(F)cc(S(=O)(=O)[O-])cc4F)c4ccc([nH]4)c(-c4c(F)cc(S(=O)(=O)[O-])cc4F)c4nc(c(-c5c(F)cc(S(=O)(=O)[O-])cc5F)c5ccc2[nH]5)C=C4)C=C3)cc1)C1=Cc2cc(S(F)(F)(F)(F)F)cc(Br)c2O[C@@H]1C(F)(F)F
REMARK SMILES IDX 8 1 7 2 6 3 5 4 4 5 3 6 2 7 1 8 81 9 82 10 97 11 83 12 96 13
REMARK SMILES IDX 84 14 95 15 85 16 93 17 92 18 94 19 98 20 99 21 100 22
REMARK SMILES IDX 101 23 86 24 87 25 88 26 89 27 90 28 91 29 9 30 10 31 11 32
REMARK SMILES IDX 12 33 13 34 14 35 15 36 16 37 80 38 17 39 79 40 18 41 19 42
REMARK SMILES IDX 20 43 73 44 21 45 78 46 72 47 74 48 22 49 77 50 71 51 70 52
REMARK SMILES IDX 23 54 57 55 36 56 56 57 37 58 40 59 55 60 75 61 38 62 39 63
REMARK SMILES IDX 54 65 76 66 41 67 24 68 25 69 34 70 26 71 27 72 33 73 35 74
REMARK SMILES IDX 28 75 29 76 30 77 31 78 32 79 58 80 59 81 68 82 60 83 61 84
REMARK SMILES IDX 67 85 69 86 62 87 63 88 64 89 65 90 66 91 42 92 43 93 52 94
REMARK SMILES IDX 44 95 45 96 51 97 53 98 46 99 47 100 48 101 49 102 50 103
REMARK H PARENT 74 53 40 64
REMARK Flexibility Score: inf
ROOT
ATOM      1  C   UNL     1       2.586   2.353  -0.589  1.00  0.00     0.188 C 
ENDROOT
BRANCH   1   2
ATOM      2  C   UNL     1       3.093   1.375   0.459  1.00  0.00     0.188 C 
BRANCH   2   3
ATOM      3  O   UNL     1       4.513   1.375   0.459  1.00  0.00    -0.376 OA
BRANCH   3   4
ATOM      4  C   UNL     1       4.986   0.984  -0.822  1.00  0.00     0.202 C 
BRANCH   4   5
ATOM      5  C   UNL     1       4.480  -0.412  -1.145  1.00  0.00     0.261 C 
BRANCH   5   6
ATOM      6  O   UNL     1       3.060  -0.412  -1.145  1.00  0.00    -0.460 OA
BRANCH   6   7
ATOM      7  C   UNL     1       2.350  -0.053   0.032  1.00  0.00     0.338 C 
ATOM      8  O   UNL     1       1.079  -0.053   0.032  1.00  0.00    -0.246 OA
BRANCH   7   9
ATOM      9  C   UNL     1       3.110   0.331   1.291  1.00  0.00     0.087 C 
ATOM     10  C   UNL     1       4.470   0.331   1.291  1.00  0.00     0.027 C 
ATOM     11  C   UNL     1       2.350   0.715   2.550  1.00  0.00     0.316 C 
ATOM     12  C   UNL     1       5.230  -0.053   0.032  1.00  0.00     0.020 A 
ATOM     13  O   UNL     1       3.692   1.237  -1.241  1.00  0.00    -0.474 OA
ATOM     14  C   UNL     1       6.271  -0.961   0.139  1.00  0.00     0.036 A 
ATOM     15  C   UNL     1       4.861   0.436  -1.147  1.00  0.00     0.142 A 
ATOM     16  C   UNL     1       7.056  -1.073  -1.033  1.00  0.00     0.109 A 
ATOM     17  C   UNL     1       5.600   0.174  -2.275  1.00  0.00     0.062 A 
ATOM     18  C   UNL     1       6.677  -0.667  -2.231  1.00  0.00     0.044 A 
ATOM     19  Br  UNL     1       5.103   1.019  -3.972  1.00  0.00    -0.047 Br
BRANCH  11  20
ATOM     20  C   UNL     1       2.717   2.135   2.950  1.00  0.00     0.430 C 
ATOM     21  F   UNL     1       2.396   2.970   1.966  1.00  0.00    -0.167 F 
ATOM     22  F   UNL     1       2.052   2.471   4.051  1.00  0.00    -0.167 F 
ATOM     23  F   UNL     1       4.024   2.206   3.182  1.00  0.00    -0.167 F 
ENDBRANCH  11  20
BRANCH  16  24
ATOM     24  S   UNL     1       8.695  -1.825  -0.879  1.00  0.00     0.310 S 
ATOM     25  F   UNL     1       8.612  -1.831   0.705  1.00  0.00    -0.094 F 
ATOM     26  F   UNL     1       9.319  -0.382  -0.772  1.00  0.00    -0.094 F 
ATOM     27  F   UNL     1      10.102  -2.473  -0.746  1.00  0.00    -0.094 F 
ATOM     28  F   UNL     1       8.040  -3.262  -0.846  1.00  0.00    -0.094 F 
ATOM     29  F   UNL     1       7.252  -1.182  -0.900  1.00  0.00    -0.094 F 
ENDBRANCH  16  24
ENDBRANCH   7   9
ENDBRANCH   6   7
ENDBRANCH   5   6
ENDBRANCH   4   5
ENDBRANCH   3   4
ENDBRANCH   2   3
ENDBRANCH   1   2
BRANCH   1  30
ATOM     30  O   UNL     1       3.060   1.962  -1.869  1.00  0.00    -0.376 OA
BRANCH  30  31
ATOM     31  C   UNL     1       4.480   1.962  -1.869  1.00  0.00     0.202 C 
BRANCH  31  32
ATOM     32  C   UNL     1       4.986   3.358  -1.546  1.00  0.00     0.261 C 
BRANCH  32  33
ATOM     33  O   UNL     1       4.513   3.749  -0.265  1.00  0.00    -0.460 OA
BRANCH  33  34
ATOM     34  C   UNL     1       3.117   3.825  -0.017  1.00  0.00     0.338 C 
ATOM     35  O   UNL     1       2.291   3.543  -0.941  1.00  0.00    -0.246 OA
BRANCH  34  36
ATOM     36  C   UNL     1       2.610   4.243   1.354  1.00  0.00     0.060 A 
ATOM     37  C   UNL     1       1.520   3.582   1.894  1.00  0.00     0.016 A 
ATOM     38  C   UNL     1       3.159   5.283   1.970  1.00  0.00     0.016 A 
ATOM     39  C   UNL     1       0.894   4.278   2.955  1.00  0.00     0.010 A 
ATOM     40  C   UNL     1       2.567   5.829   3.083  1.00  0.00     0.010 A 
ATOM     41  C   UNL     1       1.452   5.263   3.636  1.00  0.00    -0.014 A 
BRANCH  41  42
ATOM     42  C   UNL     1       0.886   5.740   4.963  1.00  0.00     0.031 A 
ATOM     43  C   UNL     1       0.469   7.066   5.087  1.00  0.00     0.074 A 
ATOM     44  C   UNL     1       0.731   4.784   5.952  1.00  0.00     0.049 A 
ATOM     45  N   UNL     1      -0.160   7.628   6.121  1.00  0.00    -0.248 NA
ATOM     46  C   UNL     1       0.663   8.091   4.051  1.00  0.00     0.031 C 
ATOM     47  C   UNL     1       1.141   3.442   5.832  1.00  0.00     0.029 A 
ATOM     48  N   UNL     1       0.170   4.942   7.200  1.00  0.00    -0.354 N 
ATOM     49  C   UNL     1      -0.413   8.913   5.863  1.00  0.00     0.074 A 
ATOM     50  C   UNL     1       0.118   9.231   4.531  1.00  0.00     0.031 C 
ATOM     51  C   UNL     1       0.843   2.804   6.994  1.00  0.00     0.029 A 
ATOM     52  C   UNL     1       0.240   3.735   7.860  1.00  0.00     0.049 A 
ATOM     53  H   UNL     1      -0.215   5.774   7.559  1.00  0.00     0.167 HD
ATOM     54  C   UNL     1      -1.067   9.831   6.686  1.00  0.00     0.037 A 
ATOM     55  C   UNL     1      -0.189   3.444   9.145  1.00  0.00     0.037 A 
ATOM     56  C   UNL     1      -1.536   9.528   7.955  1.00  0.00     0.049 A 
ATOM     57  C   UNL     1      -0.792   4.378   9.991  1.00  0.00     0.074 A 
ATOM     58  C   UNL     1      -2.204  10.440   8.794  1.00  0.00     0.029 A 
ATOM     59  N   UNL     1      -1.443   8.328   8.624  1.00  0.00    -0.354 N 
ATOM     60  N   UNL     1      -1.080   5.652   9.719  1.00  0.00    -0.248 NA
ATOM     61  C   UNL     1      -1.222   4.090  11.366  1.00  0.00     0.031 C 
ATOM     62  C   UNL     1      -2.503   9.801   9.957  1.00  0.00     0.029 A 
ATOM     63  C   UNL     1      -2.025   8.480   9.863  1.00  0.00     0.049 A 
ATOM     64  H   UNL     1      -1.033   7.503   8.276  1.00  0.00     0.167 HD
ATOM     65  C   UNL     1      -1.672   6.224  10.769  1.00  0.00     0.074 A 
ATOM     66  C   UNL     1      -1.765   5.230  11.846  1.00  0.00     0.031 C 
ATOM     67  C   UNL     1      -2.141   7.535  10.871  1.00  0.00     0.037 A 
BRANCH  54  68
ATOM     68  C   UNL     1      -1.278  11.242   6.162  1.00  0.00     0.058 A 
ATOM     69  C   UNL     1      -2.067  11.354   5.028  1.00  0.00     0.135 A 
ATOM     70  C   UNL     1      -0.785  12.316   6.766  1.00  0.00     0.135 A 
ATOM     71  F   UNL     1      -2.783  10.345   4.541  1.00  0.00    -0.206 F 
ATOM     72  C   UNL     1      -2.041  12.639   4.436  1.00  0.00     0.059 A 
ATOM     73  C   UNL     1      -0.914  13.560   6.197  1.00  0.00     0.059 A 
ATOM     74  F   UNL     1      -0.159  12.187   7.933  1.00  0.00    -0.206 F 
ATOM     75  C   UNL     1      -1.631  13.736   5.046  1.00  0.00     0.060 A 
BRANCH  75  76
ATOM     76  S   UNL     1      -1.996  15.383   4.392  1.00  0.00     0.124 S 
ATOM     77  O   UNL     1      -1.395  15.522   2.992  1.00  0.00    -0.237 OA
ATOM     78  O   UNL     1      -3.513  15.578   4.318  1.00  0.00    -0.237 OA
ATOM     79  O   UNL     1      -1.320  16.569   5.423  1.00  0.00    -0.744 OA
ENDBRANCH  75  76
ENDBRANCH  54  68
BRANCH  55  80
ATOM     80  C   UNL     1       0.007   2.029   9.663  1.00  0.00     0.058 A 
ATOM     81  C   UNL     1      -1.070   1.294  10.131  1.00  0.00     0.135 A 
ATOM     82  C   UNL     1       1.245   1.554   9.730  1.00  0.00     0.135 A 
ATOM     83  F   UNL     1      -2.334   1.608   9.861  1.00  0.00    -0.206 F 
ATOM     84  C   UNL     1      -0.704   0.180  10.923  1.00  0.00     0.059 A 
ATOM     85  C   UNL     1       1.512   0.387  10.405  1.00  0.00     0.059 A 
ATOM     86  F   UNL     1       2.236   2.215   9.138  1.00  0.00    -0.206 F 
ATOM     87  C   UNL     1       0.501  -0.360  10.944  1.00  0.00     0.060 A 
BRANCH  87  88
ATOM     88  S   UNL     1       0.800  -2.000  11.649  1.00  0.00     0.124 S 
ATOM     89  O   UNL     1       0.395  -2.002  13.125  1.00  0.00    -0.237 OA
ATOM     90  O   UNL     1      -0.030  -3.039  10.891  1.00  0.00    -0.237 OA
ATOM     91  O   UNL     1       2.460  -2.386  11.512  1.00  0.00    -0.744 OA
ENDBRANCH  87  88
ENDBRANCH  55  80
BRANCH  67  92
ATOM     92  C   UNL     1      -2.821   7.951  12.165  1.00  0.00     0.058 A 
ATOM     93  C   UNL     1      -2.130   7.810  13.357  1.00  0.00     0.135 A 
ATOM     94  C   UNL     1      -4.080   8.374  12.144  1.00  0.00     0.135 A 
ATOM     95  F   UNL     1      -0.813   7.638  13.415  1.00  0.00    -0.206 F 
ATOM     96  C   UNL     1      -2.953   7.865  14.507  1.00  0.00     0.059 A 
ATOM     97  C   UNL     1      -4.782   8.536  13.313  1.00  0.00     0.059 A 
ATOM     98  F   UNL     1      -4.666   8.642  10.980  1.00  0.00    -0.206 F 
ATOM     99  C   UNL     1      -4.179   8.356  14.527  1.00  0.00     0.060 A 
BRANCH  99 100
ATOM    100  S   UNL     1      -5.015   8.768  16.078  1.00  0.00     0.124 S 
ATOM    101  O   UNL     1      -5.133   7.511  16.944  1.00  0.00    -0.237 OA
ATOM    102  O   UNL     1      -4.207   9.830  16.828  1.00  0.00    -0.237 OA
ATOM    103  O   UNL     1      -6.578   9.376  15.740  1.00  0.00    -0.744 OA
ENDBRANCH  99 100
ENDBRANCH  67  92
ENDBRANCH  41  42
ENDBRANCH  34  36
ENDBRANCH  33  34
ENDBRANCH  32  33
ENDBRANCH  31  32
ENDBRANCH  30  31
ENDBRANCH   1  30
TORSDOF 22
