REMARK SMILES Cc1ccc(-c2nc(NC(=O)[C@H]3[C@@H](C(=O)OCCOCCOCCOC(=O)c4ccc(-c5c6nc(c(-c7c(F)cc(S(=O)(=O)[O-])cc7F)c7ccc([nH]7)c(-c7c(F)cc(S(=O)(=O)[O-])cc7F)c7nc(c(-c8c(F)cc(S(=O)(=O)[O-])cc8F)c8ccc5[nH]8)C=C7)C=C6)cc4)[C@@H]4CC[C@H]3O4)sc2C)cc1
REMARK SMILES IDX 20 1 19 2 18 3 17 4 16 5 14 6 15 7 13 8 12 9 97 10 94 11
REMARK SMILES IDX 96 12 98 13 95 14 10 15 9 16 11 18 8 19 6 20 7 21 100 22
REMARK SMILES IDX 99 23 101 24 5 25 1 26 2 27 3 28 103 29 4 30 102 31 21 32
REMARK SMILES IDX 22 33 23 34 24 35 25 36 26 37 27 38 28 39 29 40 93 41 30 42
REMARK SMILES IDX 92 43 31 44 32 45 33 46 86 47 34 48 91 49 85 50 87 51 35 52
REMARK SMILES IDX 90 53 84 54 83 55 36 57 70 58 49 59 69 60 50 61 53 62 68 63
REMARK SMILES IDX 88 64 51 65 52 66 67 68 89 69 54 70 37 71 38 72 47 73 39 74
REMARK SMILES IDX 40 75 46 76 48 77 41 78 42 79 43 80 44 81 45 82 71 83 72 84
REMARK SMILES IDX 81 85 73 86 74 87 80 88 82 89 75 90 76 91 77 92 78 93 79 94
REMARK SMILES IDX 55 95 56 96 65 97 57 98 58 99 64 100 66 101 59 102 60 103
REMARK SMILES IDX 61 104 62 105 63 106
REMARK H PARENT 9 17 87 56 53 67
REMARK Flexibility Score: inf
ROOT
ATOM      1  C   UNL     1      -7.065   2.557  -3.440  1.00  0.00     0.188 C 
ENDROOT
BRANCH   1   2
ATOM      2  O   UNL     1      -5.985   3.453  -3.478  1.00  0.00    -0.376 OA
BRANCH   2   3
ATOM      3  C   UNL     1      -4.955   3.391  -2.532  1.00  0.00     0.202 C 
BRANCH   3   4
ATOM      4  C   UNL     1      -4.876   2.517  -1.278  1.00  0.00     0.261 C 
BRANCH   4   5
ATOM      5  O   UNL     1      -5.270   1.137  -1.129  1.00  0.00    -0.463 OA
BRANCH   5   6
ATOM      6  C   UNL     1      -6.488   1.006  -0.584  1.00  0.00     0.312 C 
ATOM      7  O   UNL     1      -7.376   1.808  -0.783  1.00  0.00    -0.252 OA
BRANCH   6   8
ATOM      8  C   UNL     1      -6.853  -0.098   0.321  1.00  0.00     0.143 C 
ATOM      9  C   UNL     1      -5.814  -0.653   1.247  1.00  0.00     0.124 C 
ATOM     10  C   UNL     1      -5.883  -2.154   0.738  1.00  0.00     0.132 C 
ATOM     11  C   UNL     1      -7.408  -1.263  -0.489  1.00  0.00     0.133 C 
ATOM     12  C   UNL     1      -7.180  -2.910   1.156  1.00  0.00     0.035 C 
ATOM     13  O   UNL     1      -6.211  -2.020  -0.674  1.00  0.00    -0.373 OA
ATOM     14  C   UNL     1      -8.267  -2.180   0.379  1.00  0.00     0.036 C 
BRANCH   9  15
ATOM     15  C   UNL     1      -4.402   0.044   1.272  1.00  0.00     0.232 C 
ATOM     16  N   UNL     1      -4.042   1.379   1.474  1.00  0.00    -0.302 N 
ATOM     17  H   UNL     1      -3.065   1.492   1.423  1.00  0.00     0.172 HD
ATOM     18  O   UNL     1      -3.434  -0.714   1.079  1.00  0.00    -0.274 OA
BRANCH  16  19
ATOM     19  C   UNL     1      -4.674   2.602   1.729  1.00  0.00     0.190 A 
ATOM     20  C   UNL     1      -5.280   4.825   1.700  1.00  0.00     0.086 A 
ATOM     21  N   UNL     1      -4.222   3.858   1.519  1.00  0.00    -0.220 NA
ATOM     22  C   UNL     1      -6.455   4.185   2.009  1.00  0.00     0.031 A 
ATOM     23  S   UNL     1      -6.249   2.529   2.232  1.00  0.00    -0.101 S 
ATOM     24  C   UNL     1      -7.778   4.796   2.097  1.00  0.00     0.059 C 
BRANCH  20  25
ATOM     25  C   UNL     1      -5.386   6.336   1.498  1.00  0.00     0.001 A 
ATOM     26  C   UNL     1      -7.158  10.348   0.799  1.00  0.00     0.044 C 
ATOM     27  C   UNL     1      -6.508   9.008   1.038  1.00  0.00    -0.051 A 
ATOM     28  C   UNL     1      -5.791   8.307   0.052  1.00  0.00     0.004 A 
ATOM     29  C   UNL     1      -6.661   8.372   2.258  1.00  0.00     0.004 A 
ATOM     30  C   UNL     1      -5.260   6.987   0.268  1.00  0.00     0.010 A 
ATOM     31  C   UNL     1      -6.063   7.109   2.479  1.00  0.00     0.010 A 
ENDBRANCH  20  25
ENDBRANCH  16  19
ENDBRANCH   9  15
ENDBRANCH   6   8
ENDBRANCH   5   6
ENDBRANCH   4   5
ENDBRANCH   3   4
ENDBRANCH   2   3
ENDBRANCH   1   2
BRANCH   1  32
ATOM     32  C   UNL     1      -6.668   1.112  -3.801  1.00  0.00     0.188 C 
BRANCH  32  33
ATOM     33  O   UNL     1      -6.140   0.916  -5.109  1.00  0.00    -0.376 OA
BRANCH  33  34
ATOM     34  C   UNL     1      -6.795   1.699  -6.102  1.00  0.00     0.202 C 
BRANCH  34  35
ATOM     35  C   UNL     1      -8.336   1.473  -6.277  1.00  0.00     0.261 C 
BRANCH  35  36
ATOM     36  O   UNL     1      -9.091   1.405  -5.021  1.00  0.00    -0.460 OA
BRANCH  36  37
ATOM     37  C   UNL     1     -10.364   0.920  -4.913  1.00  0.00     0.338 C 
ATOM     38  O   UNL     1     -11.025   0.399  -5.805  1.00  0.00    -0.246 OA
BRANCH  37  39
ATOM     39  C   UNL     1     -10.767   0.957  -3.442  1.00  0.00     0.060 A 
ATOM     40  C   UNL     1     -11.893   1.555  -2.868  1.00  0.00     0.016 A 
ATOM     41  C   UNL     1      -9.901   0.366  -2.541  1.00  0.00     0.016 A 
ATOM     42  C   UNL     1     -11.989   1.745  -1.429  1.00  0.00     0.010 A 
ATOM     43  C   UNL     1      -9.974   0.618  -1.155  1.00  0.00     0.010 A 
ATOM     44  C   UNL     1     -10.936   1.394  -0.539  1.00  0.00    -0.014 A 
BRANCH  44  45
ATOM     45  C   UNL     1     -10.419   2.221   0.686  1.00  0.00     0.031 A 
ATOM     46  C   UNL     1      -9.773   1.732   2.079  1.00  0.00     0.074 A 
ATOM     47  C   UNL     1     -10.002   3.384   0.117  1.00  0.00     0.049 A 
ATOM     48  N   UNL     1      -9.325   2.466   3.087  1.00  0.00    -0.248 NA
ATOM     49  C   UNL     1      -9.723   0.329   2.511  1.00  0.00     0.031 C 
ATOM     50  C   UNL     1      -8.702   3.951  -0.258  1.00  0.00     0.029 A 
ATOM     51  N   UNL     1     -10.870   4.312  -0.404  1.00  0.00    -0.354 N 
ATOM     52  C   UNL     1      -8.597   1.673   4.031  1.00  0.00     0.074 A 
ATOM     53  C   UNL     1      -8.966   0.334   3.631  1.00  0.00     0.031 C 
ATOM     54  C   UNL     1      -8.812   5.202  -0.722  1.00  0.00     0.029 A 
ATOM     55  C   UNL     1     -10.194   5.487  -0.646  1.00  0.00     0.049 A 
ATOM     56  H   UNL     1     -11.828   4.161  -0.577  1.00  0.00     0.167 HD
ATOM     57  C   UNL     1      -7.665   2.191   4.953  1.00  0.00     0.037 A 
ATOM     58  C   UNL     1     -10.683   6.713  -0.473  1.00  0.00     0.037 A 
ATOM     59  C   UNL     1      -7.738   3.671   5.093  1.00  0.00     0.049 A 
ATOM     60  C   UNL     1     -10.935   6.800   1.087  1.00  0.00     0.074 A 
ATOM     61  C   UNL     1      -6.849   4.717   5.331  1.00  0.00     0.029 A 
ATOM     62  N   UNL     1      -8.962   4.298   4.904  1.00  0.00    -0.354 N 
ATOM     63  N   UNL     1     -10.033   6.591   2.064  1.00  0.00    -0.248 NA
ATOM     64  C   UNL     1     -12.242   7.083   1.671  1.00  0.00     0.031 C 
ATOM     65  C   UNL     1      -7.573   5.962   5.281  1.00  0.00     0.029 A 
ATOM     66  C   UNL     1      -8.860   5.687   4.828  1.00  0.00     0.049 A 
ATOM     67  H   UNL     1      -9.815   3.812   4.831  1.00  0.00     0.167 HD
ATOM     68  C   UNL     1     -10.637   6.659   3.353  1.00  0.00     0.074 A 
ATOM     69  C   UNL     1     -12.018   6.983   2.997  1.00  0.00     0.031 C 
ATOM     70  C   UNL     1     -10.117   6.401   4.641  1.00  0.00     0.037 A 
BRANCH  57  71
ATOM     71  C   UNL     1      -6.403   1.445   5.644  1.00  0.00     0.058 A 
ATOM     72  C   UNL     1      -5.579   2.082   6.627  1.00  0.00     0.135 A 
ATOM     73  C   UNL     1      -5.848   0.213   5.228  1.00  0.00     0.135 A 
ATOM     74  F   UNL     1      -5.990   3.189   7.261  1.00  0.00    -0.206 F 
ATOM     75  C   UNL     1      -4.305   1.621   7.047  1.00  0.00     0.059 A 
ATOM     76  C   UNL     1      -4.590  -0.297   5.669  1.00  0.00     0.059 A 
ATOM     77  F   UNL     1      -6.505  -0.569   4.367  1.00  0.00    -0.206 F 
ATOM     78  C   UNL     1      -3.804   0.428   6.556  1.00  0.00     0.060 A 
BRANCH  78  79
ATOM     79  S   UNL     1      -2.207  -0.201   7.172  1.00  0.00     0.124 S 
ATOM     80  O   UNL     1      -1.244   0.629   6.455  1.00  0.00    -0.237 OA
ATOM     81  O   UNL     1      -2.298   0.043   8.609  1.00  0.00    -0.237 OA
ATOM     82  O   UNL     1      -2.228  -1.609   6.787  1.00  0.00    -0.744 OA
ENDBRANCH  78  79
ENDBRANCH  57  71
BRANCH  58  83
ATOM     83  C   UNL     1     -11.269   6.879  -1.910  1.00  0.00     0.058 A 
ATOM     84  C   UNL     1     -10.313   7.400  -2.839  1.00  0.00     0.135 A 
ATOM     85  C   UNL     1     -12.164   5.937  -2.517  1.00  0.00     0.135 A 
ATOM     86  F   UNL     1      -9.389   8.268  -2.397  1.00  0.00    -0.206 F 
ATOM     87  C   UNL     1     -10.137   6.917  -4.159  1.00  0.00     0.059 A 
ATOM     88  C   UNL     1     -11.986   5.424  -3.833  1.00  0.00     0.059 A 
ATOM     89  F   UNL     1     -13.069   5.294  -1.759  1.00  0.00    -0.206 F 
ATOM     90  C   UNL     1     -10.953   5.901  -4.641  1.00  0.00     0.060 A 
BRANCH  90  91
ATOM     91  S   UNL     1     -10.585   5.092  -6.238  1.00  0.00     0.124 S 
ATOM     92  O   UNL     1     -11.526   5.752  -7.136  1.00  0.00    -0.237 OA
ATOM     93  O   UNL     1      -9.176   5.396  -6.469  1.00  0.00    -0.237 OA
ATOM     94  O   UNL     1     -10.871   3.691  -5.949  1.00  0.00    -0.744 OA
ENDBRANCH  90  91
ENDBRANCH  58  83
BRANCH  70  95
ATOM     95  C   UNL     1     -10.819   6.534   6.027  1.00  0.00     0.058 A 
ATOM     96  C   UNL     1     -11.924   7.335   6.300  1.00  0.00     0.135 A 
ATOM     97  C   UNL     1     -10.323   5.833   7.186  1.00  0.00     0.135 A 
ATOM     98  F   UNL     1     -12.338   8.259   5.422  1.00  0.00    -0.206 F 
ATOM     99  C   UNL     1     -12.609   7.264   7.524  1.00  0.00     0.059 A 
ATOM    100  C   UNL     1     -10.985   5.733   8.392  1.00  0.00     0.059 A 
ATOM    101  F   UNL     1      -9.129   5.230   7.247  1.00  0.00    -0.206 F 
ATOM    102  C   UNL     1     -12.160   6.420   8.541  1.00  0.00     0.060 A 
BRANCH 102 103
ATOM    103  S   UNL     1     -13.052   6.276  10.091  1.00  0.00     0.124 S 
ATOM    104  O   UNL     1     -13.155   7.671  10.505  1.00  0.00    -0.237 OA
ATOM    105  O   UNL     1     -14.291   5.642   9.655  1.00  0.00    -0.237 OA
ATOM    106  O   UNL     1     -12.184   5.443  10.919  1.00  0.00    -0.744 OA
ENDBRANCH 102 103
ENDBRANCH  70  95
ENDBRANCH  44  45
ENDBRANCH  37  39
ENDBRANCH  36  37
ENDBRANCH  35  36
ENDBRANCH  34  35
ENDBRANCH  33  34
ENDBRANCH  32  33
ENDBRANCH   1  32
TORSDOF 23
