REMARK SMILES C[NH+]1CCC(NC(=O)N[C@H]2C=C[C@H](C(=O)OCCOCCOCCOC(=O)c3ccc(-c4c5nc(c(-c6c(F)cc(S(=O)(=O)[O-])cc6F)c6ccc([nH]6)c(-c6c(F)cc(S(=O)(=O)[O-])cc6F)c6nc(c(-c7c(F)cc(S(=O)(=O)[O-])cc7F)c7ccc4[nH]7)C=C6)C=C5)cc3)C2)CC1
REMARK SMILES IDX 21 1 20 2 19 3 18 4 17 5 16 6 14 7 15 8 13 9 10 10 11 11
REMARK SMILES IDX 94 12 12 13 9 14 6 15 7 16 8 18 5 20 1 21 2 22 3 23 96 24
REMARK SMILES IDX 4 26 95 27 22 28 23 29 24 30 25 31 26 32 27 33 28 34 29 35
REMARK SMILES IDX 93 36 30 37 92 38 31 39 32 40 33 41 86 42 34 43 91 44 85 45
REMARK SMILES IDX 87 46 35 47 90 48 84 49 83 50 36 52 70 53 49 54 69 55 50 56
REMARK SMILES IDX 53 57 68 58 88 59 51 60 52 61 67 63 89 64 54 65 37 66 38 67
REMARK SMILES IDX 47 68 39 69 40 70 46 71 48 72 41 73 42 74 43 75 44 76 45 77
REMARK SMILES IDX 71 78 72 79 81 80 73 81 74 82 80 83 82 84 75 85 76 86 77 87
REMARK SMILES IDX 78 88 79 89 55 90 56 91 65 92 57 93 58 94 64 95 66 96 59 97
REMARK SMILES IDX 60 98 61 99 62 100 63 101
REMARK H PARENT 6 17 9 19 2 25 87 51 53 62
REMARK Flexibility Score: inf
ROOT
ATOM      1  C   UNL     1      -0.522   3.298  -2.527  1.00  0.00     0.188 C 
ENDROOT
BRANCH   1   2
ATOM      2  C   UNL     1      -0.818   2.981  -4.007  1.00  0.00     0.188 C 
BRANCH   2   3
ATOM      3  O   UNL     1      -2.189   3.104  -4.338  1.00  0.00    -0.376 OA
BRANCH   3   4
ATOM      4  C   UNL     1      -2.893   1.899  -4.596  1.00  0.00     0.202 C 
BRANCH   4   5
ATOM      5  C   UNL     1      -2.962   0.903  -3.438  1.00  0.00     0.261 C 
BRANCH   5   6
ATOM      6  O   UNL     1      -1.690   0.507  -2.905  1.00  0.00    -0.463 OA
BRANCH   6   7
ATOM      7  C   UNL     1      -0.875  -0.332  -3.613  1.00  0.00     0.312 C 
ATOM      8  O   UNL     1      -1.128  -0.791  -4.716  1.00  0.00    -0.252 OA
BRANCH   7   9
ATOM      9  C   UNL     1       0.376  -0.559  -2.768  1.00  0.00     0.124 C 
ATOM     10  C   UNL     1       2.833  -0.505  -2.894  1.00  0.00     0.107 C 
ATOM     11  C   UNL     1       2.310  -1.891  -2.755  1.00  0.00    -0.006 C 
ATOM     12  C   UNL     1       1.580   0.369  -3.043  1.00  0.00     0.048 C 
ATOM     13  C   UNL     1       0.972  -1.931  -2.772  1.00  0.00    -0.014 C 
BRANCH  10  14
ATOM     14  N   UNL     1       3.851  -0.169  -1.900  1.00  0.00    -0.332 N 
ATOM     15  N   UNL     1       3.187  -0.098   0.393  1.00  0.00    -0.335 N 
ATOM     16  C   UNL     1       4.084  -0.045  -0.593  1.00  0.00     0.315 C 
ATOM     17  H   UNL     1       3.587  -0.140   1.291  1.00  0.00     0.165 HD
ATOM     18  O   UNL     1       5.259   0.135  -0.254  1.00  0.00    -0.249 OA
ATOM     19  H   UNL     1       4.683   0.049  -2.379  1.00  0.00     0.165 HD
BRANCH  15  20
ATOM     20  C   UNL     1       1.749  -0.107   0.398  1.00  0.00     0.095 C 
ATOM     21  C   UNL     1      -2.422  -0.091   0.834  1.00  0.00     0.332 C 
ATOM     22  N   UNL     1      -1.028  -0.089   1.303  1.00  0.00    -0.337 N 
ATOM     23  C   UNL     1      -0.366   1.132   0.818  1.00  0.00     0.264 C 
ATOM     24  C   UNL     1      -0.370  -1.341   0.894  1.00  0.00     0.264 C 
ATOM     25  H   UNL     1      -0.972  -0.065   2.321  1.00  0.00     0.347 HD
ATOM     26  C   UNL     1       1.149   1.144   1.026  1.00  0.00     0.086 C 
ATOM     27  C   UNL     1       1.152  -1.336   1.067  1.00  0.00     0.086 C 
ENDBRANCH  15  20
ENDBRANCH  10  14
ENDBRANCH   7   9
ENDBRANCH   6   7
ENDBRANCH   5   6
ENDBRANCH   4   5
ENDBRANCH   3   4
ENDBRANCH   2   3
ENDBRANCH   1   2
BRANCH   1  28
ATOM     28  O   UNL     1      -1.482   3.971  -1.723  1.00  0.00    -0.376 OA
BRANCH  28  29
ATOM     29  C   UNL     1      -2.270   4.998  -2.306  1.00  0.00     0.202 C 
BRANCH  29  30
ATOM     30  C   UNL     1      -1.589   6.173  -3.034  1.00  0.00     0.261 C 
BRANCH  30  31
ATOM     31  O   UNL     1      -0.504   5.841  -3.919  1.00  0.00    -0.460 OA
BRANCH  31  32
ATOM     32  C   UNL     1       0.746   6.135  -3.475  1.00  0.00     0.338 C 
ATOM     33  O   UNL     1       1.034   6.683  -2.425  1.00  0.00    -0.246 OA
BRANCH  32  34
ATOM     34  C   UNL     1       1.761   5.515  -4.365  1.00  0.00     0.060 A 
ATOM     35  C   UNL     1       2.657   4.587  -3.812  1.00  0.00     0.016 A 
ATOM     36  C   UNL     1       1.865   5.863  -5.713  1.00  0.00     0.016 A 
ATOM     37  C   UNL     1       3.667   4.020  -4.595  1.00  0.00     0.010 A 
ATOM     38  C   UNL     1       2.898   5.316  -6.489  1.00  0.00     0.010 A 
ATOM     39  C   UNL     1       3.822   4.411  -5.930  1.00  0.00    -0.014 A 
BRANCH  39  40
ATOM     40  C   UNL     1       5.041   4.017  -6.688  1.00  0.00     0.031 A 
ATOM     41  C   UNL     1       6.178   5.003  -6.788  1.00  0.00     0.074 A 
ATOM     42  C   UNL     1       5.148   2.813  -7.281  1.00  0.00     0.049 A 
ATOM     43  N   UNL     1       7.293   4.920  -7.466  1.00  0.00    -0.248 NA
ATOM     44  C   UNL     1       6.032   6.251  -6.021  1.00  0.00     0.031 C 
ATOM     45  C   UNL     1       4.144   1.752  -7.230  1.00  0.00     0.029 A 
ATOM     46  N   UNL     1       6.150   2.288  -8.063  1.00  0.00    -0.354 N 
ATOM     47  C   UNL     1       7.972   6.110  -7.227  1.00  0.00     0.074 A 
ATOM     48  C   UNL     1       7.137   6.903  -6.351  1.00  0.00     0.031 C 
ATOM     49  C   UNL     1       4.566   0.715  -7.977  1.00  0.00     0.029 A 
ATOM     50  C   UNL     1       5.852   1.051  -8.588  1.00  0.00     0.049 A 
ATOM     51  H   UNL     1       7.001   2.753  -8.233  1.00  0.00     0.167 HD
ATOM     52  C   UNL     1       9.179   6.507  -7.696  1.00  0.00     0.037 A 
ATOM     53  C   UNL     1       6.520   0.295  -9.486  1.00  0.00     0.037 A 
ATOM     54  C   UNL     1      10.013   5.713  -8.560  1.00  0.00     0.049 A 
ATOM     55  C   UNL     1       7.838   0.784 -10.041  1.00  0.00     0.074 A 
ATOM     56  C   UNL     1      11.271   6.016  -9.053  1.00  0.00     0.029 A 
ATOM     57  N   UNL     1       9.673   4.470  -9.072  1.00  0.00    -0.354 N 
ATOM     58  N   UNL     1       8.485   1.894  -9.775  1.00  0.00    -0.248 NA
ATOM     59  C   UNL     1       8.517  -0.082 -11.017  1.00  0.00     0.031 C 
ATOM     60  C   UNL     1      11.663   4.988  -9.915  1.00  0.00     0.029 A 
ATOM     61  C   UNL     1      10.681   4.011  -9.905  1.00  0.00     0.049 A 
ATOM     62  H   UNL     1       8.839   3.986  -8.874  1.00  0.00     0.167 HD
ATOM     63  C   UNL     1       9.657   1.843 -10.526  1.00  0.00     0.074 A 
ATOM     64  C   UNL     1       9.637   0.589 -11.247  1.00  0.00     0.031 C 
ATOM     65  C   UNL     1      10.660   2.753 -10.610  1.00  0.00     0.037 A 
BRANCH  52  66
ATOM     66  C   UNL     1       9.665   7.880  -7.320  1.00  0.00     0.058 A 
ATOM     67  C   UNL     1      10.105   8.187  -6.023  1.00  0.00     0.135 A 
ATOM     68  C   UNL     1       9.754   8.887  -8.296  1.00  0.00     0.135 A 
ATOM     69  F   UNL     1      10.026   7.269  -5.047  1.00  0.00    -0.206 F 
ATOM     70  C   UNL     1      10.603   9.447  -5.704  1.00  0.00     0.059 A 
ATOM     71  C   UNL     1      10.274  10.144  -8.007  1.00  0.00     0.059 A 
ATOM     72  F   UNL     1       9.343   8.648  -9.552  1.00  0.00    -0.206 F 
ATOM     73  C   UNL     1      10.689  10.417  -6.705  1.00  0.00     0.060 A 
BRANCH  73  74
ATOM     74  S   UNL     1      11.365  12.036  -6.281  1.00  0.00     0.124 S 
ATOM     75  O   UNL     1      10.298  12.590  -5.453  1.00  0.00    -0.237 OA
ATOM     76  O   UNL     1      12.595  11.685  -5.578  1.00  0.00    -0.237 OA
ATOM     77  O   UNL     1      11.549  12.680  -7.578  1.00  0.00    -0.744 OA
ENDBRANCH  73  74
ENDBRANCH  52  66
BRANCH  53  78
ATOM     78  C   UNL     1       5.939  -0.994  -9.961  1.00  0.00     0.058 A 
ATOM     79  C   UNL     1       6.548  -2.224  -9.671  1.00  0.00     0.135 A 
ATOM     80  C   UNL     1       4.776  -1.015 -10.749  1.00  0.00     0.135 A 
ATOM     81  F   UNL     1       7.671  -2.259  -8.936  1.00  0.00    -0.206 F 
ATOM     82  C   UNL     1       6.041  -3.425 -10.160  1.00  0.00     0.059 A 
ATOM     83  C   UNL     1       4.232  -2.205 -11.223  1.00  0.00     0.059 A 
ATOM     84  F   UNL     1       4.148   0.131 -11.054  1.00  0.00    -0.206 F 
ATOM     85  C   UNL     1       4.880  -3.405 -10.935  1.00  0.00     0.060 A 
BRANCH  85  86
ATOM     86  S   UNL     1       4.210  -4.971 -11.535  1.00  0.00     0.124 S 
ATOM     87  O   UNL     1       5.182  -5.333 -12.560  1.00  0.00    -0.237 OA
ATOM     88  O   UNL     1       4.221  -5.790 -10.327  1.00  0.00    -0.237 OA
ATOM     89  O   UNL     1       2.884  -4.604 -12.023  1.00  0.00    -0.744 OA
ENDBRANCH  85  86
ENDBRANCH  53  78
BRANCH  65  90
ATOM     90  C   UNL     1      11.849   2.418 -11.473  1.00  0.00     0.058 A 
ATOM     91  C   UNL     1      11.771   2.409 -12.875  1.00  0.00     0.135 A 
ATOM     92  C   UNL     1      13.103   2.171 -10.888  1.00  0.00     0.135 A 
ATOM     93  F   UNL     1      10.599   2.634 -13.488  1.00  0.00    -0.206 F 
ATOM     94  C   UNL     1      12.888   2.146 -13.664  1.00  0.00     0.059 A 
ATOM     95  C   UNL     1      14.239   1.938 -11.658  1.00  0.00     0.059 A 
ATOM     96  F   UNL     1      13.239   2.179  -9.553  1.00  0.00    -0.206 F 
ATOM     97  C   UNL     1      14.119   1.917 -13.046  1.00  0.00     0.060 A 
BRANCH  97  98
ATOM     98  S   UNL     1      15.567   1.617 -14.084  1.00  0.00     0.124 S 
ATOM     99  O   UNL     1      15.294   0.276 -14.590  1.00  0.00    -0.237 OA
ATOM    100  O   UNL     1      15.477   2.695 -15.064  1.00  0.00    -0.237 OA
ATOM    101  O   UNL     1      16.683   1.719 -13.149  1.00  0.00    -0.744 OA
ENDBRANCH  97  98
ENDBRANCH  65  90
ENDBRANCH  39  40
ENDBRANCH  32  34
ENDBRANCH  31  32
ENDBRANCH  30  31
ENDBRANCH  29  30
ENDBRANCH  28  29
ENDBRANCH   1  28
TORSDOF 22
