REMARK SMILES O=C(OCCOCCOCCOC(=O)[C@H](O)Cc1ccc(O)cc1)c1ccc(-c2c3nc(c(-c4c(F)cc(S(=O)(=O)[O-])cc4F)c4ccc([nH]4)c(-c4c(F)cc(S(=O)(=O)[O-])cc4F)c4nc(c(-c5c(F)cc(S(=O)(=O)[O-])cc5F)c5ccc2[nH]5)C=C4)C=C3)cc1
REMARK SMILES IDX 7 1 6 2 5 3 4 4 3 5 2 6 1 7 25 8 26 9 90 10 27 11 89 12
REMARK SMILES IDX 28 13 29 14 30 15 83 16 31 17 88 18 82 19 84 20 32 21 87 22
REMARK SMILES IDX 81 23 80 24 33 26 67 27 46 28 66 29 47 30 50 31 65 32 85 33
REMARK SMILES IDX 48 34 49 35 64 37 86 38 51 39 34 40 35 41 44 42 36 43 37 44
REMARK SMILES IDX 43 45 45 46 38 47 39 48 40 49 41 50 42 51 68 52 69 53 78 54
REMARK SMILES IDX 70 55 71 56 77 57 79 58 72 59 73 60 74 61 75 62 76 63 52 64
REMARK SMILES IDX 53 65 62 66 54 67 55 68 61 69 63 70 56 71 57 72 58 73 59 74
REMARK SMILES IDX 60 75 8 76 9 77 10 78 11 79 12 80 13 81 14 82 15 83 17 84
REMARK SMILES IDX 18 85 19 86 24 87 20 88 23 89 21 90 22 91 16 93
REMARK H PARENT 84 25 50 36 22 92 16 94
REMARK Flexibility Score: inf
ROOT
ATOM      1  C   UNL     1       3.528  -0.687  -1.980  1.00  0.00     0.188 C 
ENDROOT
BRANCH   1   2
ATOM      2  O   UNL     1       2.383  -1.242  -2.625  1.00  0.00    -0.376 OA
BRANCH   2   3
ATOM      3  C   UNL     1       1.579  -0.325  -3.369  1.00  0.00     0.202 C 
BRANCH   3   4
ATOM      4  C   UNL     1       0.966   0.871  -2.614  1.00  0.00     0.261 C 
BRANCH   4   5
ATOM      5  O   UNL     1       1.590   1.189  -1.358  1.00  0.00    -0.460 OA
BRANCH   5   6
ATOM      6  C   UNL     1       1.197   0.835  -0.108  1.00  0.00     0.338 C 
ATOM      7  O   UNL     1       1.696   1.418   0.854  1.00  0.00    -0.246 OA
BRANCH   6   8
ATOM      8  C   UNL     1       0.211  -0.253   0.160  1.00  0.00     0.060 A 
ATOM      9  C   UNL     1      -0.027  -1.318  -0.704  1.00  0.00     0.016 A 
ATOM     10  C   UNL     1      -0.441  -0.262   1.402  1.00  0.00     0.016 A 
ATOM     11  C   UNL     1      -0.944  -2.312  -0.413  1.00  0.00     0.010 A 
ATOM     12  C   UNL     1      -1.324  -1.296   1.738  1.00  0.00     0.010 A 
ATOM     13  C   UNL     1      -1.591  -2.315   0.815  1.00  0.00    -0.014 A 
BRANCH  13  14
ATOM     14  C   UNL     1      -2.607  -3.355   1.050  1.00  0.00     0.031 A 
ATOM     15  C   UNL     1      -4.046  -2.949   1.036  1.00  0.00     0.074 A 
ATOM     16  C   UNL     1      -2.238  -4.646   1.151  1.00  0.00     0.049 A 
ATOM     17  N   UNL     1      -5.100  -3.661   1.314  1.00  0.00    -0.248 NA
ATOM     18  C   UNL     1      -4.340  -1.557   0.647  1.00  0.00     0.031 C 
ATOM     19  C   UNL     1      -0.861  -5.137   1.047  1.00  0.00     0.029 A 
ATOM     20  N   UNL     1      -2.974  -5.782   1.348  1.00  0.00    -0.354 N 
ATOM     21  C   UNL     1      -6.176  -2.796   1.185  1.00  0.00     0.074 A 
ATOM     22  C   UNL     1      -5.657  -1.510   0.782  1.00  0.00     0.031 C 
ATOM     23  C   UNL     1      -0.852  -6.472   1.191  1.00  0.00     0.029 A 
ATOM     24  C   UNL     1      -2.206  -6.918   1.471  1.00  0.00     0.049 A 
ATOM     25  H   UNL     1      -3.957  -5.787   1.398  1.00  0.00     0.167 HD
ATOM     26  C   UNL     1      -7.480  -3.066   1.412  1.00  0.00     0.037 A 
ATOM     27  C   UNL     1      -2.556  -8.162   1.842  1.00  0.00     0.037 A 
ATOM     28  C   UNL     1      -7.952  -4.367   1.796  1.00  0.00     0.049 A 
ATOM     29  C   UNL     1      -3.994  -8.405   2.184  1.00  0.00     0.074 A 
ATOM     30  C   UNL     1      -9.248  -4.770   2.058  1.00  0.00     0.029 A 
ATOM     31  N   UNL     1      -7.137  -5.475   1.986  1.00  0.00    -0.354 N 
ATOM     32  N   UNL     1      -5.004  -7.573   2.110  1.00  0.00    -0.248 NA
ATOM     33  C   UNL     1      -4.335  -9.739   2.691  1.00  0.00     0.031 C 
ATOM     34  C   UNL     1      -9.207  -6.105   2.470  1.00  0.00     0.029 A 
ATOM     35  C   UNL     1      -7.895  -6.551   2.406  1.00  0.00     0.049 A 
ATOM     36  H   UNL     1      -6.163  -5.492   1.841  1.00  0.00     0.167 HD
ATOM     37  C   UNL     1      -6.104  -8.278   2.571  1.00  0.00     0.074 A 
ATOM     38  C   UNL     1      -5.639  -9.614   2.893  1.00  0.00     0.031 C 
ATOM     39  C   UNL     1      -7.383  -7.860   2.724  1.00  0.00     0.037 A 
BRANCH  26  40
ATOM     40  C   UNL     1      -8.456  -1.931   1.337  1.00  0.00     0.058 A 
ATOM     41  C   UNL     1      -8.866  -1.367   0.121  1.00  0.00     0.135 A 
ATOM     42  C   UNL     1      -9.019  -1.426   2.521  1.00  0.00     0.135 A 
ATOM     43  F   UNL     1      -8.329  -1.786  -1.036  1.00  0.00    -0.206 F 
ATOM     44  C   UNL     1      -9.807  -0.343   0.080  1.00  0.00     0.059 A 
ATOM     45  C   UNL     1      -9.977  -0.419   2.502  1.00  0.00     0.059 A 
ATOM     46  F   UNL     1      -8.639  -1.915   3.712  1.00  0.00    -0.206 F 
ATOM     47  C   UNL     1     -10.364   0.117   1.277  1.00  0.00     0.060 A 
BRANCH  47  48
ATOM     48  S   UNL     1     -11.623   1.407   1.199  1.00  0.00     0.124 S 
ATOM     49  O   UNL     1     -10.831   2.566   0.804  1.00  0.00    -0.237 OA
ATOM     50  O   UNL     1     -12.538   0.888   0.192  1.00  0.00    -0.237 OA
ATOM     51  O   UNL     1     -12.153   1.447   2.563  1.00  0.00    -0.744 OA
ENDBRANCH  47  48
ENDBRANCH  26  40
BRANCH  27  52
ATOM     52  C   UNL     1      -1.538  -9.221   2.055  1.00  0.00     0.058 A 
ATOM     53  C   UNL     1      -1.418 -10.313   1.185  1.00  0.00     0.135 A 
ATOM     54  C   UNL     1      -0.712  -9.191   3.188  1.00  0.00     0.135 A 
ATOM     55  F   UNL     1      -2.210 -10.402   0.106  1.00  0.00    -0.206 F 
ATOM     56  C   UNL     1      -0.512 -11.342   1.430  1.00  0.00     0.059 A 
ATOM     57  C   UNL     1       0.200 -10.206   3.452  1.00  0.00     0.059 A 
ATOM     58  F   UNL     1      -0.798  -8.170   4.057  1.00  0.00    -0.206 F 
ATOM     59  C   UNL     1       0.294 -11.278   2.568  1.00  0.00     0.060 A 
BRANCH  59  60
ATOM     60  S   UNL     1       1.515 -12.578   2.863  1.00  0.00     0.124 S 
ATOM     61  O   UNL     1       0.712 -13.582   3.550  1.00  0.00    -0.237 OA
ATOM     62  O   UNL     1       1.945 -12.920   1.510  1.00  0.00    -0.237 OA
ATOM     63  O   UNL     1       2.525 -11.905   3.675  1.00  0.00    -0.744 OA
ENDBRANCH  59  60
ENDBRANCH  27  52
BRANCH  39  64
ATOM     64  C   UNL     1      -8.357  -8.864   3.253  1.00  0.00     0.058 A 
ATOM     65  C   UNL     1      -8.368  -9.224   4.608  1.00  0.00     0.135 A 
ATOM     66  C   UNL     1      -9.332  -9.412   2.407  1.00  0.00     0.135 A 
ATOM     67  F   UNL     1      -7.439  -8.737   5.446  1.00  0.00    -0.206 F 
ATOM     68  C   UNL     1      -9.319 -10.101   5.109  1.00  0.00     0.059 A 
ATOM     69  C   UNL     1     -10.311 -10.266   2.893  1.00  0.00     0.059 A 
ATOM     70  F   UNL     1      -9.355  -9.091   1.103  1.00  0.00    -0.206 F 
ATOM     71  C   UNL     1     -10.294 -10.606   4.245  1.00  0.00     0.060 A 
BRANCH  71  72
ATOM     72  S   UNL     1     -11.569 -11.681   4.926  1.00  0.00     0.124 S 
ATOM     73  O   UNL     1     -10.816 -12.904   5.183  1.00  0.00    -0.237 OA
ATOM     74  O   UNL     1     -12.000 -10.940   6.108  1.00  0.00    -0.237 OA
ATOM     75  O   UNL     1     -12.554 -11.763   3.851  1.00  0.00    -0.744 OA
ENDBRANCH  71  72
ENDBRANCH  39  64
ENDBRANCH  13  14
ENDBRANCH   6   8
ENDBRANCH   5   6
ENDBRANCH   4   5
ENDBRANCH   3   4
ENDBRANCH   2   3
ENDBRANCH   1   2
BRANCH   1  76
ATOM     76  C   UNL     1       4.708  -1.659  -1.924  1.00  0.00     0.188 C 
BRANCH  76  77
ATOM     77  O   UNL     1       5.276  -2.058  -3.169  1.00  0.00    -0.376 OA
BRANCH  77  78
ATOM     78  C   UNL     1       4.383  -2.554  -4.160  1.00  0.00     0.202 C 
BRANCH  78  79
ATOM     79  C   UNL     1       3.675  -3.898  -3.910  1.00  0.00     0.261 C 
BRANCH  79  80
ATOM     80  O   UNL     1       3.026  -4.040  -2.635  1.00  0.00    -0.461 OA
BRANCH  80  81
ATOM     81  C   UNL     1       3.678  -4.838  -1.740  1.00  0.00     0.335 C 
ATOM     82  O   UNL     1       4.754  -5.385  -1.959  1.00  0.00    -0.249 OA
BRANCH  81  83
ATOM     83  C   UNL     1       2.950  -4.897  -0.383  1.00  0.00     0.228 C 
BRANCH  83  84
ATOM     84  C   UNL     1       3.267  -6.271   0.238  1.00  0.00     0.079 C 
BRANCH  84  85
ATOM     85  C   UNL     1       2.901  -6.592   1.669  1.00  0.00    -0.045 A 
ATOM     86  C   UNL     1       2.281  -5.711   2.562  1.00  0.00     0.007 A 
ATOM     87  C   UNL     1       3.253  -7.875   2.132  1.00  0.00     0.007 A 
ATOM     88  C   UNL     1       1.997  -6.110   3.872  1.00  0.00     0.046 A 
ATOM     89  C   UNL     1       3.009  -8.259   3.447  1.00  0.00     0.046 A 
ATOM     90  C   UNL     1       2.365  -7.380   4.301  1.00  0.00     0.115 A 
BRANCH  90  91
ATOM     91  O   UNL     1       2.070  -7.798   5.564  1.00  0.00    -0.508 OA
ATOM     92  H   UNL     1       1.635  -7.219   6.159  1.00  0.00     0.293 HD
ENDBRANCH  90  91
ENDBRANCH  84  85
ENDBRANCH  83  84
BRANCH  83  93
ATOM     93  O   UNL     1       3.385  -3.821   0.450  1.00  0.00    -0.381 OA
ATOM     94  H   UNL     1       4.344  -3.881   0.581  1.00  0.00     0.211 HD
ENDBRANCH  83  93
ENDBRANCH  81  83
ENDBRANCH  80  81
ENDBRANCH  79  80
ENDBRANCH  78  79
ENDBRANCH  77  78
ENDBRANCH  76  77
ENDBRANCH   1  76
TORSDOF 24
