REMARK SMILES Cc1cc2c(c(C)c1Cl)C=C(C(=O)OCCOCCOCCOC(=O)c1ccc(-c3c4nc(c(-c5c(F)cc(S(=O)(=O)[O-])cc5F)c5ccc([nH]5)c(-c5c(F)cc(S(=O)(=O)[O-])cc5F)c5nc(c(-c6c(F)cc(S(=O)(=O)[O-])cc6F)c6ccc3[nH]6)C=C5)C=C4)cc1)[C@H](C(F)(F)F)O2
REMARK SMILES IDX 19 1 18 2 17 3 16 4 15 5 14 6 12 7 13 8 11 9 1 10 2 11 3 12
REMARK SMILES IDX 8 13 4 14 6 15 9 16 5 17 97 18 7 19 10 20 92 21 93 22 94 23
REMARK SMILES IDX 95 24 96 25 20 26 21 27 22 28 23 29 24 30 25 31 26 32 27 33
REMARK SMILES IDX 91 34 28 35 90 36 29 37 30 38 31 39 84 40 32 41 89 42 83 43
REMARK SMILES IDX 85 44 33 45 88 46 82 47 81 48 34 50 68 51 47 52 67 53 48 54
REMARK SMILES IDX 51 55 66 56 86 57 49 58 50 59 65 61 87 62 52 63 35 64 36 65
REMARK SMILES IDX 45 66 37 67 38 68 44 69 46 70 39 71 40 72 41 73 42 74 43 75
REMARK SMILES IDX 69 76 70 77 79 78 71 79 72 80 78 81 80 82 73 83 74 84 75 85
REMARK SMILES IDX 76 86 77 87 53 88 54 89 63 90 55 91 56 92 62 93 64 94 57 95
REMARK SMILES IDX 58 96 59 97 60 98 61 99
REMARK H PARENT 85 49 51 60
REMARK Flexibility Score: inf
ROOT
ATOM      1  C   UNL     1       1.159  -7.585   4.266  1.00  0.00     0.188 C 
ENDROOT
BRANCH   1   2
ATOM      2  C   UNL     1      -0.288  -7.746   4.769  1.00  0.00     0.188 C 
BRANCH   2   3
ATOM      3  O   UNL     1      -0.850  -9.049   4.873  1.00  0.00    -0.376 OA
BRANCH   3   4
ATOM      4  C   UNL     1      -0.629  -9.998   3.836  1.00  0.00     0.202 C 
BRANCH   4   5
ATOM      5  C   UNL     1      -0.945  -9.602   2.384  1.00  0.00     0.261 C 
BRANCH   5   6
ATOM      6  O   UNL     1      -0.276  -8.411   1.923  1.00  0.00    -0.460 OA
BRANCH   6   7
ATOM      7  C   UNL     1      -1.079  -7.421   1.473  1.00  0.00     0.338 C 
ATOM      8  O   UNL     1      -2.287  -7.491   1.313  1.00  0.00    -0.246 OA
BRANCH   7   9
ATOM      9  C   UNL     1      -0.329  -6.161   1.297  1.00  0.00     0.087 C 
ATOM     10  C   UNL     1       1.101   0.049   0.109  1.00  0.00     0.046 C 
ATOM     11  C   UNL     1       0.614  -1.245   0.708  1.00  0.00    -0.028 A 
ATOM     12  C   UNL     1       1.038  -2.430   0.090  1.00  0.00     0.052 A 
ATOM     13  C   UNL     1      -0.283  -1.327   1.792  1.00  0.00     0.047 A 
ATOM     14  C   UNL     1       0.575  -3.669   0.523  1.00  0.00     0.128 A 
ATOM     15  C   UNL     1      -0.747  -2.582   2.262  1.00  0.00    -0.021 A 
ATOM     16  Cl  UNL     1      -0.850   0.144   2.524  1.00  0.00    -0.084 Cl
ATOM     17  C   UNL     1      -0.315  -3.761   1.600  1.00  0.00     0.022 A 
ATOM     18  O   UNL     1       0.977  -4.739  -0.234  1.00  0.00    -0.475 OA
ATOM     19  C   UNL     1      -1.709  -2.687   3.427  1.00  0.00     0.047 C 
ATOM     20  C   UNL     1      -0.855  -5.087   1.907  1.00  0.00     0.027 C 
ATOM     21  C   UNL     1       0.816  -6.071   0.330  1.00  0.00     0.316 C 
BRANCH  21  22
ATOM     22  C   UNL     1       2.187  -6.545   0.846  1.00  0.00     0.430 C 
ATOM     23  F   UNL     1       3.158  -6.299  -0.073  1.00  0.00    -0.167 F 
ATOM     24  F   UNL     1       2.561  -5.920   1.986  1.00  0.00    -0.167 F 
ATOM     25  F   UNL     1       2.214  -7.877   1.068  1.00  0.00    -0.167 F 
ENDBRANCH  21  22
ENDBRANCH   7   9
ENDBRANCH   6   7
ENDBRANCH   5   6
ENDBRANCH   4   5
ENDBRANCH   3   4
ENDBRANCH   2   3
ENDBRANCH   1   2
BRANCH   1  26
ATOM     26  O   UNL     1       1.810  -8.807   3.996  1.00  0.00    -0.376 OA
BRANCH  26  27
ATOM     27  C   UNL     1       2.926  -9.142   4.802  1.00  0.00     0.202 C 
BRANCH  27  28
ATOM     28  C   UNL     1       2.725  -9.233   6.324  1.00  0.00     0.261 C 
BRANCH  28  29
ATOM     29  O   UNL     1       1.986  -8.168   6.943  1.00  0.00    -0.460 OA
BRANCH  29  30
ATOM     30  C   UNL     1       2.617  -6.984   7.122  1.00  0.00     0.338 C 
ATOM     31  O   UNL     1       3.759  -6.706   6.798  1.00  0.00    -0.246 OA
BRANCH  30  32
ATOM     32  C   UNL     1       1.599  -6.019   7.596  1.00  0.00     0.060 A 
ATOM     33  C   UNL     1       1.233  -4.943   6.775  1.00  0.00     0.016 A 
ATOM     34  C   UNL     1       0.973  -6.209   8.829  1.00  0.00     0.016 A 
ATOM     35  C   UNL     1       0.231  -4.060   7.187  1.00  0.00     0.010 A 
ATOM     36  C   UNL     1      -0.014  -5.311   9.249  1.00  0.00     0.010 A 
ATOM     37  C   UNL     1      -0.383  -4.225   8.437  1.00  0.00    -0.014 A 
BRANCH  37  38
ATOM     38  C   UNL     1      -1.306  -3.184   8.956  1.00  0.00     0.031 A 
ATOM     39  C   UNL     1      -0.764  -2.151   9.906  1.00  0.00     0.074 A 
ATOM     40  C   UNL     1      -2.597  -3.142   8.575  1.00  0.00     0.049 A 
ATOM     41  N   UNL     1      -1.385  -1.169  10.504  1.00  0.00    -0.248 NA
ATOM     42  C   UNL     1       0.672  -2.236  10.220  1.00  0.00     0.031 C 
ATOM     43  C   UNL     1      -3.230  -4.061   7.630  1.00  0.00     0.029 A 
ATOM     44  N   UNL     1      -3.609  -2.287   8.939  1.00  0.00    -0.354 N 
ATOM     45  C   UNL     1      -0.417  -0.511  11.253  1.00  0.00     0.074 A 
ATOM     46  C   UNL     1       0.824  -1.232  11.071  1.00  0.00     0.031 C 
ATOM     47  C   UNL     1      -4.523  -3.718   7.487  1.00  0.00     0.029 A 
ATOM     48  C   UNL     1      -4.819  -2.577   8.354  1.00  0.00     0.049 A 
ATOM     49  H   UNL     1      -3.480  -1.536   9.562  1.00  0.00     0.167 HD
ATOM     50  C   UNL     1      -0.546   0.604  12.009  1.00  0.00     0.037 A 
ATOM     51  C   UNL     1      -6.028  -1.997   8.510  1.00  0.00     0.037 A 
ATOM     52  C   UNL     1      -1.784   1.312  12.198  1.00  0.00     0.049 A 
ATOM     53  C   UNL     1      -6.168  -0.816   9.441  1.00  0.00     0.074 A 
ATOM     54  C   UNL     1      -2.016   2.446  12.956  1.00  0.00     0.029 A 
ATOM     55  N   UNL     1      -2.997   0.956  11.628  1.00  0.00    -0.354 N 
ATOM     56  N   UNL     1      -5.242  -0.200  10.137  1.00  0.00    -0.248 NA
ATOM     57  C   UNL     1      -7.516  -0.252   9.610  1.00  0.00     0.031 C 
ATOM     58  C   UNL     1      -3.378   2.746  12.886  1.00  0.00     0.029 A 
ATOM     59  C   UNL     1      -3.985   1.836  12.035  1.00  0.00     0.049 A 
ATOM     60  H   UNL     1      -3.135   0.191  11.024  1.00  0.00     0.167 HD
ATOM     61  C   UNL     1      -5.887   0.845  10.793  1.00  0.00     0.074 A 
ATOM     62  C   UNL     1      -7.282   0.779  10.412  1.00  0.00     0.031 C 
ATOM     63  C   UNL     1      -5.368   1.776  11.631  1.00  0.00     0.037 A 
BRANCH  50  64
ATOM     64  C   UNL     1       0.683   1.132  12.696  1.00  0.00     0.058 A 
ATOM     65  C   UNL     1       1.714   1.754  11.975  1.00  0.00     0.135 A 
ATOM     66  C   UNL     1       0.801   1.077  14.094  1.00  0.00     0.135 A 
ATOM     67  F   UNL     1       1.661   1.814  10.634  1.00  0.00    -0.206 F 
ATOM     68  C   UNL     1       2.824   2.294  12.614  1.00  0.00     0.059 A 
ATOM     69  C   UNL     1       1.890   1.636  14.757  1.00  0.00     0.059 A 
ATOM     70  F   UNL     1      -0.154   0.489  14.831  1.00  0.00    -0.206 F 
ATOM     71  C   UNL     1       2.900   2.236  14.007  1.00  0.00     0.060 A 
BRANCH  71  72
ATOM     72  S   UNL     1       4.336   2.969  14.818  1.00  0.00     0.124 S 
ATOM     73  O   UNL     1       5.403   2.069  14.390  1.00  0.00    -0.237 OA
ATOM     74  O   UNL     1       4.368   4.308  14.240  1.00  0.00    -0.237 OA
ATOM     75  O   UNL     1       3.997   2.907  16.236  1.00  0.00    -0.744 OA
ENDBRANCH  71  72
ENDBRANCH  50  64
BRANCH  51  76
ATOM     76  C   UNL     1      -7.208  -2.511   7.760  1.00  0.00     0.058 A 
ATOM     77  C   UNL     1      -7.814  -1.744   6.754  1.00  0.00     0.135 A 
ATOM     78  C   UNL     1      -7.758  -3.773   8.035  1.00  0.00     0.135 A 
ATOM     79  F   UNL     1      -7.337  -0.524   6.462  1.00  0.00    -0.206 F 
ATOM     80  C   UNL     1      -8.928  -2.201   6.056  1.00  0.00     0.059 A 
ATOM     81  C   UNL     1      -8.855  -4.265   7.333  1.00  0.00     0.059 A 
ATOM     82  F   UNL     1      -7.216  -4.551   8.985  1.00  0.00    -0.206 F 
ATOM     83  C   UNL     1      -9.439  -3.467   6.350  1.00  0.00     0.060 A 
BRANCH  83  84
ATOM     84  S   UNL     1     -10.858  -4.065   5.406  1.00  0.00     0.124 S 
ATOM     85  O   UNL     1     -11.919  -3.183   5.879  1.00  0.00    -0.237 OA
ATOM     86  O   UNL     1     -10.418  -3.854   4.031  1.00  0.00    -0.237 OA
ATOM     87  O   UNL     1     -10.970  -5.462   5.815  1.00  0.00    -0.744 OA
ENDBRANCH  83  84
ENDBRANCH  51  76
BRANCH  63  88
ATOM     88  C   UNL     1      -6.285   2.840  12.173  1.00  0.00     0.058 A 
ATOM     89  C   UNL     1      -7.229   2.562  13.173  1.00  0.00     0.135 A 
ATOM     90  C   UNL     1      -6.133   4.178  11.770  1.00  0.00     0.135 A 
ATOM     91  F   UNL     1      -7.419   1.301  13.592  1.00  0.00    -0.206 F 
ATOM     92  C   UNL     1      -7.989   3.573  13.755  1.00  0.00     0.059 A 
ATOM     93  C   UNL     1      -6.861   5.207  12.357  1.00  0.00     0.059 A 
ATOM     94  F   UNL     1      -5.236   4.500  10.824  1.00  0.00    -0.206 F 
ATOM     95  C   UNL     1      -7.788   4.894  13.350  1.00  0.00     0.060 A 
BRANCH  95  96
ATOM     96  S   UNL     1      -8.728   6.200  14.170  1.00  0.00     0.124 S 
ATOM     97  O   UNL     1     -10.081   5.939  13.688  1.00  0.00    -0.237 OA
ATOM     98  O   UNL     1      -8.491   5.912  15.581  1.00  0.00    -0.237 OA
ATOM     99  O   UNL     1      -8.113   7.428  13.674  1.00  0.00    -0.744 OA
ENDBRANCH  95  96
ENDBRANCH  63  88
ENDBRANCH  37  38
ENDBRANCH  30  32
ENDBRANCH  29  30
ENDBRANCH  28  29
ENDBRANCH  27  28
ENDBRANCH  26  27
ENDBRANCH   1  26
TORSDOF 21
