REMARK SMILES Cc1ccccc1OC1(C(=O)OCCOCCOCCOC(=O)c2ccc(-c3c4nc(c(-c5c(F)cc(S(=O)(=O)[O-])cc5F)c5ccc([nH]5)c(-c5c(F)cc(S(=O)(=O)[O-])cc5F)c5nc(c(-c6c(F)cc(S(=O)(=O)[O-])cc6F)c6ccc3[nH]6)C=C5)C=C4)cc2)CCN(C(=O)[C@H]2CCCCO2)CC1
REMARK SMILES IDX 17 1 16 2 15 3 14 4 13 5 12 6 10 7 11 8 9 9 90 10 102 11
REMARK SMILES IDX 91 12 101 13 92 14 93 15 94 16 8 17 7 18 1 19 2 20 3 21 4 22
REMARK SMILES IDX 6 23 5 24 95 25 96 26 100 27 97 28 99 29 98 30 18 31 19 32
REMARK SMILES IDX 20 33 21 34 22 35 23 36 24 37 25 38 89 39 26 40 88 41 27 42
REMARK SMILES IDX 28 43 29 44 82 45 30 46 87 47 81 48 83 49 31 50 86 51 80 52
REMARK SMILES IDX 79 53 32 55 66 56 45 57 65 58 46 59 49 60 64 61 84 62 47 63
REMARK SMILES IDX 48 64 63 66 85 67 50 68 33 69 34 70 43 71 35 72 36 73 42 74
REMARK SMILES IDX 44 75 37 76 38 77 39 78 40 79 41 80 67 81 68 82 77 83 69 84
REMARK SMILES IDX 70 85 76 86 78 87 71 88 72 89 73 90 74 91 75 92 51 93 52 94
REMARK SMILES IDX 61 95 53 96 54 97 60 98 62 99 55 100 56 101 57 102 58 103
REMARK SMILES IDX 59 104
REMARK H PARENT 83 54 49 65
REMARK Flexibility Score: inf
ROOT
ATOM      1  C   UNL     1      10.749  -8.731  -4.745  1.00  0.00     0.188 C 
ENDROOT
BRANCH   1   2
ATOM      2  C   UNL     1       9.513  -8.162  -5.459  1.00  0.00     0.188 C 
BRANCH   2   3
ATOM      3  O   UNL     1       9.314  -6.756  -5.727  1.00  0.00    -0.376 OA
BRANCH   3   4
ATOM      4  C   UNL     1       9.782  -5.659  -4.920  1.00  0.00     0.202 C 
BRANCH   4   5
ATOM      5  C   UNL     1       8.920  -4.606  -3.822  1.00  0.00     0.261 C 
BRANCH   5   6
ATOM      6  O   UNL     1       7.861  -4.891  -2.408  1.00  0.00    -0.460 OA
BRANCH   6   7
ATOM      7  C   UNL     1       6.464  -5.288  -2.029  1.00  0.00     0.350 C 
ATOM      8  O   UNL     1       5.547  -5.624  -2.792  1.00  0.00    -0.247 OA
BRANCH   7   9
ATOM      9  C   UNL     1       5.937  -5.158  -0.590  1.00  0.00     0.209 C 
ATOM     10  C   UNL     1       7.128  -4.914   0.293  1.00  0.00     0.082 C 
ATOM     11  C   UNL     1       4.833  -4.077  -0.708  1.00  0.00     0.082 C 
ATOM     12  C   UNL     1       6.900  -3.910   1.379  1.00  0.00     0.124 C 
ATOM     13  C   UNL     1       5.247  -2.741  -0.147  1.00  0.00     0.124 C 
ATOM     14  N   UNL     1       5.976  -2.819   1.114  1.00  0.00    -0.340 N 
ATOM     15  C   UNL     1       5.907  -1.861   2.123  1.00  0.00     0.251 C 
ATOM     16  O   UNL     1       6.706  -1.887   3.066  1.00  0.00    -0.272 OA
BRANCH   9  17
ATOM     17  O   UNL     1       5.380  -6.487  -0.294  1.00  0.00    -0.475 OA
BRANCH  17  18
ATOM     18  C   UNL     1       4.179  -6.870   0.252  1.00  0.00     0.123 A 
ATOM     19  C   UNL     1       3.960  -5.292   2.294  1.00  0.00     0.048 C 
ATOM     20  C   UNL     1       3.548  -6.437   1.432  1.00  0.00    -0.009 A 
ATOM     21  C   UNL     1       2.449  -7.172   1.955  1.00  0.00     0.007 A 
ATOM     22  C   UNL     1       1.944  -8.299   1.321  1.00  0.00     0.001 A 
ATOM     23  C   UNL     1       3.618  -7.994  -0.392  1.00  0.00     0.047 A 
ATOM     24  C   UNL     1       2.519  -8.699   0.128  1.00  0.00     0.004 A 
ENDBRANCH  17  18
ENDBRANCH   9  17
BRANCH  15  25
ATOM     25  C   UNL     1       4.743  -0.858   2.097  1.00  0.00     0.207 C 
ATOM     26  C   UNL     1       3.526  -1.577   2.702  1.00  0.00     0.042 C 
ATOM     27  O   UNL     1       5.116   0.282   2.876  1.00  0.00    -0.368 OA
ATOM     28  C   UNL     1       2.390  -0.624   3.041  1.00  0.00     0.006 C 
ATOM     29  C   UNL     1       4.060   1.222   3.010  1.00  0.00     0.161 C 
ATOM     30  C   UNL     1       2.918   0.592   3.789  1.00  0.00     0.029 C 
ENDBRANCH  15  25
ENDBRANCH   7   9
ENDBRANCH   6   7
ENDBRANCH   5   6
ENDBRANCH   4   5
ENDBRANCH   3   4
ENDBRANCH   2   3
ENDBRANCH   1   2
BRANCH   1  31
ATOM     31  O   UNL     1      11.167  -7.896  -3.682  1.00  0.00    -0.376 OA
BRANCH  31  32
ATOM     32  C   UNL     1      12.213  -8.384  -2.859  1.00  0.00     0.202 C 
BRANCH  32  33
ATOM     33  C   UNL     1      11.850  -9.583  -1.952  1.00  0.00     0.261 C 
BRANCH  33  34
ATOM     34  O   UNL     1      10.998  -9.259  -0.820  1.00  0.00    -0.460 OA
BRANCH  34  35
ATOM     35  C   UNL     1       9.715  -9.806  -0.752  1.00  0.00     0.338 C 
ATOM     36  O   UNL     1       9.445 -10.713  -0.019  1.00  0.00    -0.246 OA
BRANCH  35  37
ATOM     37  C   UNL     1       8.732  -8.940  -1.496  1.00  0.00     0.060 A 
ATOM     38  C   UNL     1       7.482  -9.221  -2.063  1.00  0.00     0.016 A 
ATOM     39  C   UNL     1       9.173  -7.692  -1.708  1.00  0.00     0.016 A 
ATOM     40  C   UNL     1       6.821  -8.324  -3.029  1.00  0.00     0.010 A 
ATOM     41  C   UNL     1       8.642  -7.011  -2.787  1.00  0.00     0.010 A 
ATOM     42  C   UNL     1       7.424  -7.159  -3.517  1.00  0.00    -0.014 A 
BRANCH  42  43
ATOM     43  C   UNL     1       6.808  -6.055  -4.724  1.00  0.00     0.031 A 
ATOM     44  C   UNL     1       6.305  -4.334  -4.657  1.00  0.00     0.074 A 
ATOM     45  C   UNL     1       6.457  -6.620  -5.897  1.00  0.00     0.049 A 
ATOM     46  N   UNL     1       5.437  -3.743  -5.463  1.00  0.00    -0.248 NA
ATOM     47  C   UNL     1       6.646  -3.243  -3.629  1.00  0.00     0.031 C 
ATOM     48  C   UNL     1       6.081  -5.949  -7.136  1.00  0.00     0.029 A 
ATOM     49  N   UNL     1       6.219  -7.975  -6.151  1.00  0.00    -0.354 N 
ATOM     50  C   UNL     1       5.306  -2.383  -5.095  1.00  0.00     0.074 A 
ATOM     51  C   UNL     1       5.809  -2.250  -3.807  1.00  0.00     0.031 C 
ATOM     52  C   UNL     1       5.393  -6.814  -7.896  1.00  0.00     0.029 A 
ATOM     53  C   UNL     1       5.187  -8.010  -7.099  1.00  0.00     0.049 A 
ATOM     54  H   UNL     1       6.681  -8.745  -5.747  1.00  0.00     0.167 HD
ATOM     55  C   UNL     1       4.923  -1.360  -5.905  1.00  0.00     0.037 A 
ATOM     56  C   UNL     1       3.986  -8.579  -6.805  1.00  0.00     0.037 A 
ATOM     57  C   UNL     1       4.161  -1.946  -6.970  1.00  0.00     0.049 A 
ATOM     58  C   UNL     1       2.828  -7.622  -6.987  1.00  0.00     0.074 A 
ATOM     59  C   UNL     1       4.498  -2.394  -8.229  1.00  0.00     0.029 A 
ATOM     60  N   UNL     1       2.976  -2.575  -6.613  1.00  0.00    -0.354 N 
ATOM     61  N   UNL     1       2.945  -6.322  -7.084  1.00  0.00    -0.248 NA
ATOM     62  C   UNL     1       1.442  -8.062  -7.116  1.00  0.00     0.031 C 
ATOM     63  C   UNL     1       3.595  -3.450  -8.543  1.00  0.00     0.029 A 
ATOM     64  C   UNL     1       2.669  -3.569  -7.517  1.00  0.00     0.049 A 
ATOM     65  H   UNL     1       2.432  -2.343  -5.825  1.00  0.00     0.167 HD
ATOM     66  C   UNL     1       1.706  -5.755  -7.230  1.00  0.00     0.074 A 
ATOM     67  C   UNL     1       0.804  -6.891  -7.283  1.00  0.00     0.031 C 
ATOM     68  C   UNL     1       1.500  -4.404  -7.281  1.00  0.00     0.037 A 
BRANCH  55  69
ATOM     69  C   UNL     1       5.376   0.126  -5.776  1.00  0.00     0.058 A 
ATOM     70  C   UNL     1       5.088   1.029  -6.825  1.00  0.00     0.135 A 
ATOM     71  C   UNL     1       6.204   0.713  -4.769  1.00  0.00     0.135 A 
ATOM     72  F   UNL     1       4.336   0.645  -7.866  1.00  0.00    -0.206 F 
ATOM     73  C   UNL     1       5.595   2.346  -6.888  1.00  0.00     0.059 A 
ATOM     74  C   UNL     1       6.682   2.031  -4.791  1.00  0.00     0.059 A 
ATOM     75  F   UNL     1       6.678   0.051  -3.711  1.00  0.00    -0.206 F 
ATOM     76  C   UNL     1       6.401   2.838  -5.870  1.00  0.00     0.060 A 
BRANCH  76  77
ATOM     77  S   UNL     1       7.134   4.486  -5.979  1.00  0.00     0.124 S 
ATOM     78  O   UNL     1       7.970   4.369  -7.170  1.00  0.00    -0.237 OA
ATOM     79  O   UNL     1       5.959   5.341  -6.103  1.00  0.00    -0.237 OA
ATOM     80  O   UNL     1       7.869   4.620  -4.723  1.00  0.00    -0.744 OA
ENDBRANCH  76  77
ENDBRANCH  55  69
BRANCH  56  81
ATOM     81  C   UNL     1       4.089  -9.760  -5.889  1.00  0.00     0.058 A 
ATOM     82  C   UNL     1       4.923 -10.825  -6.305  1.00  0.00     0.135 A 
ATOM     83  C   UNL     1       3.724  -9.746  -4.536  1.00  0.00     0.135 A 
ATOM     84  F   UNL     1       5.295 -10.920  -7.593  1.00  0.00    -0.206 F 
ATOM     85  C   UNL     1       5.491 -11.728  -5.412  1.00  0.00     0.059 A 
ATOM     86  C   UNL     1       4.264 -10.669  -3.618  1.00  0.00     0.059 A 
ATOM     87  F   UNL     1       2.943  -8.768  -4.057  1.00  0.00    -0.206 F 
ATOM     88  C   UNL     1       5.194 -11.614  -4.060  1.00  0.00     0.060 A 
BRANCH  88  89
ATOM     89  S   UNL     1       6.179 -12.614  -2.911  1.00  0.00     0.124 S 
ATOM     90  O   UNL     1       5.843 -13.973  -3.320  1.00  0.00    -0.237 OA
ATOM     91  O   UNL     1       7.538 -12.182  -3.233  1.00  0.00    -0.237 OA
ATOM     92  O   UNL     1       5.680 -12.208  -1.602  1.00  0.00    -0.744 OA
ENDBRANCH  88  89
ENDBRANCH  56  81
BRANCH  68  93
ATOM     93  C   UNL     1       0.152  -3.728  -7.138  1.00  0.00     0.058 A 
ATOM     94  C   UNL     1      -0.919  -4.264  -6.402  1.00  0.00     0.135 A 
ATOM     95  C   UNL     1      -0.045  -2.412  -7.626  1.00  0.00     0.135 A 
ATOM     96  F   UNL     1      -0.813  -5.440  -5.767  1.00  0.00    -0.206 F 
ATOM     97  C   UNL     1      -2.132  -3.592  -6.249  1.00  0.00     0.059 A 
ATOM     98  C   UNL     1      -1.218  -1.694  -7.419  1.00  0.00     0.059 A 
ATOM     99  F   UNL     1       0.912  -1.767  -8.311  1.00  0.00    -0.206 F 
ATOM    100  C   UNL     1      -2.275  -2.310  -6.767  1.00  0.00     0.060 A 
BRANCH 100 101
ATOM    101  S   UNL     1      -3.828  -1.421  -6.577  1.00  0.00     0.124 S 
ATOM    102  O   UNL     1      -4.467  -1.682  -7.863  1.00  0.00    -0.237 OA
ATOM    103  O   UNL     1      -4.444  -2.074  -5.425  1.00  0.00    -0.237 OA
ATOM    104  O   UNL     1      -3.392  -0.048  -6.350  1.00  0.00    -0.744 OA
ENDBRANCH 100 101
ENDBRANCH  68  93
ENDBRANCH  42  43
ENDBRANCH  35  37
ENDBRANCH  34  35
ENDBRANCH  33  34
ENDBRANCH  32  33
ENDBRANCH  31  32
ENDBRANCH   1  31
TORSDOF 23
