REMARK SMILES C[C@H](NC(=O)c1cccc(NC(=O)c2ccccc2C(=O)OCCOCCOCCOC(=O)c2ccc(-c3c4nc(c(-c5c(F)cc(S(=O)(=O)[O-])cc5F)c5ccc([nH]5)c(-c5c(F)cc(S(=O)(=O)[O-])cc5F)c5nc(c(-c6c(F)cc(S(=O)(=O)[O-])cc6F)c6ccc3[nH]6)C=C5)C=C4)cc2)c1)c1ccccc1
REMARK SMILES IDX 26 1 25 2 24 3 23 4 22 5 20 6 21 7 19 8 14 9 15 10 16 11
REMARK SMILES IDX 18 12 17 13 12 14 11 15 13 17 10 18 6 19 7 20 100 21 8 22
REMARK SMILES IDX 9 23 4 24 3 25 5 27 2 28 1 29 101 30 102 31 106 32 103 33
REMARK SMILES IDX 105 34 104 35 27 36 28 37 29 38 30 39 31 40 32 41 33 42
REMARK SMILES IDX 34 43 35 44 99 45 36 46 98 47 37 48 38 49 39 50 92 51 40 52
REMARK SMILES IDX 97 53 91 54 93 55 41 56 96 57 90 58 89 59 42 61 76 62 55 63
REMARK SMILES IDX 75 64 56 65 59 66 74 67 94 68 57 69 58 70 73 72 95 73 60 74
REMARK SMILES IDX 43 75 44 76 53 77 45 78 46 79 52 80 54 81 47 82 48 83 49 84
REMARK SMILES IDX 50 85 51 86 77 87 78 88 87 89 79 90 80 91 86 92 88 93 81 94
REMARK SMILES IDX 82 95 83 96 84 97 85 98 61 99 62 100 71 101 63 102 64 103
REMARK SMILES IDX 70 104 72 105 65 106 66 107 67 108 68 109 69 110
REMARK H PARENT 11 16 3 26 93 60 59 71
REMARK Flexibility Score: inf
ROOT
ATOM      1  C   UNL     1       2.712   7.108  -0.620  1.00  0.00     0.188 C 
ENDROOT
BRANCH   1   2
ATOM      2  O   UNL     1       1.443   6.492  -0.743  1.00  0.00    -0.376 OA
BRANCH   2   3
ATOM      3  C   UNL     1       1.237   5.287  -0.037  1.00  0.00     0.202 C 
BRANCH   3   4
ATOM      4  C   UNL     1       2.362   4.247   0.034  1.00  0.00     0.261 C 
BRANCH   4   5
ATOM      5  O   UNL     1       3.700   4.655   0.299  1.00  0.00    -0.460 OA
BRANCH   5   6
ATOM      6  C   UNL     1       4.548   4.515  -0.741  1.00  0.00     0.339 C 
ATOM      7  O   UNL     1       4.258   4.217  -1.893  1.00  0.00    -0.246 OA
BRANCH   6   8
ATOM      8  C   UNL     1       5.902   4.925  -0.353  1.00  0.00     0.072 A 
ATOM      9  C   UNL     1       6.534   4.564   0.845  1.00  0.00     0.054 A 
ATOM     10  C   UNL     1       7.811   5.107   1.097  1.00  0.00     0.015 A 
ATOM     11  C   UNL     1       8.451   5.936   0.166  1.00  0.00     0.001 A 
ATOM     12  C   UNL     1       6.557   5.745  -1.294  1.00  0.00     0.016 A 
ATOM     13  C   UNL     1       7.827   6.249  -1.035  1.00  0.00     0.001 A 
BRANCH   9  14
ATOM     14  C   UNL     1       5.952   3.740   1.944  1.00  0.00     0.256 C 
ATOM     15  N   UNL     1       5.223   2.574   1.799  1.00  0.00    -0.322 N 
ATOM     16  H   UNL     1       4.823   2.262   2.643  1.00  0.00     0.170 HD
ATOM     17  O   UNL     1       6.127   4.149   3.097  1.00  0.00    -0.269 OA
BRANCH  15  18
ATOM     18  C   UNL     1       4.928   1.737   0.708  1.00  0.00     0.042 A 
ATOM     19  C   UNL     1       3.338   0.192  -0.318  1.00  0.00     0.041 A 
ATOM     20  C   UNL     1       4.013   0.360  -1.538  1.00  0.00     0.014 A 
ATOM     21  C   UNL     1       3.806   0.881   0.812  1.00  0.00     0.040 A 
ATOM     22  C   UNL     1       5.180   1.120  -1.610  1.00  0.00     0.003 A 
ATOM     23  C   UNL     1       5.665   1.760  -0.473  1.00  0.00     0.026 A 
BRANCH  19  24
ATOM     24  C   UNL     1       2.199  -0.774  -0.315  1.00  0.00     0.251 C 
ATOM     25  N   UNL     1       0.936  -0.530   0.185  1.00  0.00    -0.346 N 
ATOM     26  H   UNL     1       0.345  -1.317   0.159  1.00  0.00     0.164 HD
ATOM     27  O   UNL     1       2.385  -1.863  -0.861  1.00  0.00    -0.269 OA
BRANCH  25  28
ATOM     28  C   UNL     1       0.296   0.664   0.747  1.00  0.00     0.109 C 
ATOM     29  C   UNL     1       0.552   1.810  -0.211  1.00  0.00     0.036 C 
BRANCH  28  30
ATOM     30  C   UNL     1      -1.224   0.574   0.982  1.00  0.00    -0.026 A 
ATOM     31  C   UNL     1      -1.964   1.756   1.241  1.00  0.00     0.006 A 
ATOM     32  C   UNL     1      -1.951  -0.624   0.946  1.00  0.00     0.006 A 
ATOM     33  C   UNL     1      -3.357   1.759   1.338  1.00  0.00     0.000 A 
ATOM     34  C   UNL     1      -3.350  -0.624   1.065  1.00  0.00     0.000 A 
ATOM     35  C   UNL     1      -4.054   0.566   1.238  1.00  0.00     0.000 A 
ENDBRANCH  28  30
ENDBRANCH  25  28
ENDBRANCH  19  24
ENDBRANCH  15  18
ENDBRANCH   9  14
ENDBRANCH   6   8
ENDBRANCH   5   6
ENDBRANCH   4   5
ENDBRANCH   3   4
ENDBRANCH   2   3
ENDBRANCH   1   2
BRANCH   1  36
ATOM     36  C   UNL     1       3.281   7.345   0.801  1.00  0.00     0.188 C 
BRANCH  36  37
ATOM     37  O   UNL     1       2.503   6.748   1.825  1.00  0.00    -0.376 OA
BRANCH  37  38
ATOM     38  C   UNL     1       1.693   7.616   2.601  1.00  0.00     0.202 C 
BRANCH  38  39
ATOM     39  C   UNL     1       0.717   8.600   1.919  1.00  0.00     0.261 C 
BRANCH  39  40
ATOM     40  O   UNL     1       1.127   9.210   0.684  1.00  0.00    -0.460 OA
BRANCH  40  41
ATOM     41  C   UNL     1       2.006  10.240   0.725  1.00  0.00     0.338 C 
ATOM     42  O   UNL     1       2.501  10.730   1.723  1.00  0.00    -0.246 OA
BRANCH  41  43
ATOM     43  C   UNL     1       2.463  10.485  -0.671  1.00  0.00     0.060 A 
ATOM     44  C   UNL     1       3.823  10.313  -0.984  1.00  0.00     0.016 A 
ATOM     45  C   UNL     1       1.543  10.749  -1.690  1.00  0.00     0.016 A 
ATOM     46  C   UNL     1       4.262  10.406  -2.310  1.00  0.00     0.010 A 
ATOM     47  C   UNL     1       1.991  10.890  -3.009  1.00  0.00     0.010 A 
ATOM     48  C   UNL     1       3.355  10.745  -3.322  1.00  0.00    -0.014 A 
BRANCH  48  49
ATOM     49  C   UNL     1       3.862  11.231  -4.633  1.00  0.00     0.031 A 
ATOM     50  C   UNL     1       4.069  12.717  -4.776  1.00  0.00     0.074 A 
ATOM     51  C   UNL     1       4.127  10.411  -5.667  1.00  0.00     0.049 A 
ATOM     52  N   UNL     1       4.423  13.414  -5.822  1.00  0.00    -0.248 NA
ATOM     53  C   UNL     1       3.835  13.523  -3.565  1.00  0.00     0.031 C 
ATOM     54  C   UNL     1       4.007   8.956  -5.651  1.00  0.00     0.029 A 
ATOM     55  N   UNL     1       4.539  10.701  -6.947  1.00  0.00    -0.354 N 
ATOM     56  C   UNL     1       4.437  14.739  -5.402  1.00  0.00     0.074 A 
ATOM     57  C   UNL     1       4.035  14.751  -4.013  1.00  0.00     0.031 C 
ATOM     58  C   UNL     1       4.312   8.481  -6.874  1.00  0.00     0.029 A 
ATOM     59  C   UNL     1       4.616   9.600  -7.767  1.00  0.00     0.049 A 
ATOM     60  H   UNL     1       4.758  11.613  -7.248  1.00  0.00     0.167 HD
ATOM     61  C   UNL     1       4.756  15.849  -6.107  1.00  0.00     0.037 A 
ATOM     62  C   UNL     1       4.871   9.511  -9.091  1.00  0.00     0.037 A 
ATOM     63  C   UNL     1       5.145  15.836  -7.491  1.00  0.00     0.049 A 
ATOM     64  C   UNL     1       5.163  10.768  -9.877  1.00  0.00     0.074 A 
ATOM     65  C   UNL     1       5.514  16.904  -8.288  1.00  0.00     0.029 A 
ATOM     66  N   UNL     1       5.198  14.702  -8.288  1.00  0.00    -0.354 N 
ATOM     67  N   UNL     1       5.211  12.012  -9.461  1.00  0.00    -0.248 NA
ATOM     68  C   UNL     1       5.437  10.611 -11.314  1.00  0.00     0.031 C 
ATOM     69  C   UNL     1       5.728  16.426  -9.584  1.00  0.00     0.029 A 
ATOM     70  C   UNL     1       5.562  15.050  -9.578  1.00  0.00     0.049 A 
ATOM     71  H   UNL     1       5.005  13.787  -7.983  1.00  0.00     0.167 HD
ATOM     72  C   UNL     1       5.549  12.778 -10.575  1.00  0.00     0.074 A 
ATOM     73  C   UNL     1       5.703  11.857 -11.681  1.00  0.00     0.031 C 
ATOM     74  C   UNL     1       5.721  14.121 -10.671  1.00  0.00     0.037 A 
BRANCH  61  75
ATOM     75  C   UNL     1       4.654  17.172  -5.400  1.00  0.00     0.058 A 
ATOM     76  C   UNL     1       5.543  17.541  -4.378  1.00  0.00     0.135 A 
ATOM     77  C   UNL     1       3.657  18.091  -5.764  1.00  0.00     0.135 A 
ATOM     78  F   UNL     1       6.500  16.691  -3.973  1.00  0.00    -0.206 F 
ATOM     79  C   UNL     1       5.430  18.763  -3.722  1.00  0.00     0.059 A 
ATOM     80  C   UNL     1       3.545  19.332  -5.144  1.00  0.00     0.059 A 
ATOM     81  F   UNL     1       2.775  17.786  -6.729  1.00  0.00    -0.206 F 
ATOM     82  C   UNL     1       4.428  19.652  -4.114  1.00  0.00     0.060 A 
BRANCH  82  83
ATOM     83  S   UNL     1       4.298  21.235  -3.258  1.00  0.00     0.124 S 
ATOM     84  O   UNL     1       3.793  20.820  -1.953  1.00  0.00    -0.237 OA
ATOM     85  O   UNL     1       5.677  21.714  -3.281  1.00  0.00    -0.237 OA
ATOM     86  O   UNL     1       3.361  21.993  -4.081  1.00  0.00    -0.744 OA
ENDBRANCH  82  83
ENDBRANCH  61  75
BRANCH  62  87
ATOM     87  C   UNL     1       4.841   8.185  -9.770  1.00  0.00     0.058 A 
ATOM     88  C   UNL     1       6.009   7.601 -10.285  1.00  0.00     0.135 A 
ATOM     89  C   UNL     1       3.639   7.477  -9.926  1.00  0.00     0.135 A 
ATOM     90  F   UNL     1       7.182   8.244 -10.182  1.00  0.00    -0.206 F 
ATOM     91  C   UNL     1       5.986   6.369 -10.933  1.00  0.00     0.059 A 
ATOM     92  C   UNL     1       3.594   6.231 -10.545  1.00  0.00     0.059 A 
ATOM     93  F   UNL     1       2.491   7.989  -9.454  1.00  0.00    -0.206 F 
ATOM     94  C   UNL     1       4.773   5.687 -11.052  1.00  0.00     0.060 A 
BRANCH  94  95
ATOM     95  S   UNL     1       4.768   4.060 -11.837  1.00  0.00     0.124 S 
ATOM     96  O   UNL     1       5.012   4.405 -13.233  1.00  0.00    -0.237 OA
ATOM     97  O   UNL     1       5.862   3.385 -11.146  1.00  0.00    -0.237 OA
ATOM     98  O   UNL     1       3.435   3.547 -11.538  1.00  0.00    -0.744 OA
ENDBRANCH  94  95
ENDBRANCH  62  87
BRANCH  74  99
ATOM     99  C   UNL     1       6.138  14.685 -12.005  1.00  0.00     0.058 A 
ATOM    100  C   UNL     1       5.261  14.740 -13.099  1.00  0.00     0.135 A 
ATOM    101  C   UNL     1       7.417  15.247 -12.165  1.00  0.00     0.135 A 
ATOM    102  F   UNL     1       4.029  14.217 -13.004  1.00  0.00    -0.206 F 
ATOM    103  C   UNL     1       5.644  15.309 -14.311  1.00  0.00     0.059 A 
ATOM    104  C   UNL     1       7.809  15.850 -13.356  1.00  0.00     0.059 A 
ATOM    105  F   UNL     1       8.293  15.237 -11.148  1.00  0.00    -0.206 F 
ATOM    106  C   UNL     1       6.919  15.865 -14.428  1.00  0.00     0.060 A 
BRANCH 106 107
ATOM    107  S   UNL     1       7.388  16.633 -15.994  1.00  0.00     0.124 S 
ATOM    108  O   UNL     1       7.546  15.467 -16.857  1.00  0.00    -0.237 OA
ATOM    109  O   UNL     1       6.238  17.484 -16.281  1.00  0.00    -0.237 OA
ATOM    110  O   UNL     1       8.621  17.344 -15.669  1.00  0.00    -0.744 OA
ENDBRANCH 106 107
ENDBRANCH  74  99
ENDBRANCH  48  49
ENDBRANCH  41  43
ENDBRANCH  40  41
ENDBRANCH  39  40
ENDBRANCH  38  39
ENDBRANCH  37  38
ENDBRANCH  36  37
ENDBRANCH   1  36
TORSDOF 25
