REMARK SMILES CC(C)(C)OC(=O)N[C@@H](CC(=O)OCCOCCOCCOC(=O)c1ccc(-c2c3nc(c(-c4c(F)cc(S(=O)(=O)[O-])cc4F)c4ccc([nH]4)c(-c4c(F)cc(S(=O)(=O)[O-])cc4F)c4nc(c(-c5c(F)cc(S(=O)(=O)[O-])cc5F)c5ccc2[nH]5)C=C4)C=C3)cc1)c1cccnc1
REMARK SMILES IDX 17 1 16 2 15 3 14 4 13 5 11 6 12 7 10 8 9 9 8 10 6 11 7 12
REMARK SMILES IDX 5 14 2 15 1 16 3 17 4 18 91 19 92 20 96 21 93 22 95 23 94 24
REMARK SMILES IDX 18 25 19 26 20 27 21 28 22 29 23 30 24 31 25 32 26 33 90 34
REMARK SMILES IDX 27 35 89 36 28 37 29 38 30 39 83 40 31 41 88 42 82 43 84 44
REMARK SMILES IDX 32 45 87 46 81 47 80 48 33 50 67 51 46 52 66 53 47 54 50 55
REMARK SMILES IDX 65 56 85 57 48 58 49 59 64 61 86 62 51 63 34 64 35 65 44 66
REMARK SMILES IDX 36 67 37 68 43 69 45 70 38 71 39 72 40 73 41 74 42 75 68 76
REMARK SMILES IDX 69 77 78 78 70 79 71 80 77 81 79 82 72 83 73 84 74 85 75 86
REMARK SMILES IDX 76 87 52 88 53 89 62 90 54 91 55 92 61 93 63 94 56 95 57 96
REMARK SMILES IDX 58 97 59 98 60 99
REMARK H PARENT 8 13 84 49 50 60
REMARK Flexibility Score: inf
ROOT
ATOM      1  C   UNL     1       2.054  -8.946   1.115  1.00  0.00     0.188 C 
ENDROOT
BRANCH   1   2
ATOM      2  O   UNL     1       2.395  -9.471   2.384  1.00  0.00    -0.376 OA
BRANCH   2   3
ATOM      3  C   UNL     1       2.134  -8.707   3.544  1.00  0.00     0.202 C 
BRANCH   3   4
ATOM      4  C   UNL     1       2.928  -7.412   3.719  1.00  0.00     0.261 C 
BRANCH   4   5
ATOM      5  O   UNL     1       2.685  -6.410   2.706  1.00  0.00    -0.463 OA
BRANCH   5   6
ATOM      6  C   UNL     1       3.710  -6.177   1.844  1.00  0.00     0.308 C 
ATOM      7  O   UNL     1       4.749  -6.828   1.826  1.00  0.00    -0.252 OA
BRANCH   6   8
ATOM      8  C   UNL     1       3.551  -4.944   0.982  1.00  0.00     0.152 C 
BRANCH   8   9
ATOM      9  C   UNL     1       2.184  -4.401   0.529  1.00  0.00     0.128 C 
BRANCH   9  10
ATOM     10  N   UNL     1       1.254  -4.274   1.645  1.00  0.00    -0.314 N 
ATOM     11  C   UNL     1       0.573  -3.145   1.993  1.00  0.00     0.408 C 
ATOM     12  O   UNL     1      -0.206  -3.116   2.929  1.00  0.00    -0.225 OA
ATOM     13  H   UNL     1       1.105  -5.075   2.198  1.00  0.00     0.167 HD
BRANCH  11  14
ATOM     14  O   UNL     1       0.873  -2.118   1.169  1.00  0.00    -0.444 OA
BRANCH  14  15
ATOM     15  C   UNL     1       0.314  -0.798   1.338  1.00  0.00     0.106 C 
ATOM     16  C   UNL     1       0.898   0.010   0.169  1.00  0.00     0.056 C 
ATOM     17  C   UNL     1       0.800  -0.203   2.659  1.00  0.00     0.056 C 
ATOM     18  C   UNL     1      -1.211  -0.802   1.217  1.00  0.00     0.056 C 
ENDBRANCH  14  15
ENDBRANCH  11  14
ENDBRANCH   9  10
BRANCH   9  19
ATOM     19  C   UNL     1       1.481  -4.944  -0.707  1.00  0.00    -0.007 A 
ATOM     20  C   UNL     1       1.966  -5.954  -1.534  1.00  0.00     0.009 A 
ATOM     21  C   UNL     1       0.285  -4.342  -1.132  1.00  0.00     0.116 A 
ATOM     22  C   UNL     1       1.228  -6.336  -2.663  1.00  0.00     0.020 A 
ATOM     23  N   UNL     1      -0.462  -4.716  -2.196  1.00  0.00    -0.264 NA
ATOM     24  C   UNL     1       0.018  -5.726  -2.933  1.00  0.00     0.111 A 
ENDBRANCH   9  19
ENDBRANCH   8   9
ENDBRANCH   6   8
ENDBRANCH   5   6
ENDBRANCH   4   5
ENDBRANCH   3   4
ENDBRANCH   2   3
ENDBRANCH   1   2
BRANCH   1  25
ATOM     25  C   UNL     1       0.801  -8.063   0.935  1.00  0.00     0.188 C 
BRANCH  25  26
ATOM     26  O   UNL     1      -0.326  -8.263   1.768  1.00  0.00    -0.376 OA
BRANCH  26  27
ATOM     27  C   UNL     1      -0.881  -9.570   1.811  1.00  0.00     0.202 C 
BRANCH  27  28
ATOM     28  C   UNL     1      -1.266 -10.185   0.464  1.00  0.00     0.261 C 
BRANCH  28  29
ATOM     29  O   UNL     1      -0.118 -10.434  -0.374  1.00  0.00    -0.460 OA
BRANCH  29  30
ATOM     30  C   UNL     1      -0.366 -10.318  -1.701  1.00  0.00     0.338 C 
ATOM     31  O   UNL     1      -1.450 -10.093  -2.215  1.00  0.00    -0.246 OA
BRANCH  30  32
ATOM     32  C   UNL     1       0.852 -10.470  -2.526  1.00  0.00     0.060 A 
ATOM     33  C   UNL     1       1.913  -9.575  -2.416  1.00  0.00     0.016 A 
ATOM     34  C   UNL     1       0.814 -11.352  -3.605  1.00  0.00     0.016 A 
ATOM     35  C   UNL     1       2.857  -9.471  -3.442  1.00  0.00     0.010 A 
ATOM     36  C   UNL     1       1.812 -11.306  -4.587  1.00  0.00     0.010 A 
ATOM     37  C   UNL     1       2.820 -10.327  -4.550  1.00  0.00    -0.014 A 
BRANCH  37  38
ATOM     38  C   UNL     1       3.772 -10.172  -5.692  1.00  0.00     0.031 A 
ATOM     39  C   UNL     1       3.244 -10.035  -7.103  1.00  0.00     0.074 A 
ATOM     40  C   UNL     1       5.106 -10.150  -5.490  1.00  0.00     0.049 A 
ATOM     41  N   UNL     1       3.862 -10.208  -8.243  1.00  0.00    -0.248 NA
ATOM     42  C   UNL     1       1.827  -9.660  -7.245  1.00  0.00     0.031 C 
ATOM     43  C   UNL     1       5.771 -10.163  -4.185  1.00  0.00     0.029 A 
ATOM     44  N   UNL     1       6.149 -10.126  -6.386  1.00  0.00    -0.354 N 
ATOM     45  C   UNL     1       2.897 -10.040  -9.233  1.00  0.00     0.074 A 
ATOM     46  C   UNL     1       1.655  -9.730  -8.559  1.00  0.00     0.031 C 
ATOM     47  C   UNL     1       7.099 -10.125  -4.362  1.00  0.00     0.029 A 
ATOM     48  C   UNL     1       7.385 -10.226  -5.787  1.00  0.00     0.049 A 
ATOM     49  H   UNL     1       6.025 -10.046  -7.359  1.00  0.00     0.167 HD
ATOM     50  C   UNL     1       3.039 -10.154 -10.578  1.00  0.00     0.037 A 
ATOM     51  C   UNL     1       8.605 -10.465  -6.306  1.00  0.00     0.037 A 
ATOM     52  C   UNL     1       4.300 -10.414 -11.228  1.00  0.00     0.049 A 
ATOM     53  C   UNL     1       8.733 -10.677  -7.788  1.00  0.00     0.074 A 
ATOM     54  C   UNL     1       4.561 -10.561 -12.580  1.00  0.00     0.029 A 
ATOM     55  N   UNL     1       5.516 -10.549 -10.573  1.00  0.00    -0.354 N 
ATOM     56  N   UNL     1       7.800 -10.627  -8.709  1.00  0.00    -0.248 NA
ATOM     57  C   UNL     1      10.069 -11.006  -8.298  1.00  0.00     0.031 C 
ATOM     58  C   UNL     1       5.924 -10.834 -12.736  1.00  0.00     0.029 A 
ATOM     59  C   UNL     1       6.525 -10.798 -11.488  1.00  0.00     0.049 A 
ATOM     60  H   UNL     1       5.643 -10.479  -9.599  1.00  0.00     0.167 HD
ATOM     61  C   UNL     1       8.441 -10.900  -9.912  1.00  0.00     0.074 A 
ATOM     62  C   UNL     1       9.843 -11.100  -9.601  1.00  0.00     0.031 C 
ATOM     63  C   UNL     1       7.917 -10.982 -11.159  1.00  0.00     0.037 A 
BRANCH  50  64
ATOM     64  C   UNL     1       1.800 -10.067 -11.434  1.00  0.00     0.058 A 
ATOM     65  C   UNL     1       1.111  -8.864 -11.649  1.00  0.00     0.135 A 
ATOM     66  C   UNL     1       1.318 -11.216 -12.088  1.00  0.00     0.135 A 
ATOM     67  F   UNL     1       1.515  -7.736 -11.042  1.00  0.00    -0.206 F 
ATOM     68  C   UNL     1      -0.026  -8.808 -12.453  1.00  0.00     0.059 A 
ATOM     69  C   UNL     1       0.202 -11.178 -12.919  1.00  0.00     0.059 A 
ATOM     70  F   UNL     1       1.938 -12.396 -11.925  1.00  0.00    -0.206 F 
ATOM     71  C   UNL     1      -0.474  -9.971 -13.083  1.00  0.00     0.060 A 
BRANCH  71  72
ATOM     72  S   UNL     1      -1.954  -9.885 -14.116  1.00  0.00     0.124 S 
ATOM     73  O   UNL     1      -3.000  -9.716 -13.113  1.00  0.00    -0.237 OA
ATOM     74  O   UNL     1      -1.683  -8.719 -14.952  1.00  0.00    -0.237 OA
ATOM     75  O   UNL     1      -1.957 -11.166 -14.815  1.00  0.00    -0.744 OA
ENDBRANCH  71  72
ENDBRANCH  50  64
BRANCH  51  76
ATOM     76  C   UNL     1       9.781 -10.606  -5.403  1.00  0.00     0.058 A 
ATOM     77  C   UNL     1      10.825  -9.671  -5.418  1.00  0.00     0.135 A 
ATOM     78  C   UNL     1       9.871 -11.668  -4.486  1.00  0.00     0.135 A 
ATOM     79  F   UNL     1      10.794  -8.647  -6.285  1.00  0.00    -0.206 F 
ATOM     80  C   UNL     1      11.916  -9.783  -4.562  1.00  0.00     0.059 A 
ATOM     81  C   UNL     1      10.933 -11.781  -3.596  1.00  0.00     0.059 A 
ATOM     82  F   UNL     1       8.896 -12.588  -4.422  1.00  0.00    -0.206 F 
ATOM     83  C   UNL     1      11.957 -10.838  -3.648  1.00  0.00     0.060 A 
BRANCH  83  84
ATOM     84  S   UNL     1      13.348 -10.940  -2.502  1.00  0.00     0.124 S 
ATOM     85  O   UNL     1      14.427 -11.362  -3.388  1.00  0.00    -0.237 OA
ATOM     86  O   UNL     1      13.432  -9.572  -2.000  1.00  0.00    -0.237 OA
ATOM     87  O   UNL     1      12.907 -11.932  -1.526  1.00  0.00    -0.744 OA
ENDBRANCH  83  84
ENDBRANCH  51  76
BRANCH  63  88
ATOM     88  C   UNL     1       8.872 -11.252 -12.289  1.00  0.00     0.058 A 
ATOM     89  C   UNL     1       9.446 -12.517 -12.486  1.00  0.00     0.135 A 
ATOM     90  C   UNL     1       9.179 -10.239 -13.211  1.00  0.00     0.135 A 
ATOM     91  F   UNL     1       9.195 -13.516 -11.625  1.00  0.00    -0.206 F 
ATOM     92  C   UNL     1      10.308 -12.763 -13.550  1.00  0.00     0.059 A 
ATOM     93  C   UNL     1      10.014 -10.470 -14.298  1.00  0.00     0.059 A 
ATOM     94  F   UNL     1       8.650  -9.012 -13.069  1.00  0.00    -0.206 F 
ATOM     95  C   UNL     1      10.582 -11.734 -14.453  1.00  0.00     0.060 A 
BRANCH  95  96
ATOM     96  S   UNL     1      11.669 -12.079 -15.852  1.00  0.00     0.124 S 
ATOM     97  O   UNL     1      12.972 -12.159 -15.200  1.00  0.00    -0.237 OA
ATOM     98  O   UNL     1      11.134 -13.338 -16.359  1.00  0.00    -0.237 OA
ATOM     99  O   UNL     1      11.475 -10.925 -16.726  1.00  0.00    -0.744 OA
ENDBRANCH  95  96
ENDBRANCH  63  88
ENDBRANCH  37  38
ENDBRANCH  30  32
ENDBRANCH  29  30
ENDBRANCH  28  29
ENDBRANCH  27  28
ENDBRANCH  26  27
ENDBRANCH  25  26
ENDBRANCH   1  25
TORSDOF 25
