REMARK SMILES O=C(OCCOCCOCCOC(=O)c1ccc(-c2c3nc(c(-c4c(F)cc(S(=O)(=O)[O-])cc4F)c4ccc([nH]4)c(-c4c(F)cc(S(=O)(=O)[O-])cc4F)c4nc(c(-c5c(F)cc(S(=O)(=O)[O-])cc5F)c5ccc2[nH]5)C=C4)C=C3)cc1)C1=Cc2cc(C(F)(F)F)ccc2O[C@@H]1C(F)(F)F
REMARK SMILES IDX 8 1 7 2 6 3 5 4 4 5 3 6 2 7 1 8 81 9 82 10 94 11 83 12 93 13
REMARK SMILES IDX 84 14 92 15 85 16 91 17 90 18 95 19 96 20 97 21 98 22 86 23
REMARK SMILES IDX 87 24 88 25 89 26 9 27 10 28 11 29 12 30 13 31 14 32 15 33
REMARK SMILES IDX 16 34 80 35 17 36 79 37 18 38 19 39 20 40 73 41 21 42 78 43
REMARK SMILES IDX 72 44 74 45 22 46 77 47 71 48 70 49 23 51 57 52 36 53 56 54
REMARK SMILES IDX 37 55 40 56 55 57 75 58 38 59 39 60 54 62 76 63 41 64 24 65
REMARK SMILES IDX 25 66 34 67 26 68 27 69 33 70 35 71 28 72 29 73 30 74 31 75
REMARK SMILES IDX 32 76 58 77 59 78 68 79 60 80 61 81 67 82 69 83 62 84 63 85
REMARK SMILES IDX 64 86 65 87 66 88 42 89 43 90 52 91 44 92 45 93 51 94 53 95
REMARK SMILES IDX 46 96 47 97 48 98 49 99 50 100
REMARK H PARENT 74 50 40 61
REMARK Flexibility Score: inf
ROOT
ATOM      1  C   UNL     1       2.024  -3.408   0.134  1.00  0.00     0.188 C 
ENDROOT
BRANCH   1   2
ATOM      2  C   UNL     1       2.279  -2.156  -0.720  1.00  0.00     0.188 C 
BRANCH   2   3
ATOM      3  O   UNL     1       3.648  -1.682  -1.088  1.00  0.00    -0.376 OA
BRANCH   3   4
ATOM      4  C   UNL     1       4.341  -0.118  -0.823  1.00  0.00     0.202 C 
BRANCH   4   5
ATOM      5  C   UNL     1       3.612   1.309   0.644  1.00  0.00     0.261 C 
BRANCH   5   6
ATOM      6  O   UNL     1       2.582   2.394   0.413  1.00  0.00    -0.460 OA
BRANCH   6   7
ATOM      7  C   UNL     1       2.710   2.942  -0.804  1.00  0.00     0.338 C 
ATOM      8  O   UNL     1       1.948   3.700  -1.351  1.00  0.00    -0.246 OA
BRANCH   7   9
ATOM      9  C   UNL     1       3.643   1.966  -1.354  1.00  0.00     0.087 C 
ATOM     10  C   UNL     1       5.031   2.091  -0.930  1.00  0.00     0.027 C 
ATOM     11  C   UNL     1       2.500   0.501  -0.897  1.00  0.00     0.316 C 
ATOM     12  C   UNL     1       5.806   1.069   0.318  1.00  0.00     0.018 A 
ATOM     13  O   UNL     1       3.237  -0.521   0.600  1.00  0.00    -0.475 OA
ATOM     14  C   UNL     1       7.104   1.313   0.658  1.00  0.00     0.025 A 
ATOM     15  C   UNL     1       4.954  -0.182   1.151  1.00  0.00     0.128 A 
ATOM     16  C   UNL     1       7.648   0.466   1.652  1.00  0.00     0.056 A 
ATOM     17  C   UNL     1       5.534  -0.981   2.094  1.00  0.00     0.048 A 
ATOM     18  C   UNL     1       6.897  -0.624   2.315  1.00  0.00     0.017 A 
BRANCH  11  19
ATOM     19  C   UNL     1       2.257   0.105  -2.527  1.00  0.00     0.430 C 
ATOM     20  F   UNL     1       2.338  -1.153  -2.958  1.00  0.00    -0.167 F 
ATOM     21  F   UNL     1       1.031   0.557  -2.896  1.00  0.00    -0.167 F 
ATOM     22  F   UNL     1       3.132   0.772  -3.343  1.00  0.00    -0.167 F 
ENDBRANCH  11  19
BRANCH  16  23
ATOM     23  C   UNL     1       9.107   0.738   2.000  1.00  0.00     0.416 C 
ATOM     24  F   UNL     1       9.939   0.509   0.945  1.00  0.00    -0.166 F 
ATOM     25  F   UNL     1       9.316   2.040   2.353  1.00  0.00    -0.166 F 
ATOM     26  F   UNL     1       9.585  -0.010   3.029  1.00  0.00    -0.166 F 
ENDBRANCH  16  23
ENDBRANCH   7   9
ENDBRANCH   6   7
ENDBRANCH   5   6
ENDBRANCH   4   5
ENDBRANCH   3   4
ENDBRANCH   2   3
ENDBRANCH   1   2
BRANCH   1  27
ATOM     27  O   UNL     1       3.000  -3.808   1.062  1.00  0.00    -0.376 OA
BRANCH  27  28
ATOM     28  C   UNL     1       4.288  -4.043   0.511  1.00  0.00     0.202 C 
BRANCH  28  29
ATOM     29  C   UNL     1       4.396  -4.968  -0.717  1.00  0.00     0.261 C 
BRANCH  29  30
ATOM     30  O   UNL     1       3.900  -4.393  -1.950  1.00  0.00    -0.460 OA
BRANCH  30  31
ATOM     31  C   UNL     1       2.851  -5.008  -2.559  1.00  0.00     0.338 C 
ATOM     32  O   UNL     1       2.251  -5.993  -2.166  1.00  0.00    -0.246 OA
BRANCH  31  33
ATOM     33  C   UNL     1       2.426  -4.218  -3.738  1.00  0.00     0.060 A 
ATOM     34  C   UNL     1       1.144  -3.645  -3.777  1.00  0.00     0.016 A 
ATOM     35  C   UNL     1       3.287  -4.078  -4.825  1.00  0.00     0.016 A 
ATOM     36  C   UNL     1       0.744  -2.880  -4.880  1.00  0.00     0.010 A 
ATOM     37  C   UNL     1       2.864  -3.365  -5.951  1.00  0.00     0.010 A 
ATOM     38  C   UNL     1       1.592  -2.765  -5.988  1.00  0.00    -0.014 A 
BRANCH  38  39
ATOM     39  C   UNL     1       1.077  -2.237  -7.278  1.00  0.00     0.031 A 
ATOM     40  C   UNL     1       0.489  -3.228  -8.244  1.00  0.00     0.074 A 
ATOM     41  C   UNL     1       1.168  -0.936  -7.609  1.00  0.00     0.049 A 
ATOM     42  N   UNL     1       0.080  -3.053  -9.472  1.00  0.00    -0.248 NA
ATOM     43  C   UNL     1       0.358  -4.613  -7.756  1.00  0.00     0.031 C 
ATOM     44  C   UNL     1       1.685   0.122  -6.746  1.00  0.00     0.029 A 
ATOM     45  N   UNL     1       0.845  -0.287  -8.778  1.00  0.00    -0.354 N 
ATOM     46  C   UNL     1      -0.340  -4.303  -9.909  1.00  0.00     0.074 A 
ATOM     47  C   UNL     1      -0.119  -5.232  -8.824  1.00  0.00     0.031 C 
ATOM     48  C   UNL     1       1.665   1.286  -7.422  1.00  0.00     0.029 A 
ATOM     49  C   UNL     1       1.174   1.050  -8.780  1.00  0.00     0.049 A 
ATOM     50  H   UNL     1       0.417  -0.737  -9.543  1.00  0.00     0.167 HD
ATOM     51  C   UNL     1      -0.858  -4.645 -11.111  1.00  0.00     0.037 A 
ATOM     52  C   UNL     1       1.119   1.963  -9.773  1.00  0.00     0.037 A 
ATOM     53  C   UNL     1      -1.054  -3.715 -12.191  1.00  0.00     0.049 A 
ATOM     54  C   UNL     1       0.606   1.541 -11.132  1.00  0.00     0.074 A 
ATOM     55  C   UNL     1      -1.595  -3.955 -13.441  1.00  0.00     0.029 A 
ATOM     56  N   UNL     1      -0.693  -2.375 -12.160  1.00  0.00    -0.354 N 
ATOM     57  N   UNL     1       0.166   0.366 -11.521  1.00  0.00    -0.248 NA
ATOM     58  C   UNL     1       0.584   2.563 -12.189  1.00  0.00     0.031 C 
ATOM     59  C   UNL     1      -1.489  -2.782 -14.192  1.00  0.00     0.029 A 
ATOM     60  C   UNL     1      -0.962  -1.786 -13.384  1.00  0.00     0.049 A 
ATOM     61  H   UNL     1      -0.304  -1.912 -11.383  1.00  0.00     0.167 HD
ATOM     62  C   UNL     1      -0.211   0.518 -12.853  1.00  0.00     0.074 A 
ATOM     63  C   UNL     1       0.038   1.901 -13.200  1.00  0.00     0.031 C 
ATOM     64  C   UNL     1      -0.718  -0.402 -13.711  1.00  0.00     0.037 A 
BRANCH  51  65
ATOM     65  C   UNL     1      -1.205  -6.091 -11.338  1.00  0.00     0.058 A 
ATOM     66  C   UNL     1      -2.268  -6.718 -10.668  1.00  0.00     0.135 A 
ATOM     67  C   UNL     1      -0.481  -6.851 -12.272  1.00  0.00     0.135 A 
ATOM     68  F   UNL     1      -2.978  -6.047  -9.748  1.00  0.00    -0.206 F 
ATOM     69  C   UNL     1      -2.587  -8.052 -10.900  1.00  0.00     0.059 A 
ATOM     70  C   UNL     1      -0.806  -8.175 -12.546  1.00  0.00     0.059 A 
ATOM     71  F   UNL     1       0.551  -6.306 -12.934  1.00  0.00    -0.206 F 
ATOM     72  C   UNL     1      -1.855  -8.770 -11.848  1.00  0.00     0.060 A 
BRANCH  72  73
ATOM     73  S   UNL     1      -2.303 -10.490 -12.156  1.00  0.00     0.124 S 
ATOM     74  O   UNL     1      -1.912 -11.124 -10.901  1.00  0.00    -0.237 OA
ATOM     75  O   UNL     1      -3.739 -10.396 -12.397  1.00  0.00    -0.237 OA
ATOM     76  O   UNL     1      -1.497 -10.851 -13.318  1.00  0.00    -0.744 OA
ENDBRANCH  72  73
ENDBRANCH  51  65
BRANCH  52  77
ATOM     77  C   UNL     1       1.590   3.361  -9.544  1.00  0.00     0.058 A 
ATOM     78  C   UNL     1       0.710   4.452  -9.612  1.00  0.00     0.135 A 
ATOM     79  C   UNL     1       2.942   3.638  -9.279  1.00  0.00     0.135 A 
ATOM     80  F   UNL     1      -0.589   4.250  -9.884  1.00  0.00    -0.206 F 
ATOM     81  C   UNL     1       1.150   5.763  -9.442  1.00  0.00     0.059 A 
ATOM     82  C   UNL     1       3.400   4.936  -9.072  1.00  0.00     0.059 A 
ATOM     83  F   UNL     1       3.833   2.637  -9.205  1.00  0.00    -0.206 F 
ATOM     84  C   UNL     1       2.498   5.994  -9.166  1.00  0.00     0.060 A 
BRANCH  84  85
ATOM     85  S   UNL     1       3.052   7.694  -8.903  1.00  0.00     0.124 S 
ATOM     86  O   UNL     1       2.918   8.259 -10.240  1.00  0.00    -0.237 OA
ATOM     87  O   UNL     1       2.098   8.174  -7.908  1.00  0.00    -0.237 OA
ATOM     88  O   UNL     1       4.421   7.532  -8.422  1.00  0.00    -0.744 OA
ENDBRANCH  84  85
ENDBRANCH  52  77
BRANCH  64  89
ATOM     89  C   UNL     1      -1.082   0.051 -15.102  1.00  0.00     0.058 A 
ATOM     90  C   UNL     1      -0.108   0.387 -16.055  1.00  0.00     0.135 A 
ATOM     91  C   UNL     1      -2.426   0.059 -15.512  1.00  0.00     0.135 A 
ATOM     92  F   UNL     1       1.192   0.402 -15.717  1.00  0.00    -0.206 F 
ATOM     93  C   UNL     1      -0.454   0.729 -17.359  1.00  0.00     0.059 A 
ATOM     94  C   UNL     1      -2.792   0.361 -16.820  1.00  0.00     0.059 A 
ATOM     95  F   UNL     1      -3.400  -0.265 -14.646  1.00  0.00    -0.206 F 
ATOM     96  C   UNL     1      -1.798   0.701 -17.735  1.00  0.00     0.060 A 
BRANCH  96  97
ATOM     97  S   UNL     1      -2.224   1.086 -19.446  1.00  0.00     0.124 S 
ATOM     98  O   UNL     1      -1.917   2.511 -19.515  1.00  0.00    -0.237 OA
ATOM     99  O   UNL     1      -1.328   0.208 -20.192  1.00  0.00    -0.237 OA
ATOM    100  O   UNL     1      -3.641   0.745 -19.532  1.00  0.00    -0.744 OA
ENDBRANCH  96  97
ENDBRANCH  64  89
ENDBRANCH  38  39
ENDBRANCH  31  33
ENDBRANCH  30  31
ENDBRANCH  29  30
ENDBRANCH  28  29
ENDBRANCH  27  28
ENDBRANCH   1  27
TORSDOF 22
