REMARK SMILES Cc1cc2c(cc1S(=O)(=O)N(C)CC(=O)OCCOCCOCCOC(=O)c1ccc(-c3c4nc(c(-c5c(F)cc(S(=O)(=O)[O-])cc5F)c5ccc([nH]5)c(-c5c(F)cc(S(=O)(=O)[O-])cc5F)c5nc(c(-c6c(F)cc(S(=O)(=O)[O-])cc6F)c6ccc3[nH]6)C=C5)C=C4)cc1)OCC(=O)N2
REMARK SMILES IDX 20 1 19 2 18 3 17 4 16 5 14 6 15 7 13 8 11 9 12 10 8 11 9 12
REMARK SMILES IDX 10 13 7 14 1 15 2 16 3 17 4 18 6 19 5 20 98 21 94 22 96 23
REMARK SMILES IDX 95 25 97 26 21 27 22 28 23 29 24 30 25 31 26 32 27 33 28 34
REMARK SMILES IDX 29 35 93 36 30 37 92 38 31 39 32 40 33 41 86 42 34 43 91 44
REMARK SMILES IDX 85 45 87 46 35 47 90 48 84 49 83 50 36 52 70 53 49 54 69 55
REMARK SMILES IDX 50 56 53 57 68 58 88 59 51 60 52 61 67 63 89 64 54 65 37 66
REMARK SMILES IDX 38 67 47 68 39 69 40 70 46 71 48 72 41 73 42 74 43 75 44 76
REMARK SMILES IDX 45 77 71 78 72 79 81 80 73 81 74 82 80 83 82 84 75 85 76 86
REMARK SMILES IDX 77 87 78 88 79 89 55 90 56 91 65 92 57 93 58 94 64 95 66 96
REMARK SMILES IDX 59 97 60 98 61 99 62 100 63 101
REMARK H PARENT 98 24 87 51 53 62
REMARK Flexibility Score: inf
ROOT
ATOM      1  C   UNL     1       3.472   3.582  -4.418  1.00  0.00     0.188 C 
ENDROOT
BRANCH   1   2
ATOM      2  O   UNL     1       3.515   3.458  -5.838  1.00  0.00    -0.376 OA
BRANCH   2   3
ATOM      3  C   UNL     1       2.785   2.407  -6.460  1.00  0.00     0.202 C 
BRANCH   3   4
ATOM      4  C   UNL     1       3.248   0.990  -6.119  1.00  0.00     0.261 C 
BRANCH   4   5
ATOM      5  O   UNL     1       2.993   0.667  -4.738  1.00  0.00    -0.462 OA
BRANCH   5   6
ATOM      6  C   UNL     1       4.011   0.094  -4.049  1.00  0.00     0.321 C 
ATOM      7  O   UNL     1       5.048  -0.305  -4.569  1.00  0.00    -0.251 OA
BRANCH   6   8
ATOM      8  C   UNL     1       3.759  -0.035  -2.561  1.00  0.00     0.224 C 
BRANCH   8   9
ATOM      9  N   UNL     1       2.526   0.558  -1.915  1.00  0.00    -0.190 NA
ATOM     10  C   UNL     1       1.317  -0.221  -2.227  1.00  0.00     0.125 C 
BRANCH   9  11
ATOM     11  S   UNL     1       2.840   0.956  -0.277  1.00  0.00     0.243 S 
ATOM     12  O   UNL     1       3.683   2.122  -0.319  1.00  0.00    -0.207 OA
ATOM     13  O   UNL     1       3.327  -0.249   0.376  1.00  0.00    -0.207 OA
BRANCH  11  14
ATOM     14  C   UNL     1       1.282   1.419   0.494  1.00  0.00     0.089 A 
ATOM     15  C   UNL     1       0.471  -1.023   0.869  1.00  0.00     0.046 C 
ATOM     16  C   UNL     1       0.392   0.469   1.044  1.00  0.00    -0.029 A 
ATOM     17  C   UNL     1      -0.714   0.931   1.789  1.00  0.00     0.035 A 
ATOM     18  C   UNL     1      -0.914   2.290   2.020  1.00  0.00     0.084 A 
ATOM     19  C   UNL     1       1.055   2.794   0.719  1.00  0.00     0.070 A 
ATOM     20  C   UNL     1      -0.041   3.225   1.476  1.00  0.00     0.144 A 
ATOM     21  N   UNL     1      -1.960   2.692   2.849  1.00  0.00    -0.320 N 
ATOM     22  O   UNL     1      -0.146   4.569   1.708  1.00  0.00    -0.482 OA
ATOM     23  C   UNL     1      -2.214   4.012   3.094  1.00  0.00     0.262 C 
ATOM     24  H   UNL     1      -2.530   2.007   3.269  1.00  0.00     0.170 HD
ATOM     25  C   UNL     1      -1.383   4.992   2.267  1.00  0.00     0.329 C 
ATOM     26  O   UNL     1      -3.107   4.354   3.865  1.00  0.00    -0.271 OA
ENDBRANCH  11  14
ENDBRANCH   9  11
ENDBRANCH   8   9
ENDBRANCH   6   8
ENDBRANCH   5   6
ENDBRANCH   4   5
ENDBRANCH   3   4
ENDBRANCH   2   3
ENDBRANCH   1   2
BRANCH   1  27
ATOM     27  C   UNL     1       2.141   3.303  -3.708  1.00  0.00     0.188 C 
BRANCH  27  28
ATOM     28  O   UNL     1       1.018   3.661  -4.502  1.00  0.00    -0.376 OA
BRANCH  28  29
ATOM     29  C   UNL     1       0.047   4.433  -3.820  1.00  0.00     0.202 C 
BRANCH  29  30
ATOM     30  C   UNL     1       0.414   5.917  -3.848  1.00  0.00     0.261 C 
BRANCH  30  31
ATOM     31  O   UNL     1       1.728   6.225  -3.342  1.00  0.00    -0.460 OA
BRANCH  31  32
ATOM     32  C   UNL     1       1.884   6.184  -2.000  1.00  0.00     0.338 C 
ATOM     33  O   UNL     1       1.032   5.888  -1.180  1.00  0.00    -0.246 OA
BRANCH  32  34
ATOM     34  C   UNL     1       3.313   6.409  -1.695  1.00  0.00     0.060 A 
ATOM     35  C   UNL     1       3.901   7.653  -1.915  1.00  0.00     0.016 A 
ATOM     36  C   UNL     1       4.070   5.364  -1.159  1.00  0.00     0.016 A 
ATOM     37  C   UNL     1       5.249   7.843  -1.585  1.00  0.00     0.010 A 
ATOM     38  C   UNL     1       5.412   5.558  -0.817  1.00  0.00     0.010 A 
ATOM     39  C   UNL     1       6.016   6.803  -1.019  1.00  0.00    -0.014 A 
BRANCH  39  40
ATOM     40  C   UNL     1       7.394   7.081  -0.528  1.00  0.00     0.031 A 
ATOM     41  C   UNL     1       8.614   6.487  -1.173  1.00  0.00     0.074 A 
ATOM     42  C   UNL     1       7.536   7.882   0.547  1.00  0.00     0.049 A 
ATOM     43  N   UNL     1       9.874   6.788  -0.979  1.00  0.00    -0.248 NA
ATOM     44  C   UNL     1       8.401   5.399  -2.139  1.00  0.00     0.031 C 
ATOM     45  C   UNL     1       6.428   8.417   1.340  1.00  0.00     0.029 A 
ATOM     46  N   UNL     1       8.657   8.399   1.147  1.00  0.00    -0.354 N 
ATOM     47  C   UNL     1      10.604   5.941  -1.805  1.00  0.00     0.074 A 
ATOM     48  C   UNL     1       9.647   5.071  -2.456  1.00  0.00     0.031 C 
ATOM     49  C   UNL     1       6.919   9.235   2.283  1.00  0.00     0.029 A 
ATOM     50  C   UNL     1       8.374   9.273   2.171  1.00  0.00     0.049 A 
ATOM     51  H   UNL     1       9.573   8.167   0.872  1.00  0.00     0.167 HD
ATOM     52  C   UNL     1      11.944   5.912  -2.016  1.00  0.00     0.037 A 
ATOM     53  C   UNL     1       9.188  10.045   2.917  1.00  0.00     0.037 A 
ATOM     54  C   UNL     1      12.883   6.782  -1.350  1.00  0.00     0.049 A 
ATOM     55  C   UNL     1      10.662  10.045   2.634  1.00  0.00     0.074 A 
ATOM     56  C   UNL     1      14.245   6.906  -1.564  1.00  0.00     0.029 A 
ATOM     57  N   UNL     1      12.562   7.659  -0.323  1.00  0.00    -0.354 N 
ATOM     58  N   UNL     1      11.325   9.352   1.738  1.00  0.00    -0.248 NA
ATOM     59  C   UNL     1      11.498  10.937   3.447  1.00  0.00     0.031 C 
ATOM     60  C   UNL     1      14.755   7.816  -0.630  1.00  0.00     0.029 A 
ATOM     61  C   UNL     1      13.704   8.301   0.132  1.00  0.00     0.049 A 
ATOM     62  H   UNL     1      11.655   7.805   0.031  1.00  0.00     0.167 HD
ATOM     63  C   UNL     1      12.657   9.724   1.877  1.00  0.00     0.074 A 
ATOM     64  C   UNL     1      12.701  10.723   2.927  1.00  0.00     0.031 C 
ATOM     65  C   UNL     1      13.741   9.276   1.197  1.00  0.00     0.037 A 
BRANCH  52  66
ATOM     66  C   UNL     1      12.477   4.919  -3.019  1.00  0.00     0.058 A 
ATOM     67  C   UNL     1      12.209   5.047  -4.393  1.00  0.00     0.135 A 
ATOM     68  C   UNL     1      13.299   3.854  -2.616  1.00  0.00     0.135 A 
ATOM     69  F   UNL     1      11.431   6.045  -4.840  1.00  0.00    -0.206 F 
ATOM     70  C   UNL     1      12.700   4.134  -5.322  1.00  0.00     0.059 A 
ATOM     71  C   UNL     1      13.826   2.945  -3.532  1.00  0.00     0.059 A 
ATOM     72  F   UNL     1      13.602   3.686  -1.319  1.00  0.00    -0.206 F 
ATOM     73  C   UNL     1      13.506   3.083  -4.882  1.00  0.00     0.060 A 
BRANCH  73  74
ATOM     74  S   UNL     1      14.124   1.904  -6.102  1.00  0.00     0.124 S 
ATOM     75  O   UNL     1      12.904   1.189  -6.463  1.00  0.00    -0.237 OA
ATOM     76  O   UNL     1      14.672   2.780  -7.133  1.00  0.00    -0.237 OA
ATOM     77  O   UNL     1      15.108   1.125  -5.358  1.00  0.00    -0.744 OA
ENDBRANCH  73  74
ENDBRANCH  52  66
BRANCH  53  78
ATOM     78  C   UNL     1       8.585  10.936   3.944  1.00  0.00     0.058 A 
ATOM     79  C   UNL     1       8.460  12.314   3.716  1.00  0.00     0.135 A 
ATOM     80  C   UNL     1       8.015  10.411   5.114  1.00  0.00     0.135 A 
ATOM     81  F   UNL     1       8.993  12.863   2.614  1.00  0.00    -0.206 F 
ATOM     82  C   UNL     1       7.773  13.138   4.602  1.00  0.00     0.059 A 
ATOM     83  C   UNL     1       7.304  11.211   6.004  1.00  0.00     0.059 A 
ATOM     84  F   UNL     1       8.092   9.095   5.367  1.00  0.00    -0.206 F 
ATOM     85  C   UNL     1       7.183  12.574   5.734  1.00  0.00     0.060 A 
BRANCH  85  86
ATOM     86  S   UNL     1       6.188  13.634   6.807  1.00  0.00     0.124 S 
ATOM     87  O   UNL     1       7.208  14.479   7.417  1.00  0.00    -0.237 OA
ATOM     88  O   UNL     1       5.304  14.290   5.849  1.00  0.00    -0.237 OA
ATOM     89  O   UNL     1       5.534  12.687   7.705  1.00  0.00    -0.744 OA
ENDBRANCH  85  86
ENDBRANCH  53  78
BRANCH  65  90
ATOM     90  C   UNL     1      15.082   9.843   1.578  1.00  0.00     0.058 A 
ATOM     91  C   UNL     1      15.713   9.482   2.779  1.00  0.00     0.135 A 
ATOM     92  C   UNL     1      15.775  10.697   0.705  1.00  0.00     0.135 A 
ATOM     93  F   UNL     1      15.092   8.675   3.654  1.00  0.00    -0.206 F 
ATOM     94  C   UNL     1      16.979   9.959   3.107  1.00  0.00     0.059 A 
ATOM     95  C   UNL     1      17.052  11.165   1.001  1.00  0.00     0.059 A 
ATOM     96  F   UNL     1      15.221  11.068  -0.460  1.00  0.00    -0.206 F 
ATOM     97  C   UNL     1      17.643  10.795   2.209  1.00  0.00     0.060 A 
BRANCH  97  98
ATOM     98  S   UNL     1      19.303  11.369   2.630  1.00  0.00     0.124 S 
ATOM     99  O   UNL     1      19.025  12.305   3.715  1.00  0.00    -0.237 OA
ATOM    100  O   UNL     1      19.971  10.130   3.018  1.00  0.00    -0.237 OA
ATOM    101  O   UNL     1      19.781  11.971   1.390  1.00  0.00    -0.744 OA
ENDBRANCH  97  98
ENDBRANCH  65  90
ENDBRANCH  39  40
ENDBRANCH  32  34
ENDBRANCH  31  32
ENDBRANCH  30  31
ENDBRANCH  29  30
ENDBRANCH  28  29
ENDBRANCH  27  28
ENDBRANCH   1  27
TORSDOF 23
