REMARK SMILES CC[C@@](O)(C(=O)OCCOCCOCCOC(=O)c1ccc(-c2c3nc(c(-c4c(F)cc(S(=O)(=O)[O-])cc4F)c4ccc([nH]4)c(-c4c(F)cc(S(=O)(=O)[O-])cc4F)c4nc(c(-c5c(F)cc(S(=O)(=O)[O-])cc5F)c5ccc2[nH]5)C=C4)C=C3)cc1)[C@@H](C)c1ccc(OC)c(OC)c1
REMARK SMILES IDX 11 1 10 2 9 3 8 4 7 5 5 6 6 7 3 8 2 9 1 10 4 11 85 13 86 14
REMARK SMILES IDX 87 15 88 16 96 17 89 18 93 19 90 20 94 21 95 22 91 23 92 24
REMARK SMILES IDX 12 25 13 26 14 27 15 28 16 29 17 30 18 31 19 32 20 33 84 34
REMARK SMILES IDX 21 35 83 36 22 37 23 38 24 39 77 40 25 41 82 42 76 43 78 44
REMARK SMILES IDX 26 45 81 46 75 47 74 48 27 50 61 51 40 52 60 53 41 54 44 55
REMARK SMILES IDX 59 56 79 57 42 58 43 59 58 61 80 62 45 63 28 64 29 65 38 66
REMARK SMILES IDX 30 67 31 68 37 69 39 70 32 71 33 72 34 73 35 74 36 75 62 76
REMARK SMILES IDX 63 77 72 78 64 79 65 80 71 81 73 82 66 83 67 84 68 85 69 86
REMARK SMILES IDX 70 87 46 88 47 89 56 90 48 91 49 92 55 93 57 94 50 95 51 96
REMARK SMILES IDX 52 97 53 98 54 99
REMARK H PARENT 4 12 78 49 44 60
REMARK Flexibility Score: inf
ROOT
ATOM      1  C   UNL     1       1.151  -5.849   0.004  1.00  0.00     0.188 C 
ENDROOT
BRANCH   1   2
ATOM      2  O   UNL     1       0.367  -6.836   0.661  1.00  0.00    -0.376 OA
BRANCH   2   3
ATOM      3  C   UNL     1      -0.948  -6.431   1.052  1.00  0.00     0.202 C 
BRANCH   3   4
ATOM      4  C   UNL     1      -1.021  -5.266   2.051  1.00  0.00     0.261 C 
BRANCH   4   5
ATOM      5  O   UNL     1      -0.608  -4.008   1.473  1.00  0.00    -0.461 OA
BRANCH   5   6
ATOM      6  C   UNL     1       0.245  -3.237   2.210  1.00  0.00     0.338 C 
ATOM      7  O   UNL     1       0.651  -3.540   3.328  1.00  0.00    -0.249 OA
BRANCH   6   8
ATOM      8  C   UNL     1       0.590  -1.865   1.543  1.00  0.00     0.168 C 
BRANCH   8   9
ATOM      9  C   UNL     1      -0.043  -1.770   0.130  1.00  0.00     0.044 C 
ATOM     10  C   UNL     1       0.029  -0.433  -0.589  1.00  0.00     0.007 C 
ENDBRANCH   8   9
BRANCH   8  11
ATOM     11  O   UNL     1      -0.105  -0.951   2.426  1.00  0.00    -0.378 OA
ATOM     12  H   UNL     1      -1.060  -1.104   2.363  1.00  0.00     0.212 HD
ENDBRANCH   8  11
BRANCH   8  13
ATOM     13  C   UNL     1       2.164  -1.635   1.628  1.00  0.00     0.059 C 
ATOM     14  C   UNL     1       2.898  -2.377   0.490  1.00  0.00     0.016 C 
BRANCH  13  15
ATOM     15  C   UNL     1       2.741  -0.210   1.717  1.00  0.00    -0.038 A 
ATOM     16  C   UNL     1       4.120  -0.036   1.923  1.00  0.00     0.008 A 
ATOM     17  C   UNL     1       1.978   0.956   1.597  1.00  0.00     0.054 A 
ATOM     18  C   UNL     1       4.702   1.237   1.917  1.00  0.00     0.051 A 
ATOM     19  C   UNL     1       2.552   2.239   1.536  1.00  0.00     0.160 A 
ATOM     20  C   UNL     1       3.933   2.383   1.698  1.00  0.00     0.160 A 
BRANCH  19  21
ATOM     21  O   UNL     1       1.761   3.350   1.377  1.00  0.00    -0.493 OA
ATOM     22  C   UNL     1       0.680   3.184   0.461  1.00  0.00     0.278 C 
ENDBRANCH  19  21
BRANCH  20  23
ATOM     23  O   UNL     1       4.676   3.534   1.685  1.00  0.00    -0.493 OA
ATOM     24  C   UNL     1       4.085   4.699   1.130  1.00  0.00     0.278 C 
ENDBRANCH  20  23
ENDBRANCH  13  15
ENDBRANCH   8  13
ENDBRANCH   6   8
ENDBRANCH   5   6
ENDBRANCH   4   5
ENDBRANCH   3   4
ENDBRANCH   2   3
ENDBRANCH   1   2
BRANCH   1  25
ATOM     25  C   UNL     1       0.698  -5.474  -1.408  1.00  0.00     0.188 C 
BRANCH  25  26
ATOM     26  O   UNL     1      -0.690  -5.179  -1.526  1.00  0.00    -0.376 OA
BRANCH  26  27
ATOM     27  C   UNL     1      -1.127  -4.722  -2.811  1.00  0.00     0.202 C 
BRANCH  27  28
ATOM     28  C   UNL     1      -0.686  -5.574  -4.017  1.00  0.00     0.261 C 
BRANCH  28  29
ATOM     29  O   UNL     1       0.739  -5.579  -4.239  1.00  0.00    -0.460 OA
BRANCH  29  30
ATOM     30  C   UNL     1       1.333  -4.370  -4.417  1.00  0.00     0.338 C 
ATOM     31  O   UNL     1       0.772  -3.324  -4.654  1.00  0.00    -0.246 OA
BRANCH  30  32
ATOM     32  C   UNL     1       2.762  -4.488  -4.013  1.00  0.00     0.060 A 
ATOM     33  C   UNL     1       3.347  -3.400  -3.351  1.00  0.00     0.016 A 
ATOM     34  C   UNL     1       3.503  -5.658  -4.215  1.00  0.00     0.016 A 
ATOM     35  C   UNL     1       4.681  -3.460  -2.935  1.00  0.00     0.010 A 
ATOM     36  C   UNL     1       4.841  -5.715  -3.807  1.00  0.00     0.010 A 
ATOM     37  C   UNL     1       5.448  -4.604  -3.195  1.00  0.00    -0.014 A 
BRANCH  37  38
ATOM     38  C   UNL     1       6.925  -4.558  -3.031  1.00  0.00     0.031 A 
ATOM     39  C   UNL     1       7.760  -4.214  -4.237  1.00  0.00     0.074 A 
ATOM     40  C   UNL     1       7.525  -4.789  -1.849  1.00  0.00     0.049 A 
ATOM     41  N   UNL     1       9.060  -4.142  -4.355  1.00  0.00    -0.248 NA
ATOM     42  C   UNL     1       7.024  -3.906  -5.475  1.00  0.00     0.031 C 
ATOM     43  C   UNL     1       6.843  -5.087  -0.592  1.00  0.00     0.029 A 
ATOM     44  N   UNL     1       8.860  -4.813  -1.521  1.00  0.00    -0.354 N 
ATOM     45  C   UNL     1       9.299  -3.783  -5.676  1.00  0.00     0.074 A 
ATOM     46  C   UNL     1       8.012  -3.677  -6.327  1.00  0.00     0.031 C 
ATOM     47  C   UNL     1       7.765  -5.273   0.370  1.00  0.00     0.029 A 
ATOM     48  C   UNL     1       9.104  -5.138  -0.207  1.00  0.00     0.049 A 
ATOM     49  H   UNL     1       9.576  -4.615  -2.167  1.00  0.00     0.167 HD
ATOM     50  C   UNL     1      10.482  -3.553  -6.294  1.00  0.00     0.037 A 
ATOM     51  C   UNL     1      10.270  -5.326   0.446  1.00  0.00     0.037 A 
ATOM     52  C   UNL     1      11.767  -3.663  -5.659  1.00  0.00     0.049 A 
ATOM     53  C   UNL     1      11.579  -5.152  -0.288  1.00  0.00     0.074 A 
ATOM     54  C   UNL     1      13.018  -3.440  -6.209  1.00  0.00     0.029 A 
ATOM     55  N   UNL     1      11.971  -4.037  -4.340  1.00  0.00    -0.354 N 
ATOM     56  N   UNL     1      11.790  -4.790  -1.531  1.00  0.00    -0.248 NA
ATOM     57  C   UNL     1      12.811  -5.418   0.472  1.00  0.00     0.031 C 
ATOM     58  C   UNL     1      13.981  -3.728  -5.237  1.00  0.00     0.029 A 
ATOM     59  C   UNL     1      13.328  -4.078  -4.066  1.00  0.00     0.049 A 
ATOM     60  H   UNL     1      11.258  -4.242  -3.694  1.00  0.00     0.167 HD
ATOM     61  C   UNL     1      13.174  -4.751  -1.690  1.00  0.00     0.074 A 
ATOM     62  C   UNL     1      13.751  -5.122  -0.416  1.00  0.00     0.031 C 
ATOM     63  C   UNL     1      13.899  -4.433  -2.791  1.00  0.00     0.037 A 
BRANCH  50  64
ATOM     64  C   UNL     1      10.438  -3.189  -7.750  1.00  0.00     0.058 A 
ATOM     65  C   UNL     1      10.007  -1.926  -8.183  1.00  0.00     0.135 A 
ATOM     66  C   UNL     1      10.860  -4.110  -8.723  1.00  0.00     0.135 A 
ATOM     67  F   UNL     1       9.572  -1.019  -7.294  1.00  0.00    -0.206 F 
ATOM     68  C   UNL     1       9.972  -1.596  -9.533  1.00  0.00     0.059 A 
ATOM     69  C   UNL     1      10.858  -3.792 -10.076  1.00  0.00     0.059 A 
ATOM     70  F   UNL     1      11.275  -5.334  -8.360  1.00  0.00    -0.206 F 
ATOM     71  C   UNL     1      10.399  -2.537 -10.472  1.00  0.00     0.060 A 
BRANCH  71  72
ATOM     72  S   UNL     1      10.349  -2.094 -12.221  1.00  0.00     0.124 S 
ATOM     73  O   UNL     1       8.915  -2.138 -12.490  1.00  0.00    -0.237 OA
ATOM     74  O   UNL     1      10.953  -0.765 -12.224  1.00  0.00    -0.237 OA
ATOM     75  O   UNL     1      11.140  -3.141 -12.860  1.00  0.00    -0.744 OA
ENDBRANCH  71  72
ENDBRANCH  50  64
BRANCH  51  76
ATOM     76  C   UNL     1      10.272  -5.725   1.881  1.00  0.00     0.058 A 
ATOM     77  C   UNL     1      10.742  -4.855   2.877  1.00  0.00     0.135 A 
ATOM     78  C   UNL     1       9.843  -7.001   2.279  1.00  0.00     0.135 A 
ATOM     79  F   UNL     1      11.181  -3.631   2.544  1.00  0.00    -0.206 F 
ATOM     80  C   UNL     1      10.808  -5.241   4.212  1.00  0.00     0.059 A 
ATOM     81  C   UNL     1       9.874  -7.401   3.612  1.00  0.00     0.059 A 
ATOM     82  F   UNL     1       9.382  -7.870   1.367  1.00  0.00    -0.206 F 
ATOM     83  C   UNL     1      10.371  -6.518   4.569  1.00  0.00     0.060 A 
BRANCH  83  84
ATOM     84  S   UNL     1      10.430  -7.000   6.309  1.00  0.00     0.124 S 
ATOM     85  O   UNL     1      11.860  -7.210   6.508  1.00  0.00    -0.237 OA
ATOM     86  O   UNL     1       9.857  -5.832   6.971  1.00  0.00    -0.237 OA
ATOM     87  O   UNL     1       9.604  -8.203   6.351  1.00  0.00    -0.744 OA
ENDBRANCH  83  84
ENDBRANCH  51  76
BRANCH  63  88
ATOM     88  C   UNL     1      15.400  -4.425  -2.671  1.00  0.00     0.058 A 
ATOM     89  C   UNL     1      16.144  -5.611  -2.583  1.00  0.00     0.135 A 
ATOM     90  C   UNL     1      16.108  -3.212  -2.715  1.00  0.00     0.135 A 
ATOM     91  F   UNL     1      15.519  -6.798  -2.534  1.00  0.00    -0.206 F 
ATOM     92  C   UNL     1      17.535  -5.596  -2.524  1.00  0.00     0.059 A 
ATOM     93  C   UNL     1      17.500  -3.174  -2.685  1.00  0.00     0.059 A 
ATOM     94  F   UNL     1      15.448  -2.047  -2.812  1.00  0.00    -0.206 F 
ATOM     95  C   UNL     1      18.205  -4.371  -2.579  1.00  0.00     0.060 A 
BRANCH  95  96
ATOM     96  S   UNL     1      20.011  -4.366  -2.544  1.00  0.00     0.124 S 
ATOM     97  O   UNL     1      20.279  -4.669  -1.142  1.00  0.00    -0.237 OA
ATOM     98  O   UNL     1      20.346  -5.421  -3.496  1.00  0.00    -0.237 OA
ATOM     99  O   UNL     1      20.355  -3.014  -2.971  1.00  0.00    -0.744 OA
ENDBRANCH  95  96
ENDBRANCH  63  88
ENDBRANCH  37  38
ENDBRANCH  30  32
ENDBRANCH  29  30
ENDBRANCH  28  29
ENDBRANCH  27  28
ENDBRANCH  26  27
ENDBRANCH  25  26
ENDBRANCH   1  25
TORSDOF 26
