REMARK SMILES CCOc1cc2c(cc1/C=C1/C(=O)N(c3cccc(C(=O)OCCOCCOCCOC(=O)c4ccc(-c5c6nc(c(-c7c(F)cc(S(=O)(=O)[O-])cc7F)c7ccc([nH]7)c(-c7c(F)cc(S(=O)(=O)[O-])cc7F)c7nc(c(-c8c(F)cc(S(=O)(=O)[O-])cc8F)c8ccc5[nH]8)C=C7)C=C6)cc4)c3)C(=S)N=C1O)OCO2
REMARK SMILES IDX 26 1 25 2 24 3 23 4 22 5 20 6 21 7 19 8 15 9 16 10 100 11
REMARK SMILES IDX 17 12 18 13 14 14 10 15 11 16 12 17 104 18 13 19 103 20
REMARK SMILES IDX 101 21 102 22 9 23 4 24 5 25 6 26 8 27 7 28 108 29 106 30
REMARK SMILES IDX 107 31 3 32 2 33 1 34 105 35 27 37 28 38 29 39 30 40 31 41
REMARK SMILES IDX 32 42 33 43 34 44 35 45 99 46 36 47 98 48 37 49 38 50 39 51
REMARK SMILES IDX 92 52 40 53 97 54 91 55 93 56 41 57 96 58 90 59 89 60 42 62
REMARK SMILES IDX 76 63 55 64 75 65 56 66 59 67 74 68 94 69 57 70 58 71 73 73
REMARK SMILES IDX 95 74 60 75 43 76 44 77 53 78 45 79 46 80 52 81 54 82 47 83
REMARK SMILES IDX 48 84 49 85 50 86 51 87 77 88 78 89 87 90 79 91 80 92 86 93
REMARK SMILES IDX 88 94 81 95 82 96 83 97 84 98 85 99 61 100 62 101 71 102
REMARK SMILES IDX 63 103 64 104 70 105 72 106 65 107 66 108 67 109 68 110
REMARK SMILES IDX 69 111
REMARK H PARENT 105 36 93 61 59 72
REMARK Flexibility Score: inf
ROOT
ATOM      1  C   UNL     1      -1.084 -12.370  -4.409  1.00  0.00     0.188 C 
ENDROOT
BRANCH   1   2
ATOM      2  O   UNL     1      -2.092 -12.133  -5.387  1.00  0.00    -0.376 OA
BRANCH   2   3
ATOM      3  C   UNL     1      -2.390 -10.805  -5.795  1.00  0.00     0.202 C 
BRANCH   3   4
ATOM      4  C   UNL     1      -2.755  -9.748  -4.741  1.00  0.00     0.261 C 
BRANCH   4   5
ATOM      5  O   UNL     1      -1.867  -9.689  -3.616  1.00  0.00    -0.460 OA
BRANCH   5   6
ATOM      6  C   UNL     1      -2.409 -10.034  -2.420  1.00  0.00     0.338 C 
ATOM      7  O   UNL     1      -3.576 -10.306  -2.191  1.00  0.00    -0.246 OA
BRANCH   6   8
ATOM      8  C   UNL     1      -1.322 -10.224  -1.434  1.00  0.00     0.062 A 
ATOM      9  C   UNL     1       0.798  -9.559  -0.443  1.00  0.00     0.052 A 
ATOM     10  C   UNL     1       0.759 -10.728   0.342  1.00  0.00     0.027 A 
ATOM     11  C   UNL     1      -0.260  -9.316  -1.332  1.00  0.00     0.042 A 
ATOM     12  C   UNL     1      -0.301 -11.633   0.238  1.00  0.00     0.003 A 
ATOM     13  C   UNL     1      -1.347 -11.377  -0.643  1.00  0.00     0.016 A 
BRANCH   9  14
ATOM     14  N   UNL     1       1.879  -8.609  -0.292  1.00  0.00    -0.251 N 
ATOM     15  C   UNL     1       2.403  -4.988  -0.052  1.00  0.00     0.031 C 
ATOM     16  C   UNL     1       2.666  -6.310   0.086  1.00  0.00     0.103 C 
ATOM     17  C   UNL     1       1.527  -7.253  -0.170  1.00  0.00     0.270 C 
ATOM     18  C   UNL     1       3.889  -6.989   0.498  1.00  0.00     0.226 C 
ATOM     19  O   UNL     1       0.377  -6.815  -0.234  1.00  0.00    -0.268 OA
ATOM     20  N   UNL     1       4.155  -8.230   0.357  1.00  0.00    -0.184 NA
ATOM     21  C   UNL     1       3.223  -9.042  -0.247  1.00  0.00     0.210 C 
ATOM     22  S   UNL     1       3.791 -10.484  -0.947  1.00  0.00    -0.038 S 
BRANCH  15  23
ATOM     23  C   UNL     1       3.219  -3.766   0.170  1.00  0.00     0.021 A 
ATOM     24  C   UNL     1       2.600  -2.556   0.599  1.00  0.00     0.130 A 
ATOM     25  C   UNL     1       3.352  -1.445   1.001  1.00  0.00     0.097 A 
ATOM     26  C   UNL     1       4.713  -1.513   0.861  1.00  0.00     0.169 A 
ATOM     27  C   UNL     1       4.604  -3.739  -0.055  1.00  0.00     0.062 A 
ATOM     28  C   UNL     1       5.321  -2.620   0.326  1.00  0.00     0.166 A 
ATOM     29  O   UNL     1       5.598  -0.539   1.199  1.00  0.00    -0.453 OA
ATOM     30  O   UNL     1       6.672  -2.480   0.255  1.00  0.00    -0.454 OA
ATOM     31  C   UNL     1       6.843  -1.190   0.880  1.00  0.00     0.468 C 
BRANCH  24  32
ATOM     32  O   UNL     1       1.231  -2.451   0.698  1.00  0.00    -0.493 OA
BRANCH  32  33
ATOM     33  C   UNL     1       0.669  -1.749  -0.427  1.00  0.00     0.226 C 
ATOM     34  C   UNL     1       0.608  -0.242  -0.206  1.00  0.00     0.049 C 
ENDBRANCH  32  33
ENDBRANCH  24  32
ENDBRANCH  15  23
BRANCH  18  35
ATOM     35  O   UNL     1       4.812  -6.270   1.134  1.00  0.00    -0.493 OA
ATOM     36  H   UNL     1       4.679  -5.353   1.270  1.00  0.00     0.295 HD
ENDBRANCH  18  35
ENDBRANCH   9  14
ENDBRANCH   6   8
ENDBRANCH   5   6
ENDBRANCH   4   5
ENDBRANCH   3   4
ENDBRANCH   2   3
ENDBRANCH   1   2
BRANCH   1  37
ATOM     37  C   UNL     1       0.254 -11.602  -4.474  1.00  0.00     0.188 C 
BRANCH  37  38
ATOM     38  O   UNL     1       0.354 -10.733  -5.585  1.00  0.00    -0.376 OA
BRANCH  38  39
ATOM     39  C   UNL     1       1.214 -11.122  -6.643  1.00  0.00     0.202 C 
BRANCH  39  40
ATOM     40  C   UNL     1       1.053 -12.504  -7.303  1.00  0.00     0.261 C 
BRANCH  40  41
ATOM     41  O   UNL     1       0.779 -13.617  -6.440  1.00  0.00    -0.460 OA
BRANCH  41  42
ATOM     42  C   UNL     1       1.833 -14.191  -5.818  1.00  0.00     0.338 C 
ATOM     43  O   UNL     1       2.996 -13.837  -5.880  1.00  0.00    -0.246 OA
BRANCH  42  44
ATOM     44  C   UNL     1       1.317 -15.238  -4.907  1.00  0.00     0.060 A 
ATOM     45  C   UNL     1       1.535 -15.102  -3.530  1.00  0.00     0.016 A 
ATOM     46  C   UNL     1       0.645 -16.358  -5.407  1.00  0.00     0.016 A 
ATOM     47  C   UNL     1       1.123 -16.111  -2.656  1.00  0.00     0.010 A 
ATOM     48  C   UNL     1       0.245 -17.373  -4.529  1.00  0.00     0.010 A 
ATOM     49  C   UNL     1       0.516 -17.273  -3.153  1.00  0.00    -0.014 A 
BRANCH  49  50
ATOM     50  C   UNL     1       0.348 -18.451  -2.261  1.00  0.00     0.031 A 
ATOM     51  C   UNL     1       1.391 -19.538  -2.302  1.00  0.00     0.074 A 
ATOM     52  C   UNL     1      -0.680 -18.539  -1.397  1.00  0.00     0.049 A 
ATOM     53  N   UNL     1       1.467 -20.645  -1.610  1.00  0.00    -0.248 NA
ATOM     54  C   UNL     1       2.498 -19.348  -3.254  1.00  0.00     0.031 C 
ATOM     55  C   UNL     1      -1.741 -17.545  -1.239  1.00  0.00     0.029 A 
ATOM     56  N   UNL     1      -0.999 -19.518  -0.487  1.00  0.00    -0.354 N 
ATOM     57  C   UNL     1       2.628 -21.280  -2.038  1.00  0.00     0.074 A 
ATOM     58  C   UNL     1       3.203 -20.455  -3.077  1.00  0.00     0.031 C 
ATOM     59  C   UNL     1      -2.596 -17.968  -0.290  1.00  0.00     0.029 A 
ATOM     60  C   UNL     1      -2.159 -19.271   0.209  1.00  0.00     0.049 A 
ATOM     61  H   UNL     1      -0.448 -20.322  -0.347  1.00  0.00     0.167 HD
ATOM     62  C   UNL     1       3.175 -22.438  -1.596  1.00  0.00     0.037 A 
ATOM     63  C   UNL     1      -2.798 -20.017   1.134  1.00  0.00     0.037 A 
ATOM     64  C   UNL     1       2.601 -23.262  -0.564  1.00  0.00     0.049 A 
ATOM     65  C   UNL     1      -2.205 -21.337   1.562  1.00  0.00     0.074 A 
ATOM     66  C   UNL     1       3.090 -24.444  -0.036  1.00  0.00     0.029 A 
ATOM     67  N   UNL     1       1.409 -22.994   0.091  1.00  0.00    -0.354 N 
ATOM     68  N   UNL     1      -1.089 -21.907   1.174  1.00  0.00    -0.248 NA
ATOM     69  C   UNL     1      -2.958 -22.113   2.559  1.00  0.00     0.031 C 
ATOM     70  C   UNL     1       2.168 -24.917   0.904  1.00  0.00     0.029 A 
ATOM     71  C   UNL     1       1.131 -24.002   1.000  1.00  0.00     0.049 A 
ATOM     72  H   UNL     1       0.842 -22.205  -0.067  1.00  0.00     0.167 HD
ATOM     73  C   UNL     1      -0.993 -23.093   1.897  1.00  0.00     0.074 A 
ATOM     74  C   UNL     1      -2.157 -23.151   2.757  1.00  0.00     0.031 C 
ATOM     75  C   UNL     1      -0.029 -24.047   1.854  1.00  0.00     0.037 A 
BRANCH  62  76
ATOM     76  C   UNL     1       4.455 -22.892  -2.243  1.00  0.00     0.058 A 
ATOM     77  C   UNL     1       5.674 -22.237  -2.006  1.00  0.00     0.135 A 
ATOM     78  C   UNL     1       4.468 -24.015  -3.086  1.00  0.00     0.135 A 
ATOM     79  F   UNL     1       5.715 -21.147  -1.223  1.00  0.00    -0.206 F 
ATOM     80  C   UNL     1       6.856 -22.663  -2.602  1.00  0.00     0.059 A 
ATOM     81  C   UNL     1       5.644 -24.475  -3.672  1.00  0.00     0.059 A 
ATOM     82  F   UNL     1       3.330 -24.677  -3.349  1.00  0.00    -0.206 F 
ATOM     83  C   UNL     1       6.831 -23.784  -3.434  1.00  0.00     0.060 A 
BRANCH  83  84
ATOM     84  S   UNL     1       8.375 -24.328  -4.194  1.00  0.00     0.124 S 
ATOM     85  O   UNL     1       8.586 -23.292  -5.201  1.00  0.00    -0.237 OA
ATOM     86  O   UNL     1       9.301 -24.313  -3.066  1.00  0.00    -0.237 OA
ATOM     87  O   UNL     1       8.050 -25.652  -4.716  1.00  0.00    -0.744 OA
ENDBRANCH  83  84
ENDBRANCH  62  76
BRANCH  63  88
ATOM     88  C   UNL     1      -4.082 -19.543   1.720  1.00  0.00     0.058 A 
ATOM     89  C   UNL     1      -4.169 -19.160   3.067  1.00  0.00     0.135 A 
ATOM     90  C   UNL     1      -5.254 -19.484   0.950  1.00  0.00     0.135 A 
ATOM     91  F   UNL     1      -3.080 -19.213   3.850  1.00  0.00    -0.206 F 
ATOM     92  C   UNL     1      -5.373 -18.754   3.635  1.00  0.00     0.059 A 
ATOM     93  C   UNL     1      -6.464 -19.055   1.487  1.00  0.00     0.059 A 
ATOM     94  F   UNL     1      -5.225 -19.834  -0.346  1.00  0.00    -0.206 F 
ATOM     95  C   UNL     1      -6.516 -18.704   2.835  1.00  0.00     0.060 A 
BRANCH  95  96
ATOM     96  S   UNL     1      -8.065 -18.138   3.571  1.00  0.00     0.124 S 
ATOM     97  O   UNL     1      -8.431 -19.282   4.399  1.00  0.00    -0.237 OA
ATOM     98  O   UNL     1      -7.643 -16.939   4.289  1.00  0.00    -0.237 OA
ATOM     99  O   UNL     1      -8.919 -17.898   2.412  1.00  0.00    -0.744 OA
ENDBRANCH  95  96
ENDBRANCH  63  88
BRANCH  75 100
ATOM    100  C   UNL     1      -0.171 -25.223   2.783  1.00  0.00     0.058 A 
ATOM    101  C   UNL     1      -1.136 -26.220   2.571  1.00  0.00     0.135 A 
ATOM    102  C   UNL     1       0.702 -25.379   3.873  1.00  0.00     0.135 A 
ATOM    103  F   UNL     1      -1.998 -26.119   1.547  1.00  0.00    -0.206 F 
ATOM    104  C   UNL     1      -1.248 -27.317   3.421  1.00  0.00     0.059 A 
ATOM    105  C   UNL     1       0.626 -26.482   4.719  1.00  0.00     0.059 A 
ATOM    106  F   UNL     1       1.652 -24.462   4.115  1.00  0.00    -0.206 F 
ATOM    107  C   UNL     1      -0.362 -27.438   4.493  1.00  0.00     0.060 A 
BRANCH 107 108
ATOM    108  S   UNL     1      -0.502 -28.878   5.574  1.00  0.00     0.124 S 
ATOM    109  O   UNL     1      -1.698 -28.553   6.343  1.00  0.00    -0.237 OA
ATOM    110  O   UNL     1      -0.639 -29.974   4.620  1.00  0.00    -0.237 OA
ATOM    111  O   UNL     1       0.750 -28.862   6.325  1.00  0.00    -0.744 OA
ENDBRANCH 107 108
ENDBRANCH  75 100
ENDBRANCH  49  50
ENDBRANCH  42  44
ENDBRANCH  41  42
ENDBRANCH  40  41
ENDBRANCH  39  40
ENDBRANCH  38  39
ENDBRANCH  37  38
ENDBRANCH   1  37
TORSDOF 25
