REMARK SMILES O=C(OCCOCCOCCOC(=O)c1nn(Cc2ccc(F)cc2)c2c1CN(C(=O)[C@H]1CC1(F)F)CC2)c1ccc(-c2c3nc(c(-c4c(F)cc(S(=O)(=O)[O-])cc4F)c4ccc([nH]4)c(-c4c(F)cc(S(=O)(=O)[O-])cc4F)c4nc(c(-c5c(F)cc(S(=O)(=O)[O-])cc5F)c5ccc2[nH]5)C=C4)C=C3)cc1
REMARK SMILES IDX 7 1 6 2 5 3 4 4 3 5 2 6 1 7 39 8 40 9 104 10 41 11 103 12
REMARK SMILES IDX 42 13 43 14 44 15 97 16 45 17 102 18 96 19 98 20 46 21
REMARK SMILES IDX 101 22 95 23 94 24 47 26 81 27 60 28 80 29 61 30 64 31 79 32
REMARK SMILES IDX 99 33 62 34 63 35 78 37 100 38 65 39 48 40 49 41 58 42 50 43
REMARK SMILES IDX 51 44 57 45 59 46 52 47 53 48 54 49 55 50 56 51 82 52 83 53
REMARK SMILES IDX 92 54 84 55 85 56 91 57 93 58 86 59 87 60 88 61 89 62 90 63
REMARK SMILES IDX 66 64 67 65 76 66 68 67 69 68 75 69 77 70 70 71 71 72 72 73
REMARK SMILES IDX 73 74 74 75 8 76 9 77 10 78 11 79 12 80 13 81 14 82 15 83
REMARK SMILES IDX 16 84 27 85 17 86 26 87 28 88 38 89 29 90 37 91 18 92 19 93
REMARK SMILES IDX 20 94 25 95 21 96 24 97 22 98 23 99 30 100 31 101 32 102
REMARK SMILES IDX 33 103 34 104 35 105 36 106
REMARK H PARENT 98 25 64 36
REMARK Flexibility Score: inf
ROOT
ATOM      1  C   UNL     1      -6.462  -1.038   1.661  1.00  0.00     0.188 C 
ENDROOT
BRANCH   1   2
ATOM      2  O   UNL     1      -6.850  -1.912   2.713  1.00  0.00    -0.376 OA
BRANCH   2   3
ATOM      3  C   UNL     1      -5.848  -2.759   3.240  1.00  0.00     0.202 C 
BRANCH   3   4
ATOM      4  C   UNL     1      -4.874  -2.060   4.194  1.00  0.00     0.261 C 
BRANCH   4   5
ATOM      5  O   UNL     1      -4.551  -0.704   3.841  1.00  0.00    -0.460 OA
BRANCH   5   6
ATOM      6  C   UNL     1      -3.530  -0.160   3.154  1.00  0.00     0.338 C 
ATOM      7  O   UNL     1      -3.283   1.033   3.325  1.00  0.00    -0.246 OA
BRANCH   6   8
ATOM      8  C   UNL     1      -2.788  -0.875   2.080  1.00  0.00     0.060 A 
ATOM      9  C   UNL     1      -2.676  -2.259   1.950  1.00  0.00     0.016 A 
ATOM     10  C   UNL     1      -2.101  -0.054   1.162  1.00  0.00     0.016 A 
ATOM     11  C   UNL     1      -1.810  -2.807   1.010  1.00  0.00     0.010 A 
ATOM     12  C   UNL     1      -1.235  -0.597   0.220  1.00  0.00     0.010 A 
ATOM     13  C   UNL     1      -1.040  -1.974   0.197  1.00  0.00    -0.014 A 
BRANCH  13  14
ATOM     14  C   UNL     1       0.034  -2.598  -0.568  1.00  0.00     0.031 A 
ATOM     15  C   UNL     1      -0.341  -3.502  -1.686  1.00  0.00     0.074 A 
ATOM     16  C   UNL     1       1.332  -2.345  -0.305  1.00  0.00     0.049 A 
ATOM     17  N   UNL     1      -0.108  -4.769  -1.812  1.00  0.00    -0.248 NA
ATOM     18  C   UNL     1      -1.115  -2.920  -2.790  1.00  0.00     0.031 C 
ATOM     19  C   UNL     1       1.889  -1.292   0.549  1.00  0.00     0.029 A 
ATOM     20  N   UNL     1       2.438  -2.934  -0.840  1.00  0.00    -0.354 N 
ATOM     21  C   UNL     1      -0.542  -5.117  -3.090  1.00  0.00     0.074 A 
ATOM     22  C   UNL     1      -1.249  -3.968  -3.604  1.00  0.00     0.031 C 
ATOM     23  C   UNL     1       3.212  -1.180   0.303  1.00  0.00     0.029 A 
ATOM     24  C   UNL     1       3.612  -2.234  -0.612  1.00  0.00     0.049 A 
ATOM     25  H   UNL     1       2.406  -3.780  -1.342  1.00  0.00     0.167 HD
ATOM     26  C   UNL     1      -0.158  -6.263  -3.718  1.00  0.00     0.037 A 
ATOM     27  C   UNL     1       4.811  -2.458  -1.200  1.00  0.00     0.037 A 
ATOM     28  C   UNL     1       0.421  -7.219  -2.817  1.00  0.00     0.049 A 
ATOM     29  C   UNL     1       4.818  -3.857  -1.698  1.00  0.00     0.074 A 
ATOM     30  C   UNL     1      -0.031  -7.920  -1.717  1.00  0.00     0.029 A 
ATOM     31  N   UNL     1       1.785  -7.370  -2.819  1.00  0.00    -0.354 N 
ATOM     32  N   UNL     1       4.818  -4.914  -0.933  1.00  0.00    -0.248 NA
ATOM     33  C   UNL     1       4.461  -4.098  -3.088  1.00  0.00     0.031 C 
ATOM     34  C   UNL     1       1.105  -8.061  -0.868  1.00  0.00     0.029 A 
ATOM     35  C   UNL     1       2.183  -7.449  -1.508  1.00  0.00     0.049 A 
ATOM     36  H   UNL     1       2.368  -7.413  -3.611  1.00  0.00     0.167 HD
ATOM     37  C   UNL     1       4.088  -5.863  -1.632  1.00  0.00     0.074 A 
ATOM     38  C   UNL     1       4.003  -5.348  -2.992  1.00  0.00     0.031 C 
ATOM     39  C   UNL     1       3.389  -6.842  -0.985  1.00  0.00     0.037 A 
BRANCH  26  40
ATOM     40  C   UNL     1      -0.068  -6.417  -5.213  1.00  0.00     0.058 A 
ATOM     41  C   UNL     1       0.242  -5.338  -6.068  1.00  0.00     0.135 A 
ATOM     42  C   UNL     1      -0.040  -7.697  -5.802  1.00  0.00     0.135 A 
ATOM     43  F   UNL     1       0.361  -4.086  -5.604  1.00  0.00    -0.206 F 
ATOM     44  C   UNL     1       0.527  -5.508  -7.417  1.00  0.00     0.059 A 
ATOM     45  C   UNL     1       0.293  -7.896  -7.144  1.00  0.00     0.059 A 
ATOM     46  F   UNL     1      -0.285  -8.792  -5.064  1.00  0.00    -0.206 F 
ATOM     47  C   UNL     1       0.574  -6.792  -7.943  1.00  0.00     0.060 A 
BRANCH  47  48
ATOM     48  S   UNL     1       1.112  -6.982  -9.654  1.00  0.00     0.124 S 
ATOM     49  O   UNL     1      -0.050  -6.477 -10.379  1.00  0.00    -0.237 OA
ATOM     50  O   UNL     1       2.302  -6.138  -9.692  1.00  0.00    -0.237 OA
ATOM     51  O   UNL     1       1.357  -8.415  -9.771  1.00  0.00    -0.744 OA
ENDBRANCH  47  48
ENDBRANCH  26  40
BRANCH  27  52
ATOM     52  C   UNL     1       5.792  -1.436  -1.647  1.00  0.00     0.058 A 
ATOM     53  C   UNL     1       5.395  -0.119  -1.961  1.00  0.00     0.135 A 
ATOM     54  C   UNL     1       7.090  -1.805  -2.041  1.00  0.00     0.135 A 
ATOM     55  F   UNL     1       4.158   0.321  -1.691  1.00  0.00    -0.206 F 
ATOM     56  C   UNL     1       6.216   0.763  -2.655  1.00  0.00     0.059 A 
ATOM     57  C   UNL     1       7.927  -0.941  -2.754  1.00  0.00     0.059 A 
ATOM     58  F   UNL     1       7.539  -3.047  -1.803  1.00  0.00    -0.206 F 
ATOM     59  C   UNL     1       7.467   0.333  -3.080  1.00  0.00     0.060 A 
BRANCH  59  60
ATOM     60  S   UNL     1       8.412   1.433  -4.154  1.00  0.00     0.124 S 
ATOM     61  O   UNL     1       7.514   1.575  -5.295  1.00  0.00    -0.237 OA
ATOM     62  O   UNL     1       8.562   2.619  -3.316  1.00  0.00    -0.237 OA
ATOM     63  O   UNL     1       9.640   0.688  -4.411  1.00  0.00    -0.744 OA
ENDBRANCH  59  60
ENDBRANCH  27  52
BRANCH  39  64
ATOM     64  C   UNL     1       3.696  -7.103   0.467  1.00  0.00     0.058 A 
ATOM     65  C   UNL     1       4.074  -8.400   0.847  1.00  0.00     0.135 A 
ATOM     66  C   UNL     1       3.462  -6.174   1.496  1.00  0.00     0.135 A 
ATOM     67  F   UNL     1       4.258  -9.349  -0.086  1.00  0.00    -0.206 F 
ATOM     68  C   UNL     1       4.205  -8.767   2.183  1.00  0.00     0.059 A 
ATOM     69  C   UNL     1       3.620  -6.510   2.842  1.00  0.00     0.059 A 
ATOM     70  F   UNL     1       3.000  -4.945   1.222  1.00  0.00    -0.206 F 
ATOM     71  C   UNL     1       3.971  -7.816   3.176  1.00  0.00     0.060 A 
BRANCH  71  72
ATOM     72  S   UNL     1       4.089  -8.330   4.903  1.00  0.00     0.124 S 
ATOM     73  O   UNL     1       2.914  -9.186   5.040  1.00  0.00    -0.237 OA
ATOM     74  O   UNL     1       5.376  -9.018   4.939  1.00  0.00    -0.237 OA
ATOM     75  O   UNL     1       4.033  -7.074   5.644  1.00  0.00    -0.744 OA
ENDBRANCH  71  72
ENDBRANCH  39  64
ENDBRANCH  13  14
ENDBRANCH   6   8
ENDBRANCH   5   6
ENDBRANCH   4   5
ENDBRANCH   3   4
ENDBRANCH   2   3
ENDBRANCH   1   2
BRANCH   1  76
ATOM     76  C   UNL     1      -6.753   0.441   1.988  1.00  0.00     0.188 C 
BRANCH  76  77
ATOM     77  O   UNL     1      -7.890   0.808   2.764  1.00  0.00    -0.376 OA
BRANCH  77  78
ATOM     78  C   UNL     1      -9.001  -0.061   2.858  1.00  0.00     0.202 C 
BRANCH  78  79
ATOM     79  C   UNL     1      -9.906  -0.136   1.629  1.00  0.00     0.261 C 
BRANCH  79  80
ATOM     80  O   UNL     1      -9.252  -0.503   0.408  1.00  0.00    -0.458 OA
BRANCH  80  81
ATOM     81  C   UNL     1      -8.899   0.524  -0.427  1.00  0.00     0.359 C 
ATOM     82  O   UNL     1      -9.009   1.712  -0.163  1.00  0.00    -0.244 OA
BRANCH  81  83
ATOM     83  C   UNL     1      -8.325   0.032  -1.685  1.00  0.00     0.175 A 
ATOM     84  N   UNL     1      -9.077  -0.681  -2.548  1.00  0.00    -0.165 NA
ATOM     85  C   UNL     1      -7.010   0.226  -2.200  1.00  0.00     0.028 A 
ATOM     86  N   UNL     1      -8.262  -0.936  -3.595  1.00  0.00    -0.264 N 
ATOM     87  C   UNL     1      -7.003  -0.456  -3.401  1.00  0.00     0.046 A 
ATOM     88  C   UNL     1      -5.816   0.939  -1.650  1.00  0.00     0.159 C 
ATOM     89  C   UNL     1      -5.828  -0.573  -4.304  1.00  0.00     0.078 C 
ATOM     90  N   UNL     1      -4.742   0.962  -2.666  1.00  0.00    -0.337 N 
ATOM     91  C   UNL     1      -4.563  -0.258  -3.481  1.00  0.00     0.126 C 
BRANCH  86  92
ATOM     92  C   UNL     1      -8.817  -1.517  -4.811  1.00  0.00     0.180 C 
BRANCH  92  93
ATOM     93  C   UNL     1      -9.078  -2.997  -4.682  1.00  0.00    -0.026 A 
ATOM     94  C   UNL     1     -10.145  -3.461  -3.893  1.00  0.00     0.008 A 
ATOM     95  C   UNL     1      -8.279  -3.928  -5.364  1.00  0.00     0.008 A 
ATOM     96  C   UNL     1     -10.414  -4.825  -3.795  1.00  0.00     0.039 A 
ATOM     97  C   UNL     1      -8.553  -5.294  -5.267  1.00  0.00     0.039 A 
ATOM     98  C   UNL     1      -9.618  -5.729  -4.486  1.00  0.00     0.123 A 
ATOM     99  F   UNL     1      -9.886  -7.039  -4.403  1.00  0.00    -0.207 F 
ENDBRANCH  92  93
ENDBRANCH  86  92
BRANCH  90 100
ATOM    100  C   UNL     1      -3.911   2.073  -2.717  1.00  0.00     0.232 C 
ATOM    101  O   UNL     1      -3.987   3.003  -1.925  1.00  0.00    -0.274 OA
BRANCH 100 102
ATOM    102  C   UNL     1      -2.872   2.096  -3.769  1.00  0.00     0.154 C 
ATOM    103  C   UNL     1      -3.261   2.299  -5.226  1.00  0.00     0.097 C 
ATOM    104  C   UNL     1      -2.556   3.363  -4.473  1.00  0.00     0.260 C 
ATOM    105  F   UNL     1      -3.212   4.548  -4.240  1.00  0.00    -0.206 F 
ATOM    106  F   UNL     1      -1.262   3.674  -4.826  1.00  0.00    -0.206 F 
ENDBRANCH 100 102
ENDBRANCH  90 100
ENDBRANCH  81  83
ENDBRANCH  80  81
ENDBRANCH  79  80
ENDBRANCH  78  79
ENDBRANCH  77  78
ENDBRANCH  76  77
ENDBRANCH   1  76
TORSDOF 24
