REMARK SMILES COc1ccc(/C=C2/SC(=S)N(CC(=O)OCCOCCOCCOC(=O)c3ccc(-c4c5nc(c(-c6c(F)cc(S(=O)(=O)[O-])cc6F)c6ccc([nH]6)c(-c6c(F)cc(S(=O)(=O)[O-])cc6F)c6nc(c(-c7c(F)cc(S(=O)(=O)[O-])cc7F)c7ccc4[nH]7)C=C6)C=C5)cc3)C2=O)cc1[N+](=O)[O-]
REMARK SMILES IDX 20 1 19 2 18 3 17 4 16 5 14 6 15 7 13 8 12 9 7 10 8 11 9 12
REMARK SMILES IDX 94 13 10 14 95 15 11 16 6 17 3 18 4 19 97 20 5 21 96 22 2 23
REMARK SMILES IDX 1 24 98 25 99 26 100 27 21 28 22 29 23 30 24 31 25 32 26 33
REMARK SMILES IDX 27 34 28 35 29 36 93 37 30 38 92 39 31 40 32 41 33 42 86 43
REMARK SMILES IDX 34 44 91 45 85 46 87 47 35 48 90 49 84 50 83 51 36 53 70 54
REMARK SMILES IDX 49 55 69 56 50 57 53 58 68 59 88 60 51 61 52 62 67 64 89 65
REMARK SMILES IDX 54 66 37 67 38 68 47 69 39 70 40 71 46 72 48 73 41 74 42 75
REMARK SMILES IDX 43 76 44 77 45 78 71 79 72 80 81 81 73 82 74 83 80 84 82 85
REMARK SMILES IDX 75 86 76 87 77 88 78 89 79 90 55 91 56 92 65 93 57 94 58 95
REMARK SMILES IDX 64 96 66 97 59 98 60 99 61 100 62 101 63 102
REMARK H PARENT 87 52 53 63
REMARK Flexibility Score: inf
ROOT
ATOM      1  C   UNL     1       6.126  -3.544  -3.051  1.00  0.00     0.188 C 
ENDROOT
BRANCH   1   2
ATOM      2  O   UNL     1       7.430  -3.682  -2.489  1.00  0.00    -0.376 OA
BRANCH   2   3
ATOM      3  C   UNL     1       8.546  -3.308  -3.286  1.00  0.00     0.202 C 
BRANCH   3   4
ATOM      4  C   UNL     1       8.726  -4.103  -4.586  1.00  0.00     0.261 C 
BRANCH   4   5
ATOM      5  O   UNL     1       7.540  -4.129  -5.428  1.00  0.00    -0.462 OA
BRANCH   5   6
ATOM      6  C   UNL     1       6.986  -5.345  -5.671  1.00  0.00     0.326 C 
ATOM      7  O   UNL     1       7.546  -6.405  -5.405  1.00  0.00    -0.250 OA
BRANCH   6   8
ATOM      8  C   UNL     1       5.529  -5.324  -6.208  1.00  0.00     0.250 C 
BRANCH   8   9
ATOM      9  N   UNL     1       4.805  -4.112  -6.676  1.00  0.00    -0.282 N 
ATOM     10  C   UNL     1       2.140  -1.531  -6.342  1.00  0.00     0.029 C 
ATOM     11  C   UNL     1       3.050  -2.463  -6.709  1.00  0.00     0.081 C 
ATOM     12  S   UNL     1       3.841  -2.312  -8.254  1.00  0.00    -0.054 SA
ATOM     13  C   UNL     1       3.645  -3.668  -6.033  1.00  0.00     0.266 C 
ATOM     14  C   UNL     1       5.052  -3.536  -7.901  1.00  0.00     0.148 C 
ATOM     15  O   UNL     1       3.112  -4.242  -5.092  1.00  0.00    -0.268 OA
ATOM     16  S   UNL     1       6.280  -3.892  -8.972  1.00  0.00    -0.052 S 
BRANCH  10  17
ATOM     17  C   UNL     1       1.415  -1.236  -5.084  1.00  0.00    -0.017 A 
ATOM     18  C   UNL     1       0.165  -0.570  -2.565  1.00  0.00     0.196 A 
ATOM     19  C   UNL     1      -0.223  -1.683  -3.338  1.00  0.00     0.054 A 
ATOM     20  C   UNL     1       1.141   0.253  -3.126  1.00  0.00     0.311 A 
ATOM     21  C   UNL     1       0.403  -2.032  -4.557  1.00  0.00     0.012 A 
ATOM     22  C   UNL     1       1.715  -0.042  -4.399  1.00  0.00     0.098 A 
BRANCH  18  23
ATOM     23  O   UNL     1      -0.549  -0.486  -1.405  1.00  0.00    -0.490 OA
ATOM     24  C   UNL     1      -0.106   0.251  -0.274  1.00  0.00     0.278 C 
ENDBRANCH  18  23
BRANCH  20  25
ATOM     25  N   UNL     1       1.753   1.364  -2.419  1.00  0.00     0.066 N 
ATOM     26  O   UNL     1       1.807   2.452  -3.009  1.00  0.00    -0.258 OA
ATOM     27  O   UNL     1       2.272   1.146  -1.314  1.00  0.00    -0.258 OA
ENDBRANCH  20  25
ENDBRANCH  10  17
ENDBRANCH   8   9
ENDBRANCH   6   8
ENDBRANCH   5   6
ENDBRANCH   4   5
ENDBRANCH   3   4
ENDBRANCH   2   3
ENDBRANCH   1   2
BRANCH   1  28
ATOM     28  C   UNL     1       5.873  -2.340  -3.974  1.00  0.00     0.188 C 
BRANCH  28  29
ATOM     29  O   UNL     1       6.686  -1.252  -3.603  1.00  0.00    -0.376 OA
BRANCH  29  30
ATOM     30  C   UNL     1       6.068  -0.088  -3.138  1.00  0.00     0.202 C 
BRANCH  30  31
ATOM     31  C   UNL     1       5.244  -0.107  -1.837  1.00  0.00     0.261 C 
BRANCH  31  32
ATOM     32  O   UNL     1       4.796  -1.335  -1.223  1.00  0.00    -0.460 OA
BRANCH  32  33
ATOM     33  C   UNL     1       3.672  -1.820  -1.787  1.00  0.00     0.338 C 
ATOM     34  O   UNL     1       3.262  -1.437  -2.869  1.00  0.00    -0.246 OA
BRANCH  33  35
ATOM     35  C   UNL     1       2.940  -2.911  -1.126  1.00  0.00     0.060 A 
ATOM     36  C   UNL     1       2.561  -3.982  -1.946  1.00  0.00     0.016 A 
ATOM     37  C   UNL     1       2.352  -2.755   0.124  1.00  0.00     0.016 A 
ATOM     38  C   UNL     1       1.553  -4.857  -1.566  1.00  0.00     0.010 A 
ATOM     39  C   UNL     1       1.360  -3.662   0.528  1.00  0.00     0.010 A 
ATOM     40  C   UNL     1       0.939  -4.702  -0.323  1.00  0.00    -0.014 A 
BRANCH  40  41
ATOM     41  C   UNL     1      -0.113  -5.662   0.090  1.00  0.00     0.031 A 
ATOM     42  C   UNL     1      -1.552  -5.241   0.180  1.00  0.00     0.074 A 
ATOM     43  C   UNL     1       0.254  -6.927   0.370  1.00  0.00     0.049 A 
ATOM     44  N   UNL     1      -2.585  -5.917   0.611  1.00  0.00    -0.248 NA
ATOM     45  C   UNL     1      -1.876  -3.884  -0.282  1.00  0.00     0.031 C 
ATOM     46  C   UNL     1       1.618  -7.451   0.250  1.00  0.00     0.029 A 
ATOM     47  N   UNL     1      -0.473  -7.995   0.825  1.00  0.00    -0.354 N 
ATOM     48  C   UNL     1      -3.680  -5.068   0.485  1.00  0.00     0.074 A 
ATOM     49  C   UNL     1      -3.183  -3.822  -0.061  1.00  0.00     0.031 C 
ATOM     50  C   UNL     1       1.632  -8.734   0.638  1.00  0.00     0.029 A 
ATOM     51  C   UNL     1       0.297  -9.101   1.094  1.00  0.00     0.049 A 
ATOM     52  H   UNL     1      -1.450  -7.972   0.948  1.00  0.00     0.167 HD
ATOM     53  C   UNL     1      -4.973  -5.309   0.813  1.00  0.00     0.037 A 
ATOM     54  C   UNL     1      -0.026 -10.265   1.687  1.00  0.00     0.037 A 
ATOM     55  C   UNL     1      -5.431  -6.550   1.389  1.00  0.00     0.049 A 
ATOM     56  C   UNL     1      -1.448 -10.477   2.120  1.00  0.00     0.074 A 
ATOM     57  C   UNL     1      -6.711  -6.901   1.783  1.00  0.00     0.029 A 
ATOM     58  N   UNL     1      -4.618  -7.642   1.666  1.00  0.00    -0.354 N 
ATOM     59  N   UNL     1      -2.471  -9.662   2.010  1.00  0.00    -0.248 NA
ATOM     60  C   UNL     1      -1.763 -11.763   2.752  1.00  0.00     0.031 C 
ATOM     61  C   UNL     1      -6.660  -8.180   2.348  1.00  0.00     0.029 A 
ATOM     62  C   UNL     1      -5.362  -8.656   2.247  1.00  0.00     0.049 A 
ATOM     63  H   UNL     1      -3.653  -7.689   1.477  1.00  0.00     0.167 HD
ATOM     64  C   UNL     1      -3.560 -10.348   2.531  1.00  0.00     0.074 A 
ATOM     65  C   UNL     1      -3.069 -11.648   2.948  1.00  0.00     0.031 C 
ATOM     66  C   UNL     1      -4.849  -9.944   2.649  1.00  0.00     0.037 A 
BRANCH  53  67
ATOM     67  C   UNL     1      -5.972  -4.198   0.614  1.00  0.00     0.058 A 
ATOM     68  C   UNL     1      -6.392  -3.792  -0.663  1.00  0.00     0.135 A 
ATOM     69  C   UNL     1      -6.549  -3.553   1.722  1.00  0.00     0.135 A 
ATOM     70  F   UNL     1      -5.867  -4.361  -1.760  1.00  0.00    -0.206 F 
ATOM     71  C   UNL     1      -7.327  -2.773  -0.835  1.00  0.00     0.059 A 
ATOM     72  C   UNL     1      -7.504  -2.549   1.575  1.00  0.00     0.059 A 
ATOM     73  F   UNL     1      -6.186  -3.896   2.968  1.00  0.00    -0.206 F 
ATOM     74  C   UNL     1      -7.877  -2.156   0.291  1.00  0.00     0.060 A 
BRANCH  74  75
ATOM     75  S   UNL     1      -9.084  -0.834   0.052  1.00  0.00     0.124 S 
ATOM     76  O   UNL     1      -8.239   0.243  -0.457  1.00  0.00    -0.237 OA
ATOM     77  O   UNL     1     -10.006  -1.423  -0.913  1.00  0.00    -0.237 OA
ATOM     78  O   UNL     1      -9.629  -0.623   1.389  1.00  0.00    -0.744 OA
ENDBRANCH  74  75
ENDBRANCH  53  67
BRANCH  54  79
ATOM     79  C   UNL     1       1.026 -11.289   1.921  1.00  0.00     0.058 A 
ATOM     80  C   UNL     1       1.028 -12.500   1.215  1.00  0.00     0.135 A 
ATOM     81  C   UNL     1       2.076 -11.059   2.827  1.00  0.00     0.135 A 
ATOM     82  F   UNL     1       0.046 -12.768   0.342  1.00  0.00    -0.206 F 
ATOM     83  C   UNL     1       2.025 -13.451   1.405  1.00  0.00     0.059 A 
ATOM     84  C   UNL     1       3.100 -11.981   3.011  1.00  0.00     0.059 A 
ATOM     85  F   UNL     1       2.131  -9.907   3.514  1.00  0.00    -0.206 F 
ATOM     86  C   UNL     1       3.060 -13.180   2.303  1.00  0.00     0.060 A 
BRANCH  86  87
ATOM     87  S   UNL     1       4.375 -14.401   2.502  1.00  0.00     0.124 S 
ATOM     88  O   UNL     1       3.689 -15.452   3.245  1.00  0.00    -0.237 OA
ATOM     89  O   UNL     1       4.714 -14.715   1.117  1.00  0.00    -0.237 OA
ATOM     90  O   UNL     1       5.402 -13.672   3.241  1.00  0.00    -0.744 OA
ENDBRANCH  86  87
ENDBRANCH  54  79
BRANCH  66  91
ATOM     91  C   UNL     1      -5.827 -10.941   3.206  1.00  0.00     0.058 A 
ATOM     92  C   UNL     1      -5.830 -11.301   4.562  1.00  0.00     0.135 A 
ATOM     93  C   UNL     1      -6.793 -11.522   2.369  1.00  0.00     0.135 A 
ATOM     94  F   UNL     1      -4.921 -10.781   5.402  1.00  0.00    -0.206 F 
ATOM     95  C   UNL     1      -6.739 -12.227   5.064  1.00  0.00     0.059 A 
ATOM     96  C   UNL     1      -7.731 -12.426   2.855  1.00  0.00     0.059 A 
ATOM     97  F   UNL     1      -6.839 -11.204   1.065  1.00  0.00    -0.206 F 
ATOM     98  C   UNL     1      -7.685 -12.784   4.202  1.00  0.00     0.060 A 
BRANCH  98  99
ATOM     99  S   UNL     1      -8.873 -13.968   4.868  1.00  0.00     0.124 S 
ATOM    100  O   UNL     1      -8.038 -15.152   5.047  1.00  0.00    -0.237 OA
ATOM    101  O   UNL     1      -9.313 -13.312   6.095  1.00  0.00    -0.237 OA
ATOM    102  O   UNL     1      -9.883 -14.064   3.819  1.00  0.00    -0.744 OA
ENDBRANCH  98  99
ENDBRANCH  66  91
ENDBRANCH  40  41
ENDBRANCH  33  35
ENDBRANCH  32  33
ENDBRANCH  31  32
ENDBRANCH  30  31
ENDBRANCH  29  30
ENDBRANCH  28  29
ENDBRANCH   1  28
TORSDOF 24
