REMARK SMILES O=C(OCCOCCOCCOC(=O)c1ccccc1C(=O)Nc1ccc(N2C(=O)[C@H]3[C@@H]4CC[C@@H](C4)[C@@H]3C2=O)cc1)c1ccc(-c2c3nc(c(-c4c(F)cc(S(=O)(=O)[O-])cc4F)c4ccc([nH]4)c(-c4c(F)cc(S(=O)(=O)[O-])cc4F)c4nc(c(-c5c(F)cc(S(=O)(=O)[O-])cc5F)c5ccc2[nH]5)C=C4)C=C3)cc1
REMARK SMILES IDX 7 1 6 2 5 3 4 4 3 5 2 6 1 7 42 8 43 9 107 10 44 11 106 12
REMARK SMILES IDX 45 13 46 14 47 15 100 16 48 17 105 18 99 19 101 20 49 21
REMARK SMILES IDX 104 22 98 23 97 24 50 26 84 27 63 28 83 29 64 30 67 31 82 32
REMARK SMILES IDX 102 33 65 34 66 35 81 37 103 38 68 39 51 40 52 41 61 42
REMARK SMILES IDX 53 43 54 44 60 45 62 46 55 47 56 48 57 49 58 50 59 51 85 52
REMARK SMILES IDX 86 53 95 54 87 55 88 56 94 57 96 58 89 59 90 60 91 61 92 62
REMARK SMILES IDX 93 63 69 64 70 65 79 66 71 67 72 68 78 69 80 70 73 71 74 72
REMARK SMILES IDX 75 73 76 74 77 75 8 76 9 77 10 78 11 79 12 80 13 81 14 82
REMARK SMILES IDX 15 83 16 84 20 85 17 86 19 87 18 88 21 89 22 90 23 91 24 93
REMARK SMILES IDX 25 94 41 95 26 96 40 97 27 98 28 99 29 100 38 101 30 102
REMARK SMILES IDX 31 103 37 104 39 105 32 106 35 107 33 108 36 109 34 110
REMARK H PARENT 101 25 67 36 23 92
REMARK Flexibility Score: inf
ROOT
ATOM      1  C   UNL     1       2.139   0.131   0.130  1.00  0.00     0.188 C 
ENDROOT
BRANCH   1   2
ATOM      2  O   UNL     1       3.496  -0.098  -0.257  1.00  0.00    -0.376 OA
BRANCH   2   3
ATOM      3  C   UNL     1       4.557   0.322   0.613  1.00  0.00     0.202 C 
BRANCH   3   4
ATOM      4  C   UNL     1       4.758   1.818   0.828  1.00  0.00     0.261 C 
BRANCH   4   5
ATOM      5  O   UNL     1       3.643   2.652   0.498  1.00  0.00    -0.460 OA
BRANCH   5   6
ATOM      6  C   UNL     1       3.024   2.824  -0.695  1.00  0.00     0.338 C 
ATOM      7  O   UNL     1       1.957   3.437  -0.702  1.00  0.00    -0.246 OA
BRANCH   6   8
ATOM      8  C   UNL     1       3.494   2.210  -1.981  1.00  0.00     0.060 A 
ATOM      9  C   UNL     1       4.704   1.534  -2.141  1.00  0.00     0.016 A 
ATOM     10  C   UNL     1       2.629   2.292  -3.092  1.00  0.00     0.016 A 
ATOM     11  C   UNL     1       5.033   0.902  -3.317  1.00  0.00     0.010 A 
ATOM     12  C   UNL     1       3.013   1.782  -4.334  1.00  0.00     0.010 A 
ATOM     13  C   UNL     1       4.242   1.128  -4.435  1.00  0.00    -0.014 A 
BRANCH  13  14
ATOM     14  C   UNL     1       5.004   1.052  -5.683  1.00  0.00     0.031 A 
ATOM     15  C   UNL     1       5.792   2.285  -6.035  1.00  0.00     0.074 A 
ATOM     16  C   UNL     1       5.242  -0.149  -6.228  1.00  0.00     0.049 A 
ATOM     17  N   UNL     1       6.650   2.476  -6.993  1.00  0.00    -0.248 NA
ATOM     18  C   UNL     1       5.650   3.444  -5.125  1.00  0.00     0.031 C 
ATOM     19  C   UNL     1       4.722  -1.423  -5.719  1.00  0.00     0.029 A 
ATOM     20  N   UNL     1       6.021  -0.503  -7.288  1.00  0.00    -0.354 N 
ATOM     21  C   UNL     1       7.138   3.764  -6.803  1.00  0.00     0.074 A 
ATOM     22  C   UNL     1       6.517   4.306  -5.624  1.00  0.00     0.031 C 
ATOM     23  C   UNL     1       5.178  -2.418  -6.496  1.00  0.00     0.029 A 
ATOM     24  C   UNL     1       5.952  -1.842  -7.585  1.00  0.00     0.049 A 
ATOM     25  H   UNL     1       6.578   0.135  -7.789  1.00  0.00     0.167 HD
ATOM     26  C   UNL     1       8.005   4.442  -7.585  1.00  0.00     0.037 A 
ATOM     27  C   UNL     1       6.414  -2.489  -8.669  1.00  0.00     0.037 A 
ATOM     28  C   UNL     1       8.522   3.870  -8.793  1.00  0.00     0.049 A 
ATOM     29  C   UNL     1       7.192  -1.660  -9.658  1.00  0.00     0.074 A 
ATOM     30  C   UNL     1       9.266   4.462  -9.791  1.00  0.00     0.029 A 
ATOM     31  N   UNL     1       8.304   2.548  -9.171  1.00  0.00    -0.354 N 
ATOM     32  N   UNL     1       7.553  -0.398  -9.562  1.00  0.00    -0.248 NA
ATOM     33  C   UNL     1       7.613  -2.317 -10.896  1.00  0.00     0.031 C 
ATOM     34  C   UNL     1       9.436   3.513 -10.806  1.00  0.00     0.029 A 
ATOM     35  C   UNL     1       8.865   2.310 -10.406  1.00  0.00     0.049 A 
ATOM     36  H   UNL     1       7.819   1.880  -8.634  1.00  0.00     0.167 HD
ATOM     37  C   UNL     1       8.265  -0.112 -10.716  1.00  0.00     0.074 A 
ATOM     38  C   UNL     1       8.289  -1.342 -11.491  1.00  0.00     0.031 C 
ATOM     39  C   UNL     1       8.850   1.048 -11.111  1.00  0.00     0.037 A 
BRANCH  26  40
ATOM     40  C   UNL     1       8.264   5.876  -7.223  1.00  0.00     0.058 A 
ATOM     41  C   UNL     1       9.036   6.246  -6.108  1.00  0.00     0.135 A 
ATOM     42  C   UNL     1       7.628   6.900  -7.943  1.00  0.00     0.135 A 
ATOM     43  F   UNL     1       9.617   5.307  -5.345  1.00  0.00    -0.206 F 
ATOM     44  C   UNL     1       9.147   7.577  -5.709  1.00  0.00     0.059 A 
ATOM     45  C   UNL     1       7.743   8.237  -7.576  1.00  0.00     0.059 A 
ATOM     46  F   UNL     1       6.846   6.600  -8.992  1.00  0.00    -0.206 F 
ATOM     47  C   UNL     1       8.493   8.565  -6.449  1.00  0.00     0.060 A 
BRANCH  47  48
ATOM     48  S   UNL     1       8.627  10.284  -5.911  1.00  0.00     0.124 S 
ATOM     49  O   UNL     1       7.803  10.279  -4.705  1.00  0.00    -0.237 OA
ATOM     50  O   UNL     1      10.063  10.431  -5.696  1.00  0.00    -0.237 OA
ATOM     51  O   UNL     1       8.085  11.036  -7.037  1.00  0.00    -0.744 OA
ENDBRANCH  47  48
ENDBRANCH  26  40
BRANCH  27  52
ATOM     52  C   UNL     1       6.055  -3.913  -8.910  1.00  0.00     0.058 A 
ATOM     53  C   UNL     1       7.024  -4.923  -8.991  1.00  0.00     0.135 A 
ATOM     54  C   UNL     1       4.710  -4.295  -9.077  1.00  0.00     0.135 A 
ATOM     55  F   UNL     1       8.322  -4.619  -8.842  1.00  0.00    -0.206 F 
ATOM     56  C   UNL     1       6.678  -6.249  -9.249  1.00  0.00     0.059 A 
ATOM     57  C   UNL     1       4.339  -5.615  -9.311  1.00  0.00     0.059 A 
ATOM     58  F   UNL     1       3.732  -3.378  -8.999  1.00  0.00    -0.206 F 
ATOM     59  C   UNL     1       5.332  -6.584  -9.412  1.00  0.00     0.060 A 
BRANCH  59  60
ATOM     60  S   UNL     1       4.891  -8.303  -9.752  1.00  0.00     0.124 S 
ATOM     61  O   UNL     1       5.378  -8.465 -11.117  1.00  0.00    -0.237 OA
ATOM     62  O   UNL     1       5.631  -9.021  -8.720  1.00  0.00    -0.237 OA
ATOM     63  O   UNL     1       3.439  -8.313  -9.595  1.00  0.00    -0.744 OA
ENDBRANCH  59  60
ENDBRANCH  27  52
BRANCH  39  64
ATOM     64  C   UNL     1       9.593   1.015 -12.408  1.00  0.00     0.058 A 
ATOM     65  C   UNL     1       8.923   0.990 -13.639  1.00  0.00     0.135 A 
ATOM     66  C   UNL     1      10.993   1.107 -12.408  1.00  0.00     0.135 A 
ATOM     67  F   UNL     1       7.584   0.898 -13.680  1.00  0.00    -0.206 F 
ATOM     68  C   UNL     1       9.623   1.042 -14.835  1.00  0.00     0.059 A 
ATOM     69  C   UNL     1      11.710   1.195 -13.591  1.00  0.00     0.059 A 
ATOM     70  F   UNL     1      11.670   1.150 -11.248  1.00  0.00    -0.206 F 
ATOM     71  C   UNL     1      11.015   1.152 -14.799  1.00  0.00     0.060 A 
BRANCH  71  72
ATOM     72  S   UNL     1      11.908   1.277 -16.359  1.00  0.00     0.124 S 
ATOM     73  O   UNL     1      11.820  -0.092 -16.856  1.00  0.00    -0.237 OA
ATOM     74  O   UNL     1      11.123   2.270 -17.087  1.00  0.00    -0.237 OA
ATOM     75  O   UNL     1      13.240   1.715 -15.953  1.00  0.00    -0.744 OA
ENDBRANCH  71  72
ENDBRANCH  39  64
ENDBRANCH  13  14
ENDBRANCH   6   8
ENDBRANCH   5   6
ENDBRANCH   4   5
ENDBRANCH   3   4
ENDBRANCH   2   3
ENDBRANCH   1   2
BRANCH   1  76
ATOM     76  C   UNL     1       1.245  -1.111   0.113  1.00  0.00     0.188 C 
BRANCH  76  77
ATOM     77  O   UNL     1       1.636  -2.148   0.979  1.00  0.00    -0.376 OA
BRANCH  77  78
ATOM     78  C   UNL     1       3.021  -2.372   1.040  1.00  0.00     0.202 C 
BRANCH  78  79
ATOM     79  C   UNL     1       3.850  -2.741  -0.171  1.00  0.00     0.261 C 
BRANCH  79  80
ATOM     80  O   UNL     1       3.198  -2.827  -1.408  1.00  0.00    -0.460 OA
BRANCH  80  81
ATOM     81  C   UNL     1       2.272  -3.812  -1.454  1.00  0.00     0.339 C 
ATOM     82  O   UNL     1       1.558  -4.294  -0.624  1.00  0.00    -0.246 OA
BRANCH  81  83
ATOM     83  C   UNL     1       2.255  -4.191  -2.833  1.00  0.00     0.072 A 
ATOM     84  C   UNL     1       1.390  -3.396  -3.628  1.00  0.00     0.016 A 
ATOM     85  C   UNL     1       3.131  -5.152  -3.322  1.00  0.00     0.054 A 
ATOM     86  C   UNL     1       1.383  -3.541  -5.001  1.00  0.00     0.001 A 
ATOM     87  C   UNL     1       3.068  -5.283  -4.736  1.00  0.00     0.015 A 
ATOM     88  C   UNL     1       2.219  -4.497  -5.556  1.00  0.00     0.001 A 
BRANCH  85  89
ATOM     89  C   UNL     1       4.279  -5.874  -2.619  1.00  0.00     0.256 C 
ATOM     90  O   UNL     1       5.134  -6.323  -3.405  1.00  0.00    -0.269 OA
ATOM     91  N   UNL     1       4.709  -5.998  -1.294  1.00  0.00    -0.322 N 
ATOM     92  H   UNL     1       5.681  -6.153  -1.308  1.00  0.00     0.170 HD
BRANCH  91  93
ATOM     93  C   UNL     1       4.290  -5.988   0.067  1.00  0.00     0.041 A 
ATOM     94  C   UNL     1       5.237  -5.565   1.034  1.00  0.00     0.028 A 
ATOM     95  C   UNL     1       3.022  -6.258   0.547  1.00  0.00     0.028 A 
ATOM     96  C   UNL     1       4.837  -5.102   2.328  1.00  0.00     0.029 A 
ATOM     97  C   UNL     1       2.634  -5.868   1.874  1.00  0.00     0.029 A 
ATOM     98  C   UNL     1       3.494  -5.152   2.741  1.00  0.00     0.052 A 
BRANCH  98  99
ATOM     99  N   UNL     1       2.928  -4.214   3.731  1.00  0.00    -0.250 N 
ATOM    100  C   UNL     1       1.602  -4.277   4.201  1.00  0.00     0.237 C 
ATOM    101  C   UNL     1       3.467  -2.927   3.998  1.00  0.00     0.237 C 
ATOM    102  O   UNL     1       0.902  -5.249   4.422  1.00  0.00    -0.274 OA
ATOM    103  C   UNL     1       1.147  -2.841   4.248  1.00  0.00     0.095 C 
ATOM    104  C   UNL     1       2.396  -2.163   4.753  1.00  0.00     0.095 C 
ATOM    105  O   UNL     1       4.572  -2.471   3.741  1.00  0.00    -0.274 OA
ATOM    106  C   UNL     1       0.037  -2.005   4.923  1.00  0.00     0.002 C 
ATOM    107  C   UNL     1       1.891  -0.704   4.857  1.00  0.00     0.002 C 
ATOM    108  C   UNL     1      -0.362  -0.954   3.861  1.00  0.00     0.005 C 
ATOM    109  C   UNL     1       0.769  -1.015   5.875  1.00  0.00     0.009 C 
ATOM    110  C   UNL     1       0.974  -0.170   3.708  1.00  0.00     0.005 C 
ENDBRANCH  98  99
ENDBRANCH  91  93
ENDBRANCH  85  89
ENDBRANCH  81  83
ENDBRANCH  80  81
ENDBRANCH  79  80
ENDBRANCH  78  79
ENDBRANCH  77  78
ENDBRANCH  76  77
ENDBRANCH   1  76
TORSDOF 23
