REMARK SMILES O=C(OCCOCCOCCOC(=O)c1ccc([C@@H]2CC(O)=Nc3c2ncn3-c2cccc(Cl)c2)cc1)c1ccc(-c2c3nc(c(-c4c(F)cc(S(=O)(=O)[O-])cc4F)c4ccc([nH]4)c(-c4c(F)cc(S(=O)(=O)[O-])cc4F)c4nc(c(-c5c(F)cc(S(=O)(=O)[O-])cc5F)c5ccc2[nH]5)C=C4)C=C3)cc1
REMARK SMILES IDX 7 1 6 2 5 3 4 4 3 5 2 6 1 7 38 8 39 9 103 10 40 11 102 12
REMARK SMILES IDX 41 13 42 14 43 15 96 16 44 17 101 18 95 19 97 20 45 21
REMARK SMILES IDX 100 22 94 23 93 24 46 26 80 27 59 28 79 29 60 30 63 31 78 32
REMARK SMILES IDX 98 33 61 34 62 35 77 37 99 38 64 39 47 40 48 41 57 42 49 43
REMARK SMILES IDX 50 44 56 45 58 46 51 47 52 48 53 49 54 50 55 51 81 52 82 53
REMARK SMILES IDX 91 54 83 55 84 56 90 57 92 58 85 59 86 60 87 61 88 62 89 63
REMARK SMILES IDX 65 64 66 65 75 66 67 67 68 68 74 69 76 70 69 71 70 72 71 73
REMARK SMILES IDX 72 74 73 75 8 76 9 77 10 78 11 79 12 80 13 81 14 82 15 83
REMARK SMILES IDX 16 84 37 85 17 86 36 87 18 88 19 89 20 90 25 91 21 92 24 93
REMARK SMILES IDX 26 94 23 95 28 96 27 97 22 98 29 100 30 101 35 102 31 103
REMARK SMILES IDX 33 104 32 105 34 106
REMARK H PARENT 97 25 63 36 22 99
REMARK Flexibility Score: inf
ROOT
ATOM      1  C   UNL     1       3.512   1.781  -0.321  1.00  0.00     0.188 C 
ENDROOT
BRANCH   1   2
ATOM      2  O   UNL     1       4.811   1.394  -0.743  1.00  0.00    -0.376 OA
BRANCH   2   3
ATOM      3  C   UNL     1       5.260   0.123  -0.310  1.00  0.00     0.202 C 
BRANCH   3   4
ATOM      4  C   UNL     1       4.655  -1.064  -1.064  1.00  0.00     0.261 C 
BRANCH   4   5
ATOM      5  O   UNL     1       3.249  -0.976  -1.352  1.00  0.00    -0.460 OA
BRANCH   5   6
ATOM      6  C   UNL     1       2.171  -1.342  -0.633  1.00  0.00     0.338 C 
ATOM      7  O   UNL     1       1.103  -1.540  -1.210  1.00  0.00    -0.246 OA
BRANCH   6   8
ATOM      8  C   UNL     1       2.161  -1.313   0.849  1.00  0.00     0.060 A 
ATOM      9  C   UNL     1       3.226  -1.710   1.657  1.00  0.00     0.016 A 
ATOM     10  C   UNL     1       0.936  -0.951   1.446  1.00  0.00     0.016 A 
ATOM     11  C   UNL     1       3.041  -1.855   3.023  1.00  0.00     0.010 A 
ATOM     12  C   UNL     1       0.744  -1.102   2.811  1.00  0.00     0.010 A 
ATOM     13  C   UNL     1       1.777  -1.642   3.572  1.00  0.00    -0.014 A 
BRANCH  13  14
ATOM     14  C   UNL     1       1.540  -2.209   4.893  1.00  0.00     0.031 A 
ATOM     15  C   UNL     1       2.201  -1.559   6.053  1.00  0.00     0.074 A 
ATOM     16  C   UNL     1       0.740  -3.287   5.024  1.00  0.00     0.049 A 
ATOM     17  N   UNL     1       3.051  -2.067   6.888  1.00  0.00    -0.248 NA
ATOM     18  C   UNL     1       1.924  -0.132   6.271  1.00  0.00     0.031 C 
ATOM     19  C   UNL     1      -0.151  -3.872   4.013  1.00  0.00     0.029 A 
ATOM     20  N   UNL     1       0.474  -4.029   6.133  1.00  0.00    -0.354 N 
ATOM     21  C   UNL     1       3.260  -1.090   7.860  1.00  0.00     0.074 A 
ATOM     22  C   UNL     1       2.649   0.117   7.362  1.00  0.00     0.031 C 
ATOM     23  C   UNL     1      -1.020  -4.707   4.618  1.00  0.00     0.029 A 
ATOM     24  C   UNL     1      -0.663  -4.814   6.021  1.00  0.00     0.049 A 
ATOM     25  H   UNL     1       1.037  -4.011   6.941  1.00  0.00     0.167 HD
ATOM     26  C   UNL     1       3.737  -1.382   9.102  1.00  0.00     0.037 A 
ATOM     27  C   UNL     1      -1.329  -5.422   7.032  1.00  0.00     0.037 A 
ATOM     28  C   UNL     1       4.418  -2.648   9.143  1.00  0.00     0.049 A 
ATOM     29  C   UNL     1      -0.382  -5.563   8.167  1.00  0.00     0.074 A 
ATOM     30  C   UNL     1       5.526  -3.178   8.511  1.00  0.00     0.029 A 
ATOM     31  N   UNL     1       3.780  -3.717   9.722  1.00  0.00    -0.354 N 
ATOM     32  N   UNL     1       0.674  -6.330   8.150  1.00  0.00    -0.248 NA
ATOM     33  C   UNL     1      -0.377  -4.527   9.188  1.00  0.00     0.031 C 
ATOM     34  C   UNL     1       5.234  -4.562   8.339  1.00  0.00     0.029 A 
ATOM     35  C   UNL     1       3.975  -4.795   8.895  1.00  0.00     0.049 A 
ATOM     36  H   UNL     1       3.278  -3.712  10.569  1.00  0.00     0.167 HD
ATOM     37  C   UNL     1       1.637  -5.636   8.870  1.00  0.00     0.074 A 
ATOM     38  C   UNL     1       0.901  -4.590   9.572  1.00  0.00     0.031 C 
ATOM     39  C   UNL     1       2.970  -5.800   8.619  1.00  0.00     0.037 A 
BRANCH  26  40
ATOM     40  C   UNL     1       3.297  -0.657  10.351  1.00  0.00     0.058 A 
ATOM     41  C   UNL     1       4.005  -0.829  11.557  1.00  0.00     0.135 A 
ATOM     42  C   UNL     1       2.038  -0.025  10.466  1.00  0.00     0.135 A 
ATOM     43  F   UNL     1       5.204  -1.434  11.565  1.00  0.00    -0.206 F 
ATOM     44  C   UNL     1       3.472  -0.459  12.794  1.00  0.00     0.059 A 
ATOM     45  C   UNL     1       1.513   0.402  11.679  1.00  0.00     0.059 A 
ATOM     46  F   UNL     1       1.216   0.113   9.418  1.00  0.00    -0.206 F 
ATOM     47  C   UNL     1       2.214   0.137  12.844  1.00  0.00     0.060 A 
BRANCH  47  48
ATOM     48  S   UNL     1       1.456   0.485  14.441  1.00  0.00     0.124 S 
ATOM     49  O   UNL     1       1.117  -0.859  14.896  1.00  0.00    -0.237 OA
ATOM     50  O   UNL     1       2.541   1.149  15.157  1.00  0.00    -0.237 OA
ATOM     51  O   UNL     1       0.325   1.341  14.095  1.00  0.00    -0.744 OA
ENDBRANCH  47  48
ENDBRANCH  26  40
BRANCH  27  52
ATOM     52  C   UNL     1      -2.806  -5.502   7.169  1.00  0.00     0.058 A 
ATOM     53  C   UNL     1      -3.412  -6.370   8.090  1.00  0.00     0.135 A 
ATOM     54  C   UNL     1      -3.653  -4.547   6.564  1.00  0.00     0.135 A 
ATOM     55  F   UNL     1      -2.675  -7.284   8.740  1.00  0.00    -0.206 F 
ATOM     56  C   UNL     1      -4.772  -6.281   8.411  1.00  0.00     0.059 A 
ATOM     57  C   UNL     1      -5.011  -4.453   6.851  1.00  0.00     0.059 A 
ATOM     58  F   UNL     1      -3.169  -3.608   5.737  1.00  0.00    -0.206 F 
ATOM     59  C   UNL     1      -5.561  -5.310   7.793  1.00  0.00     0.060 A 
BRANCH  59  60
ATOM     60  S   UNL     1      -7.279  -5.089   8.309  1.00  0.00     0.124 S 
ATOM     61  O   UNL     1      -7.903  -6.308   7.805  1.00  0.00    -0.237 OA
ATOM     62  O   UNL     1      -7.153  -4.988   9.759  1.00  0.00    -0.237 OA
ATOM     63  O   UNL     1      -7.681  -3.858   7.634  1.00  0.00    -0.744 OA
ENDBRANCH  59  60
ENDBRANCH  27  52
BRANCH  39  64
ATOM     64  C   UNL     1       3.392  -6.953   7.745  1.00  0.00     0.058 A 
ATOM     65  C   UNL     1       3.071  -7.047   6.379  1.00  0.00     0.135 A 
ATOM     66  C   UNL     1       4.285  -7.905   8.258  1.00  0.00     0.135 A 
ATOM     67  F   UNL     1       2.318  -6.112   5.785  1.00  0.00    -0.206 F 
ATOM     68  C   UNL     1       3.581  -8.063   5.570  1.00  0.00     0.059 A 
ATOM     69  C   UNL     1       4.831  -8.911   7.461  1.00  0.00     0.059 A 
ATOM     70  F   UNL     1       4.688  -7.829   9.537  1.00  0.00    -0.206 F 
ATOM     71  C   UNL     1       4.465  -8.990   6.119  1.00  0.00     0.060 A 
BRANCH  71  72
ATOM     72  S   UNL     1       5.206 -10.236   5.040  1.00  0.00     0.124 S 
ATOM     73  O   UNL     1       4.095 -11.156   4.824  1.00  0.00    -0.237 OA
ATOM     74  O   UNL     1       5.612  -9.449   3.878  1.00  0.00    -0.237 OA
ATOM     75  O   UNL     1       6.310 -10.764   5.837  1.00  0.00    -0.744 OA
ENDBRANCH  71  72
ENDBRANCH  39  64
ENDBRANCH  13  14
ENDBRANCH   6   8
ENDBRANCH   5   6
ENDBRANCH   4   5
ENDBRANCH   3   4
ENDBRANCH   2   3
ENDBRANCH   1   2
BRANCH   1  76
ATOM     76  C   UNL     1       2.503   1.990  -1.472  1.00  0.00     0.188 C 
BRANCH  76  77
ATOM     77  O   UNL     1       2.910   2.314  -2.798  1.00  0.00    -0.376 OA
BRANCH  77  78
ATOM     78  C   UNL     1       4.209   2.815  -3.042  1.00  0.00     0.202 C 
BRANCH  78  79
ATOM     79  C   UNL     1       4.502   4.242  -2.566  1.00  0.00     0.261 C 
BRANCH  79  80
ATOM     80  O   UNL     1       4.065   4.553  -1.233  1.00  0.00    -0.460 OA
BRANCH  80  81
ATOM     81  C   UNL     1       2.915   5.265  -1.153  1.00  0.00     0.338 C 
ATOM     82  O   UNL     1       2.234   5.684  -2.071  1.00  0.00    -0.246 OA
BRANCH  81  83
ATOM     83  C   UNL     1       2.520   5.436   0.259  1.00  0.00     0.060 A 
ATOM     84  C   UNL     1       1.329   4.850   0.694  1.00  0.00     0.016 A 
ATOM     85  C   UNL     1       3.240   6.280   1.105  1.00  0.00     0.016 A 
ATOM     86  C   UNL     1       0.846   5.121   1.972  1.00  0.00     0.005 A 
ATOM     87  C   UNL     1       2.727   6.587   2.372  1.00  0.00     0.005 A 
ATOM     88  C   UNL     1       1.514   6.026   2.815  1.00  0.00    -0.038 A 
BRANCH  88  89
ATOM     89  C   UNL     1       0.787   6.470   4.076  1.00  0.00     0.081 C 
ATOM     90  C   UNL     1       0.106   7.838   3.855  1.00  0.00     0.111 C 
ATOM     91  C   UNL     1       1.750   6.528   5.198  1.00  0.00     0.093 A 
ATOM     92  C   UNL     1       0.837   9.013   4.486  1.00  0.00     0.188 C 
ATOM     93  C   UNL     1       2.067   7.721   5.811  1.00  0.00     0.164 A 
ATOM     94  N   UNL     1       2.424   5.476   5.744  1.00  0.00    -0.238 NA
ATOM     95  N   UNL     1       1.705   8.976   5.446  1.00  0.00    -0.198 NA
ATOM     96  N   UNL     1       2.962   7.384   6.811  1.00  0.00    -0.283 N 
ATOM     97  C   UNL     1       3.167   6.023   6.686  1.00  0.00     0.206 A 
BRANCH  92  98
ATOM     98  O   UNL     1       0.467  10.216   4.004  1.00  0.00    -0.496 OA
ATOM     99  H   UNL     1      -0.160  10.270   3.309  1.00  0.00     0.294 HD
ENDBRANCH  92  98
BRANCH  96 100
ATOM    100  C   UNL     1       3.555   8.244   7.766  1.00  0.00     0.050 A 
ATOM    101  C   UNL     1       4.869   8.016   8.194  1.00  0.00     0.027 A 
ATOM    102  C   UNL     1       2.819   9.316   8.289  1.00  0.00     0.047 A 
ATOM    103  C   UNL     1       5.455   8.883   9.118  1.00  0.00     0.004 A 
ATOM    104  C   UNL     1       3.401  10.147   9.244  1.00  0.00     0.043 A 
ATOM    105  C   UNL     1       4.719   9.943   9.651  1.00  0.00     0.020 A 
ATOM    106  Cl  UNL     1       2.483  11.426   9.941  1.00  0.00    -0.084 Cl
ENDBRANCH  96 100
ENDBRANCH  88  89
ENDBRANCH  81  83
ENDBRANCH  80  81
ENDBRANCH  79  80
ENDBRANCH  78  79
ENDBRANCH  77  78
ENDBRANCH  76  77
ENDBRANCH   1  76
TORSDOF 23
