REMARK SMILES CC[C@@H](C)[C@@H](C)Nc1cccc(F)c1C(=O)OCCOCCOCCOC(=O)c1ccc(-c2c3nc(c(-c4c(F)cc(S(=O)(=O)[O-])cc4F)c4ccc([nH]4)c(-c4c(F)cc(S(=O)(=O)[O-])cc4F)c4nc(c(-c5c(F)cc(S(=O)(=O)[O-])cc5F)c5ccc2[nH]5)C=C4)C=C3)cc1
REMARK SMILES IDX 21 1 20 2 19 3 18 4 17 5 15 6 16 7 14 8 8 9 9 10 10 11 12 12
REMARK SMILES IDX 11 13 13 14 7 15 5 17 6 18 3 19 4 20 2 21 1 22 22 23 23 24
REMARK SMILES IDX 24 25 25 26 26 27 27 28 28 29 29 30 30 31 94 32 31 33 93 34
REMARK SMILES IDX 32 35 33 36 34 37 87 38 35 39 92 40 86 41 88 42 36 43 91 44
REMARK SMILES IDX 85 45 84 46 37 48 71 49 50 50 70 51 51 52 54 53 69 54 89 55
REMARK SMILES IDX 52 56 53 57 68 59 90 60 55 61 38 62 39 63 48 64 40 65 41 66
REMARK SMILES IDX 47 67 49 68 42 69 43 70 44 71 45 72 46 73 72 74 73 75 82 76
REMARK SMILES IDX 74 77 75 78 81 79 83 80 76 81 77 82 78 83 79 84 80 85 56 86
REMARK SMILES IDX 57 87 66 88 58 89 59 90 65 91 67 92 60 93 61 94 62 95 63 96
REMARK SMILES IDX 64 97
REMARK H PARENT 7 16 88 47 54 58
REMARK Flexibility Score: inf
ROOT
ATOM      1  C   UNL     1       3.255  -3.277  -6.101  1.00  0.00     0.188 C 
ENDROOT
BRANCH   1   2
ATOM      2  O   UNL     1       3.980  -4.430  -5.701  1.00  0.00    -0.376 OA
BRANCH   2   3
ATOM      3  C   UNL     1       3.404  -5.184  -4.642  1.00  0.00     0.202 C 
BRANCH   3   4
ATOM      4  C   UNL     1       2.067  -5.874  -4.950  1.00  0.00     0.261 C 
BRANCH   4   5
ATOM      5  O   UNL     1       1.048  -5.018  -5.493  1.00  0.00    -0.460 OA
BRANCH   5   6
ATOM      6  C   UNL     1       0.410  -4.189  -4.626  1.00  0.00     0.343 C 
ATOM      7  O   UNL     1       0.637  -4.123  -3.441  1.00  0.00    -0.246 OA
BRANCH   6   8
ATOM      8  C   UNL     1      -0.477  -3.283  -5.407  1.00  0.00     0.118 A 
ATOM      9  C   UNL     1      -0.423  -1.874  -5.276  1.00  0.00     0.052 A 
ATOM     10  C   UNL     1      -1.291  -1.112  -6.081  1.00  0.00     0.027 A 
ATOM     11  C   UNL     1      -2.159  -1.707  -7.000  1.00  0.00     0.005 A 
ATOM     12  C   UNL     1      -1.366  -3.868  -6.317  1.00  0.00     0.139 A 
ATOM     13  C   UNL     1      -2.196  -3.089  -7.117  1.00  0.00     0.040 A 
ATOM     14  F   UNL     1      -1.447  -5.202  -6.439  1.00  0.00    -0.206 F 
BRANCH   9  15
ATOM     15  N   UNL     1       0.456  -1.232  -4.407  1.00  0.00    -0.382 N 
ATOM     16  H   UNL     1       1.389  -1.541  -4.361  1.00  0.00     0.160 HD
BRANCH  15  17
ATOM     17  C   UNL     1       0.034  -0.103  -3.552  1.00  0.00     0.079 C 
ATOM     18  C   UNL     1       0.594   1.192  -4.139  1.00  0.00     0.031 C 
BRANCH  17  19
ATOM     19  C   UNL     1       0.556  -0.393  -2.109  1.00  0.00     0.008 C 
ATOM     20  C   UNL     1      -0.148  -1.635  -1.536  1.00  0.00     0.010 C 
BRANCH  19  21
ATOM     21  C   UNL     1       0.389   0.786  -1.131  1.00  0.00     0.002 C 
ATOM     22  C   UNL     1       0.930   0.476   0.262  1.00  0.00     0.004 C 
ENDBRANCH  19  21
ENDBRANCH  17  19
ENDBRANCH  15  17
ENDBRANCH   9  15
ENDBRANCH   6   8
ENDBRANCH   5   6
ENDBRANCH   4   5
ENDBRANCH   3   4
ENDBRANCH   2   3
ENDBRANCH   1   2
BRANCH   1  23
ATOM     23  C   UNL     1       2.522  -3.420  -7.453  1.00  0.00     0.188 C 
BRANCH  23  24
ATOM     24  O   UNL     1       2.703  -4.579  -8.255  1.00  0.00    -0.376 OA
BRANCH  24  25
ATOM     25  C   UNL     1       4.004  -5.127  -8.390  1.00  0.00     0.202 C 
BRANCH  25  26
ATOM     26  C   UNL     1       5.160  -4.232  -8.871  1.00  0.00     0.261 C 
BRANCH  26  27
ATOM     27  O   UNL     1       5.263  -2.940  -8.247  1.00  0.00    -0.460 OA
BRANCH  27  28
ATOM     28  C   UNL     1       4.909  -1.886  -9.026  1.00  0.00     0.338 C 
ATOM     29  O   UNL     1       4.541  -1.923 -10.188  1.00  0.00    -0.246 OA
BRANCH  28  30
ATOM     30  C   UNL     1       4.868  -0.647  -8.220  1.00  0.00     0.060 A 
ATOM     31  C   UNL     1       3.641   0.015  -8.069  1.00  0.00     0.016 A 
ATOM     32  C   UNL     1       6.036  -0.089  -7.696  1.00  0.00     0.016 A 
ATOM     33  C   UNL     1       3.582   1.248  -7.420  1.00  0.00     0.010 A 
ATOM     34  C   UNL     1       5.979   1.164  -7.072  1.00  0.00     0.010 A 
ATOM     35  C   UNL     1       4.759   1.853  -6.961  1.00  0.00    -0.014 A 
BRANCH  35  36
ATOM     36  C   UNL     1       4.721   3.278  -6.542  1.00  0.00     0.031 A 
ATOM     37  C   UNL     1       5.079   4.335  -7.550  1.00  0.00     0.074 A 
ATOM     38  C   UNL     1       4.319   3.632  -5.308  1.00  0.00     0.049 A 
ATOM     39  N   UNL     1       5.122   5.633  -7.406  1.00  0.00    -0.248 NA
ATOM     40  C   UNL     1       5.449   3.866  -8.897  1.00  0.00     0.031 C 
ATOM     41  C   UNL     1       3.933   2.697  -4.256  1.00  0.00     0.029 A 
ATOM     42  N   UNL     1       4.152   4.868  -4.734  1.00  0.00    -0.354 N 
ATOM     43  C   UNL     1       5.545   6.135  -8.630  1.00  0.00     0.074 A 
ATOM     44  C   UNL     1       5.756   5.003  -9.505  1.00  0.00     0.031 C 
ATOM     45  C   UNL     1       3.527   3.392  -3.180  1.00  0.00     0.029 A 
ATOM     46  C   UNL     1       3.679   4.822  -3.443  1.00  0.00     0.049 A 
ATOM     47  H   UNL     1       4.352   5.710  -5.204  1.00  0.00     0.167 HD
ATOM     48  C   UNL     1       5.742   7.425  -8.989  1.00  0.00     0.037 A 
ATOM     49  C   UNL     1       3.413   5.816  -2.571  1.00  0.00     0.037 A 
ATOM     50  C   UNL     1       5.520   8.548  -8.116  1.00  0.00     0.049 A 
ATOM     51  C   UNL     1       3.664   7.245  -2.989  1.00  0.00     0.074 A 
ATOM     52  C   UNL     1       5.695   9.893  -8.390  1.00  0.00     0.029 A 
ATOM     53  N   UNL     1       5.074   8.461  -6.806  1.00  0.00    -0.354 N 
ATOM     54  N   UNL     1       4.073   7.704  -4.149  1.00  0.00    -0.248 NA
ATOM     55  C   UNL     1       3.441   8.289  -1.978  1.00  0.00     0.031 C 
ATOM     56  C   UNL     1       5.401  10.616  -7.231  1.00  0.00     0.029 A 
ATOM     57  C   UNL     1       4.986   9.727  -6.252  1.00  0.00     0.049 A 
ATOM     58  H   UNL     1       4.853   7.623  -6.338  1.00  0.00     0.167 HD
ATOM     59  C   UNL     1       4.146   9.087  -4.008  1.00  0.00     0.074 A 
ATOM     60  C   UNL     1       3.715   9.393  -2.660  1.00  0.00     0.031 C 
ATOM     61  C   UNL     1       4.544  10.018  -4.910  1.00  0.00     0.037 A 
BRANCH  48  62
ATOM     62  C   UNL     1       6.243   7.703 -10.378  1.00  0.00     0.058 A 
ATOM     63  C   UNL     1       7.547   8.184 -10.577  1.00  0.00     0.135 A 
ATOM     64  C   UNL     1       5.413   7.571 -11.502  1.00  0.00     0.135 A 
ATOM     65  F   UNL     1       8.386   8.316  -9.537  1.00  0.00    -0.206 F 
ATOM     66  C   UNL     1       8.001   8.554 -11.837  1.00  0.00     0.059 A 
ATOM     67  C   UNL     1       5.856   7.911 -12.777  1.00  0.00     0.059 A 
ATOM     68  F   UNL     1       4.167   7.089 -11.369  1.00  0.00    -0.206 F 
ATOM     69  C   UNL     1       7.145   8.420 -12.931  1.00  0.00     0.060 A 
BRANCH  69  70
ATOM     70  S   UNL     1       7.751   8.909 -14.560  1.00  0.00     0.124 S 
ATOM     71  O   UNL     1       7.864  10.356 -14.417  1.00  0.00    -0.237 OA
ATOM     72  O   UNL     1       9.012   8.178 -14.648  1.00  0.00    -0.237 OA
ATOM     73  O   UNL     1       6.703   8.445 -15.464  1.00  0.00    -0.744 OA
ENDBRANCH  69  70
ENDBRANCH  48  62
BRANCH  49  74
ATOM     74  C   UNL     1       2.891   5.502  -1.210  1.00  0.00     0.058 A 
ATOM     75  C   UNL     1       3.670   4.811  -0.269  1.00  0.00     0.135 A 
ATOM     76  C   UNL     1       1.598   5.889  -0.822  1.00  0.00     0.135 A 
ATOM     77  F   UNL     1       4.913   4.416  -0.583  1.00  0.00    -0.206 F 
ATOM     78  C   UNL     1       3.180   4.493   0.994  1.00  0.00     0.059 A 
ATOM     79  C   UNL     1       1.097   5.611   0.448  1.00  0.00     0.059 A 
ATOM     80  F   UNL     1       0.818   6.568  -1.677  1.00  0.00    -0.206 F 
ATOM     81  C   UNL     1       1.892   4.899   1.344  1.00  0.00     0.060 A 
BRANCH  81  82
ATOM     82  S   UNL     1       1.288   4.500   3.000  1.00  0.00     0.124 S 
ATOM     83  O   UNL     1       1.122   3.054   2.911  1.00  0.00    -0.237 OA
ATOM     84  O   UNL     1       2.385   4.962   3.844  1.00  0.00    -0.237 OA
ATOM     85  O   UNL     1       0.052   5.269   3.101  1.00  0.00    -0.744 OA
ENDBRANCH  81  82
ENDBRANCH  49  74
BRANCH  61  86
ATOM     86  C   UNL     1       4.521  11.464  -4.493  1.00  0.00     0.058 A 
ATOM     87  C   UNL     1       3.598  12.354  -5.066  1.00  0.00     0.135 A 
ATOM     88  C   UNL     1       5.471  11.989  -3.604  1.00  0.00     0.135 A 
ATOM     89  F   UNL     1       2.672  11.907  -5.929  1.00  0.00    -0.206 F 
ATOM     90  C   UNL     1       3.633  13.717  -4.790  1.00  0.00     0.059 A 
ATOM     91  C   UNL     1       5.507  13.345  -3.291  1.00  0.00     0.059 A 
ATOM     92  F   UNL     1       6.371  11.179  -3.022  1.00  0.00    -0.206 F 
ATOM     93  C   UNL     1       4.595  14.204  -3.904  1.00  0.00     0.060 A 
BRANCH  93  94
ATOM     94  S   UNL     1       4.623  15.975  -3.556  1.00  0.00     0.124 S 
ATOM     95  O   UNL     1       5.095  16.523  -4.823  1.00  0.00    -0.237 OA
ATOM     96  O   UNL     1       3.227  16.246  -3.228  1.00  0.00    -0.237 OA
ATOM     97  O   UNL     1       5.555  16.087  -2.438  1.00  0.00    -0.744 OA
ENDBRANCH  93  94
ENDBRANCH  61  86
ENDBRANCH  35  36
ENDBRANCH  28  30
ENDBRANCH  27  28
ENDBRANCH  26  27
ENDBRANCH  25  26
ENDBRANCH  24  25
ENDBRANCH  23  24
ENDBRANCH   1  23
TORSDOF 24
