REMARK SMILES Cc1ccc(C[N@H+]2CCC[C@@H](C(=O)OCCOCCOCCOC(=O)c3ccc(-c4c5nc(c(-c6c(F)cc(S(=O)(=O)[O-])cc6F)c6ccc([nH]6)c(-c6c(F)cc(S(=O)(=O)[O-])cc6F)c6nc(c(-c7c(F)cc(S(=O)(=O)[O-])cc7F)c7ccc4[nH]7)C=C6)C=C5)cc3)C2)o1
REMARK SMILES IDX 19 1 18 2 17 3 16 4 15 5 14 6 12 7 13 8 11 9 7 10 8 11 92 12
REMARK SMILES IDX 9 14 10 15 6 16 5 17 1 18 2 19 3 20 93 21 4 22 20 23 21 24
REMARK SMILES IDX 22 25 23 26 24 27 25 28 26 29 27 30 91 31 28 32 90 33 29 34
REMARK SMILES IDX 30 35 31 36 84 37 32 38 89 39 83 40 85 41 33 42 88 43 82 44
REMARK SMILES IDX 81 45 34 47 68 48 47 49 67 50 48 51 51 52 66 53 86 54 49 55
REMARK SMILES IDX 50 56 65 58 87 59 52 60 35 61 36 62 45 63 37 64 38 65 44 66
REMARK SMILES IDX 46 67 39 68 40 69 41 70 42 71 43 72 69 73 70 74 79 75 71 76
REMARK SMILES IDX 72 77 78 78 80 79 73 80 74 81 75 82 76 83 77 84 53 85 54 86
REMARK SMILES IDX 63 87 55 88 56 89 62 90 64 91 57 92 58 93 59 94 60 95 61 96
REMARK H PARENT 7 13 85 46 51 57
REMARK Flexibility Score: inf
ROOT
ATOM      1  C   UNL     1       1.245   5.129   4.612  1.00  0.00     0.188 C 
ENDROOT
BRANCH   1   2
ATOM      2  C   UNL     1       2.099   4.335   3.601  1.00  0.00     0.188 C 
BRANCH   2   3
ATOM      3  O   UNL     1       3.158   5.002   2.922  1.00  0.00    -0.376 OA
BRANCH   3   4
ATOM      4  C   UNL     1       2.946   6.335   2.479  1.00  0.00     0.202 C 
BRANCH   4   5
ATOM      5  C   UNL     1       1.696   6.660   1.641  1.00  0.00     0.261 C 
BRANCH   5   6
ATOM      6  O   UNL     1       0.466   5.992   2.016  1.00  0.00    -0.463 OA
BRANCH   6   7
ATOM      7  C   UNL     1      -0.084   5.209   1.049  1.00  0.00     0.314 C 
ATOM      8  O   UNL     1       0.381   5.134  -0.085  1.00  0.00    -0.252 OA
BRANCH   7   9
ATOM      9  C   UNL     1      -1.376   4.479   1.454  1.00  0.00     0.154 C 
ATOM     10  N   UNL     1      -2.586   2.376   0.754  1.00  0.00    -0.328 N 
ATOM     11  C   UNL     1      -2.605   1.855   2.122  1.00  0.00     0.262 C 
ATOM     12  C   UNL     1      -1.430   3.254   0.530  1.00  0.00     0.278 C 
ATOM     13  H   UNL     1      -3.436   2.928   0.644  1.00  0.00     0.348 HD
ATOM     14  C   UNL     1      -2.667   3.015   3.113  1.00  0.00     0.062 C 
ATOM     15  C   UNL     1      -1.512   4.000   2.906  1.00  0.00     0.027 C 
BRANCH  10  16
ATOM     16  C   UNL     1      -2.623   1.296  -0.261  1.00  0.00     0.338 C 
BRANCH  16  17
ATOM     17  C   UNL     1      -1.520   0.287  -0.203  1.00  0.00     0.158 A 
ATOM     18  C   UNL     1       2.037  -0.014  -0.325  1.00  0.00     0.087 C 
ATOM     19  C   UNL     1       0.594  -0.317  -0.244  1.00  0.00     0.101 A 
ATOM     20  C   UNL     1      -0.133  -1.467  -0.034  1.00  0.00     0.046 A 
ATOM     21  O   UNL     1      -0.247   0.742  -0.386  1.00  0.00    -0.460 OA
ATOM     22  C   UNL     1      -1.497  -1.079  -0.011  1.00  0.00     0.052 A 
ENDBRANCH  16  17
ENDBRANCH  10  16
ENDBRANCH   7   9
ENDBRANCH   6   7
ENDBRANCH   5   6
ENDBRANCH   4   5
ENDBRANCH   3   4
ENDBRANCH   2   3
ENDBRANCH   1   2
BRANCH   1  23
ATOM     23  O   UNL     1       1.731   6.432   4.847  1.00  0.00    -0.376 OA
BRANCH  23  24
ATOM     24  C   UNL     1       1.894   6.835   6.187  1.00  0.00     0.202 C 
BRANCH  24  25
ATOM     25  C   UNL     1       2.972   6.096   6.996  1.00  0.00     0.261 C 
BRANCH  25  26
ATOM     26  O   UNL     1       3.060   4.670   6.811  1.00  0.00    -0.460 OA
BRANCH  26  27
ATOM     27  C   UNL     1       2.167   3.904   7.480  1.00  0.00     0.338 C 
ATOM     28  O   UNL     1       1.280   4.306   8.221  1.00  0.00    -0.246 OA
BRANCH  27  29
ATOM     29  C   UNL     1       2.285   2.506   6.998  1.00  0.00     0.060 A 
ATOM     30  C   UNL     1       1.185   1.904   6.367  1.00  0.00     0.016 A 
ATOM     31  C   UNL     1       3.466   1.785   7.177  1.00  0.00     0.016 A 
ATOM     32  C   UNL     1       1.256   0.573   5.939  1.00  0.00     0.010 A 
ATOM     33  C   UNL     1       3.526   0.446   6.769  1.00  0.00     0.010 A 
ATOM     34  C   UNL     1       2.414  -0.179   6.175  1.00  0.00    -0.014 A 
BRANCH  34  35
ATOM     35  C   UNL     1       2.411  -1.656   5.982  1.00  0.00     0.031 A 
ATOM     36  C   UNL     1       2.232  -2.538   7.190  1.00  0.00     0.074 A 
ATOM     37  C   UNL     1       2.575  -2.219   4.770  1.00  0.00     0.049 A 
ATOM     38  N   UNL     1       2.303  -3.840   7.289  1.00  0.00    -0.248 NA
ATOM     39  C   UNL     1       1.942  -1.851   8.459  1.00  0.00     0.031 C 
ATOM     40  C   UNL     1       2.715  -1.491   3.512  1.00  0.00     0.029 A 
ATOM     41  N   UNL     1       2.672  -3.542   4.407  1.00  0.00    -0.354 N 
ATOM     42  C   UNL     1       2.084  -4.130   8.631  1.00  0.00     0.074 A 
ATOM     43  C   UNL     1       1.904  -2.865   9.311  1.00  0.00     0.031 C 
ATOM     44  C   UNL     1       2.904  -2.377   2.519  1.00  0.00     0.029 A 
ATOM     45  C   UNL     1       2.929  -3.731   3.069  1.00  0.00     0.049 A 
ATOM     46  H   UNL     1       2.567  -4.285   5.045  1.00  0.00     0.167 HD
ATOM     47  C   UNL     1       2.036  -5.337   9.242  1.00  0.00     0.037 A 
ATOM     48  C   UNL     1       3.184  -4.857   2.370  1.00  0.00     0.037 A 
ATOM     49  C   UNL     1       2.221  -6.596   8.567  1.00  0.00     0.049 A 
ATOM     50  C   UNL     1       3.200  -6.188   3.082  1.00  0.00     0.074 A 
ATOM     51  C   UNL     1       2.174  -7.872   9.101  1.00  0.00     0.029 A 
ATOM     52  N   UNL     1       2.500  -6.741   7.216  1.00  0.00    -0.354 N 
ATOM     53  N   UNL     1       2.977  -6.449   4.348  1.00  0.00    -0.248 NA
ATOM     54  C   UNL     1       3.504  -7.376   2.270  1.00  0.00     0.031 C 
ATOM     55  C   UNL     1       2.485  -8.784   8.087  1.00  0.00     0.029 A 
ATOM     56  C   UNL     1       2.657  -8.082   6.905  1.00  0.00     0.049 A 
ATOM     57  H   UNL     1       2.575  -6.000   6.572  1.00  0.00     0.167 HD
ATOM     58  C   UNL     1       3.084  -7.832   4.478  1.00  0.00     0.074 A 
ATOM     59  C   UNL     1       3.381  -8.352   3.160  1.00  0.00     0.031 C 
ATOM     60  C   UNL     1       2.946  -8.598   5.589  1.00  0.00     0.037 A 
BRANCH  47  61
ATOM     61  C   UNL     1       1.812  -5.352  10.731  1.00  0.00     0.058 A 
ATOM     62  C   UNL     1       0.580  -4.990  11.301  1.00  0.00     0.135 A 
ATOM     63  C   UNL     1       2.841  -5.752  11.599  1.00  0.00     0.135 A 
ATOM     64  F   UNL     1      -0.433  -4.582  10.521  1.00  0.00    -0.206 F 
ATOM     65  C   UNL     1       0.389  -4.992  12.679  1.00  0.00     0.059 A 
ATOM     66  C   UNL     1       2.662  -5.793  12.978  1.00  0.00     0.059 A 
ATOM     67  F   UNL     1       4.039  -6.108  11.108  1.00  0.00    -0.206 F 
ATOM     68  C   UNL     1       1.437  -5.394  13.509  1.00  0.00     0.060 A 
BRANCH  68  69
ATOM     69  S   UNL     1       1.174  -5.381  15.295  1.00  0.00     0.124 S 
ATOM     70  O   UNL     1       1.143  -3.949  15.574  1.00  0.00    -0.237 OA
ATOM     71  O   UNL     1      -0.100  -6.080  15.427  1.00  0.00    -0.237 OA
ATOM     72  O   UNL     1       2.336  -6.096  15.816  1.00  0.00    -0.744 OA
ENDBRANCH  68  69
ENDBRANCH  47  61
BRANCH  48  73
ATOM     73  C   UNL     1       3.462  -4.781   0.908  1.00  0.00     0.058 A 
ATOM     74  C   UNL     1       2.563  -5.312  -0.030  1.00  0.00     0.135 A 
ATOM     75  C   UNL     1       4.633  -4.180   0.418  1.00  0.00     0.135 A 
ATOM     76  F   UNL     1       1.436  -5.910   0.386  1.00  0.00    -0.206 F 
ATOM     77  C   UNL     1       2.817  -5.260  -1.397  1.00  0.00     0.059 A 
ATOM     78  C   UNL     1       4.895  -4.089  -0.946  1.00  0.00     0.059 A 
ATOM     79  F   UNL     1       5.525  -3.651   1.270  1.00  0.00    -0.206 F 
ATOM     80  C   UNL     1       3.984  -4.640  -1.846  1.00  0.00     0.060 A 
BRANCH  80  81
ATOM     81  S   UNL     1       4.274  -4.525  -3.625  1.00  0.00     0.124 S 
ATOM     82  O   UNL     1       4.579  -5.911  -3.963  1.00  0.00    -0.237 OA
ATOM     83  O   UNL     1       2.994  -4.016  -4.107  1.00  0.00    -0.237 OA
ATOM     84  O   UNL     1       5.391  -3.590  -3.723  1.00  0.00    -0.744 OA
ENDBRANCH  80  81
ENDBRANCH  48  73
BRANCH  60  85
ATOM     85  C   UNL     1       3.070 -10.092   5.432  1.00  0.00     0.058 A 
ATOM     86  C   UNL     1       4.300 -10.715   5.170  1.00  0.00     0.135 A 
ATOM     87  C   UNL     1       1.946 -10.918   5.606  1.00  0.00     0.135 A 
ATOM     88  F   UNL     1       5.407  -9.977   4.989  1.00  0.00    -0.206 F 
ATOM     89  C   UNL     1       4.407 -12.099   5.061  1.00  0.00     0.059 A 
ATOM     90  C   UNL     1       2.036 -12.305   5.533  1.00  0.00     0.059 A 
ATOM     91  F   UNL     1       0.745 -10.379   5.870  1.00  0.00    -0.206 F 
ATOM     92  C   UNL     1       3.269 -12.886   5.248  1.00  0.00     0.060 A 
BRANCH  92  93
ATOM     93  S   UNL     1       3.430 -14.682   5.139  1.00  0.00     0.124 S 
ATOM     94  O   UNL     1       3.630 -14.873   3.706  1.00  0.00    -0.237 OA
ATOM     95  O   UNL     1       4.592 -14.943   5.982  1.00  0.00    -0.237 OA
ATOM     96  O   UNL     1       2.159 -15.171   5.665  1.00  0.00    -0.744 OA
ENDBRANCH  92  93
ENDBRANCH  60  85
ENDBRANCH  34  35
ENDBRANCH  27  29
ENDBRANCH  26  27
ENDBRANCH  25  26
ENDBRANCH  24  25
ENDBRANCH  23  24
ENDBRANCH   1  23
TORSDOF 22
