REMARK SMILES CCCCCCNC(=O)Oc1cccc(-c2ccc([C@@H](C)C(=O)OCCOCCOCCOC(=O)c3ccc(-c4c5nc(c(-c6c(F)cc(S(=O)(=O)[O-])cc6F)c6ccc([nH]6)c(-c6c(F)cc(S(=O)(=O)[O-])cc6F)c6nc(c(-c7c(F)cc(S(=O)(=O)[O-])cc7F)c7ccc4[nH]7)C=C6)C=C5)cc3)cc2C(F)(F)F)c1
REMARK SMILES IDX 25 1 24 2 22 3 23 4 20 5 21 6 19 7 16 8 17 9 103 10 18 11
REMARK SMILES IDX 102 12 15 13 11 14 12 15 108 16 13 17 14 18 10 19 8 20 7 21
REMARK SMILES IDX 9 23 6 24 5 25 4 26 3 27 2 28 1 29 104 30 105 31 106 32
REMARK SMILES IDX 107 33 26 34 27 35 28 36 29 37 30 38 31 39 32 40 33 41 34 42
REMARK SMILES IDX 35 43 36 44 37 45 101 46 38 47 100 48 39 49 40 50 41 51
REMARK SMILES IDX 94 52 42 53 99 54 93 55 95 56 43 57 98 58 92 59 91 60 44 62
REMARK SMILES IDX 78 63 57 64 77 65 58 66 61 67 76 68 96 69 59 70 60 71 75 73
REMARK SMILES IDX 97 74 62 75 45 76 46 77 55 78 47 79 48 80 54 81 56 82 49 83
REMARK SMILES IDX 50 84 51 85 52 86 53 87 79 88 80 89 89 90 81 91 82 92 88 93
REMARK SMILES IDX 90 94 83 95 84 96 85 97 86 98 87 99 63 100 64 101 73 102
REMARK SMILES IDX 65 103 66 104 72 105 74 106 67 107 68 108 69 109 70 110
REMARK SMILES IDX 71 111
REMARK H PARENT 7 22 95 61 61 72
REMARK Flexibility Score: inf
ROOT
ATOM      1  C   UNL     1      -3.231   9.920  12.850  1.00  0.00     0.261 C 
ENDROOT
BRANCH   1   2
ATOM      2  O   UNL     1      -4.071   9.386  11.800  1.00  0.00    -0.463 OA
BRANCH   2   3
ATOM      3  C   UNL     1      -4.870  10.274  11.158  1.00  0.00     0.313 C 
ATOM      4  O   UNL     1      -4.956  11.456  11.487  1.00  0.00    -0.252 OA
BRANCH   3   5
ATOM      5  C   UNL     1      -5.664   9.742   9.960  1.00  0.00     0.126 C 
ATOM      6  C   UNL     1      -7.142  10.069  10.183  1.00  0.00     0.025 C 
BRANCH   5   7
ATOM      7  C   UNL     1      -5.520   8.301   9.467  1.00  0.00    -0.033 A 
ATOM      8  C   UNL     1      -5.289   5.640   8.386  1.00  0.00    -0.006 A 
ATOM      9  C   UNL     1      -5.513   5.886   9.761  1.00  0.00     0.009 A 
ATOM     10  C   UNL     1      -5.182   6.760   7.537  1.00  0.00     0.064 A 
ATOM     11  C   UNL     1      -5.642   7.184  10.291  1.00  0.00     0.005 A 
ATOM     12  C   UNL     1      -5.291   8.064   8.094  1.00  0.00     0.018 A 
BRANCH   8  13
ATOM     13  C   UNL     1      -5.284   4.238   7.903  1.00  0.00    -0.014 A 
ATOM     14  C   UNL     1      -4.316   2.373   6.680  1.00  0.00     0.133 A 
ATOM     15  C   UNL     1      -5.472   1.614   6.860  1.00  0.00     0.047 A 
ATOM     16  C   UNL     1      -4.200   3.666   7.209  1.00  0.00     0.056 A 
ATOM     17  C   UNL     1      -6.532   2.149   7.581  1.00  0.00     0.004 A 
ATOM     18  C   UNL     1      -6.441   3.449   8.086  1.00  0.00     0.009 A 
BRANCH  14  19
ATOM     19  O   UNL     1      -3.372   1.833   5.781  1.00  0.00    -0.410 OA
BRANCH  19  20
ATOM     20  C   UNL     1      -2.022   1.817   6.086  1.00  0.00     0.412 C 
ATOM     21  N   UNL     1      -1.245   1.340   5.066  1.00  0.00    -0.321 N 
ATOM     22  H   UNL     1      -0.272   1.352   5.214  1.00  0.00     0.167 HD
ATOM     23  O   UNL     1      -1.530   2.151   7.163  1.00  0.00    -0.224 OA
BRANCH  21  24
ATOM     24  C   UNL     1      -1.700   0.818   3.788  1.00  0.00     0.119 C 
BRANCH  24  25
ATOM     25  C   UNL     1      -1.090   1.554   2.595  1.00  0.00     0.021 C 
BRANCH  25  26
ATOM     26  C   UNL     1       0.436   1.457   2.478  1.00  0.00     0.002 C 
BRANCH  26  27
ATOM     27  C   UNL     1       1.004   0.040   2.335  1.00  0.00    -0.000 C 
BRANCH  27  28
ATOM     28  C   UNL     1       0.529  -0.742   1.108  1.00  0.00    -0.003 C 
ATOM     29  C   UNL     1       0.938  -0.105  -0.212  1.00  0.00     0.004 C 
ENDBRANCH  27  28
ENDBRANCH  26  27
ENDBRANCH  25  26
ENDBRANCH  24  25
ENDBRANCH  21  24
ENDBRANCH  19  20
ENDBRANCH  14  19
ENDBRANCH   8  13
BRANCH  10  30
ATOM     30  C   UNL     1      -4.947   6.672   6.040  1.00  0.00     0.417 C 
ATOM     31  F   UNL     1      -5.634   7.641   5.362  1.00  0.00    -0.166 F 
ATOM     32  F   UNL     1      -3.638   6.872   5.721  1.00  0.00    -0.166 F 
ATOM     33  F   UNL     1      -5.312   5.508   5.442  1.00  0.00    -0.166 F 
ENDBRANCH  10  30
ENDBRANCH   5   7
ENDBRANCH   3   5
ENDBRANCH   2   3
ENDBRANCH   1   2
BRANCH   1  34
ATOM     34  C   UNL     1      -1.733   9.605  12.714  1.00  0.00     0.202 C 
BRANCH  34  35
ATOM     35  O   UNL     1      -1.062  10.050  11.542  1.00  0.00    -0.376 OA
BRANCH  35  36
ATOM     36  C   UNL     1      -1.560   9.667  10.266  1.00  0.00     0.188 C 
BRANCH  36  37
ATOM     37  C   UNL     1      -2.117   8.249  10.080  1.00  0.00     0.188 C 
BRANCH  37  38
ATOM     38  O   UNL     1      -1.846   7.376  11.156  1.00  0.00    -0.376 OA
BRANCH  38  39
ATOM     39  C   UNL     1      -1.271   6.126  10.829  1.00  0.00     0.202 C 
BRANCH  39  40
ATOM     40  C   UNL     1       0.186   6.205  10.357  1.00  0.00     0.261 C 
BRANCH  40  41
ATOM     41  O   UNL     1       0.453   7.126   9.285  1.00  0.00    -0.460 OA
BRANCH  41  42
ATOM     42  C   UNL     1      -0.050   6.831   8.066  1.00  0.00     0.338 C 
ATOM     43  O   UNL     1      -0.723   5.852   7.766  1.00  0.00    -0.246 OA
BRANCH  42  44
ATOM     44  C   UNL     1       0.146   8.018   7.208  1.00  0.00     0.060 A 
ATOM     45  C   UNL     1      -0.966   8.642   6.622  1.00  0.00     0.016 A 
ATOM     46  C   UNL     1       1.427   8.532   7.011  1.00  0.00     0.016 A 
ATOM     47  C   UNL     1      -0.796   9.771   5.816  1.00  0.00     0.010 A 
ATOM     48  C   UNL     1       1.598   9.645   6.189  1.00  0.00     0.010 A 
ATOM     49  C   UNL     1       0.493  10.255   5.567  1.00  0.00    -0.014 A 
BRANCH  49  50
ATOM     50  C   UNL     1       0.753  11.253   4.501  1.00  0.00     0.031 A 
ATOM     51  C   UNL     1       1.227  10.738   3.171  1.00  0.00     0.074 A 
ATOM     52  C   UNL     1       0.645  12.576   4.721  1.00  0.00     0.049 A 
ATOM     53  N   UNL     1       1.774  11.383   2.177  1.00  0.00    -0.248 NA
ATOM     54  C   UNL     1       1.078   9.289   2.944  1.00  0.00     0.031 C 
ATOM     55  C   UNL     1       0.137  13.196   5.943  1.00  0.00     0.029 A 
ATOM     56  N   UNL     1       1.002  13.639   3.927  1.00  0.00    -0.354 N 
ATOM     57  C   UNL     1       2.049  10.420   1.213  1.00  0.00     0.074 A 
ATOM     58  C   UNL     1       1.631   9.145   1.750  1.00  0.00     0.031 C 
ATOM     59  C   UNL     1       0.256  14.532   5.834  1.00  0.00     0.029 A 
ATOM     60  C   UNL     1       0.898  14.856   4.561  1.00  0.00     0.049 A 
ATOM     61  H   UNL     1       1.303  13.540   2.994  1.00  0.00     0.167 HD
ATOM     62  C   UNL     1       2.601  10.588  -0.011  1.00  0.00     0.037 A 
ATOM     63  C   UNL     1       1.324  16.078   4.177  1.00  0.00     0.037 A 
ATOM     64  C   UNL     1       3.022  11.861  -0.530  1.00  0.00     0.049 A 
ATOM     65  C   UNL     1       2.026  16.231   2.846  1.00  0.00     0.074 A 
ATOM     66  C   UNL     1       3.619  12.139  -1.746  1.00  0.00     0.029 A 
ATOM     67  N   UNL     1       2.884  13.070   0.137  1.00  0.00    -0.354 N 
ATOM     68  N   UNL     1       2.306  15.314   1.949  1.00  0.00    -0.248 NA
ATOM     69  C   UNL     1       2.478  17.581   2.476  1.00  0.00     0.031 C 
ATOM     70  C   UNL     1       3.879  13.511  -1.799  1.00  0.00     0.029 A 
ATOM     71  C   UNL     1       3.389  14.095  -0.642  1.00  0.00     0.049 A 
ATOM     72  H   UNL     1       2.486  13.181   1.030  1.00  0.00     0.167 HD
ATOM     73  C   UNL     1       2.919  15.985   0.894  1.00  0.00     0.074 A 
ATOM     74  C   UNL     1       2.976  17.382   1.263  1.00  0.00     0.031 C 
ATOM     75  C   UNL     1       3.389  15.490  -0.277  1.00  0.00     0.037 A 
BRANCH  62  76
ATOM     76  C   UNL     1       2.793   9.369  -0.866  1.00  0.00     0.058 A 
ATOM     77  C   UNL     1       1.705   8.711  -1.459  1.00  0.00     0.135 A 
ATOM     78  C   UNL     1       4.082   8.884  -1.140  1.00  0.00     0.135 A 
ATOM     79  F   UNL     1       0.450   9.119  -1.211  1.00  0.00    -0.206 F 
ATOM     80  C   UNL     1       1.887   7.607  -2.285  1.00  0.00     0.059 A 
ATOM     81  C   UNL     1       4.289   7.799  -1.985  1.00  0.00     0.059 A 
ATOM     82  F   UNL     1       5.157   9.472  -0.591  1.00  0.00    -0.206 F 
ATOM     83  C   UNL     1       3.184   7.162  -2.547  1.00  0.00     0.060 A 
BRANCH  83  84
ATOM     84  S   UNL     1       3.400   5.746  -3.644  1.00  0.00     0.124 S 
ATOM     85  O   UNL     1       2.893   4.655  -2.816  1.00  0.00    -0.237 OA
ATOM     86  O   UNL     1       2.570   6.110  -4.788  1.00  0.00    -0.237 OA
ATOM     87  O   UNL     1       4.837   5.725  -3.896  1.00  0.00    -0.744 OA
ENDBRANCH  83  84
ENDBRANCH  62  76
BRANCH  63  88
ATOM     88  C   UNL     1       1.155  17.256   5.074  1.00  0.00     0.058 A 
ATOM     89  C   UNL     1       0.324  18.329   4.717  1.00  0.00     0.135 A 
ATOM     90  C   UNL     1       1.861  17.357   6.284  1.00  0.00     0.135 A 
ATOM     91  F   UNL     1      -0.363  18.288   3.565  1.00  0.00    -0.206 F 
ATOM     92  C   UNL     1       0.227  19.473   5.503  1.00  0.00     0.059 A 
ATOM     93  C   UNL     1       1.756  18.477   7.104  1.00  0.00     0.059 A 
ATOM     94  F   UNL     1       2.664  16.358   6.682  1.00  0.00    -0.206 F 
ATOM     95  C   UNL     1       0.952  19.540   6.694  1.00  0.00     0.060 A 
BRANCH  95  96
ATOM     96  S   UNL     1       0.822  21.030   7.706  1.00  0.00     0.124 S 
ATOM     97  O   UNL     1       1.588  21.987   6.917  1.00  0.00    -0.237 OA
ATOM     98  O   UNL     1      -0.621  21.247   7.748  1.00  0.00    -0.237 OA
ATOM     99  O   UNL     1       1.426  20.629   8.973  1.00  0.00    -0.744 OA
ENDBRANCH  95  96
ENDBRANCH  63  88
BRANCH  75 100
ATOM    100  C   UNL     1       3.926  16.457  -1.297  1.00  0.00     0.058 A 
ATOM    101  C   UNL     1       5.185  17.058  -1.163  1.00  0.00     0.135 A 
ATOM    102  C   UNL     1       3.213  16.682  -2.488  1.00  0.00     0.135 A 
ATOM    103  F   UNL     1       5.904  16.881  -0.043  1.00  0.00    -0.206 F 
ATOM    104  C   UNL     1       5.722  17.848  -2.175  1.00  0.00     0.059 A 
ATOM    105  C   UNL     1       3.742  17.445  -3.523  1.00  0.00     0.059 A 
ATOM    106  F   UNL     1       2.007  16.121  -2.669  1.00  0.00    -0.206 F 
ATOM    107  C   UNL     1       4.999  18.024  -3.358  1.00  0.00     0.060 A 
BRANCH 107 108
ATOM    108  S   UNL     1       5.748  18.974  -4.698  1.00  0.00     0.124 S 
ATOM    109  O   UNL     1       5.678  20.333  -4.173  1.00  0.00    -0.237 OA
ATOM    110  O   UNL     1       7.085  18.394  -4.781  1.00  0.00    -0.237 OA
ATOM    111  O   UNL     1       4.880  18.697  -5.839  1.00  0.00    -0.744 OA
ENDBRANCH 107 108
ENDBRANCH  75 100
ENDBRANCH  49  50
ENDBRANCH  42  44
ENDBRANCH  41  42
ENDBRANCH  40  41
ENDBRANCH  39  40
ENDBRANCH  38  39
ENDBRANCH  37  38
ENDBRANCH  36  37
ENDBRANCH  35  36
ENDBRANCH  34  35
ENDBRANCH   1  34
TORSDOF 30
