REMARK SMILES O=C(OCCOCCOCCOC(=O)c1ccn(-c2cc(-c3ccncc3)nc(-c3ccccc3F)n2)n1)c1ccc(-c2c3nc(c(-c4c(F)cc(S(=O)(=O)[O-])cc4F)c4ccc([nH]4)c(-c4c(F)cc(S(=O)(=O)[O-])cc4F)c4nc(c(-c5c(F)cc(S(=O)(=O)[O-])cc5F)c5ccc2[nH]5)C=C4)C=C3)cc1
REMARK SMILES IDX 7 1 6 2 5 3 4 4 3 5 2 6 1 7 39 8 40 9 104 10 41 11 103 12
REMARK SMILES IDX 42 13 43 14 44 15 97 16 45 17 102 18 96 19 98 20 46 21
REMARK SMILES IDX 101 22 95 23 94 24 47 26 81 27 60 28 80 29 61 30 64 31 79 32
REMARK SMILES IDX 99 33 62 34 63 35 78 37 100 38 65 39 48 40 49 41 58 42 50 43
REMARK SMILES IDX 51 44 57 45 59 46 52 47 53 48 54 49 55 50 56 51 82 52 83 53
REMARK SMILES IDX 92 54 84 55 85 56 91 57 93 58 86 59 87 60 88 61 89 62 90 63
REMARK SMILES IDX 66 64 67 65 76 66 68 67 69 68 75 69 77 70 70 71 71 72 72 73
REMARK SMILES IDX 73 74 74 75 8 76 9 77 10 78 11 79 12 80 13 81 14 82 15 83
REMARK SMILES IDX 16 84 38 85 17 86 18 87 19 88 20 89 37 90 21 91 29 92 28 93
REMARK SMILES IDX 22 94 23 95 27 96 24 97 26 98 25 99 30 100 31 101 35 102
REMARK SMILES IDX 32 103 34 104 36 105 33 106
REMARK H PARENT 98 25 64 36
REMARK Flexibility Score: inf
ROOT
ATOM      1  C   UNL     1       3.501  -0.412   1.576  1.00  0.00     0.188 C 
ENDROOT
BRANCH   1   2
ATOM      2  O   UNL     1       4.739   0.235   1.314  1.00  0.00    -0.376 OA
BRANCH   2   3
ATOM      3  C   UNL     1       5.228   0.084  -0.007  1.00  0.00     0.202 C 
BRANCH   3   4
ATOM      4  C   UNL     1       4.644   1.127  -0.958  1.00  0.00     0.261 C 
BRANCH   4   5
ATOM      5  O   UNL     1       3.225   1.352  -0.832  1.00  0.00    -0.460 OA
BRANCH   5   6
ATOM      6  C   UNL     1       2.150   0.719  -1.336  1.00  0.00     0.338 C 
ATOM      7  O   UNL     1       1.056   1.279  -1.276  1.00  0.00    -0.246 OA
BRANCH   6   8
ATOM      8  C   UNL     1       2.179  -0.685  -1.828  1.00  0.00     0.060 A 
ATOM      9  C   UNL     1       3.273  -1.308  -2.428  1.00  0.00     0.016 A 
ATOM     10  C   UNL     1       0.964  -1.394  -1.736  1.00  0.00     0.016 A 
ATOM     11  C   UNL     1       3.138  -2.575  -2.990  1.00  0.00     0.010 A 
ATOM     12  C   UNL     1       0.827  -2.660  -2.296  1.00  0.00     0.010 A 
ATOM     13  C   UNL     1       1.901  -3.225  -2.983  1.00  0.00    -0.014 A 
BRANCH  13  14
ATOM     14  C   UNL     1       1.767  -4.432  -3.805  1.00  0.00     0.031 A 
ATOM     15  C   UNL     1       2.607  -5.626  -3.455  1.00  0.00     0.074 A 
ATOM     16  C   UNL     1       0.891  -4.476  -4.833  1.00  0.00     0.049 A 
ATOM     17  N   UNL     1       3.313  -6.390  -4.229  1.00  0.00    -0.248 NA
ATOM     18  C   UNL     1       2.682  -6.013  -2.039  1.00  0.00     0.031 C 
ATOM     19  C   UNL     1      -0.163  -3.511  -5.174  1.00  0.00     0.029 A 
ATOM     20  N   UNL     1       0.715  -5.459  -5.762  1.00  0.00    -0.354 N 
ATOM     21  C   UNL     1       3.773  -7.448  -3.439  1.00  0.00     0.074 A 
ATOM     22  C   UNL     1       3.361  -7.161  -2.092  1.00  0.00     0.031 C 
ATOM     23  C   UNL     1      -0.987  -4.053  -6.098  1.00  0.00     0.029 A 
ATOM     24  C   UNL     1      -0.441  -5.330  -6.516  1.00  0.00     0.049 A 
ATOM     25  H   UNL     1       1.355  -6.197  -5.886  1.00  0.00     0.167 HD
ATOM     26  C   UNL     1       4.409  -8.539  -3.953  1.00  0.00     0.037 A 
ATOM     27  C   UNL     1      -0.946  -6.227  -7.395  1.00  0.00     0.037 A 
ATOM     28  C   UNL     1       5.052  -8.225  -5.196  1.00  0.00     0.049 A 
ATOM     29  C   UNL     1       0.166  -7.114  -7.812  1.00  0.00     0.074 A 
ATOM     30  C   UNL     1       6.093  -7.391  -5.548  1.00  0.00     0.029 A 
ATOM     31  N   UNL     1       4.452  -8.598  -6.369  1.00  0.00    -0.354 N 
ATOM     32  N   UNL     1       1.193  -6.739  -8.525  1.00  0.00    -0.248 NA
ATOM     33  C   UNL     1       0.309  -8.393  -7.135  1.00  0.00     0.031 C 
ATOM     34  C   UNL     1       5.780  -6.939  -6.859  1.00  0.00     0.029 A 
ATOM     35  C   UNL     1       4.575  -7.540  -7.233  1.00  0.00     0.049 A 
ATOM     36  H   UNL     1       4.016  -9.460  -6.557  1.00  0.00     0.167 HD
ATOM     37  C   UNL     1       2.242  -7.530  -8.083  1.00  0.00     0.074 A 
ATOM     38  C   UNL     1       1.612  -8.605  -7.327  1.00  0.00     0.031 C 
ATOM     39  C   UNL     1       3.537  -7.104  -8.146  1.00  0.00     0.037 A 
BRANCH  26  40
ATOM     40  C   UNL     1       4.290  -9.956  -3.440  1.00  0.00     0.058 A 
ATOM     41  C   UNL     1       3.197 -10.406  -2.671  1.00  0.00     0.135 A 
ATOM     42  C   UNL     1       5.114 -10.972  -3.973  1.00  0.00     0.135 A 
ATOM     43  F   UNL     1       2.337  -9.549  -2.108  1.00  0.00    -0.206 F 
ATOM     44  C   UNL     1       2.895 -11.756  -2.507  1.00  0.00     0.059 A 
ATOM     45  C   UNL     1       4.819 -12.332  -3.841  1.00  0.00     0.059 A 
ATOM     46  F   UNL     1       6.200 -10.663  -4.699  1.00  0.00    -0.206 F 
ATOM     47  C   UNL     1       3.686 -12.711  -3.131  1.00  0.00     0.060 A 
BRANCH  47  48
ATOM     48  S   UNL     1       3.153 -14.434  -3.070  1.00  0.00     0.124 S 
ATOM     49  O   UNL     1       3.159 -14.694  -1.634  1.00  0.00    -0.237 OA
ATOM     50  O   UNL     1       1.839 -14.358  -3.699  1.00  0.00    -0.237 OA
ATOM     51  O   UNL     1       4.178 -15.133  -3.837  1.00  0.00    -0.744 OA
ENDBRANCH  47  48
ENDBRANCH  26  40
BRANCH  27  52
ATOM     52  C   UNL     1      -2.372  -6.551  -7.652  1.00  0.00     0.058 A 
ATOM     53  C   UNL     1      -3.359  -6.358  -6.664  1.00  0.00     0.135 A 
ATOM     54  C   UNL     1      -2.750  -7.317  -8.769  1.00  0.00     0.135 A 
ATOM     55  F   UNL     1      -3.096  -5.677  -5.539  1.00  0.00    -0.206 F 
ATOM     56  C   UNL     1      -4.626  -6.929  -6.754  1.00  0.00     0.059 A 
ATOM     57  C   UNL     1      -4.014  -7.908  -8.877  1.00  0.00     0.059 A 
ATOM     58  F   UNL     1      -1.867  -7.561  -9.750  1.00  0.00    -0.206 F 
ATOM     59  C   UNL     1      -4.935  -7.730  -7.848  1.00  0.00     0.060 A 
BRANCH  59  60
ATOM     60  S   UNL     1      -6.522  -8.592  -7.843  1.00  0.00     0.124 S 
ATOM     61  O   UNL     1      -6.405  -9.433  -6.656  1.00  0.00    -0.237 OA
ATOM     62  O   UNL     1      -7.468  -7.485  -7.742  1.00  0.00    -0.237 OA
ATOM     63  O   UNL     1      -6.529  -9.304  -9.117  1.00  0.00    -0.744 OA
ENDBRANCH  59  60
ENDBRANCH  27  52
BRANCH  39  64
ATOM     64  C   UNL     1       3.871  -5.896  -8.986  1.00  0.00     0.058 A 
ATOM     65  C   UNL     1       4.856  -6.027  -9.978  1.00  0.00     0.135 A 
ATOM     66  C   UNL     1       3.436  -4.594  -8.682  1.00  0.00     0.135 A 
ATOM     67  F   UNL     1       5.354  -7.239 -10.277  1.00  0.00    -0.206 F 
ATOM     68  C   UNL     1       5.415  -4.920 -10.612  1.00  0.00     0.059 A 
ATOM     69  C   UNL     1       3.958  -3.472  -9.330  1.00  0.00     0.059 A 
ATOM     70  F   UNL     1       2.568  -4.373  -7.685  1.00  0.00    -0.206 F 
ATOM     71  C   UNL     1       4.971  -3.644 -10.270  1.00  0.00     0.060 A 
BRANCH  71  72
ATOM     72  S   UNL     1       5.789  -2.219 -11.020  1.00  0.00     0.124 S 
ATOM     73  O   UNL     1       7.098  -2.250 -10.373  1.00  0.00    -0.237 OA
ATOM     74  O   UNL     1       5.781  -2.559 -12.439  1.00  0.00    -0.237 OA
ATOM     75  O   UNL     1       4.938  -1.092 -10.646  1.00  0.00    -0.744 OA
ENDBRANCH  71  72
ENDBRANCH  39  64
ENDBRANCH  13  14
ENDBRANCH   6   8
ENDBRANCH   5   6
ENDBRANCH   4   5
ENDBRANCH   3   4
ENDBRANCH   2   3
ENDBRANCH   1   2
BRANCH   1  76
ATOM     76  C   UNL     1       2.430   0.506   2.206  1.00  0.00     0.188 C 
BRANCH  76  77
ATOM     77  O   UNL     1       2.757   1.627   3.029  1.00  0.00    -0.376 OA
BRANCH  77  78
ATOM     78  C   UNL     1       4.066   1.779   3.542  1.00  0.00     0.202 C 
BRANCH  78  79
ATOM     79  C   UNL     1       4.439   0.814   4.668  1.00  0.00     0.261 C 
BRANCH  79  80
ATOM     80  O   UNL     1       4.095  -0.553   4.393  1.00  0.00    -0.458 OA
BRANCH  80  81
ATOM     81  C   UNL     1       3.030  -1.052   5.087  1.00  0.00     0.358 C 
ATOM     82  O   UNL     1       2.444  -0.456   5.981  1.00  0.00    -0.244 OA
BRANCH  81  83
ATOM     83  C   UNL     1       2.721  -2.453   4.756  1.00  0.00     0.170 A 
ATOM     84  C   UNL     1       2.990  -3.534   5.629  1.00  0.00     0.058 A 
ATOM     85  N   UNL     1       2.041  -2.867   3.655  1.00  0.00    -0.159 NA
ATOM     86  C   UNL     1       2.278  -4.585   5.120  1.00  0.00     0.118 A 
ATOM     87  N   UNL     1       1.648  -4.137   3.978  1.00  0.00    -0.222 N 
BRANCH  87  88
ATOM     88  C   UNL     1       0.595  -4.847   3.325  1.00  0.00     0.158 A 
ATOM     89  C   UNL     1       0.490  -4.867   1.945  1.00  0.00     0.078 A 
ATOM     90  N   UNL     1      -0.241  -5.533   4.147  1.00  0.00    -0.209 NA
ATOM     91  C   UNL     1      -0.500  -5.700   1.444  1.00  0.00     0.077 A 
ATOM     92  C   UNL     1      -1.224  -6.222   3.557  1.00  0.00     0.165 A 
ATOM     93  N   UNL     1      -1.382  -6.337   2.238  1.00  0.00    -0.228 NA
BRANCH  91  94
ATOM     94  C   UNL     1      -0.649  -6.086   0.038  1.00  0.00     0.003 A 
ATOM     95  C   UNL     1       0.056  -7.188  -0.465  1.00  0.00     0.030 A 
ATOM     96  C   UNL     1      -1.617  -5.501  -0.786  1.00  0.00     0.030 A 
ATOM     97  C   UNL     1      -0.206  -7.623  -1.755  1.00  0.00     0.111 A 
ATOM     98  C   UNL     1      -1.804  -6.007  -2.065  1.00  0.00     0.111 A 
ATOM     99  N   UNL     1      -1.108  -7.043  -2.566  1.00  0.00    -0.265 NA
ENDBRANCH  91  94
BRANCH  92 100
ATOM    100  C   UNL     1      -2.274  -6.781   4.388  1.00  0.00     0.055 A 
ATOM    101  C   UNL     1      -3.226  -5.948   5.002  1.00  0.00     0.015 A 
ATOM    102  C   UNL     1      -2.410  -8.163   4.540  1.00  0.00     0.134 A 
ATOM    103  C   UNL     1      -4.289  -6.491   5.728  1.00  0.00     0.001 A 
ATOM    104  C   UNL     1      -3.466  -8.711   5.267  1.00  0.00     0.040 A 
ATOM    105  F   UNL     1      -1.515  -8.996   3.989  1.00  0.00    -0.206 F 
ATOM    106  C   UNL     1      -4.410  -7.873   5.857  1.00  0.00     0.003 A 
ENDBRANCH  92 100
ENDBRANCH  87  88
ENDBRANCH  81  83
ENDBRANCH  80  81
ENDBRANCH  79  80
ENDBRANCH  78  79
ENDBRANCH  77  78
ENDBRANCH  76  77
ENDBRANCH   1  76
TORSDOF 23
