REMARK SMILES O=C(OCCOCCOCCOC(=O)[C@@H]1CS[C@H](c2ncc(-c3ccccc3)s2)[NH2+]1)c1ccc(-c2c3nc(c(-c4c(F)cc(S(=O)(=O)[O-])cc4F)c4ccc([nH]4)c(-c4c(F)cc(S(=O)(=O)[O-])cc4F)c4nc(c(-c5c(F)cc(S(=O)(=O)[O-])cc5F)c5ccc2[nH]5)C=C4)C=C3)cc1
REMARK SMILES IDX 7 1 6 2 5 3 4 4 3 5 2 6 1 7 31 8 32 9 96 10 33 11 95 12
REMARK SMILES IDX 34 13 35 14 36 15 89 16 37 17 94 18 88 19 90 20 38 21 93 22
REMARK SMILES IDX 87 23 86 24 39 26 73 27 52 28 72 29 53 30 56 31 71 32 91 33
REMARK SMILES IDX 54 34 55 35 70 37 92 38 57 39 40 40 41 41 50 42 42 43 43 44
REMARK SMILES IDX 49 45 51 46 44 47 45 48 46 49 47 50 48 51 74 52 75 53 84 54
REMARK SMILES IDX 76 55 77 56 83 57 85 58 78 59 79 60 80 61 81 62 82 63 58 64
REMARK SMILES IDX 59 65 68 66 60 67 61 68 67 69 69 70 62 71 63 72 64 73 65 74
REMARK SMILES IDX 66 75 8 76 9 77 10 78 11 79 12 80 13 81 14 82 15 83 16 84
REMARK SMILES IDX 30 85 17 86 18 87 19 90 20 91 29 92 21 93 22 94 23 95 24 96
REMARK SMILES IDX 28 97 25 98 27 99 26 100
REMARK H PARENT 90 25 56 36 30 88 30 89
REMARK Flexibility Score: inf
ROOT
ATOM      1  C   UNL     1      -1.805   2.559   5.290  1.00  0.00     0.188 C 
ENDROOT
BRANCH   1   2
ATOM      2  O   UNL     1      -1.617   3.493   4.228  1.00  0.00    -0.376 OA
BRANCH   2   3
ATOM      3  C   UNL     1      -2.839   3.967   3.655  1.00  0.00     0.202 C 
BRANCH   3   4
ATOM      4  C   UNL     1      -3.563   2.984   2.716  1.00  0.00     0.261 C 
BRANCH   4   5
ATOM      5  O   UNL     1      -3.402   1.603   3.091  1.00  0.00    -0.460 OA
BRANCH   5   6
ATOM      6  C   UNL     1      -2.563   0.680   2.547  1.00  0.00     0.338 C 
ATOM      7  O   UNL     1      -2.699  -0.500   2.864  1.00  0.00    -0.246 OA
BRANCH   6   8
ATOM      8  C   UNL     1      -1.476   1.034   1.583  1.00  0.00     0.060 A 
ATOM      9  C   UNL     1      -0.899   2.297   1.489  1.00  0.00     0.016 A 
ATOM     10  C   UNL     1      -0.974   0.024   0.745  1.00  0.00     0.016 A 
ATOM     11  C   UNL     1       0.020   2.606   0.503  1.00  0.00     0.010 A 
ATOM     12  C   UNL     1       0.013   0.307  -0.212  1.00  0.00     0.010 A 
ATOM     13  C   UNL     1       0.472   1.619  -0.368  1.00  0.00    -0.014 A 
BRANCH  13  14
ATOM     14  C   UNL     1       1.300   2.071  -1.505  1.00  0.00     0.031 A 
ATOM     15  C   UNL     1       0.664   2.146  -2.862  1.00  0.00     0.074 A 
ATOM     16  C   UNL     1       2.510   2.614  -1.266  1.00  0.00     0.049 A 
ATOM     17  N   UNL     1       1.163   2.590  -3.982  1.00  0.00    -0.248 NA
ATOM     18  C   UNL     1      -0.732   1.683  -2.967  1.00  0.00     0.031 C 
ATOM     19  C   UNL     1       3.147   2.690   0.051  1.00  0.00     0.029 A 
ATOM     20  N   UNL     1       3.394   3.252  -2.093  1.00  0.00    -0.354 N 
ATOM     21  C   UNL     1       0.151   2.453  -4.924  1.00  0.00     0.074 A 
ATOM     22  C   UNL     1      -0.985   1.864  -4.254  1.00  0.00     0.031 C 
ATOM     23  C   UNL     1       4.300   3.368  -0.049  1.00  0.00     0.029 A 
ATOM     24  C   UNL     1       4.518   3.715  -1.447  1.00  0.00     0.049 A 
ATOM     25  H   UNL     1       3.240   3.369  -3.058  1.00  0.00     0.167 HD
ATOM     26  C   UNL     1       0.172   2.797  -6.232  1.00  0.00     0.037 A 
ATOM     27  C   UNL     1       5.612   4.322  -1.941  1.00  0.00     0.037 A 
ATOM     28  C   UNL     1       1.322   3.373  -6.874  1.00  0.00     0.049 A 
ATOM     29  C   UNL     1       5.648   4.603  -3.418  1.00  0.00     0.074 A 
ATOM     30  C   UNL     1       1.511   3.669  -8.210  1.00  0.00     0.029 A 
ATOM     31  N   UNL     1       2.482   3.749  -6.209  1.00  0.00    -0.354 N 
ATOM     32  N   UNL     1       4.716   4.385  -4.318  1.00  0.00    -0.248 NA
ATOM     33  C   UNL     1       6.878   5.198  -3.953  1.00  0.00     0.031 C 
ATOM     34  C   UNL     1       2.800   4.194  -8.358  1.00  0.00     0.029 A 
ATOM     35  C   UNL     1       3.396   4.268  -7.107  1.00  0.00     0.049 A 
ATOM     36  H   UNL     1       2.633   3.658  -5.240  1.00  0.00     0.167 HD
ATOM     37  C   UNL     1       5.244   4.820  -5.526  1.00  0.00     0.074 A 
ATOM     38  C   UNL     1       6.565   5.344  -5.233  1.00  0.00     0.031 C 
ATOM     39  C   UNL     1       4.700   4.781  -6.768  1.00  0.00     0.037 A 
BRANCH  26  40
ATOM     40  C   UNL     1      -1.059   2.502  -7.039  1.00  0.00     0.058 A 
ATOM     41  C   UNL     1      -2.235   3.256  -6.899  1.00  0.00     0.135 A 
ATOM     42  C   UNL     1      -1.074   1.430  -7.946  1.00  0.00     0.135 A 
ATOM     43  F   UNL     1      -2.288   4.269  -6.019  1.00  0.00    -0.206 F 
ATOM     44  C   UNL     1      -3.389   2.944  -7.612  1.00  0.00     0.059 A 
ATOM     45  C   UNL     1      -2.209   1.113  -8.685  1.00  0.00     0.059 A 
ATOM     46  F   UNL     1       0.018   0.666  -8.106  1.00  0.00    -0.206 F 
ATOM     47  C   UNL     1      -3.367   1.867  -8.500  1.00  0.00     0.060 A 
BRANCH  47  48
ATOM     48  S   UNL     1      -4.876   1.465  -9.407  1.00  0.00     0.124 S 
ATOM     49  O   UNL     1      -5.707   0.896  -8.350  1.00  0.00    -0.237 OA
ATOM     50  O   UNL     1      -5.295   2.769  -9.909  1.00  0.00    -0.237 OA
ATOM     51  O   UNL     1      -4.421   0.521 -10.423  1.00  0.00    -0.744 OA
ENDBRANCH  47  48
ENDBRANCH  26  40
BRANCH  27  52
ATOM     52  C   UNL     1       6.771   4.632  -1.057  1.00  0.00     0.058 A 
ATOM     53  C   UNL     1       7.194   5.948  -0.820  1.00  0.00     0.135 A 
ATOM     54  C   UNL     1       7.497   3.598  -0.440  1.00  0.00     0.135 A 
ATOM     55  F   UNL     1       6.539   6.975  -1.383  1.00  0.00    -0.206 F 
ATOM     56  C   UNL     1       8.308   6.227  -0.031  1.00  0.00     0.059 A 
ATOM     57  C   UNL     1       8.593   3.852   0.377  1.00  0.00     0.059 A 
ATOM     58  F   UNL     1       7.129   2.319  -0.616  1.00  0.00    -0.206 F 
ATOM     59  C   UNL     1       9.004   5.170   0.560  1.00  0.00     0.060 A 
BRANCH  59  60
ATOM     60  S   UNL     1      10.443   5.533   1.589  1.00  0.00     0.124 S 
ATOM     61  O   UNL     1      11.445   5.863   0.582  1.00  0.00    -0.237 OA
ATOM     62  O   UNL     1       9.965   6.645   2.404  1.00  0.00    -0.237 OA
ATOM     63  O   UNL     1      10.660   4.283   2.311  1.00  0.00    -0.744 OA
ENDBRANCH  59  60
ENDBRANCH  27  52
BRANCH  39  64
ATOM     64  C   UNL     1       5.532   5.340  -7.884  1.00  0.00     0.058 A 
ATOM     65  C   UNL     1       6.648   4.650  -8.381  1.00  0.00     0.135 A 
ATOM     66  C   UNL     1       5.185   6.560  -8.483  1.00  0.00     0.135 A 
ATOM     67  F   UNL     1       7.021   3.482  -7.833  1.00  0.00    -0.206 F 
ATOM     68  C   UNL     1       7.413   5.168  -9.418  1.00  0.00     0.059 A 
ATOM     69  C   UNL     1       5.919   7.082  -9.540  1.00  0.00     0.059 A 
ATOM     70  F   UNL     1       4.118   7.248  -8.048  1.00  0.00    -0.206 F 
ATOM     71  C   UNL     1       7.040   6.386  -9.990  1.00  0.00     0.060 A 
BRANCH  71  72
ATOM     72  S   UNL     1       8.028   7.040 -11.351  1.00  0.00     0.124 S 
ATOM     73  O   UNL     1       9.198   7.550 -10.643  1.00  0.00    -0.237 OA
ATOM     74  O   UNL     1       8.251   5.855 -12.174  1.00  0.00    -0.237 OA
ATOM     75  O   UNL     1       7.159   8.053 -11.943  1.00  0.00    -0.744 OA
ENDBRANCH  71  72
ENDBRANCH  39  64
ENDBRANCH  13  14
ENDBRANCH   6   8
ENDBRANCH   5   6
ENDBRANCH   4   5
ENDBRANCH   3   4
ENDBRANCH   2   3
ENDBRANCH   1   2
BRANCH   1  76
ATOM     76  C   UNL     1      -0.620   2.553   6.243  1.00  0.00     0.188 C 
BRANCH  76  77
ATOM     77  O   UNL     1      -0.457   3.715   7.048  1.00  0.00    -0.376 OA
BRANCH  77  78
ATOM     78  C   UNL     1      -0.235   4.933   6.342  1.00  0.00     0.202 C 
BRANCH  78  79
ATOM     79  C   UNL     1       1.094   5.107   5.580  1.00  0.00     0.261 C 
BRANCH  79  80
ATOM     80  O   UNL     1       1.580   3.944   4.879  1.00  0.00    -0.459 OA
BRANCH  80  81
ATOM     81  C   UNL     1       2.738   3.417   5.386  1.00  0.00     0.365 C 
ATOM     82  O   UNL     1       3.354   3.913   6.315  1.00  0.00    -0.245 OA
BRANCH  81  83
ATOM     83  C   UNL     1       3.245   2.186   4.594  1.00  0.00     0.304 C 
ATOM     84  C   UNL     1       2.191   1.295   3.931  1.00  0.00     0.153 C 
ATOM     85  N   UNL     1       4.151   1.379   5.480  1.00  0.00    -0.317 N 
ATOM     86  S   UNL     1       2.761  -0.393   4.201  1.00  0.00    -0.085 SA
ATOM     87  C   UNL     1       3.555   0.069   5.767  1.00  0.00     0.303 C 
ATOM     88  H   UNL     1       4.298   1.880   6.356  1.00  0.00     0.348 HD
ATOM     89  H   UNL     1       5.042   1.239   5.002  1.00  0.00     0.348 HD
BRANCH  87  90
ATOM     90  C   UNL     1       2.573  -0.006   6.943  1.00  0.00     0.162 A 
ATOM     91  N   UNL     1       1.757  -1.028   7.154  1.00  0.00    -0.242 NA
ATOM     92  S   UNL     1       2.480   1.216   8.166  1.00  0.00    -0.112 S 
ATOM     93  C   UNL     1       0.950  -0.789   8.249  1.00  0.00     0.132 A 
ATOM     94  C   UNL     1       1.156   0.409   8.900  1.00  0.00     0.055 A 
BRANCH  94  95
ATOM     95  C   UNL     1       0.424   1.010  10.013  1.00  0.00    -0.007 A 
ATOM     96  C   UNL     1      -0.785   1.681   9.786  1.00  0.00     0.009 A 
ATOM     97  C   UNL     1       0.898   0.929  11.325  1.00  0.00     0.009 A 
ATOM     98  C   UNL     1      -1.482   2.303  10.820  1.00  0.00     0.001 A 
ATOM     99  C   UNL     1       0.187   1.530  12.371  1.00  0.00     0.001 A 
ATOM    100  C   UNL     1      -0.995   2.228  12.117  1.00  0.00     0.000 A 
ENDBRANCH  94  95
ENDBRANCH  87  90
ENDBRANCH  81  83
ENDBRANCH  80  81
ENDBRANCH  79  80
ENDBRANCH  78  79
ENDBRANCH  77  78
ENDBRANCH  76  77
ENDBRANCH   1  76
TORSDOF 22
