REMARK SMILES O=C(OCCOCCOCCOC(=O)[C@@H](Cc1ccc(O)cc1)Nc1c2ccccc2nc2ccccc12)c1ccc(-c2c3nc(c(-c4c(F)cc(S(=O)(=O)[O-])cc4F)c4ccc([nH]4)c(-c4c(F)cc(S(=O)(=O)[O-])cc4F)c4nc(c(-c5c(F)cc(S(=O)(=O)[O-])cc5F)c5ccc2[nH]5)C=C4)C=C3)cc1
REMARK SMILES IDX 7 1 6 2 5 3 4 4 3 5 2 6 1 7 39 8 40 9 104 10 41 11 103 12
REMARK SMILES IDX 42 13 43 14 44 15 97 16 45 17 102 18 96 19 98 20 46 21
REMARK SMILES IDX 101 22 95 23 94 24 47 26 81 27 60 28 80 29 61 30 64 31 79 32
REMARK SMILES IDX 99 33 62 34 63 35 78 37 100 38 65 39 48 40 49 41 58 42 50 43
REMARK SMILES IDX 51 44 57 45 59 46 52 47 53 48 54 49 55 50 56 51 82 52 83 53
REMARK SMILES IDX 92 54 84 55 85 56 91 57 93 58 86 59 87 60 88 61 89 62 90 63
REMARK SMILES IDX 66 64 67 65 76 66 68 67 69 68 75 69 77 70 70 71 71 72 72 73
REMARK SMILES IDX 73 74 74 75 8 76 9 77 10 78 11 79 12 80 13 81 14 82 15 83
REMARK SMILES IDX 16 84 17 85 18 86 23 87 19 88 22 89 20 90 21 91 24 93 25 95
REMARK SMILES IDX 26 96 38 97 27 98 31 99 33 100 37 101 28 102 30 103 32 104
REMARK SMILES IDX 34 105 36 106 29 107 35 108
REMARK H PARENT 98 25 64 36 21 92 24 94
REMARK Flexibility Score: inf
ROOT
ATOM      1  C   UNL     1       2.505  -1.768   0.415  1.00  0.00     0.188 C 
ENDROOT
BRANCH   1   2
ATOM      2  O   UNL     1       3.737  -1.402  -0.213  1.00  0.00    -0.376 OA
BRANCH   2   3
ATOM      3  C   UNL     1       4.769  -0.977   0.674  1.00  0.00     0.202 C 
BRANCH   3   4
ATOM      4  C   UNL     1       4.521   0.291   1.504  1.00  0.00     0.261 C 
BRANCH   4   5
ATOM      5  O   UNL     1       3.186   0.821   1.480  1.00  0.00    -0.460 OA
BRANCH   5   6
ATOM      6  C   UNL     1       2.505   1.504   0.532  1.00  0.00     0.338 C 
ATOM      7  O   UNL     1       1.343   1.823   0.789  1.00  0.00    -0.246 OA
BRANCH   6   8
ATOM      8  C   UNL     1       3.038   1.853  -0.822  1.00  0.00     0.060 A 
ATOM      9  C   UNL     1       4.358   1.705  -1.231  1.00  0.00     0.016 A 
ATOM     10  C   UNL     1       2.127   2.412  -1.748  1.00  0.00     0.016 A 
ATOM     11  C   UNL     1       4.755   2.086  -2.509  1.00  0.00     0.010 A 
ATOM     12  C   UNL     1       2.524   2.807  -3.034  1.00  0.00     0.010 A 
ATOM     13  C   UNL     1       3.850   2.642  -3.421  1.00  0.00    -0.014 A 
BRANCH  13  14
ATOM     14  C   UNL     1       4.406   3.156  -4.696  1.00  0.00     0.031 A 
ATOM     15  C   UNL     1       5.301   4.354  -4.618  1.00  0.00     0.074 A 
ATOM     16  C   UNL     1       4.279   2.460  -5.841  1.00  0.00     0.049 A 
ATOM     17  N   UNL     1       6.072   4.872  -5.532  1.00  0.00    -0.248 NA
ATOM     18  C   UNL     1       5.348   5.044  -3.317  1.00  0.00     0.031 C 
ATOM     19  C   UNL     1       3.481   1.249  -5.991  1.00  0.00     0.029 A 
ATOM     20  N   UNL     1       4.889   2.604  -7.062  1.00  0.00    -0.354 N 
ATOM     21  C   UNL     1       6.666   5.973  -4.930  1.00  0.00     0.074 A 
ATOM     22  C   UNL     1       6.231   5.999  -3.552  1.00  0.00     0.031 C 
ATOM     23  C   UNL     1       3.758   0.679  -7.175  1.00  0.00     0.029 A 
ATOM     24  C   UNL     1       4.657   1.552  -7.925  1.00  0.00     0.049 A 
ATOM     25  H   UNL     1       5.440   3.384  -7.300  1.00  0.00     0.167 HD
ATOM     26  C   UNL     1       7.436   6.924  -5.505  1.00  0.00     0.037 A 
ATOM     27  C   UNL     1       5.103   1.340  -9.182  1.00  0.00     0.037 A 
ATOM     28  C   UNL     1       7.756   6.935  -6.904  1.00  0.00     0.049 A 
ATOM     29  C   UNL     1       5.941   2.427  -9.815  1.00  0.00     0.074 A 
ATOM     30  C   UNL     1       8.385   7.921  -7.637  1.00  0.00     0.029 A 
ATOM     31  N   UNL     1       7.431   5.914  -7.790  1.00  0.00    -0.354 N 
ATOM     32  N   UNL     1       6.436   3.511  -9.261  1.00  0.00    -0.248 NA
ATOM     33  C   UNL     1       6.226   2.307 -11.252  1.00  0.00     0.031 C 
ATOM     34  C   UNL     1       8.385   7.524  -8.979  1.00  0.00     0.029 A 
ATOM     35  C   UNL     1       7.821   6.258  -9.070  1.00  0.00     0.049 A 
ATOM     36  H   UNL     1       6.988   5.071  -7.542  1.00  0.00     0.167 HD
ATOM     37  C   UNL     1       7.060   4.217 -10.284  1.00  0.00     0.074 A 
ATOM     38  C   UNL     1       6.922   3.414 -11.483  1.00  0.00     0.031 C 
ATOM     39  C   UNL     1       7.665   5.430 -10.243  1.00  0.00     0.037 A 
BRANCH  26  40
ATOM     40  C   UNL     1       7.784   8.098  -4.638  1.00  0.00     0.058 A 
ATOM     41  C   UNL     1       8.717   8.012  -3.593  1.00  0.00     0.135 A 
ATOM     42  C   UNL     1       7.060   9.294  -4.777  1.00  0.00     0.135 A 
ATOM     43  F   UNL     1       9.400   6.874  -3.388  1.00  0.00    -0.206 F 
ATOM     44  C   UNL     1       8.881   9.052  -2.683  1.00  0.00     0.059 A 
ATOM     45  C   UNL     1       7.226  10.355  -3.895  1.00  0.00     0.059 A 
ATOM     46  F   UNL     1       6.139   9.418  -5.746  1.00  0.00    -0.206 F 
ATOM     47  C   UNL     1       8.117  10.212  -2.833  1.00  0.00     0.060 A 
BRANCH  47  48
ATOM     48  S   UNL     1       8.264  11.516  -1.594  1.00  0.00     0.124 S 
ATOM     49  O   UNL     1       7.540  10.929  -0.470  1.00  0.00    -0.237 OA
ATOM     50  O   UNL     1       9.709  11.627  -1.427  1.00  0.00    -0.237 OA
ATOM     51  O   UNL     1       7.618  12.661  -2.227  1.00  0.00    -0.744 OA
ENDBRANCH  47  48
ENDBRANCH  26  40
BRANCH  27  52
ATOM     52  C   UNL     1       4.706   0.115  -9.945  1.00  0.00     0.058 A 
ATOM     53  C   UNL     1       5.659  -0.800 -10.421  1.00  0.00     0.135 A 
ATOM     54  C   UNL     1       3.356  -0.173 -10.215  1.00  0.00     0.135 A 
ATOM     55  F   UNL     1       6.967  -0.574 -10.222  1.00  0.00    -0.206 F 
ATOM     56  C   UNL     1       5.292  -1.946 -11.129  1.00  0.00     0.059 A 
ATOM     57  C   UNL     1       2.961  -1.330 -10.882  1.00  0.00     0.059 A 
ATOM     58  F   UNL     1       2.395   0.671  -9.808  1.00  0.00    -0.206 F 
ATOM     59  C   UNL     1       3.938  -2.206 -11.348  1.00  0.00     0.060 A 
BRANCH  59  60
ATOM     60  S   UNL     1       3.469  -3.708 -12.239  1.00  0.00     0.124 S 
ATOM     61  O   UNL     1       3.901  -3.390 -13.596  1.00  0.00    -0.237 OA
ATOM     62  O   UNL     1       4.250  -4.732 -11.550  1.00  0.00    -0.237 OA
ATOM     63  O   UNL     1       2.025  -3.783 -12.043  1.00  0.00    -0.744 OA
ENDBRANCH  59  60
ENDBRANCH  27  52
BRANCH  39  64
ATOM     64  C   UNL     1       8.224   5.980 -11.525  1.00  0.00     0.058 A 
ATOM     65  C   UNL     1       7.391   6.534 -12.509  1.00  0.00     0.135 A 
ATOM     66  C   UNL     1       9.613   6.090 -11.697  1.00  0.00     0.135 A 
ATOM     67  F   UNL     1       6.056   6.452 -12.389  1.00  0.00    -0.206 F 
ATOM     68  C   UNL     1       7.917   7.188 -13.617  1.00  0.00     0.059 A 
ATOM     69  C   UNL     1      10.160   6.760 -12.786  1.00  0.00     0.059 A 
ATOM     70  F   UNL     1      10.450   5.587 -10.776  1.00  0.00    -0.206 F 
ATOM     71  C   UNL     1       9.303   7.309 -13.739  1.00  0.00     0.060 A 
BRANCH  71  72
ATOM     72  S   UNL     1       9.971   8.249 -15.128  1.00  0.00     0.124 S 
ATOM     73  O   UNL     1       9.740   7.336 -16.241  1.00  0.00    -0.237 OA
ATOM     74  O   UNL     1       9.148   9.454 -15.114  1.00  0.00    -0.237 OA
ATOM     75  O   UNL     1      11.370   8.450 -14.761  1.00  0.00    -0.744 OA
ENDBRANCH  71  72
ENDBRANCH  39  64
ENDBRANCH  13  14
ENDBRANCH   6   8
ENDBRANCH   5   6
ENDBRANCH   4   5
ENDBRANCH   3   4
ENDBRANCH   2   3
ENDBRANCH   1   2
BRANCH   1  76
ATOM     76  C   UNL     1       1.925  -3.071  -0.145  1.00  0.00     0.188 C 
BRANCH  76  77
ATOM     77  O   UNL     1       2.454  -4.278   0.410  1.00  0.00    -0.376 OA
BRANCH  77  78
ATOM     78  C   UNL     1       3.858  -4.487   0.301  1.00  0.00     0.202 C 
BRANCH  78  79
ATOM     79  C   UNL     1       4.379  -4.845  -1.090  1.00  0.00     0.261 C 
BRANCH  79  80
ATOM     80  O   UNL     1       4.066  -3.828  -2.047  1.00  0.00    -0.462 OA
BRANCH  80  81
ATOM     81  C   UNL     1       3.335  -4.199  -3.138  1.00  0.00     0.328 C 
ATOM     82  O   UNL     1       2.932  -5.343  -3.321  1.00  0.00    -0.250 OA
BRANCH  81  83
ATOM     83  C   UNL     1       3.023  -2.995  -4.049  1.00  0.00     0.194 C 
BRANCH  83  84
ATOM     84  C   UNL     1       3.900  -1.758  -3.777  1.00  0.00     0.072 C 
BRANCH  84  85
ATOM     85  C   UNL     1       5.395  -1.771  -4.055  1.00  0.00    -0.045 A 
ATOM     86  C   UNL     1       6.214  -2.903  -4.031  1.00  0.00     0.007 A 
ATOM     87  C   UNL     1       6.019  -0.532  -4.252  1.00  0.00     0.007 A 
ATOM     88  C   UNL     1       7.607  -2.780  -4.120  1.00  0.00     0.046 A 
ATOM     89  C   UNL     1       7.402  -0.395  -4.332  1.00  0.00     0.046 A 
ATOM     90  C   UNL     1       8.190  -1.524  -4.241  1.00  0.00     0.115 A 
BRANCH  90  91
ATOM     91  O   UNL     1       9.541  -1.358  -4.270  1.00  0.00    -0.508 OA
ATOM     92  H   UNL     1      10.106  -2.103  -4.210  1.00  0.00     0.293 HD
ENDBRANCH  90  91
ENDBRANCH  84  85
ENDBRANCH  83  84
BRANCH  83  93
ATOM     93  N   UNL     1       3.109  -3.294  -5.482  1.00  0.00    -0.371 N 
ATOM     94  H   UNL     1       3.949  -3.075  -5.946  1.00  0.00     0.161 HD
BRANCH  93  95
ATOM     95  C   UNL     1       2.080  -3.870  -6.234  1.00  0.00     0.054 A 
ATOM     96  C   UNL     1       0.925  -3.132  -6.617  1.00  0.00     0.024 A 
ATOM     97  C   UNL     1       2.252  -5.191  -6.723  1.00  0.00     0.024 A 
ATOM     98  C   UNL     1       0.641  -1.802  -6.210  1.00  0.00     0.012 A 
ATOM     99  C   UNL     1       0.029  -3.756  -7.509  1.00  0.00     0.073 A 
ATOM    100  C   UNL     1       1.285  -5.693  -7.611  1.00  0.00     0.073 A 
ATOM    101  C   UNL     1       3.344  -6.021  -6.368  1.00  0.00     0.012 A 
ATOM    102  C   UNL     1      -0.488  -1.120  -6.668  1.00  0.00     0.001 A 
ATOM    103  C   UNL     1      -1.077  -3.050  -7.968  1.00  0.00     0.029 A 
ATOM    104  N   UNL     1       0.196  -5.001  -7.968  1.00  0.00    -0.248 NA
ATOM    105  C   UNL     1       1.468  -6.961  -8.150  1.00  0.00     0.029 A 
ATOM    106  C   UNL     1       3.488  -7.302  -6.892  1.00  0.00     0.001 A 
ATOM    107  C   UNL     1      -1.346  -1.744  -7.559  1.00  0.00     0.002 A 
ATOM    108  C   UNL     1       2.555  -7.767  -7.803  1.00  0.00     0.002 A 
ENDBRANCH  93  95
ENDBRANCH  83  93
ENDBRANCH  81  83
ENDBRANCH  80  81
ENDBRANCH  79  80
ENDBRANCH  78  79
ENDBRANCH  77  78
ENDBRANCH  76  77
ENDBRANCH   1  76
TORSDOF 25
