REMARK SMILES CC[C@@H](C)NC(=O)[C@H](C)[NH+]1CC(n2cc(C(=O)OCCOCCOCCOC(=O)c3ccc(-c4c5nc(c(-c6c(F)cc(S(=O)(=O)[O-])cc6F)c6ccc([nH]6)c(-c6c(F)cc(S(=O)(=O)[O-])cc6F)c6nc(c(-c7c(F)cc(S(=O)(=O)[O-])cc7F)c7ccc4[nH]7)C=C6)C=C5)cc3)nn2)C1
REMARK SMILES IDX 22 1 21 2 20 3 19 4 18 5 16 6 17 7 15 8 13 9 14 10 97 11
REMARK SMILES IDX 96 12 12 13 10 14 11 15 98 16 8 18 9 19 6 20 5 21 7 23 3 24
REMARK SMILES IDX 4 25 2 26 1 27 23 28 24 29 25 30 26 31 27 32 28 33 29 34
REMARK SMILES IDX 30 35 31 36 95 37 32 38 94 39 33 40 34 41 35 42 88 43 36 44
REMARK SMILES IDX 93 45 87 46 89 47 37 48 92 49 86 50 85 51 38 53 72 54 51 55
REMARK SMILES IDX 71 56 52 57 55 58 70 59 90 60 53 61 54 62 69 64 91 65 56 66
REMARK SMILES IDX 39 67 40 68 49 69 41 70 42 71 48 72 50 73 43 74 44 75 45 76
REMARK SMILES IDX 46 77 47 78 73 79 74 80 83 81 75 82 76 83 82 84 84 85 77 86
REMARK SMILES IDX 78 87 79 88 80 89 81 90 57 91 58 92 67 93 59 94 60 95 66 96
REMARK SMILES IDX 68 97 61 98 62 99 63 100 64 101 65 102
REMARK H PARENT 10 17 5 22 89 52 55 63
REMARK Flexibility Score: inf
ROOT
ATOM      1  C   UNL     1       4.248  -6.455  -0.541  1.00  0.00     0.188 C 
ENDROOT
BRANCH   1   2
ATOM      2  O   UNL     1       3.551  -7.590  -0.042  1.00  0.00    -0.376 OA
BRANCH   2   3
ATOM      3  C   UNL     1       2.329  -8.004  -0.635  1.00  0.00     0.202 C 
BRANCH   3   4
ATOM      4  C   UNL     1       1.182  -7.000  -0.876  1.00  0.00     0.261 C 
BRANCH   4   5
ATOM      5  O   UNL     1       1.560  -5.758  -1.492  1.00  0.00    -0.458 OA
BRANCH   5   6
ATOM      6  C   UNL     1       1.526  -4.656  -0.695  1.00  0.00     0.360 C 
ATOM      7  O   UNL     1       1.000  -4.629   0.419  1.00  0.00    -0.244 OA
BRANCH   6   8
ATOM      8  C   UNL     1       2.269  -3.529  -1.238  1.00  0.00     0.190 A 
ATOM      9  N   UNL     1       3.324  -2.057  -2.438  1.00  0.00    -0.237 N 
ATOM     10  C   UNL     1       2.612  -3.224  -2.545  1.00  0.00     0.147 A 
ATOM     11  N   UNL     1       3.454  -1.689  -1.155  1.00  0.00    -0.066 NA
ATOM     12  N   UNL     1       2.814  -2.576  -0.412  1.00  0.00    -0.123 NA
BRANCH   9  13
ATOM     13  C   UNL     1       3.656  -1.216  -3.549  1.00  0.00     0.218 C 
ATOM     14  N   UNL     1       3.389   0.757  -4.217  1.00  0.00    -0.321 N 
ATOM     15  C   UNL     1       4.330   0.144  -3.229  1.00  0.00     0.296 C 
ATOM     16  C   UNL     1       2.432  -0.325  -3.868  1.00  0.00     0.296 C 
ATOM     17  H   UNL     1       3.715   0.951  -5.164  1.00  0.00     0.348 HD
BRANCH  14  18
ATOM     18  C   UNL     1       2.856   2.137  -3.955  1.00  0.00     0.271 C 
ATOM     19  C   UNL     1       1.391   2.186  -4.424  1.00  0.00     0.086 C 
BRANCH  18  20
ATOM     20  C   UNL     1       3.170   2.777  -2.564  1.00  0.00     0.278 C 
ATOM     21  N   UNL     1       2.396   3.721  -1.961  1.00  0.00    -0.349 N 
ATOM     22  H   UNL     1       2.559   3.803  -0.994  1.00  0.00     0.163 HD
ATOM     23  O   UNL     1       4.221   2.559  -1.949  1.00  0.00    -0.268 OA
BRANCH  21  24
ATOM     24  C   UNL     1       1.374   4.636  -2.455  1.00  0.00     0.078 C 
ATOM     25  C   UNL     1       1.833   6.076  -2.214  1.00  0.00     0.031 C 
BRANCH  24  26
ATOM     26  C   UNL     1       0.033   4.335  -1.774  1.00  0.00     0.021 C 
ATOM     27  C   UNL     1      -1.147   5.006  -2.460  1.00  0.00     0.006 C 
ENDBRANCH  24  26
ENDBRANCH  21  24
ENDBRANCH  18  20
ENDBRANCH  14  18
ENDBRANCH   9  13
ENDBRANCH   6   8
ENDBRANCH   5   6
ENDBRANCH   4   5
ENDBRANCH   3   4
ENDBRANCH   2   3
ENDBRANCH   1   2
BRANCH   1  28
ATOM     28  C   UNL     1       4.402  -6.224  -2.062  1.00  0.00     0.188 C 
BRANCH  28  29
ATOM     29  O   UNL     1       3.480  -6.931  -2.871  1.00  0.00    -0.376 OA
BRANCH  29  30
ATOM     30  C   UNL     1       3.914  -7.995  -3.708  1.00  0.00     0.202 C 
BRANCH  30  31
ATOM     31  C   UNL     1       4.827  -9.107  -3.189  1.00  0.00     0.261 C 
BRANCH  31  32
ATOM     32  O   UNL     1       5.637  -8.740  -2.094  1.00  0.00    -0.460 OA
BRANCH  32  33
ATOM     33  C   UNL     1       6.745  -8.053  -2.434  1.00  0.00     0.338 C 
ATOM     34  O   UNL     1       7.017  -7.602  -3.534  1.00  0.00    -0.246 OA
BRANCH  33  35
ATOM     35  C   UNL     1       7.610  -7.972  -1.252  1.00  0.00     0.060 A 
ATOM     36  C   UNL     1       8.777  -7.230  -1.430  1.00  0.00     0.016 A 
ATOM     37  C   UNL     1       7.500  -9.016  -0.324  1.00  0.00     0.016 A 
ATOM     38  C   UNL     1       9.940  -7.787  -0.969  1.00  0.00     0.010 A 
ATOM     39  C   UNL     1       8.663  -9.598   0.090  1.00  0.00     0.010 A 
ATOM     40  C   UNL     1       9.860  -9.033  -0.342  1.00  0.00    -0.014 A 
BRANCH  40  41
ATOM     41  C   UNL     1      11.088  -9.748  -0.114  1.00  0.00     0.031 A 
ATOM     42  C   UNL     1      11.765  -9.287   1.108  1.00  0.00     0.074 A 
ATOM     43  C   UNL     1      11.452 -10.782  -0.893  1.00  0.00     0.049 A 
ATOM     44  N   UNL     1      12.820  -8.548   1.195  1.00  0.00    -0.248 NA
ATOM     45  C   UNL     1      11.029  -9.443   2.374  1.00  0.00     0.031 C 
ATOM     46  C   UNL     1      10.664 -11.461  -1.927  1.00  0.00     0.029 A 
ATOM     47  N   UNL     1      12.582 -11.527  -0.834  1.00  0.00    -0.354 N 
ATOM     48  C   UNL     1      13.015  -8.379   2.560  1.00  0.00     0.074 A 
ATOM     49  C   UNL     1      11.756  -8.674   3.182  1.00  0.00     0.031 C 
ATOM     50  C   UNL     1      11.248 -12.647  -2.218  1.00  0.00     0.029 A 
ATOM     51  C   UNL     1      12.496 -12.751  -1.481  1.00  0.00     0.049 A 
ATOM     52  H   UNL     1      13.397 -11.224  -0.371  1.00  0.00     0.167 HD
ATOM     53  C   UNL     1      14.269  -8.355   3.085  1.00  0.00     0.037 A 
ATOM     54  C   UNL     1      13.346 -13.795  -1.303  1.00  0.00     0.037 A 
ATOM     55  C   UNL     1      15.248  -8.099   2.054  1.00  0.00     0.049 A 
ATOM     56  C   UNL     1      14.589 -13.243  -0.688  1.00  0.00     0.074 A 
ATOM     57  C   UNL     1      15.459  -7.075   1.150  1.00  0.00     0.029 A 
ATOM     58  N   UNL     1      15.971  -9.173   1.588  1.00  0.00    -0.354 N 
ATOM     59  N   UNL     1      15.398 -12.418  -1.300  1.00  0.00    -0.248 NA
ATOM     60  C   UNL     1      14.675 -13.220   0.767  1.00  0.00     0.031 C 
ATOM     61  C   UNL     1      15.936  -7.710  -0.033  1.00  0.00     0.029 A 
ATOM     62  C   UNL     1      16.046  -9.078   0.222  1.00  0.00     0.049 A 
ATOM     63  H   UNL     1      16.367  -9.886   2.139  1.00  0.00     0.167 HD
ATOM     64  C   UNL     1      15.782 -11.498  -0.331  1.00  0.00     0.074 A 
ATOM     65  C   UNL     1      15.373 -12.093   0.938  1.00  0.00     0.031 C 
ATOM     66  C   UNL     1      16.126 -10.219  -0.667  1.00  0.00     0.037 A 
BRANCH  53  67
ATOM     67  C   UNL     1      14.636  -8.992   4.410  1.00  0.00     0.058 A 
ATOM     68  C   UNL     1      15.964  -8.866   4.863  1.00  0.00     0.135 A 
ATOM     69  C   UNL     1      13.854  -9.949   5.101  1.00  0.00     0.135 A 
ATOM     70  F   UNL     1      16.794  -7.968   4.307  1.00  0.00    -0.206 F 
ATOM     71  C   UNL     1      16.508  -9.712   5.829  1.00  0.00     0.059 A 
ATOM     72  C   UNL     1      14.361 -10.764   6.102  1.00  0.00     0.059 A 
ATOM     73  F   UNL     1      12.583 -10.225   4.794  1.00  0.00    -0.206 F 
ATOM     74  C   UNL     1      15.702 -10.679   6.419  1.00  0.00     0.060 A 
BRANCH  74  75
ATOM     75  S   UNL     1      16.426 -11.873   7.550  1.00  0.00     0.124 S 
ATOM     76  O   UNL     1      17.256 -12.658   6.644  1.00  0.00    -0.237 OA
ATOM     77  O   UNL     1      17.134 -11.008   8.487  1.00  0.00    -0.237 OA
ATOM     78  O   UNL     1      15.262 -12.564   8.098  1.00  0.00    -0.744 OA
ENDBRANCH  74  75
ENDBRANCH  53  67
BRANCH  54  79
ATOM     79  C   UNL     1      12.989 -15.239  -1.274  1.00  0.00     0.058 A 
ATOM     80  C   UNL     1      13.966 -16.245  -1.372  1.00  0.00     0.135 A 
ATOM     81  C   UNL     1      11.696 -15.669  -0.905  1.00  0.00     0.135 A 
ATOM     82  F   UNL     1      15.232 -15.926  -1.680  1.00  0.00    -0.206 F 
ATOM     83  C   UNL     1      13.681 -17.592  -1.106  1.00  0.00     0.059 A 
ATOM     84  C   UNL     1      11.386 -17.003  -0.649  1.00  0.00     0.059 A 
ATOM     85  F   UNL     1      10.705 -14.790  -0.699  1.00  0.00    -0.206 F 
ATOM     86  C   UNL     1      12.388 -17.960  -0.734  1.00  0.00     0.060 A 
BRANCH  86  87
ATOM     87  S   UNL     1      12.039 -19.672  -0.267  1.00  0.00     0.124 S 
ATOM     88  O   UNL     1      12.190 -20.369  -1.540  1.00  0.00    -0.237 OA
ATOM     89  O   UNL     1      13.069 -19.936   0.732  1.00  0.00    -0.237 OA
ATOM     90  O   UNL     1      10.674 -19.612   0.251  1.00  0.00    -0.744 OA
ENDBRANCH  86  87
ENDBRANCH  54  79
BRANCH  66  91
ATOM     91  C   UNL     1      16.387  -9.908  -2.118  1.00  0.00     0.058 A 
ATOM     92  C   UNL     1      15.400  -9.922  -3.120  1.00  0.00     0.135 A 
ATOM     93  C   UNL     1      17.644  -9.390  -2.463  1.00  0.00     0.135 A 
ATOM     94  F   UNL     1      14.146 -10.308  -2.845  1.00  0.00    -0.206 F 
ATOM     95  C   UNL     1      15.661  -9.464  -4.413  1.00  0.00     0.059 A 
ATOM     96  C   UNL     1      17.918  -8.901  -3.736  1.00  0.00     0.059 A 
ATOM     97  F   UNL     1      18.608  -9.293  -1.532  1.00  0.00    -0.206 F 
ATOM     98  C   UNL     1      16.922  -8.947  -4.710  1.00  0.00     0.060 A 
BRANCH  98  99
ATOM     99  S   UNL     1      17.228  -8.254  -6.350  1.00  0.00     0.124 S 
ATOM    100  O   UNL     1      17.284  -9.450  -7.183  1.00  0.00    -0.237 OA
ATOM    101  O   UNL     1      16.066  -7.394  -6.554  1.00  0.00    -0.237 OA
ATOM    102  O   UNL     1      18.495  -7.544  -6.190  1.00  0.00    -0.744 OA
ENDBRANCH  98  99
ENDBRANCH  66  91
ENDBRANCH  40  41
ENDBRANCH  33  35
ENDBRANCH  32  33
ENDBRANCH  31  32
ENDBRANCH  30  31
ENDBRANCH  29  30
ENDBRANCH  28  29
ENDBRANCH   1  28
TORSDOF 25
