REMARK SMILES O=C(OCCOCCOCCOC(=O)c1ccc(-c2c3nc(c(-c4c(F)cc(S(=O)(=O)[O-])cc4F)c4ccc([nH]4)c(-c4c(F)cc(S(=O)(=O)[O-])cc4F)c4nc(c(-c5c(F)cc(S(=O)(=O)[O-])cc5F)c5ccc2[nH]5)C=C4)C=C3)cc1)C1=Cc2cc(Cl)cc(-c3ccc(CO)cc3)c2O[C@@H]1C(F)(F)F
REMARK SMILES IDX 7 1 6 2 5 3 4 4 3 5 2 6 1 7 81 8 82 9 99 10 83 11 98 12
REMARK SMILES IDX 84 13 97 14 85 15 88 16 86 17 87 18 100 19 101 20 102 21
REMARK SMILES IDX 103 22 89 23 90 24 96 25 91 26 95 27 92 28 93 29 94 30 8 32
REMARK SMILES IDX 9 33 10 34 11 35 12 36 13 37 14 38 15 39 16 40 80 41 17 42
REMARK SMILES IDX 79 43 18 44 19 45 20 46 73 47 21 48 78 49 72 50 74 51 22 52
REMARK SMILES IDX 77 53 71 54 70 55 23 57 57 58 36 59 56 60 37 61 40 62 55 63
REMARK SMILES IDX 75 64 38 65 39 66 54 68 76 69 41 70 24 71 25 72 34 73 26 74
REMARK SMILES IDX 27 75 33 76 35 77 28 78 29 79 30 80 31 81 32 82 58 83 59 84
REMARK SMILES IDX 68 85 60 86 61 87 67 88 69 89 62 90 63 91 64 92 65 93 66 94
REMARK SMILES IDX 42 95 43 96 52 97 44 98 45 99 51 100 53 101 46 102 47 103
REMARK SMILES IDX 48 104 49 105 50 106
REMARK H PARENT 94 31 74 56 40 67
REMARK Flexibility Score: inf
ROOT
ATOM      1  C   UNL     1       2.237  -1.837  -1.198  1.00  0.00     0.188 C 
ENDROOT
BRANCH   1   2
ATOM      2  O   UNL     1       3.698  -1.509  -1.411  1.00  0.00    -0.376 OA
BRANCH   2   3
ATOM      3  C   UNL     1       4.570  -0.105  -0.771  1.00  0.00     0.202 C 
BRANCH   3   4
ATOM      4  C   UNL     1       4.052   0.817   1.133  1.00  0.00     0.261 C 
BRANCH   4   5
ATOM      5  O   UNL     1       3.153   2.058   1.319  1.00  0.00    -0.460 OA
BRANCH   5   6
ATOM      6  C   UNL     1       3.251   2.930   0.302  1.00  0.00     0.338 C 
ATOM      7  O   UNL     1       2.557   3.883   0.057  1.00  0.00    -0.246 OA
BRANCH   6   8
ATOM      8  C   UNL     1       4.040   2.062  -0.546  1.00  0.00     0.087 C 
ATOM      9  C   UNL     1       5.447   1.992  -0.216  1.00  0.00     0.027 C 
ATOM     10  C   UNL     1       2.800   0.600  -0.463  1.00  0.00     0.316 C 
ATOM     11  C   UNL     1       6.207   0.586   0.577  1.00  0.00     0.019 A 
ATOM     12  O   UNL     1       3.571  -0.897   0.557  1.00  0.00    -0.475 OA
ATOM     13  C   UNL     1       7.511   0.746   0.972  1.00  0.00     0.032 A 
ATOM     14  C   UNL     1       5.337  -0.841   1.036  1.00  0.00     0.135 A 
ATOM     15  C   UNL     1       8.053  -0.322   1.683  1.00  0.00     0.042 A 
ATOM     16  C   UNL     1       5.986  -1.878   1.694  1.00  0.00     0.026 A 
ATOM     17  Cl  UNL     1       9.692  -0.175   2.224  1.00  0.00    -0.084 Cl
ATOM     18  C   UNL     1       7.349  -1.541   1.998  1.00  0.00     0.033 A 
BRANCH  10  19
ATOM     19  C   UNL     1       2.385   0.770  -2.108  1.00  0.00     0.430 C 
ATOM     20  F   UNL     1       2.872  -0.104  -3.010  1.00  0.00    -0.167 F 
ATOM     21  F   UNL     1       1.040   0.809  -2.250  1.00  0.00    -0.167 F 
ATOM     22  F   UNL     1       2.830   1.971  -2.588  1.00  0.00    -0.167 F 
ENDBRANCH  10  19
BRANCH  16  23
ATOM     23  C   UNL     1       5.606  -3.248   2.033  1.00  0.00    -0.015 A 
ATOM     24  C   UNL     1       5.045  -3.578   3.270  1.00  0.00     0.009 A 
ATOM     25  C   UNL     1       6.071  -4.312   1.233  1.00  0.00     0.009 A 
ATOM     26  C   UNL     1       4.830  -4.919   3.629  1.00  0.00     0.007 A 
ATOM     27  C   UNL     1       5.836  -5.650   1.575  1.00  0.00     0.007 A 
ATOM     28  C   UNL     1       5.160  -5.963   2.754  1.00  0.00    -0.023 A 
BRANCH  28  29
ATOM     29  C   UNL     1       4.778  -7.386   3.067  1.00  0.00     0.191 C 
BRANCH  29  30
ATOM     30  O   UNL     1       5.854  -8.096   3.660  1.00  0.00    -0.392 OA
ATOM     31  H   UNL     1       6.603  -8.122   3.044  1.00  0.00     0.211 HD
ENDBRANCH  29  30
ENDBRANCH  28  29
ENDBRANCH  16  23
ENDBRANCH   6   8
ENDBRANCH   5   6
ENDBRANCH   4   5
ENDBRANCH   3   4
ENDBRANCH   2   3
ENDBRANCH   1   2
BRANCH   1  32
ATOM     32  C   UNL     1       1.675  -3.269  -1.227  1.00  0.00     0.188 C 
BRANCH  32  33
ATOM     33  O   UNL     1       2.319  -4.267  -0.483  1.00  0.00    -0.376 OA
BRANCH  33  34
ATOM     34  C   UNL     1       3.700  -4.381  -0.752  1.00  0.00     0.202 C 
BRANCH  34  35
ATOM     35  C   UNL     1       4.167  -4.746  -2.165  1.00  0.00     0.261 C 
BRANCH  35  36
ATOM     36  O   UNL     1       3.818  -3.789  -3.177  1.00  0.00    -0.460 OA
BRANCH  36  37
ATOM     37  C   UNL     1       2.849  -4.163  -4.048  1.00  0.00     0.338 C 
ATOM     38  O   UNL     1       2.254  -5.226  -4.085  1.00  0.00    -0.246 OA
BRANCH  37  39
ATOM     39  C   UNL     1       2.486  -2.991  -4.863  1.00  0.00     0.060 A 
ATOM     40  C   UNL     1       1.247  -2.359  -4.674  1.00  0.00     0.016 A 
ATOM     41  C   UNL     1       3.369  -2.549  -5.845  1.00  0.00     0.016 A 
ATOM     42  C   UNL     1       0.901  -1.254  -5.450  1.00  0.00     0.010 A 
ATOM     43  C   UNL     1       3.000  -1.475  -6.654  1.00  0.00     0.010 A 
ATOM     44  C   UNL     1       1.763  -0.832  -6.467  1.00  0.00    -0.014 A 
BRANCH  44  45
ATOM     45  C   UNL     1       1.305   0.144  -7.478  1.00  0.00     0.031 A 
ATOM     46  C   UNL     1       0.642  -0.393  -8.713  1.00  0.00     0.074 A 
ATOM     47  C   UNL     1       1.540   1.460  -7.330  1.00  0.00     0.049 A 
ATOM     48  N   UNL     1       0.309   0.232  -9.809  1.00  0.00    -0.248 NA
ATOM     49  C   UNL     1       0.328  -1.833  -8.719  1.00  0.00     0.031 C 
ATOM     50  C   UNL     1       2.145   2.080  -6.153  1.00  0.00     0.029 A 
ATOM     51  N   UNL     1       1.327   2.506  -8.192  1.00  0.00    -0.354 N 
ATOM     52  C   UNL     1      -0.225  -0.740 -10.646  1.00  0.00     0.074 A 
ATOM     53  C   UNL     1      -0.178  -1.995  -9.932  1.00  0.00     0.031 C 
ATOM     54  C   UNL     1       2.289   3.398  -6.381  1.00  0.00     0.029 A 
ATOM     55  C   UNL     1       1.832   3.703  -7.736  1.00  0.00     0.049 A 
ATOM     56  H   UNL     1       0.860   2.410  -9.053  1.00  0.00     0.167 HD
ATOM     57  C   UNL     1      -0.692  -0.593 -11.905  1.00  0.00     0.037 A 
ATOM     58  C   UNL     1       1.954   4.891  -8.366  1.00  0.00     0.037 A 
ATOM     59  C   UNL     1      -0.723   0.665 -12.602  1.00  0.00     0.049 A 
ATOM     60  C   UNL     1       1.472   5.011  -9.794  1.00  0.00     0.074 A 
ATOM     61  C   UNL     1      -1.223   0.932 -13.863  1.00  0.00     0.029 A 
ATOM     62  N   UNL     1      -0.212   1.856 -12.110  1.00  0.00    -0.354 N 
ATOM     63  N   UNL     1       0.909   4.101 -10.556  1.00  0.00    -0.248 NA
ATOM     64  C   UNL     1       1.650   6.313 -10.454  1.00  0.00     0.031 C 
ATOM     65  C   UNL     1      -0.944   2.267 -14.165  1.00  0.00     0.029 A 
ATOM     66  C   UNL     1      -0.340   2.851 -13.062  1.00  0.00     0.049 A 
ATOM     67  H   UNL     1       0.183   1.976 -11.216  1.00  0.00     0.167 HD
ATOM     68  C   UNL     1       0.649   4.727 -11.772  1.00  0.00     0.074 A 
ATOM     69  C   UNL     1       1.094   6.097 -11.639  1.00  0.00     0.031 C 
ATOM     70  C   UNL     1       0.100   4.215 -12.902  1.00  0.00     0.037 A 
BRANCH  57  71
ATOM     71  C   UNL     1      -1.161  -1.817 -12.636  1.00  0.00     0.058 A 
ATOM     72  C   UNL     1      -2.360  -2.467 -12.311  1.00  0.00     0.135 A 
ATOM     73  C   UNL     1      -0.429  -2.299 -13.735  1.00  0.00     0.135 A 
ATOM     74  F   UNL     1      -3.083  -2.066 -11.253  1.00  0.00    -0.206 F 
ATOM     75  C   UNL     1      -2.822  -3.549 -13.053  1.00  0.00     0.059 A 
ATOM     76  C   UNL     1      -0.886  -3.360 -14.508  1.00  0.00     0.059 A 
ATOM     77  F   UNL     1       0.733  -1.722 -14.078  1.00  0.00    -0.206 F 
ATOM     78  C   UNL     1      -2.084  -3.979 -14.159  1.00  0.00     0.060 A 
BRANCH  78  79
ATOM     79  S   UNL     1      -2.734  -5.340 -15.150  1.00  0.00     0.124 S 
ATOM     80  O   UNL     1      -2.587  -6.466 -14.233  1.00  0.00    -0.237 OA
ATOM     81  O   UNL     1      -4.103  -4.907 -15.407  1.00  0.00    -0.237 OA
ATOM     82  O   UNL     1      -1.856  -5.363 -16.316  1.00  0.00    -0.744 OA
ENDBRANCH  78  79
ENDBRANCH  57  71
BRANCH  58  83
ATOM     83  C   UNL     1       2.615   6.045  -7.691  1.00  0.00     0.058 A 
ATOM     84  C   UNL     1       1.914   7.229  -7.412  1.00  0.00     0.135 A 
ATOM     85  C   UNL     1       3.978   6.008  -7.356  1.00  0.00     0.135 A 
ATOM     86  F   UNL     1       0.613   7.326  -7.726  1.00  0.00    -0.206 F 
ATOM     87  C   UNL     1       2.543   8.341  -6.859  1.00  0.00     0.059 A 
ATOM     88  C   UNL     1       4.622   7.093  -6.769  1.00  0.00     0.059 A 
ATOM     89  F   UNL     1       4.702   4.902  -7.593  1.00  0.00    -0.206 F 
ATOM     90  C   UNL     1       3.900   8.263  -6.541  1.00  0.00     0.060 A 
BRANCH  90  91
ATOM     91  S   UNL     1       4.708   9.706  -5.815  1.00  0.00     0.124 S 
ATOM     92  O   UNL     1       4.761  10.617  -6.952  1.00  0.00    -0.237 OA
ATOM     93  O   UNL     1       3.783  10.070  -4.746  1.00  0.00    -0.237 OA
ATOM     94  O   UNL     1       5.996   9.181  -5.368  1.00  0.00    -0.744 OA
ENDBRANCH  90  91
ENDBRANCH  58  83
BRANCH  70  95
ATOM     95  C   UNL     1      -0.080   5.137 -14.078  1.00  0.00     0.058 A 
ATOM     96  C   UNL     1       1.011   5.582 -14.840  1.00  0.00     0.135 A 
ATOM     97  C   UNL     1      -1.369   5.501 -14.503  1.00  0.00     0.135 A 
ATOM     98  F   UNL     1       2.264   5.269 -14.474  1.00  0.00    -0.206 F 
ATOM     99  C   UNL     1       0.832   6.364 -15.976  1.00  0.00     0.059 A 
ATOM    100  C   UNL     1      -1.573   6.253 -15.654  1.00  0.00     0.059 A 
ATOM    101  F   UNL     1      -2.448   5.093 -13.816  1.00  0.00    -0.206 F 
ATOM    102  C   UNL     1      -0.466   6.685 -16.382  1.00  0.00     0.060 A 
BRANCH 102 103
ATOM    103  S   UNL     1      -0.683   7.644 -17.895  1.00  0.00     0.124 S 
ATOM    104  O   UNL     1      -0.180   8.953 -17.490  1.00  0.00    -0.237 OA
ATOM    105  O   UNL     1       0.147   6.913 -18.848  1.00  0.00    -0.237 OA
ATOM    106  O   UNL     1      -2.120   7.574 -18.141  1.00  0.00    -0.744 OA
ENDBRANCH 102 103
ENDBRANCH  70  95
ENDBRANCH  44  45
ENDBRANCH  37  39
ENDBRANCH  36  37
ENDBRANCH  35  36
ENDBRANCH  34  35
ENDBRANCH  33  34
ENDBRANCH  32  33
ENDBRANCH   1  32
TORSDOF 24
