REMARK SMILES CCCCCCNC(=O)Oc1cccc(-c2ccc([C@H](C)C(=O)OCCOCCOCCOC(=O)c3ccc(-c4c5nc(c(-c6c(F)cc(S(=O)(=O)[O-])cc6F)c6ccc([nH]6)c(-c6c(F)cc(S(=O)(=O)[O-])cc6F)c6nc(c(-c7c(F)cc(S(=O)(=O)[O-])cc7F)c7ccc4[nH]7)C=C6)C=C5)cc3)cc2F)c1
REMARK SMILES IDX 25 1 24 2 22 3 23 4 20 5 21 6 19 7 16 8 17 9 103 10 18 11
REMARK SMILES IDX 102 12 104 13 15 14 11 15 12 16 105 17 13 18 14 19 10 20
REMARK SMILES IDX 8 21 7 22 9 24 6 25 5 26 4 27 3 28 2 29 1 30 26 31 27 32
REMARK SMILES IDX 28 33 29 34 30 35 31 36 32 37 33 38 34 39 35 40 36 41 37 42
REMARK SMILES IDX 101 43 38 44 100 45 39 46 40 47 41 48 94 49 42 50 99 51
REMARK SMILES IDX 93 52 95 53 43 54 98 55 92 56 91 57 44 59 78 60 57 61 77 62
REMARK SMILES IDX 58 63 61 64 76 65 96 66 59 67 60 68 75 70 97 71 62 72 45 73
REMARK SMILES IDX 46 74 55 75 47 76 48 77 54 78 56 79 49 80 50 81 51 82 52 83
REMARK SMILES IDX 53 84 79 85 80 86 89 87 81 88 82 89 88 90 90 91 83 92 84 93
REMARK SMILES IDX 85 94 86 95 87 96 63 97 64 98 73 99 65 100 66 101 72 102
REMARK SMILES IDX 74 103 67 104 68 105 69 106 70 107 71 108
REMARK H PARENT 7 23 95 58 61 69
REMARK Flexibility Score: inf
ROOT
ATOM      1  C   UNL     1      -2.461  -6.409  14.694  1.00  0.00     0.261 C 
ENDROOT
BRANCH   1   2
ATOM      2  O   UNL     1      -3.428  -5.797  13.817  1.00  0.00    -0.463 OA
BRANCH   2   3
ATOM      3  C   UNL     1      -3.867  -4.556  14.169  1.00  0.00     0.313 C 
ATOM      4  O   UNL     1      -3.465  -3.942  15.152  1.00  0.00    -0.252 OA
BRANCH   3   5
ATOM      5  C   UNL     1      -5.010  -4.031  13.283  1.00  0.00     0.126 C 
ATOM      6  C   UNL     1      -5.118  -4.498  11.825  1.00  0.00     0.025 C 
BRANCH   5   7
ATOM      7  C   UNL     1      -6.335  -4.295  13.955  1.00  0.00    -0.031 A 
ATOM      8  C   UNL     1      -8.804  -4.773  15.163  1.00  0.00     0.018 A 
ATOM      9  C   UNL     1      -7.756  -5.685  15.322  1.00  0.00     0.012 A 
ATOM     10  C   UNL     1      -8.611  -3.641  14.364  1.00  0.00     0.131 A 
ATOM     11  C   UNL     1      -6.538  -5.458  14.709  1.00  0.00     0.005 A 
ATOM     12  C   UNL     1      -7.386  -3.390  13.771  1.00  0.00     0.044 A 
ATOM     13  F   UNL     1      -9.615  -2.778  14.146  1.00  0.00    -0.206 F 
BRANCH   8  14
ATOM     14  C   UNL     1     -10.078  -5.054  15.800  1.00  0.00    -0.012 A 
ATOM     15  C   UNL     1     -12.394  -5.674  15.625  1.00  0.00     0.133 A 
ATOM     16  C   UNL     1     -12.508  -5.718  17.013  1.00  0.00     0.047 A 
ATOM     17  C   UNL     1     -11.199  -5.321  15.014  1.00  0.00     0.056 A 
ATOM     18  C   UNL     1     -11.395  -5.439  17.802  1.00  0.00     0.004 A 
ATOM     19  C   UNL     1     -10.183  -5.114  17.197  1.00  0.00     0.009 A 
BRANCH  15  20
ATOM     20  O   UNL     1     -13.558  -5.871  14.874  1.00  0.00    -0.410 OA
BRANCH  20  21
ATOM     21  C   UNL     1     -13.473  -6.591  13.696  1.00  0.00     0.412 C 
ATOM     22  N   UNL     1     -14.534  -6.376  12.870  1.00  0.00    -0.321 N 
ATOM     23  H   UNL     1     -14.567  -6.896  12.034  1.00  0.00     0.167 HD
ATOM     24  O   UNL     1     -12.564  -7.359  13.372  1.00  0.00    -0.224 OA
BRANCH  22  25
ATOM     25  C   UNL     1     -15.618  -5.449  13.118  1.00  0.00     0.119 C 
BRANCH  25  26
ATOM     26  C   UNL     1     -15.829  -4.493  11.946  1.00  0.00     0.021 C 
BRANCH  26  27
ATOM     27  C   UNL     1     -16.241  -5.173  10.637  1.00  0.00     0.002 C 
BRANCH  27  28
ATOM     28  C   UNL     1     -17.499  -6.044  10.724  1.00  0.00    -0.000 C 
BRANCH  28  29
ATOM     29  C   UNL     1     -18.756  -5.322  11.212  1.00  0.00    -0.003 C 
ATOM     30  C   UNL     1     -19.194  -4.196  10.289  1.00  0.00     0.004 C 
ENDBRANCH  28  29
ENDBRANCH  27  28
ENDBRANCH  26  27
ENDBRANCH  25  26
ENDBRANCH  22  25
ENDBRANCH  20  21
ENDBRANCH  15  20
ENDBRANCH   8  14
ENDBRANCH   5   7
ENDBRANCH   3   5
ENDBRANCH   2   3
ENDBRANCH   1   2
BRANCH   1  31
ATOM     31  C   UNL     1      -1.030  -6.529  14.146  1.00  0.00     0.202 C 
BRANCH  31  32
ATOM     32  O   UNL     1      -0.292  -5.361  13.810  1.00  0.00    -0.376 OA
BRANCH  32  33
ATOM     33  C   UNL     1      -0.870  -4.366  12.977  1.00  0.00     0.188 C 
BRANCH  33  34
ATOM     34  C   UNL     1      -1.717  -4.802  11.776  1.00  0.00     0.188 C 
BRANCH  34  35
ATOM     35  O   UNL     1      -1.767  -6.186  11.540  1.00  0.00    -0.376 OA
BRANCH  35  36
ATOM     36  C   UNL     1      -1.001  -6.715  10.475  1.00  0.00     0.202 C 
BRANCH  36  37
ATOM     37  C   UNL     1       0.407  -6.180  10.146  1.00  0.00     0.261 C 
BRANCH  37  38
ATOM     38  O   UNL     1       0.657  -4.776  10.329  1.00  0.00    -0.460 OA
BRANCH  38  39
ATOM     39  C   UNL     1       0.172  -3.920   9.396  1.00  0.00     0.338 C 
ATOM     40  O   UNL     1      -0.445  -4.219   8.390  1.00  0.00    -0.246 OA
BRANCH  39  41
ATOM     41  C   UNL     1       0.285  -2.543   9.950  1.00  0.00     0.060 A 
ATOM     42  C   UNL     1      -0.880  -1.778  10.124  1.00  0.00     0.016 A 
ATOM     43  C   UNL     1       1.523  -2.025  10.333  1.00  0.00     0.016 A 
ATOM     44  C   UNL     1      -0.806  -0.484  10.649  1.00  0.00     0.010 A 
ATOM     45  C   UNL     1       1.599  -0.718  10.831  1.00  0.00     0.010 A 
ATOM     46  C   UNL     1       0.441   0.072  10.960  1.00  0.00    -0.014 A 
BRANCH  46  47
ATOM     47  C   UNL     1       0.569   1.535  11.192  1.00  0.00     0.031 A 
ATOM     48  C   UNL     1       1.007   2.395  10.034  1.00  0.00     0.074 A 
ATOM     49  C   UNL     1       0.305   2.100  12.384  1.00  0.00     0.049 A 
ATOM     50  N   UNL     1       1.285   3.671  10.001  1.00  0.00    -0.248 NA
ATOM     51  C   UNL     1       1.157   1.713   8.737  1.00  0.00     0.031 C 
ATOM     52  C   UNL     1      -0.174   1.395  13.571  1.00  0.00     0.029 A 
ATOM     53  N   UNL     1       0.422   3.407  12.795  1.00  0.00    -0.354 N 
ATOM     54  C   UNL     1       1.657   3.942   8.688  1.00  0.00     0.074 A 
ATOM     55  C   UNL     1       1.597   2.693   7.963  1.00  0.00     0.031 C 
ATOM     56  C   UNL     1      -0.291   2.274  14.583  1.00  0.00     0.029 A 
ATOM     57  C   UNL     1       0.141   3.596  14.128  1.00  0.00     0.049 A 
ATOM     58  H   UNL     1       0.683   4.140  12.191  1.00  0.00     0.167 HD
ATOM     59  C   UNL     1       2.011   5.126   8.135  1.00  0.00     0.037 A 
ATOM     60  C   UNL     1       0.248   4.700  14.897  1.00  0.00     0.037 A 
ATOM     61  C   UNL     1       2.070   6.369   8.858  1.00  0.00     0.049 A 
ATOM     62  C   UNL     1       0.722   5.994  14.277  1.00  0.00     0.074 A 
ATOM     63  C   UNL     1       2.402   7.625   8.382  1.00  0.00     0.029 A 
ATOM     64  N   UNL     1       1.801   6.513  10.211  1.00  0.00    -0.354 N 
ATOM     65  N   UNL     1       1.053   6.243  13.032  1.00  0.00    -0.248 NA
ATOM     66  C   UNL     1       0.834   7.160  15.168  1.00  0.00     0.031 C 
ATOM     67  C   UNL     1       2.393   8.517   9.459  1.00  0.00     0.029 A 
ATOM     68  C   UNL     1       1.988   7.831  10.593  1.00  0.00     0.049 A 
ATOM     69  H   UNL     1       1.519   5.785  10.812  1.00  0.00     0.167 HD
ATOM     70  C   UNL     1       1.379   7.596  12.984  1.00  0.00     0.074 A 
ATOM     71  C   UNL     1       1.196   8.116  14.323  1.00  0.00     0.031 C 
ATOM     72  C   UNL     1       1.790   8.342  11.927  1.00  0.00     0.037 A 
BRANCH  59  73
ATOM     73  C   UNL     1       2.395   5.128   6.680  1.00  0.00     0.058 A 
ATOM     74  C   UNL     1       1.450   4.922   5.662  1.00  0.00     0.135 A 
ATOM     75  C   UNL     1       3.724   5.375   6.298  1.00  0.00     0.135 A 
ATOM     76  F   UNL     1       0.170   4.660   5.969  1.00  0.00    -0.206 F 
ATOM     77  C   UNL     1       1.814   4.934   4.319  1.00  0.00     0.059 A 
ATOM     78  C   UNL     1       4.104   5.423   4.960  1.00  0.00     0.059 A 
ATOM     79  F   UNL     1       4.670   5.574   7.230  1.00  0.00    -0.206 F 
ATOM     80  C   UNL     1       3.144   5.188   3.978  1.00  0.00     0.060 A 
BRANCH  80  81
ATOM     81  S   UNL     1       3.595   5.212   2.231  1.00  0.00     0.124 S 
ATOM     82  O   UNL     1       3.484   3.799   1.882  1.00  0.00    -0.237 OA
ATOM     83  O   UNL     1       2.578   6.088   1.659  1.00  0.00    -0.237 OA
ATOM     84  O   UNL     1       4.952   5.751   2.236  1.00  0.00    -0.744 OA
ENDBRANCH  80  81
ENDBRANCH  59  73
BRANCH  60  85
ATOM     85  C   UNL     1      -0.077   4.637  16.350  1.00  0.00     0.058 A 
ATOM     86  C   UNL     1      -1.178   5.328  16.880  1.00  0.00     0.135 A 
ATOM     87  C   UNL     1       0.719   3.901  17.243  1.00  0.00     0.135 A 
ATOM     88  F   UNL     1      -1.960   6.062  16.074  1.00  0.00    -0.206 F 
ATOM     89  C   UNL     1      -1.469   5.306  18.241  1.00  0.00     0.059 A 
ATOM     90  C   UNL     1       0.430   3.839  18.604  1.00  0.00     0.059 A 
ATOM     91  F   UNL     1       1.783   3.220  16.791  1.00  0.00    -0.206 F 
ATOM     92  C   UNL     1      -0.660   4.554  19.095  1.00  0.00     0.060 A 
BRANCH  92  93
ATOM     93  S   UNL     1      -1.074   4.499  20.853  1.00  0.00     0.124 S 
ATOM     94  O   UNL     1      -0.727   5.849  21.280  1.00  0.00    -0.237 OA
ATOM     95  O   UNL     1      -2.499   4.186  20.821  1.00  0.00    -0.237 OA
ATOM     96  O   UNL     1      -0.217   3.434  21.367  1.00  0.00    -0.744 OA
ENDBRANCH  92  93
ENDBRANCH  60  85
BRANCH  72  97
ATOM     97  C   UNL     1       2.026   9.814  12.152  1.00  0.00     0.058 A 
ATOM     98  C   UNL     1       3.120  10.288  12.893  1.00  0.00     0.135 A 
ATOM     99  C   UNL     1       1.178  10.765  11.558  1.00  0.00     0.135 A 
ATOM    100  F   UNL     1       3.961   9.426  13.485  1.00  0.00    -0.206 F 
ATOM    101  C   UNL     1       3.351  11.651  13.057  1.00  0.00     0.059 A 
ATOM    102  C   UNL     1       1.409  12.132  11.682  1.00  0.00     0.059 A 
ATOM    103  F   UNL     1       0.124  10.369  10.827  1.00  0.00    -0.206 F 
ATOM    104  C   UNL     1       2.492  12.566  12.444  1.00  0.00     0.060 A 
BRANCH 104 105
ATOM    105  S   UNL     1       2.826  14.330  12.635  1.00  0.00     0.124 S 
ATOM    106  O   UNL     1       2.470  14.548  14.033  1.00  0.00    -0.237 OA
ATOM    107  O   UNL     1       4.250  14.413  12.323  1.00  0.00    -0.237 OA
ATOM    108  O   UNL     1       1.939  14.953  11.658  1.00  0.00    -0.744 OA
ENDBRANCH 104 105
ENDBRANCH  72  97
ENDBRANCH  46  47
ENDBRANCH  39  41
ENDBRANCH  38  39
ENDBRANCH  37  38
ENDBRANCH  36  37
ENDBRANCH  35  36
ENDBRANCH  34  35
ENDBRANCH  33  34
ENDBRANCH  32  33
ENDBRANCH  31  32
ENDBRANCH   1  31
TORSDOF 29
