REMARK SMILES CN1C(=O)C[C@H](C(=O)OCCOCCOCCOC(=O)c2ccc(-c3c4nc(c(-c5c(F)cc(S(=O)(=O)[O-])cc5F)c5ccc([nH]5)c(-c5c(F)cc(S(=O)(=O)[O-])cc5F)c5nc(c(-c6c(F)cc(S(=O)(=O)[O-])cc6F)c6ccc3[nH]6)C=C5)C=C4)cc2)C12CC[NH+](Cc1ccc(Cl)c(F)c1)CC2
REMARK SMILES IDX 14 1 13 2 12 3 11 4 10 5 9 6 7 7 8 8 6 9 1 10 2 11 3 12
REMARK SMILES IDX 87 13 4 14 5 15 88 16 101 17 89 18 100 19 90 20 91 22 92 23
REMARK SMILES IDX 93 24 99 25 94 26 97 27 95 28 98 29 96 30 15 31 16 32 17 33
REMARK SMILES IDX 18 34 19 35 20 36 21 37 22 38 86 39 23 40 85 41 24 42 25 43
REMARK SMILES IDX 26 44 79 45 27 46 84 47 78 48 80 49 28 50 83 51 77 52 76 53
REMARK SMILES IDX 29 55 63 56 42 57 62 58 43 59 46 60 61 61 81 62 44 63 45 64
REMARK SMILES IDX 60 66 82 67 47 68 30 69 31 70 40 71 32 72 33 73 39 74 41 75
REMARK SMILES IDX 34 76 35 77 36 78 37 79 38 80 64 81 65 82 74 83 66 84 67 85
REMARK SMILES IDX 73 86 75 87 68 88 69 89 70 90 71 91 72 92 48 93 49 94 58 95
REMARK SMILES IDX 50 96 51 97 57 98 59 99 52 100 53 101 54 102 55 103 56 104
REMARK H PARENT 90 21 80 54 46 65
REMARK Flexibility Score: inf
ROOT
ATOM      1  C   UNL     1      -2.267  -3.609  -4.065  1.00  0.00     0.188 C 
ENDROOT
BRANCH   1   2
ATOM      2  C   UNL     1      -1.657  -4.898  -3.470  1.00  0.00     0.188 C 
BRANCH   2   3
ATOM      3  O   UNL     1      -2.483  -6.011  -3.185  1.00  0.00    -0.376 OA
BRANCH   3   4
ATOM      4  C   UNL     1      -3.840  -5.767  -2.888  1.00  0.00     0.202 C 
BRANCH   4   5
ATOM      5  C   UNL     1      -4.162  -5.068  -1.559  1.00  0.00     0.261 C 
BRANCH   5   6
ATOM      6  O   UNL     1      -3.568  -3.766  -1.313  1.00  0.00    -0.463 OA
BRANCH   6   7
ATOM      7  C   UNL     1      -2.457  -3.761  -0.519  1.00  0.00     0.311 C 
ATOM      8  O   UNL     1      -1.848  -4.780  -0.218  1.00  0.00    -0.252 OA
BRANCH   7   9
ATOM      9  C   UNL     1      -2.145  -2.379   0.067  1.00  0.00     0.134 C 
ATOM     10  C   UNL     1       0.612   0.105   0.838  1.00  0.00     0.147 C 
ATOM     11  N   UNL     1      -0.497  -0.838   0.776  1.00  0.00    -0.339 N 
ATOM     12  C   UNL     1      -0.901  -1.485   1.928  1.00  0.00     0.223 C 
ATOM     13  C   UNL     1      -0.979  -1.473  -0.488  1.00  0.00     0.067 C 
ATOM     14  O   UNL     1      -0.577  -1.214   3.067  1.00  0.00    -0.275 OA
ATOM     15  C   UNL     1      -1.745  -2.649   1.532  1.00  0.00     0.118 C 
ATOM     16  C   UNL     1      -1.508  -0.304  -1.397  1.00  0.00     0.091 C 
ATOM     17  C   UNL     1       0.209  -2.274  -1.058  1.00  0.00     0.091 C 
ATOM     18  C   UNL     1      -1.115  -0.286  -2.876  1.00  0.00     0.265 C 
ATOM     19  C   UNL     1       0.414  -2.138  -2.546  1.00  0.00     0.265 C 
ATOM     20  N   UNL     1       0.204  -0.819  -3.046  1.00  0.00    -0.331 N 
ATOM     21  H   UNL     1       0.691   0.007  -2.700  1.00  0.00     0.348 HD
BRANCH  20  22
ATOM     22  C   UNL     1       1.256  -0.136  -3.780  1.00  0.00     0.299 C 
BRANCH  22  23
ATOM     23  C   UNL     1       2.388   0.306  -2.866  1.00  0.00     0.009 A 
ATOM     24  C   UNL     1       2.683   1.661  -2.679  1.00  0.00     0.011 A 
ATOM     25  C   UNL     1       3.148  -0.626  -2.141  1.00  0.00     0.050 A 
ATOM     26  C   UNL     1       3.635   2.058  -1.727  1.00  0.00     0.024 A 
ATOM     27  C   UNL     1       4.040  -0.234  -1.155  1.00  0.00     0.142 A 
ATOM     28  C   UNL     1       4.281   1.109  -0.933  1.00  0.00     0.076 A 
ATOM     29  F   UNL     1       4.618  -1.186  -0.409  1.00  0.00    -0.205 F 
ATOM     30  Cl  UNL     1       5.341   1.612   0.321  1.00  0.00    -0.081 Cl
ENDBRANCH  22  23
ENDBRANCH  20  22
ENDBRANCH   7   9
ENDBRANCH   6   7
ENDBRANCH   5   6
ENDBRANCH   4   5
ENDBRANCH   3   4
ENDBRANCH   2   3
ENDBRANCH   1   2
BRANCH   1  31
ATOM     31  O   UNL     1      -3.180  -3.741  -5.133  1.00  0.00    -0.376 OA
BRANCH  31  32
ATOM     32  C   UNL     1      -2.642  -4.307  -6.324  1.00  0.00     0.202 C 
BRANCH  32  33
ATOM     33  C   UNL     1      -1.277  -3.775  -6.803  1.00  0.00     0.261 C 
BRANCH  33  34
ATOM     34  O   UNL     1      -0.145  -4.208  -6.003  1.00  0.00    -0.460 OA
BRANCH  34  35
ATOM     35  C   UNL     1       1.039  -3.693  -6.442  1.00  0.00     0.338 C 
ATOM     36  O   UNL     1       1.144  -2.996  -7.443  1.00  0.00    -0.246 OA
BRANCH  35  37
ATOM     37  C   UNL     1       2.225  -3.970  -5.570  1.00  0.00     0.060 A 
ATOM     38  C   UNL     1       2.146  -4.330  -4.231  1.00  0.00     0.016 A 
ATOM     39  C   UNL     1       3.493  -3.690  -6.086  1.00  0.00     0.016 A 
ATOM     40  C   UNL     1       3.280  -4.208  -3.393  1.00  0.00     0.010 A 
ATOM     41  C   UNL     1       4.640  -3.712  -5.268  1.00  0.00     0.010 A 
ATOM     42  C   UNL     1       4.561  -3.904  -3.879  1.00  0.00    -0.014 A 
BRANCH  42  43
ATOM     43  C   UNL     1       5.807  -3.765  -3.019  1.00  0.00     0.031 A 
ATOM     44  C   UNL     1       6.867  -2.727  -3.377  1.00  0.00     0.074 A 
ATOM     45  C   UNL     1       6.074  -4.547  -1.944  1.00  0.00     0.049 A 
ATOM     46  N   UNL     1       8.162  -2.746  -3.176  1.00  0.00    -0.248 NA
ATOM     47  C   UNL     1       6.400  -1.514  -4.072  1.00  0.00     0.031 C 
ATOM     48  C   UNL     1       5.163  -5.492  -1.299  1.00  0.00     0.029 A 
ATOM     49  N   UNL     1       7.242  -4.691  -1.212  1.00  0.00    -0.354 N 
ATOM     50  C   UNL     1       8.674  -1.612  -3.810  1.00  0.00     0.074 A 
ATOM     51  C   UNL     1       7.542  -0.905  -4.370  1.00  0.00     0.031 C 
ATOM     52  C   UNL     1       5.782  -6.093  -0.275  1.00  0.00     0.029 A 
ATOM     53  C   UNL     1       7.187  -5.724  -0.298  1.00  0.00     0.049 A 
ATOM     54  H   UNL     1       8.031  -4.115  -1.332  1.00  0.00     0.167 HD
ATOM     55  C   UNL     1       9.969  -1.222  -3.933  1.00  0.00     0.037 A 
ATOM     56  C   UNL     1       8.147  -6.406   0.361  1.00  0.00     0.037 A 
ATOM     57  C   UNL     1      11.071  -1.889  -3.282  1.00  0.00     0.049 A 
ATOM     58  C   UNL     1       9.589  -6.051   0.137  1.00  0.00     0.074 A 
ATOM     59  C   UNL     1      12.424  -1.594  -3.352  1.00  0.00     0.029 A 
ATOM     60  N   UNL     1      10.945  -2.962  -2.413  1.00  0.00    -0.354 N 
ATOM     61  N   UNL     1      10.092  -5.102  -0.614  1.00  0.00    -0.248 NA
ATOM     62  C   UNL     1      10.596  -6.875   0.820  1.00  0.00     0.031 C 
ATOM     63  C   UNL     1      13.117  -2.524  -2.571  1.00  0.00     0.029 A 
ATOM     64  C   UNL     1      12.193  -3.353  -1.957  1.00  0.00     0.049 A 
ATOM     65  H   UNL     1      10.093  -3.385  -2.159  1.00  0.00     0.167 HD
ATOM     66  C   UNL     1      11.470  -5.192  -0.464  1.00  0.00     0.074 A 
ATOM     67  C   UNL     1      11.725  -6.291   0.442  1.00  0.00     0.031 C 
ATOM     68  C   UNL     1      12.435  -4.425  -1.025  1.00  0.00     0.037 A 
BRANCH  55  69
ATOM     69  C   UNL     1      10.302  -0.073  -4.859  1.00  0.00     0.058 A 
ATOM     70  C   UNL     1      10.007   1.265  -4.560  1.00  0.00     0.135 A 
ATOM     71  C   UNL     1      11.013  -0.327  -6.048  1.00  0.00     0.135 A 
ATOM     72  F   UNL     1       9.325   1.575  -3.447  1.00  0.00    -0.206 F 
ATOM     73  C   UNL     1      10.382   2.304  -5.414  1.00  0.00     0.059 A 
ATOM     74  C   UNL     1      11.424   0.696  -6.899  1.00  0.00     0.059 A 
ATOM     75  F   UNL     1      11.333  -1.586  -6.387  1.00  0.00    -0.206 F 
ATOM     76  C   UNL     1      11.091   2.009  -6.581  1.00  0.00     0.060 A 
BRANCH  76  77
ATOM     77  S   UNL     1      11.567   3.364  -7.678  1.00  0.00     0.124 S 
ATOM     78  O   UNL     1      10.274   3.763  -8.226  1.00  0.00    -0.237 OA
ATOM     79  O   UNL     1      12.183   4.312  -6.755  1.00  0.00    -0.237 OA
ATOM     80  O   UNL     1      12.479   2.734  -8.627  1.00  0.00    -0.744 OA
ENDBRANCH  76  77
ENDBRANCH  55  69
BRANCH  56  81
ATOM     81  C   UNL     1       7.776  -7.589   1.197  1.00  0.00     0.058 A 
ATOM     82  C   UNL     1       7.963  -7.593   2.586  1.00  0.00     0.135 A 
ATOM     83  C   UNL     1       7.208  -8.738   0.616  1.00  0.00     0.135 A 
ATOM     84  F   UNL     1       8.524  -6.535   3.191  1.00  0.00    -0.206 F 
ATOM     85  C   UNL     1       7.603  -8.689   3.368  1.00  0.00     0.059 A 
ATOM     86  C   UNL     1       6.803  -9.827   1.380  1.00  0.00     0.059 A 
ATOM     87  F   UNL     1       7.002  -8.792  -0.710  1.00  0.00    -0.206 F 
ATOM     88  C   UNL     1       7.015  -9.798   2.756  1.00  0.00     0.060 A 
BRANCH  88  89
ATOM     89  S   UNL     1       6.505 -11.194   3.783  1.00  0.00     0.124 S 
ATOM     90  O   UNL     1       7.792 -11.780   4.140  1.00  0.00    -0.237 OA
ATOM     91  O   UNL     1       5.782 -10.532   4.863  1.00  0.00    -0.237 OA
ATOM     92  O   UNL     1       5.679 -11.990   2.881  1.00  0.00    -0.744 OA
ENDBRANCH  88  89
ENDBRANCH  56  81
BRANCH  68  93
ATOM     93  C   UNL     1      13.858  -4.674  -0.615  1.00  0.00     0.058 A 
ATOM     94  C   UNL     1      14.590  -5.771  -1.091  1.00  0.00     0.135 A 
ATOM     95  C   UNL     1      14.524  -3.739   0.195  1.00  0.00     0.135 A 
ATOM     96  F   UNL     1      13.996  -6.702  -1.855  1.00  0.00    -0.206 F 
ATOM     97  C   UNL     1      15.938  -5.929  -0.784  1.00  0.00     0.059 A 
ATOM     98  C   UNL     1      15.876  -3.862   0.492  1.00  0.00     0.059 A 
ATOM     99  F   UNL     1      13.866  -2.671   0.675  1.00  0.00    -0.206 F 
ATOM    100  C   UNL     1      16.576  -4.961  -0.003  1.00  0.00     0.060 A 
BRANCH 100 101
ATOM    101  S   UNL     1      18.346  -5.129   0.308  1.00  0.00     0.124 S 
ATOM    102  O   UNL     1      18.378  -6.253   1.237  1.00  0.00    -0.237 OA
ATOM    103  O   UNL     1      18.871  -5.396  -1.028  1.00  0.00    -0.237 OA
ATOM    104  O   UNL     1      18.717  -3.836   0.874  1.00  0.00    -0.744 OA
ENDBRANCH 100 101
ENDBRANCH  68  93
ENDBRANCH  42  43
ENDBRANCH  35  37
ENDBRANCH  34  35
ENDBRANCH  33  34
ENDBRANCH  32  33
ENDBRANCH  31  32
ENDBRANCH   1  31
TORSDOF 22
