REMARK SMILES Cc1cc(C)n(-c2nc(C)c(C)c(Oc3cccc(C(=O)OCCOCCOCCOC(=O)c4ccc(-c5c6nc(c(-c7c(F)cc(S(=O)(=O)[O-])cc7F)c7ccc([nH]7)c(-c7c(F)cc(S(=O)(=O)[O-])cc7F)c7nc(c(-c8c(F)cc(S(=O)(=O)[O-])cc8F)c8ccc5[nH]8)C=C7)C=C6)cc4)c3)n2)n1
REMARK SMILES IDX 26 1 25 2 24 3 23 4 22 5 20 6 21 7 19 8 15 9 16 10 100 11
REMARK SMILES IDX 17 12 18 13 14 14 13 15 7 16 8 17 101 18 9 19 10 20 11 21
REMARK SMILES IDX 12 22 6 23 1 24 2 25 3 26 102 27 4 28 5 29 27 30 28 31 29 32
REMARK SMILES IDX 30 33 31 34 32 35 33 36 34 37 35 38 99 39 36 40 98 41 37 42
REMARK SMILES IDX 38 43 39 44 92 45 40 46 97 47 91 48 93 49 41 50 96 51 90 52
REMARK SMILES IDX 89 53 42 55 76 56 55 57 75 58 56 59 59 60 74 61 94 62 57 63
REMARK SMILES IDX 58 64 73 66 95 67 60 68 43 69 44 70 53 71 45 72 46 73 52 74
REMARK SMILES IDX 54 75 47 76 48 77 49 78 50 79 51 80 77 81 78 82 87 83 79 84
REMARK SMILES IDX 80 85 86 86 88 87 81 88 82 89 83 90 84 91 85 92 61 93 62 94
REMARK SMILES IDX 71 95 63 96 64 97 70 98 72 99 65 100 66 101 67 102 68 103
REMARK SMILES IDX 69 104
REMARK H PARENT 93 54 59 65
REMARK Flexibility Score: inf
ROOT
ATOM      1  C   UNL     1       6.346   2.026  -7.019  1.00  0.00     0.188 C 
ENDROOT
BRANCH   1   2
ATOM      2  O   UNL     1       7.398   1.271  -6.464  1.00  0.00    -0.376 OA
BRANCH   2   3
ATOM      3  C   UNL     1       7.142   0.140  -5.652  1.00  0.00     0.202 C 
BRANCH   3   4
ATOM      4  C   UNL     1       5.812  -0.172  -4.931  1.00  0.00     0.261 C 
BRANCH   4   5
ATOM      5  O   UNL     1       4.615   0.408  -5.455  1.00  0.00    -0.460 OA
BRANCH   5   6
ATOM      6  C   UNL     1       4.107   1.452  -4.755  1.00  0.00     0.338 C 
ATOM      7  O   UNL     1       4.540   1.906  -3.709  1.00  0.00    -0.246 OA
BRANCH   6   8
ATOM      8  C   UNL     1       3.066   2.127  -5.566  1.00  0.00     0.063 A 
ATOM      9  C   UNL     1       1.055   2.106  -6.899  1.00  0.00     0.130 A 
ATOM     10  C   UNL     1       1.143   3.490  -7.063  1.00  0.00     0.047 A 
ATOM     11  C   UNL     1       2.066   1.410  -6.225  1.00  0.00     0.062 A 
ATOM     12  C   UNL     1       2.185   4.197  -6.467  1.00  0.00     0.005 A 
ATOM     13  C   UNL     1       3.124   3.521  -5.688  1.00  0.00     0.016 A 
BRANCH   9  14
ATOM     14  O   UNL     1      -0.059   1.497  -7.436  1.00  0.00    -0.439 OA
BRANCH  14  15
ATOM     15  C   UNL     1      -0.755   0.596  -6.630  1.00  0.00     0.227 A 
ATOM     16  C   UNL     1      -0.866  -0.598  -4.685  1.00  0.00     0.254 A 
ATOM     17  N   UNL     1      -1.825  -1.409  -5.176  1.00  0.00    -0.216 NA
ATOM     18  N   UNL     1      -0.368   0.446  -5.352  1.00  0.00    -0.175 NA
ATOM     19  C   UNL     1      -2.332  -1.110  -6.395  1.00  0.00     0.050 A 
ATOM     20  C   UNL     1      -3.551  -1.902  -6.768  1.00  0.00     0.067 C 
ATOM     21  C   UNL     1      -1.787  -0.125  -7.209  1.00  0.00     0.033 A 
ATOM     22  C   UNL     1      -2.287   0.154  -8.590  1.00  0.00     0.052 C 
BRANCH  16  23
ATOM     23  N   UNL     1      -0.277  -0.914  -3.414  1.00  0.00    -0.203 N 
ATOM     24  C   UNL     1       0.951   0.160  -0.247  1.00  0.00     0.069 C 
ATOM     25  C   UNL     1       0.514  -0.588  -1.450  1.00  0.00     0.060 A 
ATOM     26  C   UNL     1       0.449  -1.986  -1.618  1.00  0.00     0.049 A 
ATOM     27  N   UNL     1       0.155   0.061  -2.561  1.00  0.00    -0.170 NA
ATOM     28  C   UNL     1      -0.021  -2.179  -2.899  1.00  0.00     0.045 A 
ATOM     29  C   UNL     1      -0.144  -3.423  -3.698  1.00  0.00     0.067 C 
ENDBRANCH  16  23
ENDBRANCH  14  15
ENDBRANCH   9  14
ENDBRANCH   6   8
ENDBRANCH   5   6
ENDBRANCH   4   5
ENDBRANCH   3   4
ENDBRANCH   2   3
ENDBRANCH   1   2
BRANCH   1  30
ATOM     30  C   UNL     1       5.410   1.394  -8.071  1.00  0.00     0.188 C 
BRANCH  30  31
ATOM     31  O   UNL     1       5.259  -0.008  -8.151  1.00  0.00    -0.376 OA
BRANCH  31  32
ATOM     32  C   UNL     1       6.233  -0.886  -8.690  1.00  0.00     0.202 C 
BRANCH  32  33
ATOM     33  C   UNL     1       7.476  -0.490  -9.483  1.00  0.00     0.261 C 
BRANCH  33  34
ATOM     34  O   UNL     1       7.909   0.836  -9.307  1.00  0.00    -0.460 OA
BRANCH  34  35
ATOM     35  C   UNL     1       7.441   1.670 -10.258  1.00  0.00     0.338 C 
ATOM     36  O   UNL     1       6.611   1.425 -11.113  1.00  0.00    -0.246 OA
BRANCH  35  37
ATOM     37  C   UNL     1       8.127   2.954 -10.123  1.00  0.00     0.060 A 
ATOM     38  C   UNL     1       7.585   4.016 -10.848  1.00  0.00     0.016 A 
ATOM     39  C   UNL     1       9.440   2.949  -9.636  1.00  0.00     0.016 A 
ATOM     40  C   UNL     1       8.464   4.926 -11.374  1.00  0.00     0.010 A 
ATOM     41  C   UNL     1      10.316   3.852 -10.170  1.00  0.00     0.010 A 
ATOM     42  C   UNL     1       9.827   4.730 -11.132  1.00  0.00    -0.014 A 
BRANCH  42  43
ATOM     43  C   UNL     1      10.765   5.431 -11.971  1.00  0.00     0.031 A 
ATOM     44  C   UNL     1      10.948   6.837 -11.571  1.00  0.00     0.074 A 
ATOM     45  C   UNL     1      11.434   4.785 -12.946  1.00  0.00     0.049 A 
ATOM     46  N   UNL     1      10.560   7.894 -12.200  1.00  0.00    -0.248 NA
ATOM     47  C   UNL     1      11.429   7.086 -10.203  1.00  0.00     0.031 C 
ATOM     48  C   UNL     1      11.493   3.346 -13.228  1.00  0.00     0.029 A 
ATOM     49  N   UNL     1      12.298   5.304 -13.853  1.00  0.00    -0.354 N 
ATOM     50  C   UNL     1      10.960   8.958 -11.402  1.00  0.00     0.074 A 
ATOM     51  C   UNL     1      11.277   8.406 -10.111  1.00  0.00     0.031 C 
ATOM     52  C   UNL     1      12.521   3.099 -14.075  1.00  0.00     0.029 A 
ATOM     53  C   UNL     1      13.095   4.363 -14.497  1.00  0.00     0.049 A 
ATOM     54  H   UNL     1      12.357   6.269 -14.040  1.00  0.00     0.167 HD
ATOM     55  C   UNL     1      11.245  10.176 -11.933  1.00  0.00     0.037 A 
ATOM     56  C   UNL     1      14.200   4.656 -15.230  1.00  0.00     0.037 A 
ATOM     57  C   UNL     1      10.707  10.309 -13.262  1.00  0.00     0.049 A 
ATOM     58  C   UNL     1      14.078   6.093 -15.619  1.00  0.00     0.074 A 
ATOM     59  C   UNL     1       9.429  10.313 -13.786  1.00  0.00     0.029 A 
ATOM     60  N   UNL     1      11.547  10.058 -14.322  1.00  0.00    -0.354 N 
ATOM     61  N   UNL     1      13.144   6.549 -16.414  1.00  0.00    -0.248 NA
ATOM     62  C   UNL     1      14.670   7.082 -14.728  1.00  0.00     0.031 C 
ATOM     63  C   UNL     1       9.529   9.607 -15.020  1.00  0.00     0.029 A 
ATOM     64  C   UNL     1      10.868   9.264 -15.214  1.00  0.00     0.049 A 
ATOM     65  H   UNL     1      12.469  10.389 -14.423  1.00  0.00     0.167 HD
ATOM     66  C   UNL     1      12.751   7.760 -15.857  1.00  0.00     0.074 A 
ATOM     67  C   UNL     1      13.766   8.059 -14.848  1.00  0.00     0.031 C 
ATOM     68  C   UNL     1      11.496   8.265 -16.056  1.00  0.00     0.037 A 
BRANCH  55  69
ATOM     69  C   UNL     1      12.297  11.093 -11.372  1.00  0.00     0.058 A 
ATOM     70  C   UNL     1      12.363  12.426 -11.816  1.00  0.00     0.135 A 
ATOM     71  C   UNL     1      13.397  10.647 -10.602  1.00  0.00     0.135 A 
ATOM     72  F   UNL     1      11.380  12.945 -12.569  1.00  0.00    -0.206 F 
ATOM     73  C   UNL     1      13.467  13.239 -11.558  1.00  0.00     0.059 A 
ATOM     74  C   UNL     1      14.475  11.459 -10.281  1.00  0.00     0.059 A 
ATOM     75  F   UNL     1      13.528   9.375 -10.207  1.00  0.00    -0.206 F 
ATOM     76  C   UNL     1      14.522  12.741 -10.798  1.00  0.00     0.060 A 
BRANCH  76  77
ATOM     77  S   UNL     1      15.993  13.749 -10.557  1.00  0.00     0.124 S 
ATOM     78  O   UNL     1      16.521  13.823 -11.914  1.00  0.00    -0.237 OA
ATOM     79  O   UNL     1      15.428  14.982 -10.020  1.00  0.00    -0.237 OA
ATOM     80  O   UNL     1      16.787  12.967  -9.613  1.00  0.00    -0.744 OA
ENDBRANCH  76  77
ENDBRANCH  55  69
BRANCH  56  81
ATOM     81  C   UNL     1      15.510   3.944 -15.200  1.00  0.00     0.058 A 
ATOM     82  C   UNL     1      16.520   4.238 -16.136  1.00  0.00     0.135 A 
ATOM     83  C   UNL     1      15.908   3.177 -14.085  1.00  0.00     0.135 A 
ATOM     84  F   UNL     1      16.238   4.980 -17.218  1.00  0.00    -0.206 F 
ATOM     85  C   UNL     1      17.851   3.841 -15.951  1.00  0.00     0.059 A 
ATOM     86  C   UNL     1      17.225   2.765 -13.883  1.00  0.00     0.059 A 
ATOM     87  F   UNL     1      15.044   2.881 -13.103  1.00  0.00    -0.206 F 
ATOM     88  C   UNL     1      18.198   3.124 -14.806  1.00  0.00     0.060 A 
BRANCH  88  89
ATOM     89  S   UNL     1      19.940   2.764 -14.472  1.00  0.00     0.124 S 
ATOM     90  O   UNL     1      20.268   1.831 -15.545  1.00  0.00    -0.237 OA
ATOM     91  O   UNL     1      20.550   4.085 -14.566  1.00  0.00    -0.237 OA
ATOM     92  O   UNL     1      19.916   2.186 -13.130  1.00  0.00    -0.744 OA
ENDBRANCH  88  89
ENDBRANCH  56  81
BRANCH  68  93
ATOM     93  C   UNL     1      10.612   7.593 -17.081  1.00  0.00     0.058 A 
ATOM     94  C   UNL     1      10.113   6.282 -16.959  1.00  0.00     0.135 A 
ATOM     95  C   UNL     1      10.115   8.365 -18.140  1.00  0.00     0.135 A 
ATOM     96  F   UNL     1      10.456   5.511 -15.919  1.00  0.00    -0.206 F 
ATOM     97  C   UNL     1       9.192   5.753 -17.869  1.00  0.00     0.059 A 
ATOM     98  C   UNL     1       9.174   7.870 -19.041  1.00  0.00     0.059 A 
ATOM     99  F   UNL     1      10.501   9.644 -18.277  1.00  0.00    -0.206 F 
ATOM    100  C   UNL     1       8.725   6.558 -18.907  1.00  0.00     0.060 A 
BRANCH 100 101
ATOM    101  S   UNL     1       7.482   5.902 -20.043  1.00  0.00     0.124 S 
ATOM    102  O   UNL     1       8.235   4.883 -20.768  1.00  0.00    -0.237 OA
ATOM    103  O   UNL     1       6.454   5.403 -19.135  1.00  0.00    -0.237 OA
ATOM    104  O   UNL     1       7.091   7.067 -20.833  1.00  0.00    -0.744 OA
ENDBRANCH 100 101
ENDBRANCH  68  93
ENDBRANCH  42  43
ENDBRANCH  35  37
ENDBRANCH  34  35
ENDBRANCH  33  34
ENDBRANCH  32  33
ENDBRANCH  31  32
ENDBRANCH  30  31
ENDBRANCH   1  30
TORSDOF 23
