REMARK SMILES C#CCNC(=O)C[N@@H+](CC(=O)OCCOCCOCCOC(=O)c1ccc(-c2c3nc(c(-c4c(F)cc(S(=O)(=O)[O-])cc4F)c4ccc([nH]4)c(-c4c(F)cc(S(=O)(=O)[O-])cc4F)c4nc(c(-c5c(F)cc(S(=O)(=O)[O-])cc5F)c5ccc2[nH]5)C=C4)C=C3)cc1)C(C)(C)C
REMARK SMILES IDX 16 1 15 2 14 3 13 4 12 5 10 6 11 7 9 8 8 9 7 11 5 12 4 13
REMARK SMILES IDX 6 15 3 16 2 17 1 18 90 19 91 20 92 21 93 22 17 23 18 24
REMARK SMILES IDX 19 25 20 26 21 27 22 28 23 29 24 30 25 31 89 32 26 33 88 34
REMARK SMILES IDX 27 35 28 36 29 37 82 38 30 39 87 40 81 41 83 42 31 43 86 44
REMARK SMILES IDX 80 45 79 46 32 48 66 49 45 50 65 51 46 52 49 53 64 54 84 55
REMARK SMILES IDX 47 56 48 57 63 59 85 60 50 61 33 62 34 63 43 64 35 65 36 66
REMARK SMILES IDX 42 67 44 68 37 69 38 70 39 71 40 72 41 73 67 74 68 75 77 76
REMARK SMILES IDX 69 77 70 78 76 79 78 80 71 81 72 82 73 83 74 84 75 85 51 86
REMARK SMILES IDX 52 87 61 88 53 89 54 90 60 91 62 92 55 93 56 94 57 95 58 96
REMARK SMILES IDX 59 97
REMARK H PARENT 8 10 4 14 83 47 49 58
REMARK Flexibility Score: inf
ROOT
ATOM      1  C   UNL     1      -3.453   7.274  -2.359  1.00  0.00     0.188 C 
ENDROOT
BRANCH   1   2
ATOM      2  O   UNL     1      -4.783   7.481  -2.813  1.00  0.00    -0.376 OA
BRANCH   2   3
ATOM      3  C   UNL     1      -5.787   6.673  -2.204  1.00  0.00     0.202 C 
BRANCH   3   4
ATOM      4  C   UNL     1      -5.760   5.162  -2.500  1.00  0.00     0.261 C 
BRANCH   4   5
ATOM      5  O   UNL     1      -4.652   4.393  -1.962  1.00  0.00    -0.459 OA
BRANCH   5   6
ATOM      6  C   UNL     1      -3.896   3.734  -2.882  1.00  0.00     0.361 C 
ATOM      7  O   UNL     1      -4.016   3.910  -4.095  1.00  0.00    -0.245 OA
BRANCH   6   8
ATOM      8  C   UNL     1      -2.926   2.656  -2.380  1.00  0.00     0.387 C 
BRANCH   8   9
ATOM      9  N   UNL     1      -2.605   2.453  -0.937  1.00  0.00    -0.314 N 
ATOM     10  H   UNL     1      -2.024   1.617  -0.888  1.00  0.00     0.349 HD
BRANCH   9  11
ATOM     11  C   UNL     1      -3.800   2.074  -0.156  1.00  0.00     0.364 C 
BRANCH  11  12
ATOM     12  C   UNL     1      -3.477   1.392   1.175  1.00  0.00     0.275 C 
ATOM     13  N   UNL     1      -2.435   0.508   1.227  1.00  0.00    -0.340 N 
ATOM     14  H   UNL     1      -2.121   0.221   2.114  1.00  0.00     0.164 HD
ATOM     15  O   UNL     1      -4.149   1.596   2.188  1.00  0.00    -0.268 OA
BRANCH  13  16
ATOM     16  C   UNL     1      -1.773  -0.026   0.082  1.00  0.00     0.206 C 
BRANCH  16  17
ATOM     17  C   UNL     1      -0.253  -0.026   0.082  1.00  0.00    -0.085 C 
ATOM     18  C   UNL     1       1.051  -0.026   0.082  1.00  0.00     0.006 C 
ENDBRANCH  16  17
ENDBRANCH  13  16
ENDBRANCH  11  12
ENDBRANCH   9  11
BRANCH   9  19
ATOM     19  C   UNL     1      -1.549   3.301  -0.326  1.00  0.00     0.090 C 
ATOM     20  C   UNL     1      -2.196   4.642  -0.139  1.00  0.00     0.078 C 
ATOM     21  C   UNL     1      -0.957   2.994   1.086  1.00  0.00     0.078 C 
ATOM     22  C   UNL     1      -0.315   3.352  -1.265  1.00  0.00     0.078 C 
ENDBRANCH   9  19
ENDBRANCH   8   9
ENDBRANCH   6   8
ENDBRANCH   5   6
ENDBRANCH   4   5
ENDBRANCH   3   4
ENDBRANCH   2   3
ENDBRANCH   1   2
BRANCH   1  23
ATOM     23  C   UNL     1      -3.184   7.631  -0.884  1.00  0.00     0.188 C 
BRANCH  23  24
ATOM     24  O   UNL     1      -4.035   6.942   0.026  1.00  0.00    -0.376 OA
BRANCH  24  25
ATOM     25  C   UNL     1      -3.750   6.978   1.426  1.00  0.00     0.202 C 
BRANCH  25  26
ATOM     26  C   UNL     1      -2.969   8.155   2.014  1.00  0.00     0.261 C 
BRANCH  26  27
ATOM     27  O   UNL     1      -1.707   8.416   1.369  1.00  0.00    -0.460 OA
BRANCH  27  28
ATOM     28  C   UNL     1      -0.708   7.521   1.561  1.00  0.00     0.338 C 
ATOM     29  O   UNL     1      -0.710   6.584   2.343  1.00  0.00    -0.246 OA
BRANCH  28  30
ATOM     30  C   UNL     1       0.304   7.732   0.495  1.00  0.00     0.060 A 
ATOM     31  C   UNL     1       0.658   6.658  -0.328  1.00  0.00     0.016 A 
ATOM     32  C   UNL     1       0.886   8.977   0.277  1.00  0.00     0.016 A 
ATOM     33  C   UNL     1       1.579   6.798  -1.362  1.00  0.00     0.010 A 
ATOM     34  C   UNL     1       1.841   9.119  -0.738  1.00  0.00     0.010 A 
ATOM     35  C   UNL     1       2.210   8.025  -1.548  1.00  0.00    -0.014 A 
BRANCH  35  36
ATOM     36  C   UNL     1       3.403   8.108  -2.426  1.00  0.00     0.031 A 
ATOM     37  C   UNL     1       4.751   8.207  -1.767  1.00  0.00     0.074 A 
ATOM     38  C   UNL     1       3.313   8.052  -3.768  1.00  0.00     0.049 A 
ATOM     39  N   UNL     1       5.915   8.485  -2.290  1.00  0.00    -0.248 NA
ATOM     40  C   UNL     1       4.785   7.962  -0.315  1.00  0.00     0.031 C 
ATOM     41  C   UNL     1       2.085   7.833  -4.531  1.00  0.00     0.029 A 
ATOM     42  N   UNL     1       4.285   8.191  -4.729  1.00  0.00    -0.354 N 
ATOM     43  C   UNL     1       6.810   8.497  -1.227  1.00  0.00     0.074 A 
ATOM     44  C   UNL     1       6.054   8.205  -0.029  1.00  0.00     0.031 C 
ATOM     45  C   UNL     1       2.374   7.876  -5.843  1.00  0.00     0.029 A 
ATOM     46  C   UNL     1       3.792   8.190  -6.013  1.00  0.00     0.049 A 
ATOM     47  H   UNL     1       5.242   8.283  -4.519  1.00  0.00     0.167 HD
ATOM     48  C   UNL     1       8.142   8.736  -1.250  1.00  0.00     0.037 A 
ATOM     49  C   UNL     1       4.405   8.464  -7.183  1.00  0.00     0.037 A 
ATOM     50  C   UNL     1       8.886   8.998  -2.453  1.00  0.00     0.049 A 
ATOM     51  C   UNL     1       5.870   8.824  -7.179  1.00  0.00     0.074 A 
ATOM     52  C   UNL     1      10.238   9.257  -2.587  1.00  0.00     0.029 A 
ATOM     53  N   UNL     1       8.343   9.030  -3.730  1.00  0.00    -0.354 N 
ATOM     54  N   UNL     1       6.703   8.888  -6.166  1.00  0.00    -0.248 NA
ATOM     55  C   UNL     1       6.479   9.159  -8.475  1.00  0.00     0.031 C 
ATOM     56  C   UNL     1      10.502   9.503  -3.938  1.00  0.00     0.029 A 
ATOM     57  C   UNL     1       9.329   9.330  -4.655  1.00  0.00     0.049 A 
ATOM     58  H   UNL     1       7.397   8.865  -3.946  1.00  0.00     0.167 HD
ATOM     59  C   UNL     1       7.938   9.238  -6.707  1.00  0.00     0.074 A 
ATOM     60  C   UNL     1       7.744   9.364  -8.137  1.00  0.00     0.031 C 
ATOM     61  C   UNL     1       9.124   9.435  -6.079  1.00  0.00     0.037 A 
BRANCH  48  62
ATOM     62  C   UNL     1       8.865   8.779   0.067  1.00  0.00     0.058 A 
ATOM     63  C   UNL     1       9.089   7.628   0.838  1.00  0.00     0.135 A 
ATOM     64  C   UNL     1       9.360  10.000   0.555  1.00  0.00     0.135 A 
ATOM     65  F   UNL     1       8.615   6.439   0.432  1.00  0.00    -0.206 F 
ATOM     66  C   UNL     1       9.755   7.689   2.058  1.00  0.00     0.059 A 
ATOM     67  C   UNL     1      10.057  10.079   1.756  1.00  0.00     0.059 A 
ATOM     68  F   UNL     1       9.167  11.133  -0.138  1.00  0.00    -0.206 F 
ATOM     69  C   UNL     1      10.237   8.920   2.508  1.00  0.00     0.060 A 
BRANCH  69  70
ATOM     70  S   UNL     1      11.104   8.981   4.089  1.00  0.00     0.124 S 
ATOM     71  O   UNL     1      10.009   8.760   5.029  1.00  0.00    -0.237 OA
ATOM     72  O   UNL     1      12.060   7.887   3.961  1.00  0.00    -0.237 OA
ATOM     73  O   UNL     1      11.684  10.320   4.108  1.00  0.00    -0.744 OA
ENDBRANCH  69  70
ENDBRANCH  48  62
BRANCH  49  74
ATOM     74  C   UNL     1       3.628   8.461  -8.454  1.00  0.00     0.058 A 
ATOM     75  C   UNL     1       3.882   7.516  -9.460  1.00  0.00     0.135 A 
ATOM     76  C   UNL     1       2.625   9.414  -8.697  1.00  0.00     0.135 A 
ATOM     77  F   UNL     1       4.843   6.595  -9.287  1.00  0.00    -0.206 F 
ATOM     78  C   UNL     1       3.182   7.522 -10.662  1.00  0.00     0.059 A 
ATOM     79  C   UNL     1       1.889   9.421  -9.878  1.00  0.00     0.059 A 
ATOM     80  F   UNL     1       2.339  10.341  -7.769  1.00  0.00    -0.206 F 
ATOM     81  C   UNL     1       2.182   8.477 -10.860  1.00  0.00     0.060 A 
BRANCH  81  82
ATOM     82  S   UNL     1       1.248   8.445 -12.405  1.00  0.00     0.124 S 
ATOM     83  O   UNL     1       2.246   8.910 -13.362  1.00  0.00    -0.237 OA
ATOM     84  O   UNL     1       0.873   7.038 -12.506  1.00  0.00    -0.237 OA
ATOM     85  O   UNL     1       0.143   9.364 -12.149  1.00  0.00    -0.744 OA
ENDBRANCH  81  82
ENDBRANCH  49  74
BRANCH  61  86
ATOM     86  C   UNL     1      10.325   9.752  -6.930  1.00  0.00     0.058 A 
ATOM     87  C   UNL     1      10.485  10.997  -7.558  1.00  0.00     0.135 A 
ATOM     88  C   UNL     1      11.366   8.817  -7.058  1.00  0.00     0.135 A 
ATOM     89  F   UNL     1       9.519  11.926  -7.473  1.00  0.00    -0.206 F 
ATOM     90  C   UNL     1      11.623  11.295  -8.300  1.00  0.00     0.059 A 
ATOM     91  C   UNL     1      12.527   9.106  -7.768  1.00  0.00     0.059 A 
ATOM     92  F   UNL     1      11.272   7.615  -6.467  1.00  0.00    -0.206 F 
ATOM     93  C   UNL     1      12.642  10.345  -8.395  1.00  0.00     0.060 A 
BRANCH  93  94
ATOM     94  S   UNL     1      14.133  10.762  -9.324  1.00  0.00     0.124 S 
ATOM     95  O   UNL     1      13.641  10.735 -10.697  1.00  0.00    -0.237 OA
ATOM     96  O   UNL     1      14.469  12.081  -8.797  1.00  0.00    -0.237 OA
ATOM     97  O   UNL     1      15.065   9.696  -8.970  1.00  0.00    -0.744 OA
ENDBRANCH  93  94
ENDBRANCH  61  86
ENDBRANCH  35  36
ENDBRANCH  28  30
ENDBRANCH  27  28
ENDBRANCH  26  27
ENDBRANCH  25  26
ENDBRANCH  24  25
ENDBRANCH  23  24
ENDBRANCH   1  23
TORSDOF 26
