REMARK SMILES COc1cc(OC)cc(-c2cc3nc(C)c(CCC(=O)OCCOCCOCCOC(=O)c4ccc(-c5c6nc(c(-c7c(F)cc(S(=O)(=O)[O-])cc7F)c7ccc([nH]7)c(-c7c(F)cc(S(=O)(=O)[O-])cc7F)c7nc(c(-c8c(F)cc(S(=O)(=O)[O-])cc8F)c8ccc5[nH]8)C=C7)C=C6)cc4)c(C)n3n2)c1
REMARK SMILES IDX 25 1 24 2 23 3 22 4 21 5 19 6 20 7 18 8 17 9 16 10 10 11
REMARK SMILES IDX 11 12 102 13 12 14 101 15 13 16 99 17 14 18 100 19 15 20
REMARK SMILES IDX 9 21 3 22 4 23 103 24 5 25 8 26 2 27 1 28 6 29 7 30 26 31
REMARK SMILES IDX 27 32 28 33 29 34 30 35 31 36 32 37 33 38 34 39 98 40 35 41
REMARK SMILES IDX 97 42 36 43 37 44 38 45 91 46 39 47 96 48 90 49 92 50 40 51
REMARK SMILES IDX 95 52 89 53 88 54 41 56 75 57 54 58 74 59 55 60 58 61 73 62
REMARK SMILES IDX 93 63 56 64 57 65 72 67 94 68 59 69 42 70 43 71 52 72 44 73
REMARK SMILES IDX 45 74 51 75 53 76 46 77 47 78 48 79 49 80 50 81 76 82 77 83
REMARK SMILES IDX 86 84 78 85 79 86 85 87 87 88 80 89 81 90 82 91 83 92 84 93
REMARK SMILES IDX 60 94 61 95 70 96 62 97 63 98 69 99 71 100 64 101 65 102
REMARK SMILES IDX 66 103 67 104 68 105
REMARK H PARENT 92 55 58 66
REMARK Flexibility Score: inf
ROOT
ATOM      1  C   UNL     1       9.855  -2.715  -3.778  1.00  0.00     0.188 C 
ENDROOT
BRANCH   1   2
ATOM      2  O   UNL     1       9.244  -3.600  -2.847  1.00  0.00    -0.376 OA
BRANCH   2   3
ATOM      3  C   UNL     1       8.129  -3.080  -2.134  1.00  0.00     0.202 C 
BRANCH   3   4
ATOM      4  C   UNL     1       8.513  -2.087  -1.014  1.00  0.00     0.261 C 
BRANCH   4   5
ATOM      5  O   UNL     1       8.789  -0.741  -1.493  1.00  0.00    -0.463 OA
BRANCH   5   6
ATOM      6  C   UNL     1      10.062  -0.296  -1.578  1.00  0.00     0.306 C 
ATOM      7  O   UNL     1      11.024  -0.888  -1.105  1.00  0.00    -0.252 OA
BRANCH   6   8
ATOM      8  C   UNL     1      10.187   1.047  -2.305  1.00  0.00     0.127 C 
BRANCH   8   9
ATOM      9  C   UNL     1       9.645   1.219  -3.749  1.00  0.00     0.051 C 
BRANCH   9  10
ATOM     10  C   UNL     1       8.262   1.841  -3.920  1.00  0.00    -0.005 A 
ATOM     11  C   UNL     1       3.767   1.999  -3.902  1.00  0.00     0.095 A 
ATOM     12  C   UNL     1       4.338   3.191  -4.423  1.00  0.00     0.080 A 
ATOM     13  N   UNL     1       4.721   1.177  -3.487  1.00  0.00    -0.166 NA
ATOM     14  C   UNL     1       5.713   3.031  -4.316  1.00  0.00     0.156 A 
ATOM     15  N   UNL     1       5.878   1.758  -3.826  1.00  0.00    -0.219 N 
ATOM     16  N   UNL     1       6.803   3.786  -4.646  1.00  0.00    -0.234 NA
ATOM     17  C   UNL     1       7.117   1.165  -3.700  1.00  0.00     0.046 A 
ATOM     18  C   UNL     1       7.989   3.238  -4.496  1.00  0.00     0.045 A 
ATOM     19  C   UNL     1       6.986  -0.270  -3.380  1.00  0.00     0.067 C 
ATOM     20  C   UNL     1       9.149   4.089  -4.976  1.00  0.00     0.067 C 
BRANCH  11  21
ATOM     21  C   UNL     1       2.405   1.505  -3.755  1.00  0.00     0.009 A 
ATOM     22  C   UNL     1       0.836   0.212  -2.410  1.00  0.00     0.123 A 
ATOM     23  C   UNL     1      -0.024   0.164  -3.504  1.00  0.00     0.092 A 
ATOM     24  C   UNL     1       2.054   0.868  -2.545  1.00  0.00     0.057 A 
ATOM     25  C   UNL     1       0.318   0.772  -4.718  1.00  0.00     0.123 A 
ATOM     26  C   UNL     1       1.530   1.457  -4.841  1.00  0.00     0.057 A 
BRANCH  22  27
ATOM     27  O   UNL     1       0.418  -0.457  -1.292  1.00  0.00    -0.497 OA
ATOM     28  C   UNL     1       1.006  -0.039  -0.065  1.00  0.00     0.278 C 
ENDBRANCH  22  27
BRANCH  25  29
ATOM     29  O   UNL     1      -0.613   0.622  -5.711  1.00  0.00    -0.497 OA
ATOM     30  C   UNL     1      -0.153   0.841  -7.040  1.00  0.00     0.278 C 
ENDBRANCH  25  29
ENDBRANCH  11  21
ENDBRANCH   9  10
ENDBRANCH   8   9
ENDBRANCH   6   8
ENDBRANCH   5   6
ENDBRANCH   4   5
ENDBRANCH   3   4
ENDBRANCH   2   3
ENDBRANCH   1   2
BRANCH   1  31
ATOM     31  C   UNL     1       9.236  -2.765  -5.165  1.00  0.00     0.188 C 
BRANCH  31  32
ATOM     32  O   UNL     1       8.083  -1.956  -5.414  1.00  0.00    -0.376 OA
BRANCH  32  33
ATOM     33  C   UNL     1       6.874  -2.664  -5.739  1.00  0.00     0.202 C 
BRANCH  33  34
ATOM     34  C   UNL     1       6.698  -3.156  -7.177  1.00  0.00     0.261 C 
BRANCH  34  35
ATOM     35  O   UNL     1       7.846  -3.849  -7.603  1.00  0.00    -0.460 OA
BRANCH  35  36
ATOM     36  C   UNL     1       8.853  -3.034  -8.005  1.00  0.00     0.338 C 
ATOM     37  O   UNL     1       8.802  -1.868  -8.320  1.00  0.00    -0.246 OA
BRANCH  36  38
ATOM     38  C   UNL     1      10.061  -3.871  -7.961  1.00  0.00     0.060 A 
ATOM     39  C   UNL     1      11.040  -3.530  -8.878  1.00  0.00     0.016 A 
ATOM     40  C   UNL     1      10.009  -5.124  -7.309  1.00  0.00     0.016 A 
ATOM     41  C   UNL     1      11.648  -4.587  -9.488  1.00  0.00     0.010 A 
ATOM     42  C   UNL     1      10.642  -6.170  -7.889  1.00  0.00     0.010 A 
ATOM     43  C   UNL     1      11.283  -5.876  -9.073  1.00  0.00    -0.014 A 
BRANCH  43  44
ATOM     44  C   UNL     1      11.482  -6.941 -10.002  1.00  0.00     0.031 A 
ATOM     45  C   UNL     1      12.866  -7.390  -9.989  1.00  0.00     0.074 A 
ATOM     46  C   UNL     1      10.489  -7.402 -10.776  1.00  0.00     0.049 A 
ATOM     47  N   UNL     1      13.807  -6.956 -10.753  1.00  0.00    -0.248 NA
ATOM     48  C   UNL     1      13.311  -8.150  -8.817  1.00  0.00     0.031 C 
ATOM     49  C   UNL     1       9.040  -7.200 -10.688  1.00  0.00     0.029 A 
ATOM     50  N   UNL     1      10.625  -8.226 -11.837  1.00  0.00    -0.354 N 
ATOM     51  C   UNL     1      14.937  -7.611 -10.308  1.00  0.00     0.074 A 
ATOM     52  C   UNL     1      14.632  -8.099  -8.987  1.00  0.00     0.031 C 
ATOM     53  C   UNL     1       8.425  -8.060 -11.537  1.00  0.00     0.029 A 
ATOM     54  C   UNL     1       9.438  -8.749 -12.317  1.00  0.00     0.049 A 
ATOM     55  H   UNL     1      11.499  -8.437 -12.238  1.00  0.00     0.167 HD
ATOM     56  C   UNL     1      15.909  -7.966 -11.185  1.00  0.00     0.037 A 
ATOM     57  C   UNL     1       9.367  -9.762 -13.215  1.00  0.00     0.037 A 
ATOM     58  C   UNL     1      15.785  -7.250 -12.434  1.00  0.00     0.049 A 
ATOM     59  C   UNL     1      10.664  -9.757 -13.962  1.00  0.00     0.074 A 
ATOM     60  C   UNL     1      15.818  -5.911 -12.779  1.00  0.00     0.029 A 
ATOM     61  N   UNL     1      15.167  -7.892 -13.484  1.00  0.00    -0.354 N 
ATOM     62  N   UNL     1      11.041  -8.771 -14.738  1.00  0.00    -0.248 NA
ATOM     63  C   UNL     1      11.754 -10.583 -13.455  1.00  0.00     0.031 C 
ATOM     64  C   UNL     1      14.833  -5.758 -13.799  1.00  0.00     0.029 A 
ATOM     65  C   UNL     1      14.277  -7.013 -14.057  1.00  0.00     0.049 A 
ATOM     66  H   UNL     1      15.332  -8.819 -13.773  1.00  0.00     0.167 HD
ATOM     67  C   UNL     1      12.403  -8.609 -14.503  1.00  0.00     0.074 A 
ATOM     68  C   UNL     1      12.799  -9.803 -13.760  1.00  0.00     0.031 C 
ATOM     69  C   UNL     1      13.022  -7.401 -14.675  1.00  0.00     0.037 A 
BRANCH  56  70
ATOM     70  C   UNL     1      16.700  -9.229 -11.024  1.00  0.00     0.058 A 
ATOM     71  C   UNL     1      17.860  -9.412 -11.791  1.00  0.00     0.135 A 
ATOM     72  C   UNL     1      16.231 -10.369 -10.326  1.00  0.00     0.135 A 
ATOM     73  F   UNL     1      18.372  -8.397 -12.505  1.00  0.00    -0.206 F 
ATOM     74  C   UNL     1      18.479 -10.655 -11.903  1.00  0.00     0.059 A 
ATOM     75  C   UNL     1      16.871 -11.595 -10.367  1.00  0.00     0.059 A 
ATOM     76  F   UNL     1      15.072 -10.383  -9.657  1.00  0.00    -0.206 F 
ATOM     77  C   UNL     1      17.966 -11.741 -11.196  1.00  0.00     0.060 A 
BRANCH  77  78
ATOM     78  S   UNL     1      18.679 -13.373 -11.435  1.00  0.00     0.124 S 
ATOM     79  O   UNL     1      18.260 -13.671 -12.800  1.00  0.00    -0.237 OA
ATOM     80  O   UNL     1      20.101 -13.113 -11.241  1.00  0.00    -0.237 OA
ATOM     81  O   UNL     1      18.045 -14.173 -10.391  1.00  0.00    -0.744 OA
ENDBRANCH  77  78
ENDBRANCH  56  70
BRANCH  57  82
ATOM     82  C   UNL     1       8.474 -10.944 -13.095  1.00  0.00     0.058 A 
ATOM     83  C   UNL     1       8.276 -11.829 -14.167  1.00  0.00     0.135 A 
ATOM     84  C   UNL     1       7.976 -11.365 -11.842  1.00  0.00     0.135 A 
ATOM     85  F   UNL     1       8.751 -11.527 -15.385  1.00  0.00    -0.206 F 
ATOM     86  C   UNL     1       7.636 -13.065 -14.003  1.00  0.00     0.059 A 
ATOM     87  C   UNL     1       7.327 -12.584 -11.658  1.00  0.00     0.059 A 
ATOM     88  F   UNL     1       8.178 -10.638 -10.733  1.00  0.00    -0.206 F 
ATOM     89  C   UNL     1       7.174 -13.438 -12.740  1.00  0.00     0.060 A 
BRANCH  89  90
ATOM     90  S   UNL     1       6.458 -15.079 -12.495  1.00  0.00     0.124 S 
ATOM     91  O   UNL     1       5.213 -14.980 -13.251  1.00  0.00    -0.237 OA
ATOM     92  O   UNL     1       7.481 -15.950 -13.063  1.00  0.00    -0.237 OA
ATOM     93  O   UNL     1       6.301 -15.170 -11.046  1.00  0.00    -0.744 OA
ENDBRANCH  89  90
ENDBRANCH  57  82
BRANCH  69  94
ATOM     94  C   UNL     1      12.240  -6.299 -15.356  1.00  0.00     0.058 A 
ATOM     95  C   UNL     1      11.125  -5.663 -14.780  1.00  0.00     0.135 A 
ATOM     96  C   UNL     1      12.738  -5.751 -16.546  1.00  0.00     0.135 A 
ATOM     97  F   UNL     1      10.651  -6.057 -13.590  1.00  0.00    -0.206 F 
ATOM     98  C   UNL     1      10.513  -4.555 -15.374  1.00  0.00     0.059 A 
ATOM     99  C   UNL     1      12.162  -4.630 -17.144  1.00  0.00     0.059 A 
ATOM    100  F   UNL     1      13.840  -6.268 -17.113  1.00  0.00    -0.206 F 
ATOM    101  C   UNL     1      11.043  -4.042 -16.556  1.00  0.00     0.060 A 
BRANCH 101 102
ATOM    102  S   UNL     1      10.315  -2.549 -17.271  1.00  0.00     0.124 S 
ATOM    103  O   UNL     1       9.050  -3.046 -17.800  1.00  0.00    -0.237 OA
ATOM    104  O   UNL     1      10.214  -1.660 -16.116  1.00  0.00    -0.237 OA
ATOM    105  O   UNL     1      11.294  -2.139 -18.275  1.00  0.00    -0.744 OA
ENDBRANCH 101 102
ENDBRANCH  69  94
ENDBRANCH  43  44
ENDBRANCH  36  38
ENDBRANCH  35  36
ENDBRANCH  34  35
ENDBRANCH  33  34
ENDBRANCH  32  33
ENDBRANCH  31  32
ENDBRANCH   1  31
TORSDOF 25
