REMARK SMILES CCC[NH2+]CC(=O)N1[C@@H](C(=O)OCCOCCOCCOC(=O)c2ccc(-c3c4nc(c(-c5c(F)cc(S(=O)(=O)[O-])cc5F)c5ccc([nH]5)c(-c5c(F)cc(S(=O)(=O)[O-])cc5F)c5nc(c(-c6c(F)cc(S(=O)(=O)[O-])cc6F)c6ccc3[nH]6)C=C5)C=C4)cc2)CC[C@@H]2CCCC[C@@H]21
REMARK SMILES IDX 16 1 15 2 14 3 13 4 12 5 10 6 11 7 9 8 8 9 97 10 90 11 92 12
REMARK SMILES IDX 96 13 91 14 93 15 95 16 94 17 6 18 7 19 5 20 4 21 3 24 2 25
REMARK SMILES IDX 1 26 17 27 18 28 19 29 20 30 21 31 22 32 23 33 24 34 25 35
REMARK SMILES IDX 89 36 26 37 88 38 27 39 28 40 29 41 82 42 30 43 87 44 81 45
REMARK SMILES IDX 83 46 31 47 86 48 80 49 79 50 32 52 66 53 45 54 65 55 46 56
REMARK SMILES IDX 49 57 64 58 84 59 47 60 48 61 63 63 85 64 50 65 33 66 34 67
REMARK SMILES IDX 43 68 35 69 36 70 42 71 44 72 37 73 38 74 39 75 40 76 41 77
REMARK SMILES IDX 67 78 68 79 77 80 69 81 70 82 76 83 78 84 71 85 72 86 73 87
REMARK SMILES IDX 74 88 75 89 51 90 52 91 61 92 53 93 54 94 60 95 62 96 55 97
REMARK SMILES IDX 56 98 57 99 58 100 59 101
REMARK H PARENT 4 22 4 23 83 51 49 62
REMARK Flexibility Score: inf
ROOT
ATOM      1  C   UNL     1       0.351  -0.018   1.907  1.00  0.00     0.188 C 
ENDROOT
BRANCH   1   2
ATOM      2  O   UNL     1      -0.211  -0.141   0.599  1.00  0.00    -0.376 OA
BRANCH   2   3
ATOM      3  C   UNL     1       0.312  -1.176  -0.225  1.00  0.00     0.202 C 
BRANCH   3   4
ATOM      4  C   UNL     1       0.932  -0.581  -1.490  1.00  0.00     0.261 C 
BRANCH   4   5
ATOM      5  O   UNL     1       2.065   0.265  -1.208  1.00  0.00    -0.462 OA
BRANCH   5   6
ATOM      6  C   UNL     1       2.557   0.878  -2.331  1.00  0.00     0.328 C 
ATOM      7  O   UNL     1       2.225   0.544  -3.463  1.00  0.00    -0.250 OA
BRANCH   6   8
ATOM      8  C   UNL     1       3.515   2.053  -1.974  1.00  0.00     0.195 C 
ATOM      9  N   UNL     1       3.763   3.018  -3.082  1.00  0.00    -0.321 N 
ATOM     10  C   UNL     1       4.777   4.072  -2.897  1.00  0.00     0.089 C 
ATOM     11  C   UNL     1       4.854   1.476  -1.484  1.00  0.00     0.037 C 
ATOM     12  C   UNL     1       6.094   3.492  -2.356  1.00  0.00     0.012 C 
ATOM     13  C   UNL     1       4.239   5.253  -2.056  1.00  0.00     0.025 C 
ATOM     14  C   UNL     1       5.850   2.586  -1.139  1.00  0.00     0.008 C 
ATOM     15  C   UNL     1       7.107   4.607  -2.063  1.00  0.00     0.006 C 
ATOM     16  C   UNL     1       5.283   6.278  -1.621  1.00  0.00     0.002 C 
ATOM     17  C   UNL     1       6.570   5.659  -1.102  1.00  0.00     0.000 C 
BRANCH   9  18
ATOM     18  C   UNL     1       2.838   3.214  -4.104  1.00  0.00     0.278 C 
ATOM     19  O   UNL     1       3.126   2.939  -5.271  1.00  0.00    -0.268 OA
BRANCH  18  20
ATOM     20  C   UNL     1       1.527   3.937  -3.746  1.00  0.00     0.362 C 
BRANCH  20  21
ATOM     21  N   UNL     1       0.664   3.061  -2.967  1.00  0.00    -0.338 N 
ATOM     22  H   UNL     1       0.293   2.342  -3.589  1.00  0.00     0.346 HD
ATOM     23  H   UNL     1       1.237   2.676  -2.216  1.00  0.00     0.346 HD
BRANCH  21  24
ATOM     24  C   UNL     1      -0.459   3.738  -2.331  1.00  0.00     0.260 C 
BRANCH  24  25
ATOM     25  C   UNL     1      -0.727   3.007  -1.016  1.00  0.00     0.058 C 
ATOM     26  C   UNL     1       0.453   3.138  -0.057  1.00  0.00     0.010 C 
ENDBRANCH  24  25
ENDBRANCH  21  24
ENDBRANCH  20  21
ENDBRANCH  18  20
ENDBRANCH   9  18
ENDBRANCH   6   8
ENDBRANCH   5   6
ENDBRANCH   4   5
ENDBRANCH   3   4
ENDBRANCH   2   3
ENDBRANCH   1   2
BRANCH   1  27
ATOM     27  C   UNL     1       1.887   0.029   1.962  1.00  0.00     0.188 C 
BRANCH  27  28
ATOM     28  O   UNL     1       2.584  -1.220   2.014  1.00  0.00    -0.376 OA
BRANCH  28  29
ATOM     29  C   UNL     1       2.013  -2.266   2.796  1.00  0.00     0.202 C 
BRANCH  29  30
ATOM     30  C   UNL     1       1.977  -2.080   4.320  1.00  0.00     0.261 C 
BRANCH  30  31
ATOM     31  O   UNL     1       1.513  -0.783   4.731  1.00  0.00    -0.460 OA
BRANCH  31  32
ATOM     32  C   UNL     1       2.497   0.028   5.215  1.00  0.00     0.338 C 
ATOM     33  O   UNL     1       3.655  -0.268   5.401  1.00  0.00    -0.246 OA
BRANCH  32  34
ATOM     34  C   UNL     1       2.005   1.424   5.316  1.00  0.00     0.060 A 
ATOM     35  C   UNL     1       2.831   2.430   4.793  1.00  0.00     0.016 A 
ATOM     36  C   UNL     1       0.813   1.756   5.963  1.00  0.00     0.016 A 
ATOM     37  C   UNL     1       2.507   3.774   4.979  1.00  0.00     0.010 A 
ATOM     38  C   UNL     1       0.499   3.106   6.167  1.00  0.00     0.010 A 
ATOM     39  C   UNL     1       1.373   4.118   5.724  1.00  0.00    -0.014 A 
BRANCH  39  40
ATOM     40  C   UNL     1       1.278   5.488   6.292  1.00  0.00     0.031 A 
ATOM     41  C   UNL     1       1.860   5.715   7.665  1.00  0.00     0.074 A 
ATOM     42  C   UNL     1       0.744   6.519   5.614  1.00  0.00     0.049 A 
ATOM     43  N   UNL     1       1.895   6.804   8.388  1.00  0.00    -0.248 NA
ATOM     44  C   UNL     1       2.489   4.547   8.305  1.00  0.00     0.031 C 
ATOM     45  C   UNL     1       0.202   6.456   4.260  1.00  0.00     0.029 A 
ATOM     46  N   UNL     1       0.572   7.830   5.987  1.00  0.00    -0.354 N 
ATOM     47  C   UNL     1       2.546   6.452   9.565  1.00  0.00     0.074 A 
ATOM     48  C   UNL     1       2.857   5.043   9.475  1.00  0.00     0.031 C 
ATOM     49  C   UNL     1      -0.252   7.676   3.917  1.00  0.00     0.029 A 
ATOM     50  C   UNL     1      -0.056   8.599   5.036  1.00  0.00     0.049 A 
ATOM     51  H   UNL     1       0.870   8.186   6.855  1.00  0.00     0.167 HD
ATOM     52  C   UNL     1       2.868   7.230  10.626  1.00  0.00     0.037 A 
ATOM     53  C   UNL     1      -0.438   9.893   5.073  1.00  0.00     0.037 A 
ATOM     54  C   UNL     1       2.547   8.627  10.730  1.00  0.00     0.049 A 
ATOM     55  C   UNL     1      -0.152  10.723   6.301  1.00  0.00     0.074 A 
ATOM     56  C   UNL     1       2.821   9.499  11.769  1.00  0.00     0.029 A 
ATOM     57  N   UNL     1       1.869   9.356   9.764  1.00  0.00    -0.354 N 
ATOM     58  N   UNL     1       0.471  10.381   7.405  1.00  0.00    -0.248 NA
ATOM     59  C   UNL     1      -0.620  12.117   6.287  1.00  0.00     0.031 C 
ATOM     60  C   UNL     1       2.268  10.744  11.451  1.00  0.00     0.029 A 
ATOM     61  C   UNL     1       1.697  10.662  10.191  1.00  0.00     0.049 A 
ATOM     62  H   UNL     1       1.557   8.997   8.902  1.00  0.00     0.167 HD
ATOM     63  C   UNL     1       0.501  11.525   8.198  1.00  0.00     0.074 A 
ATOM     64  C   UNL     1      -0.167  12.569   7.449  1.00  0.00     0.031 C 
ATOM     65  C   UNL     1       1.040  11.697   9.431  1.00  0.00     0.037 A 
BRANCH  52  66
ATOM     66  C   UNL     1       3.570   6.559  11.773  1.00  0.00     0.058 A 
ATOM     67  C   UNL     1       4.900   6.120  11.671  1.00  0.00     0.135 A 
ATOM     68  C   UNL     1       2.893   6.325  12.981  1.00  0.00     0.135 A 
ATOM     69  F   UNL     1       5.585   6.299  10.530  1.00  0.00    -0.206 F 
ATOM     70  C   UNL     1       5.520   5.432  12.708  1.00  0.00     0.059 A 
ATOM     71  C   UNL     1       3.504   5.665  14.043  1.00  0.00     0.059 A 
ATOM     72  F   UNL     1       1.620   6.720  13.130  1.00  0.00    -0.206 F 
ATOM     73  C   UNL     1       4.809   5.201  13.887  1.00  0.00     0.060 A 
BRANCH  73  74
ATOM     74  S   UNL     1       5.610   4.272  15.211  1.00  0.00     0.124 S 
ATOM     75  O   UNL     1       5.562   2.913  14.681  1.00  0.00    -0.237 OA
ATOM     76  O   UNL     1       6.934   4.884  15.268  1.00  0.00    -0.237 OA
ATOM     77  O   UNL     1       4.756   4.525  16.368  1.00  0.00    -0.744 OA
ENDBRANCH  73  74
ENDBRANCH  52  66
BRANCH  53  78
ATOM     78  C   UNL     1      -1.132  10.495   3.903  1.00  0.00     0.058 A 
ATOM     79  C   UNL     1      -0.495  11.451   3.098  1.00  0.00     0.135 A 
ATOM     80  C   UNL     1      -2.444  10.127   3.565  1.00  0.00     0.135 A 
ATOM     81  F   UNL     1       0.752  11.850   3.391  1.00  0.00    -0.206 F 
ATOM     82  C   UNL     1      -1.132  12.022   2.000  1.00  0.00     0.059 A 
ATOM     83  C   UNL     1      -3.094  10.667   2.459  1.00  0.00     0.059 A 
ATOM     84  F   UNL     1      -3.098   9.216   4.302  1.00  0.00    -0.206 F 
ATOM     85  C   UNL     1      -2.430  11.617   1.684  1.00  0.00     0.060 A 
BRANCH  85  86
ATOM     86  S   UNL     1      -3.217  12.308   0.212  1.00  0.00     0.124 S 
ATOM     87  O   UNL     1      -3.502  13.672   0.642  1.00  0.00    -0.237 OA
ATOM     88  O   UNL     1      -2.168  12.160  -0.792  1.00  0.00    -0.237 OA
ATOM     89  O   UNL     1      -4.381  11.449   0.021  1.00  0.00    -0.744 OA
ENDBRANCH  85  86
ENDBRANCH  53  78
BRANCH  65  90
ATOM     90  C   UNL     1       0.981  13.073  10.040  1.00  0.00     0.058 A 
ATOM     91  C   UNL     1      -0.211  13.611  10.547  1.00  0.00     0.135 A 
ATOM     92  C   UNL     1       2.154  13.834  10.182  1.00  0.00     0.135 A 
ATOM     93  F   UNL     1      -1.361  12.928  10.437  1.00  0.00    -0.206 F 
ATOM     94  C   UNL     1      -0.243  14.863  11.155  1.00  0.00     0.059 A 
ATOM     95  C   UNL     1       2.150  15.076  10.809  1.00  0.00     0.059 A 
ATOM     96  F   UNL     1       3.326  13.361   9.727  1.00  0.00    -0.206 F 
ATOM     97  C   UNL     1       0.944  15.588  11.283  1.00  0.00     0.060 A 
BRANCH  97  98
ATOM     98  S   UNL     1       0.897  17.194  12.108  1.00  0.00     0.124 S 
ATOM     99  O   UNL     1       0.275  18.030  11.087  1.00  0.00    -0.237 OA
ATOM    100  O   UNL     1       0.080  16.918  13.286  1.00  0.00    -0.237 OA
ATOM    101  O   UNL     1       2.303  17.477  12.382  1.00  0.00    -0.744 OA
ENDBRANCH  97  98
ENDBRANCH  65  90
ENDBRANCH  39  40
ENDBRANCH  32  34
ENDBRANCH  31  32
ENDBRANCH  30  31
ENDBRANCH  29  30
ENDBRANCH  28  29
ENDBRANCH  27  28
ENDBRANCH   1  27
TORSDOF 25
