REMARK SMILES CSc1ccc(Cl)c(C(=O)N[C@@H](CO)C(=O)OCCOCCOCCOC(=O)c2ccc(-c3c4nc(c(-c5c(F)cc(S(=O)(=O)[O-])cc5F)c5ccc([nH]5)c(-c5c(F)cc(S(=O)(=O)[O-])cc5F)c5nc(c(-c6c(F)cc(S(=O)(=O)[O-])cc6F)c6ccc3[nH]6)C=C5)C=C4)cc2)c1
REMARK SMILES IDX 21 1 20 2 19 3 18 4 17 5 15 6 16 7 12 8 11 9 9 10 10 11 8 13
REMARK SMILES IDX 3 14 4 15 95 16 5 17 6 18 7 19 2 20 1 21 13 22 14 23 22 25
REMARK SMILES IDX 23 26 24 27 25 28 26 29 27 30 28 31 29 32 30 33 94 34 31 35
REMARK SMILES IDX 93 36 32 37 33 38 34 39 87 40 35 41 92 42 86 43 88 44 36 45
REMARK SMILES IDX 91 46 85 47 84 48 37 50 71 51 50 52 70 53 51 54 54 55 69 56
REMARK SMILES IDX 89 57 52 58 53 59 68 61 90 62 55 63 38 64 39 65 48 66 40 67
REMARK SMILES IDX 41 68 47 69 49 70 42 71 43 72 44 73 45 74 46 75 72 76 73 77
REMARK SMILES IDX 82 78 74 79 75 80 81 81 83 82 76 83 77 84 78 85 79 86 80 87
REMARK SMILES IDX 56 88 57 89 66 90 58 91 59 92 65 93 67 94 60 95 61 96 62 97
REMARK SMILES IDX 63 98 64 99
REMARK H PARENT 11 12 14 24 88 49 54 60
REMARK Flexibility Score: inf
ROOT
ATOM      1  C   UNL     1       5.870  -1.218  -6.272  1.00  0.00     0.188 C 
ENDROOT
BRANCH   1   2
ATOM      2  O   UNL     1       7.024  -1.521  -7.052  1.00  0.00    -0.376 OA
BRANCH   2   3
ATOM      3  C   UNL     1       7.154  -0.908  -8.334  1.00  0.00     0.202 C 
BRANCH   3   4
ATOM      4  C   UNL     1       5.953  -0.985  -9.289  1.00  0.00     0.261 C 
BRANCH   4   5
ATOM      5  O   UNL     1       4.708  -0.537  -8.711  1.00  0.00    -0.462 OA
BRANCH   5   6
ATOM      6  C   UNL     1       3.616  -1.216  -9.153  1.00  0.00     0.331 C 
ATOM      7  O   UNL     1       3.644  -1.981 -10.114  1.00  0.00    -0.250 OA
BRANCH   6   8
ATOM      8  C   UNL     1       2.390  -1.115  -8.213  1.00  0.00     0.218 C 
BRANCH   8   9
ATOM      9  N   UNL     1       2.260  -0.089  -7.165  1.00  0.00    -0.337 N 
ATOM     10  C   UNL     1       1.602  -0.004  -5.955  1.00  0.00     0.253 C 
ATOM     11  O   UNL     1       1.453   1.164  -5.570  1.00  0.00    -0.269 OA
ATOM     12  H   UNL     1       2.762   0.731  -7.379  1.00  0.00     0.164 HD
BRANCH  10  13
ATOM     13  C   UNL     1       1.173  -1.105  -5.004  1.00  0.00     0.059 A 
ATOM     14  C   UNL     1       0.566  -1.506  -2.616  1.00  0.00     0.008 A 
ATOM     15  C   UNL     1       0.583  -2.875  -2.844  1.00  0.00     0.016 A 
ATOM     16  C   UNL     1       0.910  -0.643  -3.672  1.00  0.00     0.030 A 
ATOM     17  C   UNL     1       0.788  -3.354  -4.131  1.00  0.00     0.022 A 
ATOM     18  C   UNL     1       0.984  -2.479  -5.216  1.00  0.00     0.053 A 
ATOM     19  Cl  UNL     1       0.671  -3.248  -6.725  1.00  0.00    -0.083 Cl
BRANCH  14  20
ATOM     20  S   UNL     1      -0.079  -0.969  -1.040  1.00  0.00    -0.130 SA
ATOM     21  C   UNL     1       1.134   0.246  -0.478  1.00  0.00     0.091 C 
ENDBRANCH  14  20
ENDBRANCH  10  13
ENDBRANCH   8   9
BRANCH   8  22
ATOM     22  C   UNL     1       1.153  -1.013  -9.119  1.00  0.00     0.193 C 
BRANCH  22  23
ATOM     23  O   UNL     1       1.120   0.264  -9.774  1.00  0.00    -0.394 OA
ATOM     24  H   UNL     1       1.077   0.968  -9.107  1.00  0.00     0.210 HD
ENDBRANCH  22  23
ENDBRANCH   8  22
ENDBRANCH   6   8
ENDBRANCH   5   6
ENDBRANCH   4   5
ENDBRANCH   3   4
ENDBRANCH   2   3
ENDBRANCH   1   2
BRANCH   1  25
ATOM     25  C   UNL     1       5.466   0.259  -6.097  1.00  0.00     0.188 C 
BRANCH  25  26
ATOM     26  O   UNL     1       6.245   1.172  -6.844  1.00  0.00    -0.376 OA
BRANCH  26  27
ATOM     27  C   UNL     1       6.986   2.125  -6.101  1.00  0.00     0.202 C 
BRANCH  27  28
ATOM     28  C   UNL     1       8.051   1.585  -5.129  1.00  0.00     0.261 C 
BRANCH  28  29
ATOM     29  O   UNL     1       7.619   0.550  -4.226  1.00  0.00    -0.460 OA
BRANCH  29  30
ATOM     30  C   UNL     1       6.843   0.936  -3.191  1.00  0.00     0.338 C 
ATOM     31  O   UNL     1       6.488   2.081  -2.934  1.00  0.00    -0.246 OA
BRANCH  30  32
ATOM     32  C   UNL     1       6.289  -0.269  -2.540  1.00  0.00     0.060 A 
ATOM     33  C   UNL     1       4.901  -0.448  -2.542  1.00  0.00     0.016 A 
ATOM     34  C   UNL     1       7.117  -1.197  -1.900  1.00  0.00     0.016 A 
ATOM     35  C   UNL     1       4.338  -1.525  -1.861  1.00  0.00     0.010 A 
ATOM     36  C   UNL     1       6.542  -2.258  -1.186  1.00  0.00     0.010 A 
ATOM     37  C   UNL     1       5.145  -2.396  -1.121  1.00  0.00    -0.014 A 
BRANCH  37  38
ATOM     38  C   UNL     1       4.496  -3.254  -0.095  1.00  0.00     0.031 A 
ATOM     39  C   UNL     1       4.457  -2.754   1.327  1.00  0.00     0.074 A 
ATOM     40  C   UNL     1       3.876  -4.403  -0.414  1.00  0.00     0.049 A 
ATOM     41  N   UNL     1       3.935  -3.307   2.392  1.00  0.00    -0.248 NA
ATOM     42  C   UNL     1       5.092  -1.450   1.575  1.00  0.00     0.031 C 
ATOM     43  C   UNL     1       3.793  -4.976  -1.755  1.00  0.00     0.029 A 
ATOM     44  N   UNL     1       3.198  -5.296   0.379  1.00  0.00    -0.354 N 
ATOM     45  C   UNL     1       4.190  -2.426   3.438  1.00  0.00     0.074 A 
ATOM     46  C   UNL     1       4.938  -1.318   2.883  1.00  0.00     0.031 C 
ATOM     47  C   UNL     1       3.119  -6.138  -1.689  1.00  0.00     0.029 A 
ATOM     48  C   UNL     1       2.744  -6.401  -0.299  1.00  0.00     0.049 A 
ATOM     49  H   UNL     1       3.051  -5.157   1.343  1.00  0.00     0.167 HD
ATOM     50  C   UNL     1       3.833  -2.522   4.741  1.00  0.00     0.037 A 
ATOM     51  C   UNL     1       2.118  -7.507   0.153  1.00  0.00     0.037 A 
ATOM     52  C   UNL     1       3.099  -3.627   5.299  1.00  0.00     0.049 A 
ATOM     53  C   UNL     1       1.764  -7.622   1.614  1.00  0.00     0.074 A 
ATOM     54  C   UNL     1       2.692  -3.819   6.608  1.00  0.00     0.029 A 
ATOM     55  N   UNL     1       2.668  -4.734   4.581  1.00  0.00    -0.354 N 
ATOM     56  N   UNL     1       2.006  -6.780   2.591  1.00  0.00    -0.248 NA
ATOM     57  C   UNL     1       1.040  -8.831   2.030  1.00  0.00     0.031 C 
ATOM     58  C   UNL     1       2.056  -5.064   6.690  1.00  0.00     0.029 A 
ATOM     59  C   UNL     1       2.017  -5.622   5.421  1.00  0.00     0.049 A 
ATOM     60  H   UNL     1       2.806  -4.868   3.615  1.00  0.00     0.167 HD
ATOM     61  C   UNL     1       1.443  -7.345   3.732  1.00  0.00     0.074 A 
ATOM     62  C   UNL     1       0.840  -8.597   3.321  1.00  0.00     0.031 C 
ATOM     63  C   UNL     1       1.422  -6.868   5.003  1.00  0.00     0.037 A 
BRANCH  50  64
ATOM     64  C   UNL     1       4.290  -1.416   5.653  1.00  0.00     0.058 A 
ATOM     65  C   UNL     1       3.758  -0.118   5.573  1.00  0.00     0.135 A 
ATOM     66  C   UNL     1       5.309  -1.649   6.591  1.00  0.00     0.135 A 
ATOM     67  F   UNL     1       2.797   0.165   4.678  1.00  0.00    -0.206 F 
ATOM     68  C   UNL     1       4.259   0.922   6.350  1.00  0.00     0.059 A 
ATOM     69  C   UNL     1       5.804  -0.630   7.400  1.00  0.00     0.059 A 
ATOM     70  F   UNL     1       5.853  -2.870   6.710  1.00  0.00    -0.206 F 
ATOM     71  C   UNL     1       5.291   0.657   7.252  1.00  0.00     0.060 A 
BRANCH  71  72
ATOM     72  S   UNL     1       5.976   2.025   8.210  1.00  0.00     0.124 S 
ATOM     73  O   UNL     1       6.777   2.712   7.202  1.00  0.00    -0.237 OA
ATOM     74  O   UNL     1       4.777   2.729   8.654  1.00  0.00    -0.237 OA
ATOM     75  O   UNL     1       6.732   1.355   9.264  1.00  0.00    -0.744 OA
ENDBRANCH  71  72
ENDBRANCH  50  64
BRANCH  51  76
ATOM     76  C   UNL     1       1.796  -8.602  -0.800  1.00  0.00     0.058 A 
ATOM     77  C   UNL     1       0.478  -8.854  -1.206  1.00  0.00     0.135 A 
ATOM     78  C   UNL     1       2.815  -9.392  -1.355  1.00  0.00     0.135 A 
ATOM     79  F   UNL     1      -0.532  -8.135  -0.693  1.00  0.00    -0.206 F 
ATOM     80  C   UNL     1       0.181  -9.846  -2.136  1.00  0.00     0.059 A 
ATOM     81  C   UNL     1       2.546 -10.373  -2.304  1.00  0.00     0.059 A 
ATOM     82  F   UNL     1       4.093  -9.184  -1.002  1.00  0.00    -0.206 F 
ATOM     83  C   UNL     1       1.224 -10.592  -2.688  1.00  0.00     0.060 A 
BRANCH  83  84
ATOM     84  S   UNL     1       0.840 -11.801  -3.974  1.00  0.00     0.124 S 
ATOM     85  O   UNL     1       0.217 -12.868  -3.199  1.00  0.00    -0.237 OA
ATOM     86  O   UNL     1      -0.050 -11.042  -4.847  1.00  0.00    -0.237 OA
ATOM     87  O   UNL     1       2.148 -12.112  -4.543  1.00  0.00    -0.744 OA
ENDBRANCH  83  84
ENDBRANCH  51  76
BRANCH  63  88
ATOM     88  C   UNL     1       0.690  -7.680   6.040  1.00  0.00     0.058 A 
ATOM     89  C   UNL     1       1.192  -8.900   6.521  1.00  0.00     0.135 A 
ATOM     90  C   UNL     1      -0.518  -7.212   6.583  1.00  0.00     0.135 A 
ATOM     91  F   UNL     1       2.342  -9.395   6.038  1.00  0.00    -0.206 F 
ATOM     92  C   UNL     1       0.504  -9.644   7.476  1.00  0.00     0.059 A 
ATOM     93  C   UNL     1      -1.208  -7.926   7.558  1.00  0.00     0.059 A 
ATOM     94  F   UNL     1      -1.036  -6.044   6.172  1.00  0.00    -0.206 F 
ATOM     95  C   UNL     1      -0.699  -9.151   7.985  1.00  0.00     0.060 A 
BRANCH  95  96
ATOM     96  S   UNL     1      -1.585 -10.123   9.222  1.00  0.00     0.124 S 
ATOM     97  O   UNL     1      -2.163 -11.183   8.403  1.00  0.00    -0.237 OA
ATOM     98  O   UNL     1      -0.514 -10.533  10.125  1.00  0.00    -0.237 OA
ATOM     99  O   UNL     1      -2.539  -9.171   9.783  1.00  0.00    -0.744 OA
ENDBRANCH  95  96
ENDBRANCH  63  88
ENDBRANCH  37  38
ENDBRANCH  30  32
ENDBRANCH  29  30
ENDBRANCH  28  29
ENDBRANCH  27  28
ENDBRANCH  26  27
ENDBRANCH  25  26
ENDBRANCH   1  25
TORSDOF 25
