REMARK SMILES COc1cccc(C(=O)NNC(=O)[C@H]2CC(C)=C(C)C[C@@H]2C(=O)OCCOCCOCCOC(=O)c2ccc(-c3c4nc(c(-c5c(F)cc(S(=O)(=O)[O-])cc5F)c5ccc([nH]5)c(-c5c(F)cc(S(=O)(=O)[O-])cc5F)c5nc(c(-c6c(F)cc(S(=O)(=O)[O-])cc6F)c6ccc3[nH]6)C=C5)C=C4)cc2)c1
REMARK SMILES IDX 28 1 27 2 26 3 25 4 24 5 22 6 23 7 21 8 14 9 15 10 16 11
REMARK SMILES IDX 20 12 17 13 18 14 19 15 12 16 11 17 13 19 10 20 8 21 9 22
REMARK SMILES IDX 7 24 3 25 4 26 102 27 5 28 6 29 2 30 1 31 29 32 30 33 31 34
REMARK SMILES IDX 32 35 33 36 34 37 35 38 36 39 37 40 101 41 38 42 100 43
REMARK SMILES IDX 39 44 40 45 41 46 94 47 42 48 99 49 93 50 95 51 43 52 98 53
REMARK SMILES IDX 92 54 91 55 44 57 78 58 57 59 77 60 58 61 61 62 76 63 96 64
REMARK SMILES IDX 59 65 60 66 75 68 97 69 62 70 45 71 46 72 55 73 47 74 48 75
REMARK SMILES IDX 54 76 56 77 49 78 50 79 51 80 52 81 53 82 79 83 80 84 89 85
REMARK SMILES IDX 81 86 82 87 88 88 90 89 83 90 84 91 85 92 86 93 87 94 63 95
REMARK SMILES IDX 64 96 73 97 65 98 66 99 72 100 74 101 67 102 68 103 69 104
REMARK SMILES IDX 70 105 71 106
REMARK H PARENT 11 18 10 23 95 56 61 67
REMARK Flexibility Score: inf
ROOT
ATOM      1  C   UNL     1       7.085   1.889   3.081  1.00  0.00     0.188 C 
ENDROOT
BRANCH   1   2
ATOM      2  O   UNL     1       7.966   2.108   4.178  1.00  0.00    -0.376 OA
BRANCH   2   3
ATOM      3  C   UNL     1       9.361   2.272   3.933  1.00  0.00     0.202 C 
BRANCH   3   4
ATOM      4  C   UNL     1      10.109   1.234   3.077  1.00  0.00     0.261 C 
BRANCH   4   5
ATOM      5  O   UNL     1       9.469   0.994   1.818  1.00  0.00    -0.463 OA
BRANCH   5   6
ATOM      6  C   UNL     1       9.263  -0.313   1.476  1.00  0.00     0.310 C 
ATOM      7  O   UNL     1       9.811  -1.275   1.991  1.00  0.00    -0.252 OA
BRANCH   6   8
ATOM      8  C   UNL     1       8.156  -0.386   0.443  1.00  0.00     0.116 C 
ATOM      9  C   UNL     1       7.123  -1.470   0.804  1.00  0.00     0.099 C 
ATOM     10  C   UNL     1       7.240  -2.752  -0.034  1.00  0.00     0.045 C 
ATOM     11  C   UNL     1       8.203  -2.767  -1.208  1.00  0.00    -0.074 C 
ATOM     12  C   UNL     1       8.703  -0.346  -0.974  1.00  0.00     0.046 C 
ATOM     13  C   UNL     1       8.344  -4.124  -1.853  1.00  0.00     0.039 C 
ATOM     14  C   UNL     1       8.861  -1.674  -1.643  1.00  0.00    -0.073 C 
ATOM     15  C   UNL     1       9.767  -1.660  -2.848  1.00  0.00     0.039 C 
BRANCH   9  16
ATOM     16  C   UNL     1       5.744  -0.814   0.680  1.00  0.00     0.242 C 
ATOM     17  N   UNL     1       5.043  -0.421   1.798  1.00  0.00    -0.267 N 
ATOM     18  H   UNL     1       4.325   0.236   1.648  1.00  0.00     0.191 HD
ATOM     19  O   UNL     1       5.298  -0.474  -0.420  1.00  0.00    -0.273 OA
BRANCH  17  20
ATOM     20  N   UNL     1       5.222  -0.837   3.113  1.00  0.00    -0.263 N 
ATOM     21  C   UNL     1       4.256  -0.755   4.113  1.00  0.00     0.269 C 
ATOM     22  O   UNL     1       4.616  -0.779   5.288  1.00  0.00    -0.267 OA
ATOM     23  H   UNL     1       6.097  -1.218   3.355  1.00  0.00     0.191 HD
BRANCH  21  24
ATOM     24  C   UNL     1       2.787  -0.692   3.825  1.00  0.00     0.045 A 
ATOM     25  C   UNL     1       0.273  -0.895   1.811  1.00  0.00     0.119 A 
ATOM     26  C   UNL     1      -0.884  -0.970   3.234  1.00  0.00     0.046 A 
ATOM     27  C   UNL     1       2.083  -0.780   2.096  1.00  0.00     0.060 A 
ATOM     28  C   UNL     1      -0.200  -0.896   5.010  1.00  0.00     0.005 A 
ATOM     29  C   UNL     1       1.631  -0.759   5.280  1.00  0.00     0.014 A 
BRANCH  25  30
ATOM     30  O   UNL     1      -0.323  -0.957   0.587  1.00  0.00    -0.497 OA
ATOM     31  C   UNL     1       0.472  -0.558  -0.513  1.00  0.00     0.278 C 
ENDBRANCH  25  30
ENDBRANCH  21  24
ENDBRANCH  17  20
ENDBRANCH   9  16
ENDBRANCH   6   8
ENDBRANCH   5   6
ENDBRANCH   4   5
ENDBRANCH   3   4
ENDBRANCH   2   3
ENDBRANCH   1   2
BRANCH   1  32
ATOM     32  C   UNL     1       7.072   2.872   1.896  1.00  0.00     0.188 C 
BRANCH  32  33
ATOM     33  O   UNL     1       8.143   3.787   1.925  1.00  0.00    -0.376 OA
BRANCH  33  34
ATOM     34  C   UNL     1       7.795   5.128   2.238  1.00  0.00     0.202 C 
BRANCH  34  35
ATOM     35  C   UNL     1       6.925   5.423   3.482  1.00  0.00     0.261 C 
BRANCH  35  36
ATOM     36  O   UNL     1       5.777   4.575   3.711  1.00  0.00    -0.460 OA
BRANCH  36  37
ATOM     37  C   UNL     1       4.631   4.863   3.045  1.00  0.00     0.338 C 
ATOM     38  O   UNL     1       4.470   5.789   2.269  1.00  0.00    -0.246 OA
BRANCH  37  39
ATOM     39  C   UNL     1       3.668   3.733   3.212  1.00  0.00     0.060 A 
ATOM     40  C   UNL     1       3.143   3.136   2.059  1.00  0.00     0.016 A 
ATOM     41  C   UNL     1       3.277   3.253   4.464  1.00  0.00     0.016 A 
ATOM     42  C   UNL     1       2.267   2.039   2.151  1.00  0.00     0.010 A 
ATOM     43  C   UNL     1       2.389   2.161   4.558  1.00  0.00     0.010 A 
ATOM     44  C   UNL     1       1.910   1.489   3.402  1.00  0.00    -0.014 A 
BRANCH  44  45
ATOM     45  C   UNL     1       0.844   0.115   3.560  1.00  0.00     0.031 A 
ATOM     46  C   UNL     1      -0.620   1.223   3.839  1.00  0.00     0.074 A 
ATOM     47  C   UNL     1       0.988  -1.751   3.581  1.00  0.00     0.049 A 
ATOM     48  N   UNL     1      -1.778   0.889   4.392  1.00  0.00    -0.248 NA
ATOM     49  C   UNL     1      -0.666   2.630   3.383  1.00  0.00     0.031 C 
ATOM     50  C   UNL     1       2.177  -2.928   3.415  1.00  0.00     0.029 A 
ATOM     51  N   UNL     1      -0.005  -2.901   3.860  1.00  0.00    -0.354 N 
ATOM     52  C   UNL     1      -2.700   1.841   4.102  1.00  0.00     0.074 A 
ATOM     53  C   UNL     1      -1.932   2.978   3.645  1.00  0.00     0.031 C 
ATOM     54  C   UNL     1       1.819  -4.134   3.886  1.00  0.00     0.029 A 
ATOM     55  C   UNL     1       0.441  -4.117   4.250  1.00  0.00     0.049 A 
ATOM     56  H   UNL     1      -0.971  -2.748   3.752  1.00  0.00     0.167 HD
ATOM     57  C   UNL     1      -4.042   1.653   4.084  1.00  0.00     0.037 A 
ATOM     58  C   UNL     1      -0.309  -5.055   4.854  1.00  0.00     0.037 A 
ATOM     59  C   UNL     1      -4.725   0.366   4.264  1.00  0.00     0.049 A 
ATOM     60  C   UNL     1      -1.803  -4.824   4.974  1.00  0.00     0.074 A 
ATOM     61  C   UNL     1      -6.078   0.126   4.085  1.00  0.00     0.029 A 
ATOM     62  N   UNL     1      -4.162  -0.884   4.594  1.00  0.00    -0.354 N 
ATOM     63  N   UNL     1      -2.497  -3.706   4.841  1.00  0.00    -0.248 NA
ATOM     64  C   UNL     1      -2.615  -6.015   5.212  1.00  0.00     0.031 C 
ATOM     65  C   UNL     1      -6.331  -1.232   4.300  1.00  0.00     0.029 A 
ATOM     66  C   UNL     1      -5.138  -1.891   4.577  1.00  0.00     0.049 A 
ATOM     67  H   UNL     1      -3.212  -1.030   4.807  1.00  0.00     0.167 HD
ATOM     68  C   UNL     1      -3.842  -4.065   4.931  1.00  0.00     0.074 A 
ATOM     69  C   UNL     1      -3.840  -5.513   5.134  1.00  0.00     0.031 C 
ATOM     70  C   UNL     1      -4.987  -3.326   4.826  1.00  0.00     0.037 A 
BRANCH  57  71
ATOM     71  C   UNL     1      -4.872   2.869   3.787  1.00  0.00     0.058 A 
ATOM     72  C   UNL     1      -4.901   3.481   2.524  1.00  0.00     0.135 A 
ATOM     73  C   UNL     1      -5.662   3.427   4.804  1.00  0.00     0.135 A 
ATOM     74  F   UNL     1      -4.176   2.982   1.510  1.00  0.00    -0.206 F 
ATOM     75  C   UNL     1      -5.631   4.644   2.300  1.00  0.00     0.059 A 
ATOM     76  C   UNL     1      -6.421   4.572   4.595  1.00  0.00     0.059 A 
ATOM     77  F   UNL     1      -5.691   2.863   6.022  1.00  0.00    -0.206 F 
ATOM     78  C   UNL     1      -6.374   5.192   3.348  1.00  0.00     0.060 A 
BRANCH  78  79
ATOM     79  S   UNL     1      -7.247   6.747   3.071  1.00  0.00     0.124 S 
ATOM     80  O   UNL     1      -6.140   7.697   3.037  1.00  0.00    -0.237 OA
ATOM     81  O   UNL     1      -7.917   6.508   1.797  1.00  0.00    -0.237 OA
ATOM     82  O   UNL     1      -8.129   6.853   4.230  1.00  0.00    -0.744 OA
ENDBRANCH  78  79
ENDBRANCH  57  71
BRANCH  58  83
ATOM     83  C   UNL     1       0.373  -6.285   5.291  1.00  0.00     0.058 A 
ATOM     84  C   UNL     1       0.450  -7.396   4.445  1.00  0.00     0.135 A 
ATOM     85  C   UNL     1       1.149  -6.280   6.461  1.00  0.00     0.135 A 
ATOM     86  F   UNL     1      -0.274  -7.429   3.315  1.00  0.00    -0.206 F 
ATOM     87  C   UNL     1       1.315  -8.447   4.716  1.00  0.00     0.059 A 
ATOM     88  C   UNL     1       2.028  -7.317   6.749  1.00  0.00     0.059 A 
ATOM     89  F   UNL     1       1.111  -5.224   7.289  1.00  0.00    -0.206 F 
ATOM     90  C   UNL     1       2.121  -8.384   5.855  1.00  0.00     0.060 A 
BRANCH  90  91
ATOM     91  S   UNL     1       3.382  -9.656   6.077  1.00  0.00     0.124 S 
ATOM     92  O   UNL     1       2.571 -10.826   6.391  1.00  0.00    -0.237 OA
ATOM     93  O   UNL     1       4.035  -9.662   4.771  1.00  0.00    -0.237 OA
ATOM     94  O   UNL     1       4.196  -9.138   7.173  1.00  0.00    -0.744 OA
ENDBRANCH  90  91
ENDBRANCH  58  83
BRANCH  70  95
ATOM     95  C   UNL     1      -6.273  -4.148   4.897  1.00  0.00     0.058 A 
ATOM     96  C   UNL     1      -6.740  -4.692   6.107  1.00  0.00     0.135 A 
ATOM     97  C   UNL     1      -7.013  -4.435   3.734  1.00  0.00     0.135 A 
ATOM     98  F   UNL     1      -6.065  -4.475   7.247  1.00  0.00    -0.206 F 
ATOM     99  C   UNL     1      -7.857  -5.527   6.153  1.00  0.00     0.059 A 
ATOM    100  C   UNL     1      -8.153  -5.239   3.763  1.00  0.00     0.059 A 
ATOM    101  F   UNL     1      -6.626  -3.939   2.549  1.00  0.00    -0.206 F 
ATOM    102  C   UNL     1      -8.552  -5.803   4.974  1.00  0.00     0.060 A 
BRANCH 102 103
ATOM    103  S   UNL     1      -9.979  -6.913   5.040  1.00  0.00     0.124 S 
ATOM    104  O   UNL     1      -9.332  -8.216   5.156  1.00  0.00    -0.237 OA
ATOM    105  O   UNL     1     -10.684  -6.449   6.231  1.00  0.00    -0.237 OA
ATOM    106  O   UNL     1     -10.663  -6.662   3.776  1.00  0.00    -0.744 OA
ENDBRANCH 102 103
ENDBRANCH  70  95
ENDBRANCH  44  45
ENDBRANCH  37  39
ENDBRANCH  36  37
ENDBRANCH  35  36
ENDBRANCH  34  35
ENDBRANCH  33  34
ENDBRANCH  32  33
ENDBRANCH   1  32
TORSDOF 24
