REMARK SMILES Cc1c(Cl)cccc1NC(=O)C[C@](C)(C(=O)OCCOCCOCCOC(=O)c1ccc(-c2c3nc(c(-c4c(F)cc(S(=O)(=O)[O-])cc4F)c4ccc([nH]4)c(-c4c(F)cc(S(=O)(=O)[O-])cc4F)c4nc(c(-c5c(F)cc(S(=O)(=O)[O-])cc5F)c5ccc2[nH]5)C=C4)C=C3)cc1)c1ccccc1
REMARK SMILES IDX 21 1 20 2 19 3 18 4 17 5 15 6 16 7 13 8 14 9 12 10 10 11
REMARK SMILES IDX 9 12 11 14 8 15 1 16 2 17 3 18 4 19 5 20 7 21 6 22 95 23
REMARK SMILES IDX 96 24 100 25 97 26 99 27 98 28 22 29 23 30 24 31 25 32 26 33
REMARK SMILES IDX 27 34 28 35 29 36 30 37 94 38 31 39 93 40 32 41 33 42 34 43
REMARK SMILES IDX 87 44 35 45 92 46 86 47 88 48 36 49 91 50 85 51 84 52 37 54
REMARK SMILES IDX 71 55 50 56 70 57 51 58 54 59 69 60 89 61 52 62 53 63 68 65
REMARK SMILES IDX 90 66 55 67 38 68 39 69 48 70 40 71 41 72 47 73 49 74 42 75
REMARK SMILES IDX 43 76 44 77 45 78 46 79 72 80 73 81 82 82 74 83 75 84 81 85
REMARK SMILES IDX 83 86 76 87 77 88 78 89 79 90 80 91 56 92 57 93 66 94 58 95
REMARK SMILES IDX 59 96 65 97 67 98 60 99 61 100 62 101 63 102 64 103
REMARK H PARENT 9 13 88 53 54 64
REMARK Flexibility Score: inf
ROOT
ATOM      1  C   UNL     1      -8.000  -0.901  -1.752  1.00  0.00     0.188 C 
ENDROOT
BRANCH   1   2
ATOM      2  O   UNL     1      -8.353  -2.276  -1.698  1.00  0.00    -0.376 OA
BRANCH   2   3
ATOM      3  C   UNL     1      -7.434  -3.176  -1.085  1.00  0.00     0.202 C 
BRANCH   3   4
ATOM      4  C   UNL     1      -5.955  -3.070  -1.475  1.00  0.00     0.261 C 
BRANCH   4   5
ATOM      5  O   UNL     1      -5.343  -1.806  -1.139  1.00  0.00    -0.463 OA
BRANCH   5   6
ATOM      6  C   UNL     1      -4.335  -1.415  -1.962  1.00  0.00     0.316 C 
ATOM      7  O   UNL     1      -3.923  -2.123  -2.878  1.00  0.00    -0.251 OA
BRANCH   6   8
ATOM      8  C   UNL     1      -3.732  -0.011  -1.658  1.00  0.00     0.099 C 
ATOM      9  C   UNL     1      -4.291   0.720  -0.404  1.00  0.00     0.029 C 
BRANCH   8  10
ATOM     10  C   UNL     1      -2.196  -0.222  -1.429  1.00  0.00     0.123 C 
BRANCH  10  11
ATOM     11  C   UNL     1      -1.644  -1.641  -1.268  1.00  0.00     0.225 C 
ATOM     12  N   UNL     1      -2.062  -2.553  -0.345  1.00  0.00    -0.326 N 
ATOM     13  H   UNL     1      -1.730  -3.460  -0.534  1.00  0.00     0.169 HD
ATOM     14  O   UNL     1      -0.748  -2.022  -2.033  1.00  0.00    -0.275 OA
BRANCH  12  15
ATOM     15  C   UNL     1      -2.857  -2.503   0.816  1.00  0.00     0.045 A 
ATOM     16  C   UNL     1      -3.404  -5.008   0.583  1.00  0.00     0.048 C 
ATOM     17  C   UNL     1      -3.543  -3.664   1.258  1.00  0.00    -0.009 A 
ATOM     18  C   UNL     1      -4.402  -3.554   2.376  1.00  0.00     0.046 A 
ATOM     19  Cl  UNL     1      -5.324  -4.900   2.964  1.00  0.00    -0.084 Cl
ATOM     20  C   UNL     1      -4.554  -2.347   3.057  1.00  0.00     0.021 A 
ATOM     21  C   UNL     1      -2.951  -1.331   1.570  1.00  0.00     0.026 A 
ATOM     22  C   UNL     1      -3.808  -1.243   2.669  1.00  0.00     0.004 A 
ENDBRANCH  12  15
ENDBRANCH  10  11
ENDBRANCH   8  10
BRANCH   8  23
ATOM     23  C   UNL     1      -4.017   0.982  -2.837  1.00  0.00    -0.030 A 
ATOM     24  C   UNL     1      -3.615   2.334  -2.755  1.00  0.00     0.005 A 
ATOM     25  C   UNL     1      -4.769   0.613  -3.970  1.00  0.00     0.005 A 
ATOM     26  C   UNL     1      -3.985   3.269  -3.731  1.00  0.00     0.000 A 
ATOM     27  C   UNL     1      -5.114   1.543  -4.956  1.00  0.00     0.000 A 
ATOM     28  C   UNL     1      -4.737   2.873  -4.831  1.00  0.00     0.000 A 
ENDBRANCH   8  23
ENDBRANCH   6   8
ENDBRANCH   5   6
ENDBRANCH   4   5
ENDBRANCH   3   4
ENDBRANCH   2   3
ENDBRANCH   1   2
BRANCH   1  29
ATOM     29  C   UNL     1      -7.578  -0.220  -0.443  1.00  0.00     0.188 C 
BRANCH  29  30
ATOM     30  O   UNL     1      -7.549  -1.021   0.710  1.00  0.00    -0.376 OA
BRANCH  30  31
ATOM     31  C   UNL     1      -8.657  -1.044   1.589  1.00  0.00     0.202 C 
BRANCH  31  32
ATOM     32  C   UNL     1     -10.088  -0.598   1.228  1.00  0.00     0.261 C 
BRANCH  32  33
ATOM     33  O   UNL     1     -10.286   0.139   0.020  1.00  0.00    -0.460 OA
BRANCH  33  34
ATOM     34  C   UNL     1     -10.193   1.494   0.096  1.00  0.00     0.338 C 
ATOM     35  O   UNL     1      -9.962   2.157   1.080  1.00  0.00    -0.246 OA
BRANCH  34  36
ATOM     36  C   UNL     1     -10.149   1.985  -1.307  1.00  0.00     0.060 A 
ATOM     37  C   UNL     1      -9.026   2.709  -1.737  1.00  0.00     0.016 A 
ATOM     38  C   UNL     1     -11.151   1.631  -2.212  1.00  0.00     0.016 A 
ATOM     39  C   UNL     1      -8.901   3.074  -3.080  1.00  0.00     0.010 A 
ATOM     40  C   UNL     1     -11.043   2.029  -3.545  1.00  0.00     0.010 A 
ATOM     41  C   UNL     1      -9.927   2.764  -3.982  1.00  0.00    -0.014 A 
BRANCH  41  42
ATOM     42  C   UNL     1      -9.957   3.373  -5.332  1.00  0.00     0.031 A 
ATOM     43  C   UNL     1     -10.687   4.675  -5.493  1.00  0.00     0.074 A 
ATOM     44  C   UNL     1      -9.396   2.770  -6.394  1.00  0.00     0.049 A 
ATOM     45  N   UNL     1     -10.980   5.334  -6.582  1.00  0.00    -0.248 NA
ATOM     46  C   UNL     1     -11.161   5.311  -4.252  1.00  0.00     0.031 C 
ATOM     47  C   UNL     1      -8.624   1.531  -6.355  1.00  0.00     0.029 A 
ATOM     48  N   UNL     1      -9.406   3.120  -7.722  1.00  0.00    -0.354 N 
ATOM     49  C   UNL     1     -11.684   6.455  -6.161  1.00  0.00     0.074 A 
ATOM     50  C   UNL     1     -11.789   6.378  -4.720  1.00  0.00     0.031 C 
ATOM     51  C   UNL     1      -8.232   1.223  -7.605  1.00  0.00     0.029 A 
ATOM     52  C   UNL     1      -8.771   2.213  -8.537  1.00  0.00     0.049 A 
ATOM     53  H   UNL     1      -9.828   3.943  -8.059  1.00  0.00     0.167 HD
ATOM     54  C   UNL     1     -12.201   7.457  -6.908  1.00  0.00     0.037 A 
ATOM     55  C   UNL     1      -8.668   2.175  -9.882  1.00  0.00     0.037 A 
ATOM     56  C   UNL     1     -12.122   7.511  -8.342  1.00  0.00     0.049 A 
ATOM     57  C   UNL     1      -9.347   3.244 -10.704  1.00  0.00     0.074 A 
ATOM     58  C   UNL     1     -12.625   8.476  -9.197  1.00  0.00     0.029 A 
ATOM     59  N   UNL     1     -11.514   6.549  -9.136  1.00  0.00    -0.354 N 
ATOM     60  N   UNL     1     -10.008   4.303 -10.299  1.00  0.00    -0.248 NA
ATOM     61  C   UNL     1      -9.289   3.099 -12.166  1.00  0.00     0.031 C 
ATOM     62  C   UNL     1     -12.364   8.071 -10.510  1.00  0.00     0.029 A 
ATOM     63  C   UNL     1     -11.654   6.881 -10.473  1.00  0.00     0.049 A 
ATOM     64  H   UNL     1     -11.052   5.748  -8.798  1.00  0.00     0.167 HD
ATOM     65  C   UNL     1     -10.427   4.959 -11.454  1.00  0.00     0.074 A 
ATOM     66  C   UNL     1      -9.935   4.183 -12.574  1.00  0.00     0.031 C 
ATOM     67  C   UNL     1     -11.153   6.098 -11.576  1.00  0.00     0.037 A 
BRANCH  54  68
ATOM     68  C   UNL     1     -12.938   8.542  -6.176  1.00  0.00     0.058 A 
ATOM     69  C   UNL     1     -12.267   9.472  -5.366  1.00  0.00     0.135 A 
ATOM     70  C   UNL     1     -14.336   8.637  -6.264  1.00  0.00     0.135 A 
ATOM     71  F   UNL     1     -10.933   9.411  -5.228  1.00  0.00    -0.206 F 
ATOM     72  C   UNL     1     -12.960  10.432  -4.636  1.00  0.00     0.059 A 
ATOM     73  C   UNL     1     -15.047   9.607  -5.565  1.00  0.00     0.059 A 
ATOM     74  F   UNL     1     -15.027   7.769  -7.020  1.00  0.00    -0.206 F 
ATOM     75  C   UNL     1     -14.351  10.486  -4.736  1.00  0.00     0.060 A 
BRANCH  75  76
ATOM     76  S   UNL     1     -15.239  11.712  -3.754  1.00  0.00     0.124 S 
ATOM     77  O   UNL     1     -15.136  11.140  -2.415  1.00  0.00    -0.237 OA
ATOM     78  O   UNL     1     -14.459  12.923  -3.986  1.00  0.00    -0.237 OA
ATOM     79  O   UNL     1     -16.577  11.710  -4.336  1.00  0.00    -0.744 OA
ENDBRANCH  75  76
ENDBRANCH  54  68
BRANCH  55  80
ATOM     80  C   UNL     1      -7.911   1.079 -10.547  1.00  0.00     0.058 A 
ATOM     81  C   UNL     1      -6.708   1.345 -11.219  1.00  0.00     0.135 A 
ATOM     82  C   UNL     1      -8.371  -0.247 -10.535  1.00  0.00     0.135 A 
ATOM     83  F   UNL     1      -6.236   2.600 -11.276  1.00  0.00    -0.206 F 
ATOM     84  C   UNL     1      -5.991   0.339 -11.859  1.00  0.00     0.059 A 
ATOM     85  C   UNL     1      -7.659  -1.275 -11.146  1.00  0.00     0.059 A 
ATOM     86  F   UNL     1      -9.515  -0.556  -9.906  1.00  0.00    -0.206 F 
ATOM     87  C   UNL     1      -6.473  -0.970 -11.813  1.00  0.00     0.060 A 
BRANCH  87  88
ATOM     88  S   UNL     1      -5.508  -2.276 -12.605  1.00  0.00     0.124 S 
ATOM     89  O   UNL     1      -5.740  -1.998 -14.018  1.00  0.00    -0.237 OA
ATOM     90  O   UNL     1      -4.162  -2.003 -12.114  1.00  0.00    -0.237 OA
ATOM     91  O   UNL     1      -6.119  -3.500 -12.095  1.00  0.00    -0.744 OA
ENDBRANCH  87  88
ENDBRANCH  55  80
BRANCH  67  92
ATOM     92  C   UNL     1     -11.449   6.597 -12.965  1.00  0.00     0.058 A 
ATOM     93  C   UNL     1     -12.410   5.979 -13.779  1.00  0.00     0.135 A 
ATOM     94  C   UNL     1     -10.831   7.762 -13.448  1.00  0.00     0.135 A 
ATOM     95  F   UNL     1     -13.025   4.858 -13.368  1.00  0.00    -0.206 F 
ATOM     96  C   UNL     1     -12.746   6.497 -15.026  1.00  0.00     0.059 A 
ATOM     97  C   UNL     1     -11.170   8.312 -14.681  1.00  0.00     0.059 A 
ATOM     98  F   UNL     1      -9.912   8.397 -12.704  1.00  0.00    -0.206 F 
ATOM     99  C   UNL     1     -12.127   7.669 -15.465  1.00  0.00     0.060 A 
BRANCH  99 100
ATOM    100  S   UNL     1     -12.625   8.369 -17.053  1.00  0.00     0.124 S 
ATOM    101  O   UNL     1     -12.016   7.433 -17.992  1.00  0.00    -0.237 OA
ATOM    102  O   UNL     1     -14.081   8.327 -16.970  1.00  0.00    -0.237 OA
ATOM    103  O   UNL     1     -12.041   9.707 -17.034  1.00  0.00    -0.744 OA
ENDBRANCH  99 100
ENDBRANCH  67  92
ENDBRANCH  41  42
ENDBRANCH  34  36
ENDBRANCH  33  34
ENDBRANCH  32  33
ENDBRANCH  31  32
ENDBRANCH  30  31
ENDBRANCH  29  30
ENDBRANCH   1  29
TORSDOF 24
