REMARK SMILES CC(C)[NH2+][C@]1(C(=O)OCCOCCOCCOC(=O)c2ccc(-c3c4nc(c(-c5c(F)cc(S(=O)(=O)[O-])cc5F)c5ccc([nH]5)c(-c5c(F)cc(S(=O)(=O)[O-])cc5F)c5nc(c(-c6c(F)cc(S(=O)(=O)[O-])cc6F)c6ccc3[nH]6)C=C5)C=C4)cc2)CC[C@H]([N@H+](C)C2CCCC2)C1
REMARK SMILES IDX 13 1 12 2 11 3 10 4 9 5 8 6 6 7 7 8 5 9 86 10 96 11 87 12
REMARK SMILES IDX 88 13 4 14 2 17 1 18 3 19 89 20 90 21 91 23 92 24 95 25
REMARK SMILES IDX 93 26 94 27 14 28 15 29 16 30 17 31 18 32 19 33 20 34 21 35
REMARK SMILES IDX 85 36 22 37 84 38 23 39 24 40 25 41 78 42 26 43 83 44 77 45
REMARK SMILES IDX 79 46 27 47 82 48 76 49 75 50 28 52 62 53 41 54 61 55 42 56
REMARK SMILES IDX 45 57 60 58 80 59 43 60 44 61 59 63 81 64 46 65 29 66 30 67
REMARK SMILES IDX 39 68 31 69 32 70 38 71 40 72 33 73 34 74 35 75 36 76 37 77
REMARK SMILES IDX 63 78 64 79 73 80 65 81 66 82 72 83 74 84 67 85 68 86 69 87
REMARK SMILES IDX 70 88 71 89 47 90 48 91 57 92 49 93 50 94 56 95 58 96 51 97
REMARK SMILES IDX 52 98 53 99 54 100 55 101
REMARK H PARENT 4 15 4 16 89 22 79 51 45 62
REMARK Flexibility Score: inf
ROOT
ATOM      1  C   UNL     1      -1.419   2.274  -0.672  1.00  0.00     0.188 C 
ENDROOT
BRANCH   1   2
ATOM      2  C   UNL     1      -1.935   1.158   0.247  1.00  0.00     0.188 C 
BRANCH   2   3
ATOM      3  O   UNL     1      -1.051   0.511   1.160  1.00  0.00    -0.376 OA
BRANCH   3   4
ATOM      4  C   UNL     1       0.348   0.684   1.034  1.00  0.00     0.202 C 
BRANCH   4   5
ATOM      5  C   UNL     1       1.053  -0.159  -0.036  1.00  0.00     0.261 C 
BRANCH   5   6
ATOM      6  O   UNL     1       0.562  -0.003  -1.381  1.00  0.00    -0.459 OA
BRANCH   6   7
ATOM      7  C   UNL     1      -0.435  -0.873  -1.692  1.00  0.00     0.368 C 
ATOM      8  O   UNL     1      -0.915  -1.668  -0.885  1.00  0.00    -0.245 OA
BRANCH   7   9
ATOM      9  C   UNL     1      -0.946  -0.789  -3.159  1.00  0.00     0.200 C 
ATOM     10  C   UNL     1       0.028  -0.336  -4.258  1.00  0.00     0.087 C 
ATOM     11  C   UNL     1      -0.907  -2.312  -3.506  1.00  0.00     0.146 C 
ATOM     12  C   UNL     1      -0.378  -1.146  -5.519  1.00  0.00     0.072 C 
ATOM     13  C   UNL     1      -0.996  -2.475  -5.006  1.00  0.00     0.191 C 
BRANCH   9  14
ATOM     14  N   UNL     1      -2.267  -0.074  -3.116  1.00  0.00    -0.330 N 
ATOM     15  H   UNL     1      -2.971  -0.790  -2.938  1.00  0.00     0.347 HD
ATOM     16  H   UNL     1      -2.094   0.645  -2.414  1.00  0.00     0.347 HD
BRANCH  14  17
ATOM     17  C   UNL     1      -2.771   0.721  -4.247  1.00  0.00     0.176 C 
ATOM     18  C   UNL     1      -4.312   0.746  -4.320  1.00  0.00     0.075 C 
ATOM     19  C   UNL     1      -2.306   2.182  -4.217  1.00  0.00     0.075 C 
ENDBRANCH  14  17
ENDBRANCH   9  14
BRANCH  13  20
ATOM     20  N   UNL     1      -2.244  -3.031  -5.572  1.00  0.00    -0.332 N 
ATOM     21  C   UNL     1      -2.250  -2.925  -7.031  1.00  0.00     0.333 C 
ATOM     22  H   UNL     1      -2.179  -4.005  -5.278  1.00  0.00     0.348 HD
BRANCH  20  23
ATOM     23  C   UNL     1      -3.548  -2.702  -4.964  1.00  0.00     0.184 C 
ATOM     24  C   UNL     1      -4.785  -3.274  -5.690  1.00  0.00     0.065 C 
ATOM     25  C   UNL     1      -3.852  -3.228  -3.544  1.00  0.00     0.065 C 
ATOM     26  C   UNL     1      -5.951  -3.027  -4.734  1.00  0.00     0.006 C 
ATOM     27  C   UNL     1      -5.351  -3.045  -3.340  1.00  0.00     0.006 C 
ENDBRANCH  20  23
ENDBRANCH  13  20
ENDBRANCH   7   9
ENDBRANCH   6   7
ENDBRANCH   5   6
ENDBRANCH   4   5
ENDBRANCH   3   4
ENDBRANCH   2   3
ENDBRANCH   1   2
BRANCH   1  28
ATOM     28  O   UNL     1      -0.670   3.252   0.043  1.00  0.00    -0.376 OA
BRANCH  28  29
ATOM     29  C   UNL     1      -1.157   4.578  -0.091  1.00  0.00     0.202 C 
BRANCH  29  30
ATOM     30  C   UNL     1      -2.245   4.888   0.942  1.00  0.00     0.261 C 
BRANCH  30  31
ATOM     31  O   UNL     1      -3.381   4.002   0.921  1.00  0.00    -0.460 OA
BRANCH  31  32
ATOM     32  C   UNL     1      -4.216   4.121  -0.127  1.00  0.00     0.338 C 
ATOM     33  O   UNL     1      -4.089   4.893  -1.076  1.00  0.00    -0.246 OA
BRANCH  32  34
ATOM     34  C   UNL     1      -5.253   3.075  -0.055  1.00  0.00     0.060 A 
ATOM     35  C   UNL     1      -5.293   2.108  -1.061  1.00  0.00     0.016 A 
ATOM     36  C   UNL     1      -6.231   3.084   0.939  1.00  0.00     0.016 A 
ATOM     37  C   UNL     1      -6.352   1.198  -1.135  1.00  0.00     0.010 A 
ATOM     38  C   UNL     1      -7.287   2.164   0.874  1.00  0.00     0.010 A 
ATOM     39  C   UNL     1      -7.383   1.244  -0.190  1.00  0.00    -0.014 A 
BRANCH  39  40
ATOM     40  C   UNL     1      -8.633   0.459  -0.397  1.00  0.00     0.031 A 
ATOM     41  C   UNL     1      -9.882   1.182  -0.836  1.00  0.00     0.074 A 
ATOM     42  C   UNL     1      -8.669  -0.878  -0.233  1.00  0.00     0.049 A 
ATOM     43  N   UNL     1     -11.106   0.736  -0.957  1.00  0.00    -0.248 NA
ATOM     44  C   UNL     1      -9.724   2.603  -1.187  1.00  0.00     0.031 C 
ATOM     45  C   UNL     1      -7.527  -1.723   0.110  1.00  0.00     0.029 A 
ATOM     46  N   UNL     1      -9.722  -1.759  -0.325  1.00  0.00    -0.354 N 
ATOM     47  C   UNL     1     -11.869   1.824  -1.366  1.00  0.00     0.074 A 
ATOM     48  C   UNL     1     -10.971   2.955  -1.464  1.00  0.00     0.031 C 
ATOM     49  C   UNL     1      -7.942  -2.999   0.209  1.00  0.00     0.029 A 
ATOM     50  C   UNL     1      -9.387  -3.055  -0.013  1.00  0.00     0.049 A 
ATOM     51  H   UNL     1     -10.630  -1.486  -0.591  1.00  0.00     0.167 HD
ATOM     52  C   UNL     1     -13.196   1.880  -1.637  1.00  0.00     0.037 A 
ATOM     53  C   UNL     1     -10.160  -4.154   0.117  1.00  0.00     0.037 A 
ATOM     54  C   UNL     1     -14.090   0.754  -1.561  1.00  0.00     0.049 A 
ATOM     55  C   UNL     1     -11.648  -4.053  -0.109  1.00  0.00     0.074 A 
ATOM     56  C   UNL     1     -15.450   0.716  -1.820  1.00  0.00     0.029 A 
ATOM     57  N   UNL     1     -13.716  -0.532  -1.202  1.00  0.00    -0.354 N 
ATOM     58  N   UNL     1     -12.362  -3.012  -0.468  1.00  0.00    -0.248 NA
ATOM     59  C   UNL     1     -12.439  -5.277   0.097  1.00  0.00     0.031 C 
ATOM     60  C   UNL     1     -15.906  -0.584  -1.575  1.00  0.00     0.029 A 
ATOM     61  C   UNL     1     -14.822  -1.366  -1.211  1.00  0.00     0.049 A 
ATOM     62  H   UNL     1     -12.800  -0.811  -0.973  1.00  0.00     0.167 HD
ATOM     63  C   UNL     1     -13.677  -3.463  -0.558  1.00  0.00     0.074 A 
ATOM     64  C   UNL     1     -13.660  -4.871  -0.224  1.00  0.00     0.031 C 
ATOM     65  C   UNL     1     -14.796  -2.771  -0.890  1.00  0.00     0.037 A 
BRANCH  52  66
ATOM     66  C   UNL     1     -13.772   3.220  -2.002  1.00  0.00     0.058 A 
ATOM     67  C   UNL     1     -13.535   3.817  -3.250  1.00  0.00     0.135 A 
ATOM     68  C   UNL     1     -14.591   3.908  -1.092  1.00  0.00     0.135 A 
ATOM     69  F   UNL     1     -12.744   3.212  -4.150  1.00  0.00    -0.206 F 
ATOM     70  C   UNL     1     -14.065   5.063  -3.571  1.00  0.00     0.059 A 
ATOM     71  C   UNL     1     -15.153   5.142  -1.401  1.00  0.00     0.059 A 
ATOM     72  F   UNL     1     -14.849   3.381   0.116  1.00  0.00    -0.206 F 
ATOM     73  C   UNL     1     -14.870   5.720  -2.638  1.00  0.00     0.060 A 
BRANCH  73  74
ATOM     74  S   UNL     1     -15.543   7.340  -3.063  1.00  0.00     0.124 S 
ATOM     75  O   UNL     1     -14.358   8.185  -2.948  1.00  0.00    -0.237 OA
ATOM     76  O   UNL     1     -16.039   7.128  -4.419  1.00  0.00    -0.237 OA
ATOM     77  O   UNL     1     -16.570   7.559  -2.050  1.00  0.00    -0.744 OA
ENDBRANCH  73  74
ENDBRANCH  52  66
BRANCH  53  78
ATOM     78  C   UNL     1      -9.551  -5.453   0.515  1.00  0.00     0.058 A 
ATOM     79  C   UNL     1      -9.489  -6.531  -0.381  1.00  0.00     0.135 A 
ATOM     80  C   UNL     1      -9.041  -5.651   1.808  1.00  0.00     0.135 A 
ATOM     81  F   UNL     1      -9.982  -6.399  -1.622  1.00  0.00    -0.206 F 
ATOM     82  C   UNL     1      -8.957  -7.761  -0.007  1.00  0.00     0.059 A 
ATOM     83  C   UNL     1      -8.479  -6.863   2.197  1.00  0.00     0.059 A 
ATOM     84  F   UNL     1      -9.075  -4.652   2.705  1.00  0.00    -0.206 F 
ATOM     85  C   UNL     1      -8.452  -7.917   1.285  1.00  0.00     0.060 A 
BRANCH  85  86
ATOM     86  S   UNL     1      -7.727  -9.505   1.749  1.00  0.00     0.124 S 
ATOM     87  O   UNL     1      -8.916 -10.335   1.909  1.00  0.00    -0.237 OA
ATOM     88  O   UNL     1      -6.887  -9.809   0.595  1.00  0.00    -0.237 OA
ATOM     89  O   UNL     1      -7.003  -9.196   2.978  1.00  0.00    -0.744 OA
ENDBRANCH  85  86
ENDBRANCH  53  78
BRANCH  65  90
ATOM     90  C   UNL     1     -16.094  -3.531  -0.955  1.00  0.00     0.058 A 
ATOM     91  C   UNL     1     -16.762  -3.958   0.203  1.00  0.00     0.135 A 
ATOM     92  C   UNL     1     -16.704  -3.788  -2.194  1.00  0.00     0.135 A 
ATOM     93  F   UNL     1     -16.222  -3.741   1.413  1.00  0.00    -0.206 F 
ATOM     94  C   UNL     1     -17.977  -4.634   0.135  1.00  0.00     0.059 A 
ATOM     95  C   UNL     1     -17.931  -4.440  -2.285  1.00  0.00     0.059 A 
ATOM     96  F   UNL     1     -16.115  -3.391  -3.333  1.00  0.00    -0.206 F 
ATOM     97  C   UNL     1     -18.554  -4.870  -1.114  1.00  0.00     0.060 A 
BRANCH  97  98
ATOM     98  S   UNL     1     -20.146  -5.721  -1.191  1.00  0.00     0.124 S 
ATOM     99  O   UNL     1     -19.755  -7.100  -0.919  1.00  0.00    -0.237 OA
ATOM    100  O   UNL     1     -20.907  -5.058  -0.136  1.00  0.00    -0.237 OA
ATOM    101  O   UNL     1     -20.608  -5.455  -2.550  1.00  0.00    -0.744 OA
ENDBRANCH  97  98
ENDBRANCH  65  90
ENDBRANCH  39  40
ENDBRANCH  32  34
ENDBRANCH  31  32
ENDBRANCH  30  31
ENDBRANCH  29  30
ENDBRANCH  28  29
ENDBRANCH   1  28
TORSDOF 24
