REMARK SMILES O=C(OCCOCCOCCOC(=O)[C@@H]1[C@H](C(=O)NCc2ccncc2)[C@H]2C=C[C@@H]1O2)c1ccc(-c2c3nc(c(-c4c(F)cc(S(=O)(=O)[O-])cc4F)c4ccc([nH]4)c(-c4c(F)cc(S(=O)(=O)[O-])cc4F)c4nc(c(-c5c(F)cc(S(=O)(=O)[O-])cc5F)c5ccc2[nH]5)C=C4)C=C3)cc1
REMARK SMILES IDX 7 1 6 2 5 3 4 4 3 5 2 6 1 7 32 8 33 9 97 10 34 11 96 12
REMARK SMILES IDX 35 13 36 14 37 15 90 16 38 17 95 18 89 19 91 20 39 21 94 22
REMARK SMILES IDX 88 23 87 24 40 26 74 27 53 28 73 29 54 30 57 31 72 32 92 33
REMARK SMILES IDX 55 34 56 35 71 37 93 38 58 39 41 40 42 41 51 42 43 43 44 44
REMARK SMILES IDX 50 45 52 46 45 47 46 48 47 49 48 50 49 51 75 52 76 53 85 54
REMARK SMILES IDX 77 55 78 56 84 57 86 58 79 59 80 60 81 61 82 62 83 63 59 64
REMARK SMILES IDX 60 65 69 66 61 67 62 68 68 69 70 70 63 71 64 72 65 73 66 74
REMARK SMILES IDX 67 75 8 76 9 77 10 78 11 79 12 80 13 81 14 82 15 83 16 84
REMARK SMILES IDX 30 85 27 86 29 87 31 88 28 89 17 90 18 91 19 92 20 94 21 95
REMARK SMILES IDX 22 96 26 97 23 98 25 99 24 100
REMARK H PARENT 91 25 57 36 19 93
REMARK Flexibility Score: inf
ROOT
ATOM      1  C   UNL     1       2.383   0.116  -1.832  1.00  0.00     0.188 C 
ENDROOT
BRANCH   1   2
ATOM      2  O   UNL     1       3.405  -0.876  -1.956  1.00  0.00    -0.376 OA
BRANCH   2   3
ATOM      3  C   UNL     1       4.357  -0.997  -0.887  1.00  0.00     0.202 C 
BRANCH   3   4
ATOM      4  C   UNL     1       4.000  -1.841   0.325  1.00  0.00     0.261 C 
BRANCH   4   5
ATOM      5  O   UNL     1       2.623  -1.712   0.711  1.00  0.00    -0.460 OA
BRANCH   5   6
ATOM      6  C   UNL     1       2.000  -0.734   1.402  1.00  0.00     0.338 C 
ATOM      7  O   UNL     1       0.776  -0.731   1.483  1.00  0.00    -0.246 OA
BRANCH   6   8
ATOM      8  C   UNL     1       2.760   0.282   2.166  1.00  0.00     0.060 A 
ATOM      9  C   UNL     1       3.800   1.031   1.633  1.00  0.00     0.016 A 
ATOM     10  C   UNL     1       2.349   0.561   3.471  1.00  0.00     0.016 A 
ATOM     11  C   UNL     1       4.630   1.780   2.448  1.00  0.00     0.010 A 
ATOM     12  C   UNL     1       3.070   1.466   4.255  1.00  0.00     0.010 A 
ATOM     13  C   UNL     1       4.278   1.997   3.777  1.00  0.00    -0.014 A 
BRANCH  13  14
ATOM     14  C   UNL     1       5.253   2.640   4.693  1.00  0.00     0.031 A 
ATOM     15  C   UNL     1       5.826   1.807   5.774  1.00  0.00     0.074 A 
ATOM     16  C   UNL     1       5.725   3.884   4.492  1.00  0.00     0.049 A 
ATOM     17  N   UNL     1       6.634   2.172   6.722  1.00  0.00    -0.248 NA
ATOM     18  C   UNL     1       5.467   0.380   5.781  1.00  0.00     0.031 C 
ATOM     19  C   UNL     1       5.353   4.657   3.337  1.00  0.00     0.029 A 
ATOM     20  N   UNL     1       6.586   4.716   5.148  1.00  0.00    -0.354 N 
ATOM     21  C   UNL     1       6.856   1.029   7.462  1.00  0.00     0.074 A 
ATOM     22  C   UNL     1       6.074  -0.036   6.878  1.00  0.00     0.031 C 
ATOM     23  C   UNL     1       5.966   5.844   3.324  1.00  0.00     0.029 A 
ATOM     24  C   UNL     1       6.710   5.959   4.552  1.00  0.00     0.049 A 
ATOM     25  H   UNL     1       7.071   4.458   5.965  1.00  0.00     0.167 HD
ATOM     26  C   UNL     1       7.658   0.908   8.536  1.00  0.00     0.037 A 
ATOM     27  C   UNL     1       7.312   7.087   4.968  1.00  0.00     0.037 A 
ATOM     28  C   UNL     1       8.410   2.009   9.070  1.00  0.00     0.049 A 
ATOM     29  C   UNL     1       8.059   6.967   6.254  1.00  0.00     0.074 A 
ATOM     30  C   UNL     1       9.217   2.029  10.188  1.00  0.00     0.029 A 
ATOM     31  N   UNL     1       8.434   3.292   8.528  1.00  0.00    -0.354 N 
ATOM     32  N   UNL     1       8.203   5.896   7.000  1.00  0.00    -0.248 NA
ATOM     33  C   UNL     1       8.741   8.161   6.750  1.00  0.00     0.031 C 
ATOM     34  C   UNL     1       9.657   3.342  10.373  1.00  0.00     0.029 A 
ATOM     35  C   UNL     1       9.210   4.123   9.316  1.00  0.00     0.049 A 
ATOM     36  H   UNL     1       7.968   3.566   7.706  1.00  0.00     0.167 HD
ATOM     37  C   UNL     1       9.038   6.268   8.033  1.00  0.00     0.074 A 
ATOM     38  C   UNL     1       9.368   7.667   7.809  1.00  0.00     0.031 C 
ATOM     39  C   UNL     1       9.502   5.516   9.060  1.00  0.00     0.037 A 
BRANCH  26  40
ATOM     40  C   UNL     1       7.641  -0.416   9.230  1.00  0.00     0.058 A 
ATOM     41  C   UNL     1       8.156  -1.585   8.645  1.00  0.00     0.135 A 
ATOM     42  C   UNL     1       7.028  -0.521  10.486  1.00  0.00     0.135 A 
ATOM     43  F   UNL     1       8.694  -1.549   7.415  1.00  0.00    -0.206 F 
ATOM     44  C   UNL     1       8.047  -2.816   9.279  1.00  0.00     0.059 A 
ATOM     45  C   UNL     1       6.944  -1.733  11.155  1.00  0.00     0.059 A 
ATOM     46  F   UNL     1       6.481   0.560  11.065  1.00  0.00    -0.206 F 
ATOM     47  C   UNL     1       7.449  -2.876  10.539  1.00  0.00     0.060 A 
BRANCH  47  48
ATOM     48  S   UNL     1       7.351  -4.474  11.366  1.00  0.00     0.124 S 
ATOM     49  O   UNL     1       6.382  -5.177  10.531  1.00  0.00    -0.237 OA
ATOM     50  O   UNL     1       8.728  -4.947  11.277  1.00  0.00    -0.237 OA
ATOM     51  O   UNL     1       6.892  -4.133  12.709  1.00  0.00    -0.744 OA
ENDBRANCH  47  48
ENDBRANCH  26  40
BRANCH  27  52
ATOM     52  C   UNL     1       7.224   8.363   4.197  1.00  0.00     0.058 A 
ATOM     53  C   UNL     1       8.362   8.950   3.626  1.00  0.00     0.135 A 
ATOM     54  C   UNL     1       5.999   9.031   4.016  1.00  0.00     0.135 A 
ATOM     55  F   UNL     1       9.558   8.356   3.756  1.00  0.00    -0.206 F 
ATOM     56  C   UNL     1       8.300  10.162   2.938  1.00  0.00     0.059 A 
ATOM     57  C   UNL     1       5.905  10.229   3.308  1.00  0.00     0.059 A 
ATOM     58  F   UNL     1       4.868   8.512   4.522  1.00  0.00    -0.206 F 
ATOM     59  C   UNL     1       7.065  10.795   2.785  1.00  0.00     0.060 A 
BRANCH  59  60
ATOM     60  S   UNL     1       7.003  12.364   1.889  1.00  0.00     0.124 S 
ATOM     61  O   UNL     1       7.746  13.245   2.783  1.00  0.00    -0.237 OA
ATOM     62  O   UNL     1       7.667  12.024   0.634  1.00  0.00    -0.237 OA
ATOM     63  O   UNL     1       5.573  12.637   1.782  1.00  0.00    -0.744 OA
ENDBRANCH  59  60
ENDBRANCH  27  52
BRANCH  39  64
ATOM     64  C   UNL     1      10.463   6.194   9.984  1.00  0.00     0.058 A 
ATOM     65  C   UNL     1      10.065   7.230  10.840  1.00  0.00     0.135 A 
ATOM     66  C   UNL     1      11.801   5.772  10.021  1.00  0.00     0.135 A 
ATOM     67  F   UNL     1       8.797   7.673  10.826  1.00  0.00    -0.206 F 
ATOM     68  C   UNL     1      10.975   7.858  11.676  1.00  0.00     0.059 A 
ATOM     69  C   UNL     1      12.716   6.351  10.886  1.00  0.00     0.059 A 
ATOM     70  F   UNL     1      12.223   4.778   9.224  1.00  0.00    -0.206 F 
ATOM     71  C   UNL     1      12.296   7.405  11.695  1.00  0.00     0.060 A 
BRANCH  71  72
ATOM     72  S   UNL     1      13.460   8.210  12.809  1.00  0.00     0.124 S 
ATOM     73  O   UNL     1      13.619   9.513  12.172  1.00  0.00    -0.237 OA
ATOM     74  O   UNL     1      12.729   8.204  14.072  1.00  0.00    -0.237 OA
ATOM     75  O   UNL     1      14.631   7.340  12.763  1.00  0.00    -0.744 OA
ENDBRANCH  71  72
ENDBRANCH  39  64
ENDBRANCH  13  14
ENDBRANCH   6   8
ENDBRANCH   5   6
ENDBRANCH   4   5
ENDBRANCH   3   4
ENDBRANCH   2   3
ENDBRANCH   1   2
BRANCH   1  76
ATOM     76  C   UNL     1       1.980   0.862  -3.181  1.00  0.00     0.188 C 
BRANCH  76  77
ATOM     77  O   UNL     1       2.822   1.250  -4.323  1.00  0.00    -0.376 OA
BRANCH  77  78
ATOM     78  C   UNL     1       4.378   1.841  -4.547  1.00  0.00     0.202 C 
BRANCH  78  79
ATOM     79  C   UNL     1       5.626   3.093  -3.209  1.00  0.00     0.261 C 
BRANCH  79  80
ATOM     80  O   UNL     1       4.844   3.964  -1.751  1.00  0.00    -0.463 OA
BRANCH  80  81
ATOM     81  C   UNL     1       3.438   4.193  -1.363  1.00  0.00     0.312 C 
ATOM     82  O   UNL     1       2.409   3.719  -1.887  1.00  0.00    -0.252 OA
BRANCH  81  83
ATOM     83  C   UNL     1       3.006   5.111  -0.331  1.00  0.00     0.147 C 
ATOM     84  C   UNL     1       2.370   6.403  -0.887  1.00  0.00     0.128 C 
ATOM     85  C   UNL     1       4.022   5.590   0.622  1.00  0.00     0.157 C 
ATOM     86  C   UNL     1       3.207   7.453  -0.134  1.00  0.00     0.155 C 
ATOM     87  C   UNL     1       3.227   6.191   1.758  1.00  0.00     0.004 C 
ATOM     88  O   UNL     1       4.487   6.769  -0.052  1.00  0.00    -0.365 OA
ATOM     89  C   UNL     1       2.791   7.377   1.315  1.00  0.00     0.004 C 
BRANCH  84  90
ATOM     90  C   UNL     1       2.115   6.698  -2.364  1.00  0.00     0.227 C 
ATOM     91  O   UNL     1       1.287   7.577  -2.646  1.00  0.00    -0.275 OA
ATOM     92  N   UNL     1       2.648   6.061  -3.431  1.00  0.00    -0.352 N 
ATOM     93  H   UNL     1       2.087   6.079  -4.240  1.00  0.00     0.163 HD
BRANCH  92  94
ATOM     94  C   UNL     1       3.884   5.368  -3.582  1.00  0.00     0.151 C 
BRANCH  94  95
ATOM     95  C   UNL     1       3.892   3.731  -3.923  1.00  0.00    -0.026 A 
ATOM     96  C   UNL     1       3.996   2.256  -2.712  1.00  0.00     0.025 A 
ATOM     97  C   UNL     1       5.112   3.775  -5.227  1.00  0.00     0.025 A 
ATOM     98  C   UNL     1       5.333   1.077  -2.932  1.00  0.00     0.111 A 
ATOM     99  C   UNL     1       6.313   2.574  -5.271  1.00  0.00     0.111 A 
ATOM    100  N   UNL     1       6.465   1.307  -4.180  1.00  0.00    -0.265 NA
ENDBRANCH  94  95
ENDBRANCH  92  94
ENDBRANCH  84  90
ENDBRANCH  81  83
ENDBRANCH  80  81
ENDBRANCH  79  80
ENDBRANCH  78  79
ENDBRANCH  77  78
ENDBRANCH  76  77
ENDBRANCH   1  76
TORSDOF 23
