REMARK SMILES N#CCC[NH2+]C1(C(=O)OCCOCCOCCOC(=O)c2ccc(-c3c4nc(c(-c5c(F)cc(S(=O)(=O)[O-])cc5F)c5ccc([nH]5)c(-c5c(F)cc(S(=O)(=O)[O-])cc5F)c5nc(c(-c6c(F)cc(S(=O)(=O)[O-])cc6F)c6ccc3[nH]6)C=C5)C=C4)cc2)CC1
REMARK SMILES IDX 13 1 12 2 11 3 10 4 9 5 7 6 8 7 6 8 87 9 88 10 5 11 4 14
REMARK SMILES IDX 3 15 2 16 1 17 14 18 15 19 16 20 17 21 18 22 19 23 20 24
REMARK SMILES IDX 21 25 22 26 86 27 23 28 85 29 24 30 25 31 26 32 79 33 27 34
REMARK SMILES IDX 84 35 78 36 80 37 28 38 83 39 77 40 76 41 29 43 63 44 42 45
REMARK SMILES IDX 62 46 43 47 46 48 61 49 81 50 44 51 45 52 60 54 82 55 47 56
REMARK SMILES IDX 30 57 31 58 40 59 32 60 33 61 39 62 41 63 34 64 35 65 36 66
REMARK SMILES IDX 37 67 38 68 64 69 65 70 74 71 66 72 67 73 73 74 75 75 68 76
REMARK SMILES IDX 69 77 70 78 71 79 72 80 48 81 49 82 58 83 50 84 51 85 57 86
REMARK SMILES IDX 59 87 52 88 53 89 54 90 55 91 56 92
REMARK H PARENT 5 12 5 13 80 42 46 53
REMARK Flexibility Score: inf
ROOT
ATOM      1  C   UNL     1       1.390  -0.322   4.657  1.00  0.00     0.188 C 
ENDROOT
BRANCH   1   2
ATOM      2  O   UNL     1       1.272  -0.792   5.987  1.00  0.00    -0.376 OA
BRANCH   2   3
ATOM      3  C   UNL     1       2.412  -1.413   6.564  1.00  0.00     0.202 C 
BRANCH   3   4
ATOM      4  C   UNL     1       3.772  -0.685   6.561  1.00  0.00     0.261 C 
BRANCH   4   5
ATOM      5  O   UNL     1       3.930   0.247   5.487  1.00  0.00    -0.459 OA
BRANCH   5   6
ATOM      6  C   UNL     1       4.995   0.100   4.660  1.00  0.00     0.368 C 
ATOM      7  O   UNL     1       5.905  -0.709   4.790  1.00  0.00    -0.245 OA
BRANCH   6   8
ATOM      8  C   UNL     1       4.901   1.041   3.468  1.00  0.00     0.194 C 
ATOM      9  C   UNL     1       6.020   2.044   3.286  1.00  0.00     0.088 C 
ATOM     10  C   UNL     1       4.672   2.521   3.731  1.00  0.00     0.088 C 
BRANCH   8  11
ATOM     11  N   UNL     1       4.191   0.396   2.326  1.00  0.00    -0.331 N 
ATOM     12  H   UNL     1       4.520  -0.568   2.277  1.00  0.00     0.347 HD
ATOM     13  H   UNL     1       3.205   0.536   2.546  1.00  0.00     0.347 HD
BRANCH  11  14
ATOM     14  C   UNL     1       4.326   0.958   0.987  1.00  0.00     0.276 C 
BRANCH  14  15
ATOM     15  C   UNL     1       3.703   0.029  -0.056  1.00  0.00     0.181 C 
BRANCH  15  16
ATOM     16  C   UNL     1       2.183   0.029  -0.056  1.00  0.00     0.068 C 
ATOM     17  N   UNL     1       0.922   0.029  -0.056  1.00  0.00    -0.198 NA
ENDBRANCH  15  16
ENDBRANCH  14  15
ENDBRANCH  11  14
ENDBRANCH   8  11
ENDBRANCH   6   8
ENDBRANCH   5   6
ENDBRANCH   4   5
ENDBRANCH   3   4
ENDBRANCH   2   3
ENDBRANCH   1   2
BRANCH   1  18
ATOM     18  C   UNL     1       1.317   1.220   4.546  1.00  0.00     0.188 C 
BRANCH  18  19
ATOM     19  O   UNL     1       1.305   2.033   5.714  1.00  0.00    -0.376 OA
BRANCH  19  20
ATOM     20  C   UNL     1       0.465   1.670   6.802  1.00  0.00     0.202 C 
BRANCH  20  21
ATOM     21  C   UNL     1      -1.036   1.405   6.574  1.00  0.00     0.261 C 
BRANCH  21  22
ATOM     22  O   UNL     1      -1.381   0.704   5.369  1.00  0.00    -0.460 OA
BRANCH  22  23
ATOM     23  C   UNL     1      -1.964   1.465   4.407  1.00  0.00     0.338 C 
ATOM     24  O   UNL     1      -2.244   2.650   4.489  1.00  0.00    -0.246 OA
BRANCH  23  25
ATOM     25  C   UNL     1      -2.032   0.708   3.134  1.00  0.00     0.060 A 
ATOM     26  C   UNL     1      -1.616   1.372   1.980  1.00  0.00     0.016 A 
ATOM     27  C   UNL     1      -2.474  -0.617   3.052  1.00  0.00     0.016 A 
ATOM     28  C   UNL     1      -1.636   0.708   0.754  1.00  0.00     0.010 A 
ATOM     29  C   UNL     1      -2.497  -1.277   1.808  1.00  0.00     0.010 A 
ATOM     30  C   UNL     1      -2.067  -0.627   0.642  1.00  0.00    -0.014 A 
BRANCH  30  31
ATOM     31  C   UNL     1      -2.155  -1.277  -0.707  1.00  0.00     0.031 A 
ATOM     32  C   UNL     1      -3.123  -0.711  -1.716  1.00  0.00     0.074 A 
ATOM     33  C   UNL     1      -1.373  -2.318  -1.077  1.00  0.00     0.049 A 
ATOM     34  N   UNL     1      -3.403  -1.129  -2.925  1.00  0.00    -0.248 NA
ATOM     35  C   UNL     1      -3.865   0.496  -1.316  1.00  0.00     0.031 C 
ATOM     36  C   UNL     1      -0.294  -2.900  -0.280  1.00  0.00     0.029 A 
ATOM     37  N   UNL     1      -1.353  -3.064  -2.239  1.00  0.00    -0.354 N 
ATOM     38  C   UNL     1      -4.340  -0.233  -3.425  1.00  0.00     0.074 A 
ATOM     39  C   UNL     1      -4.563   0.766  -2.406  1.00  0.00     0.031 C 
ATOM     40  C   UNL     1       0.283  -3.900  -0.973  1.00  0.00     0.029 A 
ATOM     41  C   UNL     1      -0.425  -4.084  -2.240  1.00  0.00     0.049 A 
ATOM     42  H   UNL     1      -1.950  -2.884  -3.001  1.00  0.00     0.167 HD
ATOM     43  C   UNL     1      -4.999  -0.255  -4.606  1.00  0.00     0.037 A 
ATOM     44  C   UNL     1      -0.195  -5.073  -3.135  1.00  0.00     0.037 A 
ATOM     45  C   UNL     1      -4.871  -1.292  -5.589  1.00  0.00     0.049 A 
ATOM     46  C   UNL     1      -1.063  -5.172  -4.372  1.00  0.00     0.074 A 
ATOM     47  C   UNL     1      -5.586  -1.451  -6.763  1.00  0.00     0.029 A 
ATOM     48  N   UNL     1      -3.996  -2.362  -5.500  1.00  0.00    -0.354 N 
ATOM     49  N   UNL     1      -1.978  -4.340  -4.809  1.00  0.00    -0.248 NA
ATOM     50  C   UNL     1      -0.892  -6.363  -5.223  1.00  0.00     0.031 C 
ATOM     51  C   UNL     1      -5.184  -2.651  -7.355  1.00  0.00     0.029 A 
ATOM     52  C   UNL     1      -4.172  -3.202  -6.586  1.00  0.00     0.049 A 
ATOM     53  H   UNL     1      -3.347  -2.503  -4.774  1.00  0.00     0.167 HD
ATOM     54  C   UNL     1      -2.465  -4.891  -5.993  1.00  0.00     0.074 A 
ATOM     55  C   UNL     1      -1.744  -6.124  -6.212  1.00  0.00     0.031 C 
ATOM     56  C   UNL     1      -3.426  -4.412  -6.821  1.00  0.00     0.037 A 
BRANCH  43  57
ATOM     57  C   UNL     1      -6.007   0.831  -4.832  1.00  0.00     0.058 A 
ATOM     58  C   UNL     1      -5.623   2.145  -5.139  1.00  0.00     0.135 A 
ATOM     59  C   UNL     1      -7.378   0.555  -4.704  1.00  0.00     0.135 A 
ATOM     60  F   UNL     1      -4.323   2.465  -5.238  1.00  0.00    -0.206 F 
ATOM     61  C   UNL     1      -6.566   3.156  -5.285  1.00  0.00     0.059 A 
ATOM     62  C   UNL     1      -8.338   1.545  -4.870  1.00  0.00     0.059 A 
ATOM     63  F   UNL     1      -7.791  -0.684  -4.395  1.00  0.00    -0.206 F 
ATOM     64  C   UNL     1      -7.920   2.847  -5.143  1.00  0.00     0.060 A 
BRANCH  64  65
ATOM     65  S   UNL     1      -9.131   4.173  -5.311  1.00  0.00     0.124 S 
ATOM     66  O   UNL     1      -8.920   4.918  -4.073  1.00  0.00    -0.237 OA
ATOM     67  O   UNL     1      -8.695   4.840  -6.534  1.00  0.00    -0.237 OA
ATOM     68  O   UNL     1     -10.403   3.464  -5.406  1.00  0.00    -0.744 OA
ENDBRANCH  64  65
ENDBRANCH  43  57
BRANCH  44  69
ATOM     69  C   UNL     1       0.850  -6.115  -2.887  1.00  0.00     0.058 A 
ATOM     70  C   UNL     1       1.942  -6.278  -3.757  1.00  0.00     0.135 A 
ATOM     71  C   UNL     1       0.734  -7.025  -1.824  1.00  0.00     0.135 A 
ATOM     72  F   UNL     1       2.092  -5.456  -4.807  1.00  0.00    -0.206 F 
ATOM     73  C   UNL     1       2.863  -7.313  -3.595  1.00  0.00     0.059 A 
ATOM     74  C   UNL     1       1.659  -8.047  -1.623  1.00  0.00     0.059 A 
ATOM     75  F   UNL     1      -0.292  -6.930  -0.964  1.00  0.00    -0.206 F 
ATOM     76  C   UNL     1       2.712  -8.194  -2.524  1.00  0.00     0.060 A 
BRANCH  76  77
ATOM     77  S   UNL     1       3.918  -9.523  -2.309  1.00  0.00     0.124 S 
ATOM     78  O   UNL     1       3.561 -10.424  -3.398  1.00  0.00    -0.237 OA
ATOM     79  O   UNL     1       5.185  -8.813  -2.458  1.00  0.00    -0.237 OA
ATOM     80  O   UNL     1       3.638 -10.016  -0.964  1.00  0.00    -0.744 OA
ENDBRANCH  76  77
ENDBRANCH  44  69
BRANCH  56  81
ATOM     81  C   UNL     1      -3.740  -5.170  -8.083  1.00  0.00     0.058 A 
ATOM     82  C   UNL     1      -4.488  -6.356  -8.071  1.00  0.00     0.135 A 
ATOM     83  C   UNL     1      -3.415  -4.613  -9.332  1.00  0.00     0.135 A 
ATOM     84  F   UNL     1      -4.822  -6.934  -6.906  1.00  0.00    -0.206 F 
ATOM     85  C   UNL     1      -4.913  -6.958  -9.253  1.00  0.00     0.059 A 
ATOM     86  C   UNL     1      -3.850  -5.184 -10.524  1.00  0.00     0.059 A 
ATOM     87  F   UNL     1      -2.708  -3.473  -9.400  1.00  0.00    -0.206 F 
ATOM     88  C   UNL     1      -4.603  -6.356 -10.474  1.00  0.00     0.060 A 
BRANCH  88  89
ATOM     89  S   UNL     1      -5.251  -7.088 -11.993  1.00  0.00     0.124 S 
ATOM     90  O   UNL     1      -4.429  -8.287 -12.118  1.00  0.00    -0.237 OA
ATOM     91  O   UNL     1      -6.654  -7.314 -11.657  1.00  0.00    -0.237 OA
ATOM     92  O   UNL     1      -5.013  -6.056 -12.998  1.00  0.00    -0.744 OA
ENDBRANCH  88  89
ENDBRANCH  56  81
ENDBRANCH  30  31
ENDBRANCH  23  25
ENDBRANCH  22  23
ENDBRANCH  21  22
ENDBRANCH  20  21
ENDBRANCH  19  20
ENDBRANCH  18  19
ENDBRANCH   1  18
TORSDOF 24
