REMARK SMILES NS(=O)(=O)c1ccc(-n2nc(NC(=O)NCCCCCCCCCCC(=O)OCCOCCOCCOC(=O)c3ccc(-c4c5nc(c(-c6c(F)cc(S(=O)(=O)[O-])cc6F)c6ccc([nH]6)c(-c6c(F)cc(S(=O)(=O)[O-])cc6F)c6nc(c(-c7c(F)cc(S(=O)(=O)[O-])cc7F)c7ccc4[nH]7)C=C6)C=C5)cc3)cc2-c2ccccc2)cc1
REMARK SMILES IDX 26 1 27 2 25 3 24 4 23 5 22 6 21 7 20 8 19 9 18 10 17 11
REMARK SMILES IDX 16 12 15 13 12 14 13 15 14 17 11 19 9 20 10 21 107 22 106 23
REMARK SMILES IDX 8 24 5 25 6 26 115 27 7 28 114 29 2 30 3 31 4 32 1 33 108 36
REMARK SMILES IDX 109 37 113 38 110 39 112 40 111 41 28 42 29 43 30 44 31 45
REMARK SMILES IDX 32 46 33 47 34 48 35 49 36 50 37 51 38 52 39 53 40 54 41 55
REMARK SMILES IDX 105 56 42 57 104 58 43 59 44 60 45 61 98 62 46 63 103 64
REMARK SMILES IDX 97 65 99 66 47 67 102 68 96 69 95 70 48 72 82 73 61 74 81 75
REMARK SMILES IDX 62 76 65 77 80 78 100 79 63 80 64 81 79 83 101 84 66 85
REMARK SMILES IDX 49 86 50 87 59 88 51 89 52 90 58 91 60 92 53 93 54 94 55 95
REMARK SMILES IDX 56 96 57 97 83 98 84 99 93 100 85 101 86 102 92 103 94 104
REMARK SMILES IDX 87 105 88 106 89 107 90 108 91 109 67 110 68 111 77 112
REMARK SMILES IDX 69 113 70 114 76 115 78 116 71 117 72 118 73 119 74 120
REMARK SMILES IDX 75 121
REMARK H PARENT 12 16 15 18 1 34 1 35 99 71 65 82
REMARK Flexibility Score: inf
ROOT
ATOM      1  C   UNL     1       7.158  -3.162   3.314  1.00  0.00     0.305 C 
ATOM      2  O   UNL     1       7.301  -4.095   4.096  1.00  0.00    -0.252 OA
ENDROOT
BRANCH   1   3
ATOM      3  C   UNL     1       5.824  -2.865   2.643  1.00  0.00     0.123 C 
BRANCH   3   4
ATOM      4  C   UNL     1       5.760  -1.771   1.569  1.00  0.00     0.012 C 
BRANCH   4   5
ATOM      5  C   UNL     1       6.777  -1.890   0.434  1.00  0.00     0.001 C 
BRANCH   5   6
ATOM      6  C   UNL     1       6.807  -3.271  -0.209  1.00  0.00     0.000 C 
BRANCH   6   7
ATOM      7  C   UNL     1       5.564  -3.559  -1.044  1.00  0.00     0.000 C 
BRANCH   7   8
ATOM      8  C   UNL     1       5.415  -2.638  -2.257  1.00  0.00     0.000 C 
BRANCH   8   9
ATOM      9  C   UNL     1       6.653  -2.554  -3.160  1.00  0.00     0.000 C 
BRANCH   9  10
ATOM     10  C   UNL     1       7.189  -3.902  -3.660  1.00  0.00     0.002 C 
BRANCH  10  11
ATOM     11  C   UNL     1       6.149  -4.827  -4.285  1.00  0.00     0.021 C 
BRANCH  11  12
ATOM     12  C   UNL     1       5.310  -4.189  -5.377  1.00  0.00     0.117 C 
BRANCH  12  13
ATOM     13  N   UNL     1       6.009  -3.977  -6.625  1.00  0.00    -0.338 N 
ATOM     14  N   UNL     1       4.227  -4.216  -8.180  1.00  0.00    -0.291 N 
ATOM     15  C   UNL     1       5.537  -4.035  -7.890  1.00  0.00     0.320 C 
ATOM     16  H   UNL     1       4.056  -4.606  -9.068  1.00  0.00     0.173 HD
ATOM     17  O   UNL     1       6.357  -4.047  -8.813  1.00  0.00    -0.248 OA
ATOM     18  H   UNL     1       6.966  -3.759  -6.541  1.00  0.00     0.165 HD
BRANCH  14  19
ATOM     19  C   UNL     1       3.094  -3.948  -7.446  1.00  0.00     0.157 A 
ATOM     20  N   UNL     1       1.875  -3.390  -5.805  1.00  0.00    -0.231 N 
ATOM     21  N   UNL     1       3.005  -3.053  -6.461  1.00  0.00    -0.149 NA
ATOM     22  C   UNL     1       1.042  -4.164  -6.606  1.00  0.00     0.076 A 
ATOM     23  C   UNL     1       1.842  -4.567  -7.661  1.00  0.00     0.078 A 
BRANCH  20  24
ATOM     24  C   UNL     1       1.698  -3.022  -4.443  1.00  0.00     0.065 A 
ATOM     25  C   UNL     1       1.178  -2.233  -1.822  1.00  0.00     0.082 A 
ATOM     26  C   UNL     1       0.828  -3.521  -2.237  1.00  0.00     0.024 A 
ATOM     27  C   UNL     1       1.836  -1.357  -2.692  1.00  0.00     0.024 A 
ATOM     28  C   UNL     1       1.084  -3.914  -3.549  1.00  0.00     0.030 A 
ATOM     29  C   UNL     1       2.122  -1.763  -4.001  1.00  0.00     0.030 A 
BRANCH  25  30
ATOM     30  S   UNL     1       0.721  -1.759  -0.180  1.00  0.00     0.238 S 
ATOM     31  O   UNL     1       1.476  -2.578   0.744  1.00  0.00    -0.207 OA
ATOM     32  O   UNL     1      -0.717  -1.659  -0.135  1.00  0.00    -0.207 OA
BRANCH  30  33
ATOM     33  N   UNL     1       1.303  -0.200   0.002  1.00  0.00    -0.225 NA
ATOM     34  H   UNL     1       1.073   0.142   0.935  1.00  0.00     0.137 HD
ATOM     35  H   UNL     1       0.875   0.407  -0.697  1.00  0.00     0.137 HD
ENDBRANCH  30  33
ENDBRANCH  25  30
ENDBRANCH  20  24
BRANCH  22  36
ATOM     36  C   UNL     1      -0.366  -4.421  -6.310  1.00  0.00     0.000 A 
ATOM     37  C   UNL     1      -1.191  -3.364  -5.890  1.00  0.00     0.010 A 
ATOM     38  C   UNL     1      -0.898  -5.712  -6.374  1.00  0.00     0.010 A 
ATOM     39  C   UNL     1      -2.503  -3.599  -5.487  1.00  0.00     0.001 A 
ATOM     40  C   UNL     1      -2.220  -5.944  -5.982  1.00  0.00     0.001 A 
ATOM     41  C   UNL     1      -3.015  -4.892  -5.529  1.00  0.00     0.000 A 
ENDBRANCH  22  36
ENDBRANCH  14  19
ENDBRANCH  12  13
ENDBRANCH  11  12
ENDBRANCH  10  11
ENDBRANCH   9  10
ENDBRANCH   8   9
ENDBRANCH   7   8
ENDBRANCH   6   7
ENDBRANCH   5   6
ENDBRANCH   4   5
ENDBRANCH   3   4
ENDBRANCH   1   3
BRANCH   1  42
ATOM     42  O   UNL     1       8.117  -2.259   3.010  1.00  0.00    -0.463 OA
BRANCH  42  43
ATOM     43  C   UNL     1       9.325  -2.253   3.786  1.00  0.00     0.261 C 
BRANCH  43  44
ATOM     44  C   UNL     1       9.520  -0.947   4.572  1.00  0.00     0.202 C 
BRANCH  44  45
ATOM     45  O   UNL     1       8.408  -0.533   5.364  1.00  0.00    -0.376 OA
BRANCH  45  46
ATOM     46  C   UNL     1       7.259  -0.068   4.650  1.00  0.00     0.188 C 
BRANCH  46  47
ATOM     47  C   UNL     1       7.551   0.930   3.525  1.00  0.00     0.188 C 
BRANCH  47  48
ATOM     48  O   UNL     1       8.315   0.376   2.463  1.00  0.00    -0.376 OA
BRANCH  48  49
ATOM     49  C   UNL     1       8.954   1.194   1.485  1.00  0.00     0.202 C 
BRANCH  49  50
ATOM     50  C   UNL     1       9.366   2.646   1.752  1.00  0.00     0.261 C 
BRANCH  50  51
ATOM     51  O   UNL     1       8.435   3.435   2.465  1.00  0.00    -0.460 OA
BRANCH  51  52
ATOM     52  C   UNL     1       7.137   3.412   2.105  1.00  0.00     0.338 C 
ATOM     53  O   UNL     1       6.649   2.964   1.089  1.00  0.00    -0.246 OA
BRANCH  52  54
ATOM     54  C   UNL     1       6.415   4.002   3.248  1.00  0.00     0.060 A 
ATOM     55  C   UNL     1       5.121   4.453   3.021  1.00  0.00     0.016 A 
ATOM     56  C   UNL     1       7.114   4.293   4.438  1.00  0.00     0.016 A 
ATOM     57  C   UNL     1       4.676   5.488   3.807  1.00  0.00     0.010 A 
ATOM     58  C   UNL     1       6.681   5.329   5.209  1.00  0.00     0.010 A 
ATOM     59  C   UNL     1       5.542   5.992   4.781  1.00  0.00    -0.014 A 
BRANCH  59  60
ATOM     60  C   UNL     1       5.288   7.306   5.312  1.00  0.00     0.031 A 
ATOM     61  C   UNL     1       4.320   7.284   6.417  1.00  0.00     0.074 A 
ATOM     62  C   UNL     1       5.986   8.368   4.864  1.00  0.00     0.049 A 
ATOM     63  N   UNL     1       3.081   7.642   6.380  1.00  0.00    -0.248 NA
ATOM     64  C   UNL     1       4.702   6.546   7.633  1.00  0.00     0.031 C 
ATOM     65  C   UNL     1       7.154   8.383   3.975  1.00  0.00     0.029 A 
ATOM     66  N   UNL     1       5.846   9.675   5.199  1.00  0.00    -0.354 N 
ATOM     67  C   UNL     1       2.620   7.429   7.671  1.00  0.00     0.074 A 
ATOM     68  C   UNL     1       3.540   6.512   8.284  1.00  0.00     0.031 C 
ATOM     69  C   UNL     1       7.740   9.602   4.027  1.00  0.00     0.029 A 
ATOM     70  C   UNL     1       6.924  10.480   4.845  1.00  0.00     0.049 A 
ATOM     71  H   UNL     1       5.047  10.024   5.656  1.00  0.00     0.167 HD
ATOM     72  C   UNL     1       1.730   8.286   8.239  1.00  0.00     0.037 A 
ATOM     73  C   UNL     1       7.139  11.743   5.298  1.00  0.00     0.037 A 
ATOM     74  C   UNL     1       1.071   9.090   7.239  1.00  0.00     0.049 A 
ATOM     75  C   UNL     1       5.825  12.242   5.802  1.00  0.00     0.074 A 
ATOM     76  C   UNL     1       0.290   8.811   6.134  1.00  0.00     0.029 A 
ATOM     77  N   UNL     1       1.512  10.383   7.074  1.00  0.00    -0.354 N 
ATOM     78  N   UNL     1       4.790  12.455   5.033  1.00  0.00    -0.248 NA
ATOM     79  C   UNL     1       5.516  12.026   7.209  1.00  0.00     0.031 C 
ATOM     80  C   UNL     1       0.667   9.775   5.155  1.00  0.00     0.029 A 
ATOM     81  C   UNL     1       1.609  10.632   5.727  1.00  0.00     0.049 A 
ATOM     82  H   UNL     1       1.721  11.019   7.795  1.00  0.00     0.167 HD
ATOM     83  C   UNL     1       3.697  11.998   5.761  1.00  0.00     0.074 A 
ATOM     84  C   UNL     1       4.200  11.812   7.120  1.00  0.00     0.031 C 
ATOM     85  C   UNL     1       2.574  11.536   5.135  1.00  0.00     0.037 A 
BRANCH  72  86
ATOM     86  C   UNL     1       1.769   8.664   9.699  1.00  0.00     0.058 A 
ATOM     87  C   UNL     1       0.700   9.401  10.239  1.00  0.00     0.135 A 
ATOM     88  C   UNL     1       2.918   8.566  10.521  1.00  0.00     0.135 A 
ATOM     89  F   UNL     1      -0.433   9.573   9.539  1.00  0.00    -0.206 F 
ATOM     90  C   UNL     1       0.789  10.045  11.473  1.00  0.00     0.059 A 
ATOM     91  C   UNL     1       3.003   9.144  11.778  1.00  0.00     0.059 A 
ATOM     92  F   UNL     1       4.056   7.994  10.115  1.00  0.00    -0.206 F 
ATOM     93  C   UNL     1       1.952   9.919  12.228  1.00  0.00     0.060 A 
BRANCH  93  94
ATOM     94  S   UNL     1       2.115  10.829  13.770  1.00  0.00     0.124 S 
ATOM     95  O   UNL     1       2.200  12.202  13.286  1.00  0.00    -0.237 OA
ATOM     96  O   UNL     1       0.884  10.466  14.464  1.00  0.00    -0.237 OA
ATOM     97  O   UNL     1       3.340  10.286  14.352  1.00  0.00    -0.744 OA
ENDBRANCH  93  94
ENDBRANCH  72  86
BRANCH  73  98
ATOM     98  C   UNL     1       8.439  12.353   5.695  1.00  0.00     0.058 A 
ATOM     99  C   UNL     1       8.550  13.731   5.960  1.00  0.00     0.135 A 
ATOM    100  C   UNL     1       9.536  11.560   6.093  1.00  0.00     0.135 A 
ATOM    101  F   UNL     1       7.545  14.560   5.639  1.00  0.00    -0.206 F 
ATOM    102  C   UNL     1       9.658  14.281   6.619  1.00  0.00     0.059 A 
ATOM    103  C   UNL     1      10.653  12.086   6.740  1.00  0.00     0.059 A 
ATOM    104  F   UNL     1       9.517  10.227   5.948  1.00  0.00    -0.206 F 
ATOM    105  C   UNL     1      10.698  13.444   7.023  1.00  0.00     0.060 A 
BRANCH 105 106
ATOM    106  S   UNL     1      12.051  14.114   8.020  1.00  0.00     0.124 S 
ATOM    107  O   UNL     1      12.748  14.957   7.056  1.00  0.00    -0.237 OA
ATOM    108  O   UNL     1      11.336  14.815   9.081  1.00  0.00    -0.237 OA
ATOM    109  O   UNL     1      12.780  12.922   8.447  1.00  0.00    -0.744 OA
ENDBRANCH 105 106
ENDBRANCH  73  98
BRANCH  85 110
ATOM    110  C   UNL     1       2.426  11.795   3.655  1.00  0.00     0.058 A 
ATOM    111  C   UNL     1       3.243  11.223   2.662  1.00  0.00     0.135 A 
ATOM    112  C   UNL     1       1.302  12.512   3.220  1.00  0.00     0.135 A 
ATOM    113  F   UNL     1       4.281  10.441   2.993  1.00  0.00    -0.206 F 
ATOM    114  C   UNL     1       2.968  11.379   1.301  1.00  0.00     0.059 A 
ATOM    115  C   UNL     1       0.991  12.655   1.871  1.00  0.00     0.059 A 
ATOM    116  F   UNL     1       0.449  13.031   4.119  1.00  0.00    -0.206 F 
ATOM    117  C   UNL     1       1.833  12.092   0.915  1.00  0.00     0.060 A 
BRANCH 117 118
ATOM    118  S   UNL     1       1.419  12.209  -0.840  1.00  0.00     0.124 S 
ATOM    119  O   UNL     1       2.448  13.114  -1.340  1.00  0.00    -0.237 OA
ATOM    120  O   UNL     1       1.525  10.821  -1.284  1.00  0.00    -0.237 OA
ATOM    121  O   UNL     1       0.061  12.748  -0.835  1.00  0.00    -0.744 OA
ENDBRANCH 117 118
ENDBRANCH  85 110
ENDBRANCH  59  60
ENDBRANCH  52  54
ENDBRANCH  51  52
ENDBRANCH  50  51
ENDBRANCH  49  50
ENDBRANCH  48  49
ENDBRANCH  47  48
ENDBRANCH  46  47
ENDBRANCH  45  46
ENDBRANCH  44  45
ENDBRANCH  43  44
ENDBRANCH  42  43
ENDBRANCH   1  42
TORSDOF 35
