REMARK SMILES Cc1ccc(S(=O)(=O)n2cc(C(=O)C(=O)NCC(=O)NCC(=O)OCCOCCOCCOC(=O)c3ccc(-c4c5nc(c(-c6c(F)cc(S(=O)(=O)[O-])cc6F)c6ccc([nH]6)c(-c6c(F)cc(S(=O)(=O)[O-])cc6F)c6nc(c(-c7c(F)cc(S(=O)(=O)[O-])cc7F)c7ccc4[nH]7)C=C6)C=C5)cc3)c3ccccc32)cc1
REMARK SMILES IDX 26 1 25 2 24 3 22 4 23 5 21 6 20 7 18 8 19 9 17 11 16 12
REMARK SMILES IDX 14 13 15 14 12 16 13 17 11 18 9 19 10 20 107 21 102 22
REMARK SMILES IDX 106 23 103 24 105 25 104 26 6 27 7 28 8 29 5 30 1 31 2 32
REMARK SMILES IDX 3 33 109 34 4 35 108 36 27 37 28 38 29 39 30 40 31 41 32 42
REMARK SMILES IDX 33 43 34 44 35 45 36 46 37 47 101 48 38 49 100 50 39 51
REMARK SMILES IDX 40 52 41 53 94 54 42 55 99 56 93 57 95 58 43 59 98 60 92 61
REMARK SMILES IDX 91 62 44 64 78 65 57 66 77 67 58 68 61 69 76 70 96 71 59 72
REMARK SMILES IDX 60 73 75 75 97 76 62 77 45 78 46 79 55 80 47 81 48 82 54 83
REMARK SMILES IDX 56 84 49 85 50 86 51 87 52 88 53 89 79 90 80 91 89 92 81 93
REMARK SMILES IDX 82 94 88 95 90 96 83 97 84 98 85 99 86 100 87 101 63 102
REMARK SMILES IDX 64 103 73 104 65 105 66 106 72 107 74 108 67 109 68 110
REMARK SMILES IDX 69 111 70 112 71 113
REMARK H PARENT 20 10 16 15 95 63 61 74
REMARK Flexibility Score: inf
ROOT
ATOM      1  C   UNL     1     -12.643   0.315   2.160  1.00  0.00     0.202 C 
ENDROOT
BRANCH   1   2
ATOM      2  C   UNL     1     -11.590   1.413   2.350  1.00  0.00     0.261 C 
BRANCH   2   3
ATOM      3  O   UNL     1     -11.341   2.527   1.032  1.00  0.00    -0.462 OA
BRANCH   3   4
ATOM      4  C   UNL     1     -10.600   3.368   0.072  1.00  0.00     0.325 C 
ATOM      5  O   UNL     1     -11.283   3.652  -0.897  1.00  0.00    -0.250 OA
BRANCH   4   6
ATOM      6  C   UNL     1      -8.962   4.095   0.057  1.00  0.00     0.238 C 
BRANCH   6   7
ATOM      7  N   UNL     1      -8.692   5.668   0.062  1.00  0.00    -0.344 N 
ATOM      8  C   UNL     1      -8.433   6.650   1.007  1.00  0.00     0.239 C 
ATOM      9  O   UNL     1      -9.139   7.668   1.008  1.00  0.00    -0.273 OA
ATOM     10  H   UNL     1      -8.717   6.042  -0.849  1.00  0.00     0.164 HD
BRANCH   8  11
ATOM     11  C   UNL     1      -7.182   6.674   1.882  1.00  0.00     0.216 C 
BRANCH  11  12
ATOM     12  N   UNL     1      -6.801   5.341   2.212  1.00  0.00    -0.340 N 
ATOM     13  C   UNL     1      -5.746   4.546   1.925  1.00  0.00     0.292 C 
ATOM     14  O   UNL     1      -5.620   3.501   2.546  1.00  0.00    -0.265 OA
ATOM     15  H   UNL     1      -7.464   4.892   2.786  1.00  0.00     0.164 HD
BRANCH  13  16
ATOM     16  C   UNL     1      -4.846   4.854   0.751  1.00  0.00     0.252 C 
ATOM     17  O   UNL     1      -4.820   6.024   0.373  1.00  0.00    -0.283 OA
BRANCH  16  18
ATOM     18  C   UNL     1      -4.138   3.765   0.047  1.00  0.00     0.054 A 
ATOM     19  N   UNL     1      -3.055   1.512  -0.513  1.00  0.00    -0.240 N 
ATOM     20  C   UNL     1      -3.721   2.560   0.562  1.00  0.00     0.117 A 
ATOM     21  C   UNL     1      -3.103   2.651  -1.744  1.00  0.00     0.065 A 
ATOM     22  C   UNL     1      -3.762   3.829  -1.302  1.00  0.00     0.012 A 
ATOM     23  C   UNL     1      -2.577   2.713  -3.072  1.00  0.00     0.028 A 
ATOM     24  C   UNL     1      -3.958   4.923  -2.192  1.00  0.00     0.011 A 
ATOM     25  C   UNL     1      -2.707   3.853  -3.877  1.00  0.00     0.002 A 
ATOM     26  C   UNL     1      -3.405   4.952  -3.452  1.00  0.00     0.001 A 
BRANCH  19  27
ATOM     27  S   UNL     1      -3.146  -0.985  -0.529  1.00  0.00     0.268 S 
ATOM     28  O   UNL     1      -3.068  -1.705  -1.803  1.00  0.00    -0.201 OA
ATOM     29  O   UNL     1      -3.664  -1.692   0.649  1.00  0.00    -0.201 OA
BRANCH  27  30
ATOM     30  C   UNL     1      -1.792  -0.480  -0.139  1.00  0.00     0.088 A 
ATOM     31  C   UNL     1       2.869   0.059   0.997  1.00  0.00     0.044 C 
ATOM     32  C   UNL     1       1.366   0.104   0.888  1.00  0.00    -0.051 A 
ATOM     33  C   UNL     1       0.722  -1.468   0.756  1.00  0.00     0.005 A 
ATOM     34  C   UNL     1       0.535   1.581   0.573  1.00  0.00     0.005 A 
ATOM     35  C   UNL     1      -0.757  -1.817   0.275  1.00  0.00     0.022 A 
ATOM     36  C   UNL     1      -1.126   1.464   0.008  1.00  0.00     0.022 A 
ENDBRANCH  27  30
ENDBRANCH  19  27
ENDBRANCH  16  18
ENDBRANCH  13  16
ENDBRANCH  11  12
ENDBRANCH   8  11
ENDBRANCH   6   7
ENDBRANCH   4   6
ENDBRANCH   3   4
ENDBRANCH   2   3
ENDBRANCH   1   2
BRANCH   1  37
ATOM     37  O   UNL     1     -13.674   0.426   1.207  1.00  0.00    -0.376 OA
BRANCH  37  38
ATOM     38  C   UNL     1     -13.676   1.597   0.413  1.00  0.00     0.188 C 
BRANCH  38  39
ATOM     39  C   UNL     1     -13.870   2.919   1.163  1.00  0.00     0.188 C 
BRANCH  39  40
ATOM     40  O   UNL     1     -13.368   2.965   2.498  1.00  0.00    -0.376 OA
BRANCH  40  41
ATOM     41  C   UNL     1     -14.134   2.744   3.653  1.00  0.00     0.202 C 
BRANCH  41  42
ATOM     42  C   UNL     1     -15.438   3.428   3.500  1.00  0.00     0.261 C 
BRANCH  42  43
ATOM     43  O   UNL     1     -15.355   4.882   3.314  1.00  0.00    -0.460 OA
BRANCH  43  44
ATOM     44  C   UNL     1     -14.444   5.699   2.701  1.00  0.00     0.338 C 
ATOM     45  O   UNL     1     -14.858   6.607   1.983  1.00  0.00    -0.246 OA
BRANCH  44  46
ATOM     46  C   UNL     1     -12.956   5.584   2.903  1.00  0.00     0.060 A 
ATOM     47  C   UNL     1     -12.171   5.823   1.813  1.00  0.00     0.016 A 
ATOM     48  C   UNL     1     -12.284   5.072   4.006  1.00  0.00     0.016 A 
ATOM     49  C   UNL     1     -10.941   5.145   1.714  1.00  0.00     0.010 A 
ATOM     50  C   UNL     1     -11.086   4.300   3.835  1.00  0.00     0.010 A 
ATOM     51  C   UNL     1     -10.428   4.138   2.594  1.00  0.00    -0.014 A 
BRANCH  51  52
ATOM     52  C   UNL     1      -9.358   2.687   2.388  1.00  0.00     0.031 A 
ATOM     53  C   UNL     1      -8.628   2.682   3.671  1.00  0.00     0.074 A 
ATOM     54  C   UNL     1      -9.230   1.487   1.425  1.00  0.00     0.049 A 
ATOM     55  N   UNL     1      -8.267   1.676   4.364  1.00  0.00    -0.248 NA
ATOM     56  C   UNL     1      -8.302   3.972   4.317  1.00  0.00     0.031 C 
ATOM     57  C   UNL     1      -8.949  -0.004   1.623  1.00  0.00     0.029 A 
ATOM     58  N   UNL     1      -9.872   1.233   0.130  1.00  0.00    -0.354 N 
ATOM     59  C   UNL     1      -7.265   2.192   5.167  1.00  0.00     0.074 A 
ATOM     60  C   UNL     1      -7.453   3.611   5.259  1.00  0.00     0.031 C 
ATOM     61  C   UNL     1      -9.191  -0.778   0.510  1.00  0.00     0.029 A 
ATOM     62  C   UNL     1      -9.741   0.041  -0.550  1.00  0.00     0.049 A 
ATOM     63  H   UNL     1     -10.421   1.945  -0.270  1.00  0.00     0.167 HD
ATOM     64  C   UNL     1      -6.071   1.561   5.202  1.00  0.00     0.037 A 
ATOM     65  C   UNL     1      -9.554   0.079  -1.910  1.00  0.00     0.037 A 
ATOM     66  C   UNL     1      -6.035   0.522   4.175  1.00  0.00     0.049 A 
ATOM     67  C   UNL     1      -8.062   0.173  -1.949  1.00  0.00     0.074 A 
ATOM     68  C   UNL     1      -6.604  -0.731   4.054  1.00  0.00     0.029 A 
ATOM     69  N   UNL     1      -5.756   0.920   2.877  1.00  0.00    -0.354 N 
ATOM     70  N   UNL     1      -7.395   0.846  -1.042  1.00  0.00    -0.248 NA
ATOM     71  C   UNL     1      -7.307  -0.893  -2.579  1.00  0.00     0.031 C 
ATOM     72  C   UNL     1      -6.513  -1.125   2.678  1.00  0.00     0.029 A 
ATOM     73  C   UNL     1      -6.045  -0.049   1.928  1.00  0.00     0.049 A 
ATOM     74  H   UNL     1      -5.388   1.805   2.652  1.00  0.00     0.167 HD
ATOM     75  C   UNL     1      -6.520  -0.090  -0.533  1.00  0.00     0.074 A 
ATOM     76  C   UNL     1      -6.371  -1.052  -1.635  1.00  0.00     0.031 C 
ATOM     77  C   UNL     1      -5.744   0.229   0.528  1.00  0.00     0.037 A 
BRANCH  64  78
ATOM     78  C   UNL     1      -5.112   1.774   6.332  1.00  0.00     0.058 A 
ATOM     79  C   UNL     1      -4.349   0.659   6.700  1.00  0.00     0.135 A 
ATOM     80  C   UNL     1      -5.057   2.870   7.230  1.00  0.00     0.135 A 
ATOM     81  F   UNL     1      -4.228  -0.399   5.886  1.00  0.00    -0.206 F 
ATOM     82  C   UNL     1      -3.760   0.554   7.950  1.00  0.00     0.059 A 
ATOM     83  C   UNL     1      -4.469   2.790   8.483  1.00  0.00     0.059 A 
ATOM     84  F   UNL     1      -5.572   4.073   6.973  1.00  0.00    -0.206 F 
ATOM     85  C   UNL     1      -3.872   1.603   8.853  1.00  0.00     0.060 A 
BRANCH  85  86
ATOM     86  S   UNL     1      -3.275   1.371  10.524  1.00  0.00     0.124 S 
ATOM     87  O   UNL     1      -4.121   0.276  10.988  1.00  0.00    -0.237 OA
ATOM     88  O   UNL     1      -1.871   1.047  10.296  1.00  0.00    -0.237 OA
ATOM     89  O   UNL     1      -3.526   2.662  11.160  1.00  0.00    -0.744 OA
ENDBRANCH  85  86
ENDBRANCH  64  78
BRANCH  65  90
ATOM     90  C   UNL     1     -10.475   0.973  -2.708  1.00  0.00     0.058 A 
ATOM     91  C   UNL     1     -11.847   0.643  -2.764  1.00  0.00     0.135 A 
ATOM     92  C   UNL     1     -10.134   2.263  -3.136  1.00  0.00     0.135 A 
ATOM     93  F   UNL     1     -12.242  -0.614  -2.494  1.00  0.00    -0.206 F 
ATOM     94  C   UNL     1     -12.842   1.615  -2.943  1.00  0.00     0.059 A 
ATOM     95  C   UNL     1     -11.113   3.250  -3.367  1.00  0.00     0.059 A 
ATOM     96  F   UNL     1      -8.850   2.650  -3.133  1.00  0.00    -0.206 F 
ATOM     97  C   UNL     1     -12.463   2.945  -3.143  1.00  0.00     0.060 A 
BRANCH  97  98
ATOM     98  S   UNL     1     -13.629   4.295  -2.611  1.00  0.00     0.124 S 
ATOM     99  O   UNL     1     -14.170   4.733  -3.891  1.00  0.00    -0.237 OA
ATOM    100  O   UNL     1     -14.571   3.580  -1.749  1.00  0.00    -0.237 OA
ATOM    101  O   UNL     1     -12.810   5.296  -1.931  1.00  0.00    -0.744 OA
ENDBRANCH  97  98
ENDBRANCH  65  90
BRANCH  77 102
ATOM    102  C   UNL     1      -4.358   0.429   0.131  1.00  0.00     0.058 A 
ATOM    103  C   UNL     1      -3.795   0.434  -1.769  1.00  0.00     0.135 A 
ATOM    104  C   UNL     1      -2.858   0.364   1.413  1.00  0.00     0.135 A 
ATOM    105  F   UNL     1      -4.624   0.412  -2.817  1.00  0.00    -0.206 F 
ATOM    106  C   UNL     1      -1.864   0.301  -2.037  1.00  0.00     0.059 A 
ATOM    107  C   UNL     1      -0.930   0.146   1.196  1.00  0.00     0.059 A 
ATOM    108  F   UNL     1      -3.201   0.442   2.716  1.00  0.00    -0.206 F 
ATOM    109  C   UNL     1      -0.335   0.091  -0.837  1.00  0.00     0.060 A 
BRANCH 109 110
ATOM    110  S   UNL     1       1.178   0.206  -2.015  1.00  0.00     0.124 S 
ATOM    111  O   UNL     1       1.649  -1.174  -2.059  1.00  0.00    -0.237 OA
ATOM    112  O   UNL     1       0.542   0.662  -3.253  1.00  0.00    -0.237 OA
ATOM    113  O   UNL     1       2.108   1.203  -1.497  1.00  0.00    -0.744 OA
ENDBRANCH 109 110
ENDBRANCH  77 102
ENDBRANCH  51  52
ENDBRANCH  44  46
ENDBRANCH  43  44
ENDBRANCH  42  43
ENDBRANCH  41  42
ENDBRANCH  40  41
ENDBRANCH  39  40
ENDBRANCH  38  39
ENDBRANCH  37  38
ENDBRANCH   1  37
TORSDOF 27
