REMARK SMILES O=C(OCCOCCOCCOC(=O)[C@H]1C[C@H]2CCCC[C@@H]2[N@@H+]1CC[C@@H]1CCCO1)c1ccc(-c2c3nc(c(-c4c(F)cc(S(=O)(=O)[O-])cc4F)c4ccc([nH]4)c(-c4c(F)cc(S(=O)(=O)[O-])cc4F)c4nc(c(-c5c(F)cc(S(=O)(=O)[O-])cc5F)c5ccc2[nH]5)C=C4)C=C3)cc1
REMARK SMILES IDX 7 1 6 2 5 3 4 4 3 5 2 6 1 7 31 8 32 9 96 10 33 11 95 12
REMARK SMILES IDX 34 13 35 14 36 15 89 16 37 17 94 18 88 19 90 20 38 21 93 22
REMARK SMILES IDX 87 23 86 24 39 26 73 27 52 28 72 29 53 30 56 31 71 32 91 33
REMARK SMILES IDX 54 34 55 35 70 37 92 38 57 39 40 40 41 41 50 42 42 43 43 44
REMARK SMILES IDX 49 45 51 46 44 47 45 48 46 49 47 50 48 51 74 52 75 53 84 54
REMARK SMILES IDX 76 55 77 56 83 57 85 58 78 59 79 60 80 61 81 62 82 63 58 64
REMARK SMILES IDX 59 65 68 66 60 67 61 68 67 69 69 70 62 71 63 72 64 73 65 74
REMARK SMILES IDX 66 75 8 76 9 77 10 78 11 79 12 80 13 81 14 82 15 83 16 84
REMARK SMILES IDX 23 85 17 86 22 87 18 89 21 90 19 91 20 92 24 93 25 94 26 95
REMARK SMILES IDX 27 96 30 97 28 98 29 99
REMARK H PARENT 90 25 56 36 23 88
REMARK Flexibility Score: inf
ROOT
ATOM      1  C   UNL     1      -1.823   1.443   4.755  1.00  0.00     0.188 C 
ENDROOT
BRANCH   1   2
ATOM      2  O   UNL     1      -1.441   2.675   4.144  1.00  0.00    -0.376 OA
BRANCH   2   3
ATOM      3  C   UNL     1      -2.507   3.397   3.523  1.00  0.00     0.202 C 
BRANCH   3   4
ATOM      4  C   UNL     1      -3.198   2.720   2.319  1.00  0.00     0.261 C 
BRANCH   4   5
ATOM      5  O   UNL     1      -3.082   1.282   2.278  1.00  0.00    -0.460 OA
BRANCH   5   6
ATOM      6  C   UNL     1      -2.178   0.517   1.603  1.00  0.00     0.338 C 
ATOM      7  O   UNL     1      -2.348  -0.695   1.545  1.00  0.00    -0.246 OA
BRANCH   6   8
ATOM      8  C   UNL     1      -0.980   1.099   0.928  1.00  0.00     0.060 A 
ATOM      9  C   UNL     1      -0.429   2.323   1.278  1.00  0.00     0.016 A 
ATOM     10  C   UNL     1      -0.341   0.364  -0.082  1.00  0.00     0.016 A 
ATOM     11  C   UNL     1       0.586   2.905   0.554  1.00  0.00     0.010 A 
ATOM     12  C   UNL     1       0.771   0.895  -0.754  1.00  0.00     0.010 A 
ATOM     13  C   UNL     1       1.204   2.195  -0.463  1.00  0.00    -0.014 A 
BRANCH  13  14
ATOM     14  C   UNL     1       2.202   2.936  -1.257  1.00  0.00     0.031 A 
ATOM     15  C   UNL     1       1.836   3.326  -2.655  1.00  0.00     0.074 A 
ATOM     16  C   UNL     1       3.302   3.425  -0.649  1.00  0.00     0.049 A 
ATOM     17  N   UNL     1       2.524   4.014  -3.523  1.00  0.00    -0.248 NA
ATOM     18  C   UNL     1       0.499   2.922  -3.130  1.00  0.00     0.031 C 
ATOM     19  C   UNL     1       3.637   3.241   0.768  1.00  0.00     0.029 A 
ATOM     20  N   UNL     1       4.320   4.211  -1.115  1.00  0.00    -0.354 N 
ATOM     21  C   UNL     1       1.708   4.124  -4.641  1.00  0.00     0.074 A 
ATOM     22  C   UNL     1       0.489   3.402  -4.363  1.00  0.00     0.031 C 
ATOM     23  C   UNL     1       4.785   3.870   1.049  1.00  0.00     0.029 A 
ATOM     24  C   UNL     1       5.287   4.475  -0.173  1.00  0.00     0.049 A 
ATOM     25  H   UNL     1       4.356   4.554  -2.037  1.00  0.00     0.167 HD
ATOM     26  C   UNL     1       1.958   4.790  -5.790  1.00  0.00     0.037 A 
ATOM     27  C   UNL     1       6.463   5.115  -0.293  1.00  0.00     0.037 A 
ATOM     28  C   UNL     1       3.186   5.496  -6.031  1.00  0.00     0.049 A 
ATOM     29  C   UNL     1       6.776   5.726  -1.628  1.00  0.00     0.074 A 
ATOM     30  C   UNL     1       3.607   6.130  -7.183  1.00  0.00     0.029 A 
ATOM     31  N   UNL     1       4.192   5.662  -5.087  1.00  0.00    -0.354 N 
ATOM     32  N   UNL     1       6.032   5.753  -2.710  1.00  0.00    -0.248 NA
ATOM     33  C   UNL     1       8.071   6.398  -1.764  1.00  0.00     0.031 C 
ATOM     34  C   UNL     1       4.889   6.638  -6.950  1.00  0.00     0.029 A 
ATOM     35  C   UNL     1       5.243   6.372  -5.635  1.00  0.00     0.049 A 
ATOM     36  H   UNL     1       4.161   5.322  -4.163  1.00  0.00     0.167 HD
ATOM     37  C   UNL     1       6.760   6.463  -3.653  1.00  0.00     0.074 A 
ATOM     38  C   UNL     1       7.991   6.870  -2.999  1.00  0.00     0.031 C 
ATOM     39  C   UNL     1       6.451   6.750  -4.942  1.00  0.00     0.037 A 
BRANCH  26  40
ATOM     40  C   UNL     1       0.910   4.726  -6.864  1.00  0.00     0.058 A 
ATOM     41  C   UNL     1      -0.310   5.412  -6.755  1.00  0.00     0.135 A 
ATOM     42  C   UNL     1       1.122   3.946  -8.012  1.00  0.00     0.135 A 
ATOM     43  F   UNL     1      -0.583   6.138  -5.658  1.00  0.00    -0.206 F 
ATOM     44  C   UNL     1      -1.289   5.316  -7.739  1.00  0.00     0.059 A 
ATOM     45  C   UNL     1       0.168   3.855  -9.020  1.00  0.00     0.059 A 
ATOM     46  F   UNL     1       2.261   3.251  -8.155  1.00  0.00    -0.206 F 
ATOM     47  C   UNL     1      -1.039   4.536  -8.870  1.00  0.00     0.060 A 
BRANCH  47  48
ATOM     48  S   UNL     1      -2.314   4.431 -10.143  1.00  0.00     0.124 S 
ATOM     49  O   UNL     1      -3.334   3.631  -9.471  1.00  0.00    -0.237 OA
ATOM     50  O   UNL     1      -2.651   5.835 -10.360  1.00  0.00    -0.237 OA
ATOM     51  O   UNL     1      -1.633   3.773 -11.254  1.00  0.00    -0.744 OA
ENDBRANCH  47  48
ENDBRANCH  26  40
BRANCH  27  52
ATOM     52  C   UNL     1       7.426   5.152   0.842  1.00  0.00     0.058 A 
ATOM     53  C   UNL     1       7.813   6.354   1.450  1.00  0.00     0.135 A 
ATOM     54  C   UNL     1       8.001   3.965   1.331  1.00  0.00     0.135 A 
ATOM     55  F   UNL     1       7.290   7.516   1.031  1.00  0.00    -0.206 F 
ATOM     56  C   UNL     1       8.763   6.386   2.469  1.00  0.00     0.059 A 
ATOM     57  C   UNL     1       8.928   3.966   2.369  1.00  0.00     0.059 A 
ATOM     58  F   UNL     1       7.651   2.780   0.806  1.00  0.00    -0.206 F 
ATOM     59  C   UNL     1       9.320   5.185   2.916  1.00  0.00     0.060 A 
BRANCH  59  60
ATOM     60  S   UNL     1      10.563   5.237   4.225  1.00  0.00     0.124 S 
ATOM     61  O   UNL     1      11.705   5.807   3.521  1.00  0.00    -0.237 OA
ATOM     62  O   UNL     1       9.927   6.098   5.216  1.00  0.00    -0.237 OA
ATOM     63  O   UNL     1      10.698   3.836   4.614  1.00  0.00    -0.744 OA
ENDBRANCH  59  60
ENDBRANCH  27  52
BRANCH  39  64
ATOM     64  C   UNL     1       7.457   7.559  -5.704  1.00  0.00     0.058 A 
ATOM     65  C   UNL     1       8.687   7.013  -6.102  1.00  0.00     0.135 A 
ATOM     66  C   UNL     1       7.172   8.885  -6.063  1.00  0.00     0.135 A 
ATOM     67  F   UNL     1       9.005   5.751  -5.774  1.00  0.00    -0.206 F 
ATOM     68  C   UNL     1       9.620   7.771  -6.797  1.00  0.00     0.059 A 
ATOM     69  C   UNL     1       8.075   9.649  -6.790  1.00  0.00     0.059 A 
ATOM     70  F   UNL     1       6.002   9.445  -5.716  1.00  0.00    -0.206 F 
ATOM     71  C   UNL     1       9.304   9.088  -7.136  1.00  0.00     0.060 A 
BRANCH  71  72
ATOM     72  S   UNL     1      10.518  10.055  -8.052  1.00  0.00     0.124 S 
ATOM     73  O   UNL     1      11.506  10.339  -7.017  1.00  0.00    -0.237 OA
ATOM     74  O   UNL     1      10.938   9.122  -9.093  1.00  0.00    -0.237 OA
ATOM     75  O   UNL     1       9.750  11.205  -8.522  1.00  0.00    -0.744 OA
ENDBRANCH  71  72
ENDBRANCH  39  64
ENDBRANCH  13  14
ENDBRANCH   6   8
ENDBRANCH   5   6
ENDBRANCH   4   5
ENDBRANCH   3   4
ENDBRANCH   2   3
ENDBRANCH   1   2
BRANCH   1  76
ATOM     76  C   UNL     1      -1.036   1.126   6.024  1.00  0.00     0.188 C 
BRANCH  76  77
ATOM     77  O   UNL     1      -1.129   2.061   7.093  1.00  0.00    -0.376 OA
BRANCH  77  78
ATOM     78  C   UNL     1      -0.855   3.422   6.789  1.00  0.00     0.202 C 
BRANCH  78  79
ATOM     79  C   UNL     1       0.564   3.837   6.351  1.00  0.00     0.261 C 
BRANCH  79  80
ATOM     80  O   UNL     1       1.234   3.040   5.353  1.00  0.00    -0.459 OA
BRANCH  80  81
ATOM     81  C   UNL     1       2.070   2.091   5.873  1.00  0.00     0.365 C 
ATOM     82  O   UNL     1       2.084   1.801   7.068  1.00  0.00    -0.245 OA
BRANCH  81  83
ATOM     83  C   UNL     1       3.009   1.448   4.811  1.00  0.00     0.295 C 
ATOM     84  C   UNL     1       4.199   0.861   5.604  1.00  0.00     0.087 C 
ATOM     85  N   UNL     1       2.363   0.286   4.108  1.00  0.00    -0.320 N 
ATOM     86  C   UNL     1       4.003  -0.643   5.512  1.00  0.00     0.054 C 
ATOM     87  C   UNL     1       2.581  -0.839   5.016  1.00  0.00     0.188 C 
ATOM     88  H   UNL     1       1.373   0.474   3.944  1.00  0.00     0.349 HD
ATOM     89  C   UNL     1       4.244  -1.522   6.723  1.00  0.00     0.010 C 
ATOM     90  C   UNL     1       2.331  -2.262   4.525  1.00  0.00     0.065 C 
ATOM     91  C   UNL     1       4.043  -2.992   6.316  1.00  0.00     0.001 C 
ATOM     92  C   UNL     1       2.713  -3.282   5.601  1.00  0.00     0.006 C 
BRANCH  85  93
ATOM     93  C   UNL     1       2.775   0.041   2.704  1.00  0.00     0.265 C 
BRANCH  93  94
ATOM     94  C   UNL     1       4.246   0.019   2.201  1.00  0.00     0.093 C 
BRANCH  94  95
ATOM     95  C   UNL     1       5.031  -1.293   1.961  1.00  0.00     0.123 C 
ATOM     96  C   UNL     1       4.504  -2.258   0.903  1.00  0.00     0.034 C 
ATOM     97  O   UNL     1       5.261  -2.086   3.123  1.00  0.00    -0.378 OA
ATOM     98  C   UNL     1       4.733  -3.643   1.488  1.00  0.00     0.031 C 
ATOM     99  C   UNL     1       5.609  -3.398   2.691  1.00  0.00     0.160 C 
ENDBRANCH  94  95
ENDBRANCH  93  94
ENDBRANCH  85  93
ENDBRANCH  81  83
ENDBRANCH  80  81
ENDBRANCH  79  80
ENDBRANCH  78  79
ENDBRANCH  77  78
ENDBRANCH  76  77
ENDBRANCH   1  76
TORSDOF 23
