REMARK SMILES C=CCN(CC(=O)OCCOCCOCCOC(=O)c1ccc(-c2c3nc(c(-c4c(F)cc(S(=O)(=O)[O-])cc4F)c4ccc([nH]4)c(-c4c(F)cc(S(=O)(=O)[O-])cc4F)c4nc(c(-c5c(F)cc(S(=O)(=O)[O-])cc5F)c5ccc2[nH]5)C=C4)C=C3)cc1)c1ccc([N+](=O)[O-])cc1Br
REMARK SMILES IDX 12 1 11 2 10 3 9 4 8 5 6 6 7 7 5 8 4 9 3 10 2 11 1 12 86 13
REMARK SMILES IDX 87 14 94 15 88 16 93 17 95 18 89 19 90 20 91 21 92 22 13 23
REMARK SMILES IDX 14 24 15 25 16 26 17 27 18 28 19 29 20 30 21 31 85 32 22 33
REMARK SMILES IDX 84 34 23 35 24 36 25 37 78 38 26 39 83 40 77 41 79 42 27 43
REMARK SMILES IDX 82 44 76 45 75 46 28 48 62 49 41 50 61 51 42 52 45 53 60 54
REMARK SMILES IDX 80 55 43 56 44 57 59 59 81 60 46 61 29 62 30 63 39 64 31 65
REMARK SMILES IDX 32 66 38 67 40 68 33 69 34 70 35 71 36 72 37 73 63 74 64 75
REMARK SMILES IDX 73 76 65 77 66 78 72 79 74 80 67 81 68 82 69 83 70 84 71 85
REMARK SMILES IDX 47 86 48 87 57 88 49 89 50 90 56 91 58 92 51 93 52 94 53 95
REMARK SMILES IDX 54 96 55 97
REMARK H PARENT 79 47 45 58
REMARK Flexibility Score: inf
ROOT
ATOM      1  C   UNL     1      -4.689  -0.990   3.972  1.00  0.00     0.188 C 
ENDROOT
BRANCH   1   2
ATOM      2  O   UNL     1      -5.997  -0.553   3.644  1.00  0.00    -0.376 OA
BRANCH   2   3
ATOM      3  C   UNL     1      -6.216  -0.121   2.313  1.00  0.00     0.202 C 
BRANCH   3   4
ATOM      4  C   UNL     1      -5.443   1.134   1.896  1.00  0.00     0.261 C 
BRANCH   4   5
ATOM      5  O   UNL     1      -4.000   0.981   1.971  1.00  0.00    -0.462 OA
BRANCH   5   6
ATOM      6  C   UNL     1      -3.320   2.028   2.519  1.00  0.00     0.325 C 
ATOM      7  O   UNL     1      -3.879   3.051   2.912  1.00  0.00    -0.250 OA
BRANCH   6   8
ATOM      8  C   UNL     1      -1.792   1.866   2.669  1.00  0.00     0.239 C 
BRANCH   8   9
ATOM      9  N   UNL     1      -1.074   0.774   1.961  1.00  0.00    -0.356 N 
BRANCH   9  10
ATOM     10  C   UNL     1      -1.325   0.600   0.523  1.00  0.00     0.144 C 
BRANCH  10  11
ATOM     11  C   UNL     1      -0.190   1.114  -0.303  1.00  0.00    -0.014 C 
ATOM     12  C   UNL     1       0.471   0.389  -1.219  1.00  0.00     0.006 C 
ENDBRANCH  10  11
ENDBRANCH   9  10
BRANCH   9  13
ATOM     13  C   UNL     1      -0.330  -0.185   2.655  1.00  0.00     0.052 A 
ATOM     14  C   UNL     1      -0.895  -0.823   3.764  1.00  0.00     0.034 A 
ATOM     15  C   UNL     1       0.956  -0.666   2.299  1.00  0.00     0.048 A 
ATOM     16  C   UNL     1      -0.355  -2.000   4.306  1.00  0.00     0.088 A 
ATOM     17  C   UNL     1       1.472  -1.889   2.773  1.00  0.00     0.103 A 
ATOM     18  Br  UNL     1       2.306   0.487   1.586  1.00  0.00    -0.048 Br
ATOM     19  C   UNL     1       0.785  -2.570   3.763  1.00  0.00     0.270 A 
BRANCH  19  20
ATOM     20  N   UNL     1       1.293  -3.836   4.296  1.00  0.00     0.062 N 
ATOM     21  O   UNL     1       0.909  -4.180   5.423  1.00  0.00    -0.258 OA
ATOM     22  O   UNL     1       2.066  -4.484   3.578  1.00  0.00    -0.258 OA
ENDBRANCH  19  20
ENDBRANCH   9  13
ENDBRANCH   8   9
ENDBRANCH   6   8
ENDBRANCH   5   6
ENDBRANCH   4   5
ENDBRANCH   3   4
ENDBRANCH   2   3
ENDBRANCH   1   2
BRANCH   1  23
ATOM     23  C   UNL     1      -3.933  -1.891   2.971  1.00  0.00     0.188 C 
BRANCH  23  24
ATOM     24  O   UNL     1      -4.687  -2.837   2.229  1.00  0.00    -0.376 OA
BRANCH  24  25
ATOM     25  C   UNL     1      -5.529  -3.705   2.979  1.00  0.00     0.202 C 
BRANCH  25  26
ATOM     26  C   UNL     1      -4.807  -4.556   4.026  1.00  0.00     0.261 C 
BRANCH  26  27
ATOM     27  O   UNL     1      -4.439  -3.786   5.195  1.00  0.00    -0.460 OA
BRANCH  27  28
ATOM     28  C   UNL     1      -3.273  -4.174   5.766  1.00  0.00     0.338 C 
ATOM     29  O   UNL     1      -2.551  -5.072   5.365  1.00  0.00    -0.246 OA
BRANCH  28  30
ATOM     30  C   UNL     1      -2.878  -3.354   6.938  1.00  0.00     0.060 A 
ATOM     31  C   UNL     1      -2.566  -2.004   6.790  1.00  0.00     0.016 A 
ATOM     32  C   UNL     1      -2.464  -4.023   8.088  1.00  0.00     0.016 A 
ATOM     33  C   UNL     1      -1.670  -1.393   7.676  1.00  0.00     0.010 A 
ATOM     34  C   UNL     1      -1.681  -3.362   9.045  1.00  0.00     0.010 A 
ATOM     35  C   UNL     1      -1.205  -2.059   8.819  1.00  0.00    -0.014 A 
BRANCH  35  36
ATOM     36  C   UNL     1      -0.190  -1.449   9.739  1.00  0.00     0.031 A 
ATOM     37  C   UNL     1       1.050  -2.227  10.135  1.00  0.00     0.074 A 
ATOM     38  C   UNL     1      -0.351  -0.205  10.239  1.00  0.00     0.049 A 
ATOM     39  N   UNL     1       1.866  -2.032  11.140  1.00  0.00    -0.248 NA
ATOM     40  C   UNL     1       1.409  -3.382   9.294  1.00  0.00     0.031 C 
ATOM     41  C   UNL     1      -1.431   0.722   9.896  1.00  0.00     0.029 A 
ATOM     42  N   UNL     1       0.395   0.494  11.162  1.00  0.00    -0.354 N 
ATOM     43  C   UNL     1       2.783  -3.081  11.104  1.00  0.00     0.074 A 
ATOM     44  C   UNL     1       2.432  -3.899   9.962  1.00  0.00     0.031 C 
ATOM     45  C   UNL     1      -1.265   1.868  10.569  1.00  0.00     0.029 A 
ATOM     46  C   UNL     1      -0.151   1.713  11.495  1.00  0.00     0.049 A 
ATOM     47  H   UNL     1       1.236   0.156  11.545  1.00  0.00     0.167 HD
ATOM     48  C   UNL     1       3.808  -3.342  11.953  1.00  0.00     0.037 A 
ATOM     49  C   UNL     1       0.141   2.580  12.485  1.00  0.00     0.037 A 
ATOM     50  C   UNL     1       4.192  -2.482  13.047  1.00  0.00     0.049 A 
ATOM     51  C   UNL     1       1.237   2.247  13.455  1.00  0.00     0.074 A 
ATOM     52  C   UNL     1       5.216  -2.655  13.963  1.00  0.00     0.029 A 
ATOM     53  N   UNL     1       3.582  -1.276  13.361  1.00  0.00    -0.354 N 
ATOM     54  N   UNL     1       2.021   1.197  13.483  1.00  0.00    -0.248 NA
ATOM     55  C   UNL     1       1.471   3.205  14.544  1.00  0.00     0.031 C 
ATOM     56  C   UNL     1       5.198  -1.577  14.856  1.00  0.00     0.029 A 
ATOM     57  C   UNL     1       4.198  -0.703  14.463  1.00  0.00     0.049 A 
ATOM     58  H   UNL     1       2.822  -0.884  12.873  1.00  0.00     0.167 HD
ATOM     59  C   UNL     1       2.853   1.375  14.582  1.00  0.00     0.074 A 
ATOM     60  C   UNL     1       2.487   2.642  15.182  1.00  0.00     0.031 C 
ATOM     61  C   UNL     1       3.831   0.561  15.051  1.00  0.00     0.037 A 
BRANCH  48  62
ATOM     62  C   UNL     1       4.564  -4.636  11.780  1.00  0.00     0.058 A 
ATOM     63  C   UNL     1       5.463  -4.853  10.725  1.00  0.00     0.135 A 
ATOM     64  C   UNL     1       4.423  -5.660  12.734  1.00  0.00     0.135 A 
ATOM     65  F   UNL     1       5.634  -3.916   9.780  1.00  0.00    -0.206 F 
ATOM     66  C   UNL     1       6.174  -6.046  10.607  1.00  0.00     0.059 A 
ATOM     67  C   UNL     1       5.143  -6.849  12.652  1.00  0.00     0.059 A 
ATOM     68  F   UNL     1       3.582  -5.507  13.770  1.00  0.00    -0.206 F 
ATOM     69  C   UNL     1       6.007  -7.039  11.576  1.00  0.00     0.060 A 
BRANCH  69  70
ATOM     70  S   UNL     1       6.944  -8.576  11.419  1.00  0.00     0.124 S 
ATOM     71  O   UNL     1       6.252  -9.229  10.312  1.00  0.00    -0.237 OA
ATOM     72  O   UNL     1       8.290  -8.095  11.128  1.00  0.00    -0.237 OA
ATOM     73  O   UNL     1       6.778  -9.212  12.722  1.00  0.00    -0.744 OA
ENDBRANCH  69  70
ENDBRANCH  48  62
BRANCH  49  74
ATOM     74  C   UNL     1      -0.682   3.809  12.653  1.00  0.00     0.058 A 
ATOM     75  C   UNL     1      -0.145   5.081  12.412  1.00  0.00     0.135 A 
ATOM     76  C   UNL     1      -2.034   3.731  13.029  1.00  0.00     0.135 A 
ATOM     77  F   UNL     1       1.145   5.209  12.066  1.00  0.00    -0.206 F 
ATOM     78  C   UNL     1      -0.916   6.232  12.536  1.00  0.00     0.059 A 
ATOM     79  C   UNL     1      -2.834   4.864  13.126  1.00  0.00     0.059 A 
ATOM     80  F   UNL     1      -2.601   2.537  13.263  1.00  0.00    -0.206 F 
ATOM     81  C   UNL     1      -2.263   6.112  12.885  1.00  0.00     0.060 A 
BRANCH  81  82
ATOM     82  S   UNL     1      -3.276   7.604  12.971  1.00  0.00     0.124 S 
ATOM     83  O   UNL     1      -2.816   8.199  14.220  1.00  0.00    -0.237 OA
ATOM     84  O   UNL     1      -2.893   8.306  11.750  1.00  0.00    -0.237 OA
ATOM     85  O   UNL     1      -4.639   7.083  12.982  1.00  0.00    -0.744 OA
ENDBRANCH  81  82
ENDBRANCH  49  74
BRANCH  61  86
ATOM     86  C   UNL     1       4.608   1.042  16.245  1.00  0.00     0.058 A 
ATOM     87  C   UNL     1       4.050   1.069  17.532  1.00  0.00     0.135 A 
ATOM     88  C   UNL     1       5.938   1.469  16.098  1.00  0.00     0.135 A 
ATOM     89  F   UNL     1       2.779   0.683  17.726  1.00  0.00    -0.206 F 
ATOM     90  C   UNL     1       4.772   1.534  18.627  1.00  0.00     0.059 A 
ATOM     91  C   UNL     1       6.688   1.911  17.183  1.00  0.00     0.059 A 
ATOM     92  F   UNL     1       6.523   1.456  14.889  1.00  0.00    -0.206 F 
ATOM     93  C   UNL     1       6.091   1.955  18.442  1.00  0.00     0.060 A 
BRANCH  93  94
ATOM     94  S   UNL     1       7.022   2.546  19.871  1.00  0.00     0.124 S 
ATOM     95  O   UNL     1       6.428   3.862  20.084  1.00  0.00    -0.237 OA
ATOM     96  O   UNL     1       6.715   1.540  20.883  1.00  0.00    -0.237 OA
ATOM     97  O   UNL     1       8.403   2.550  19.399  1.00  0.00    -0.744 OA
ENDBRANCH  93  94
ENDBRANCH  61  86
ENDBRANCH  35  36
ENDBRANCH  28  30
ENDBRANCH  27  28
ENDBRANCH  26  27
ENDBRANCH  25  26
ENDBRANCH  24  25
ENDBRANCH  23  24
ENDBRANCH   1  23
TORSDOF 25
