REMARK SMILES CC1(C)NC(=O)N(CCC(=O)N2CCC[C@H]2C(=O)OCCOCCOCCOC(=O)c2ccc(-c3c4nc(c(-c5c(F)cc(S(=O)(=O)[O-])cc5F)c5ccc([nH]5)c(-c5c(F)cc(S(=O)(=O)[O-])cc5F)c5nc(c(-c6c(F)cc(S(=O)(=O)[O-])cc6F)c6ccc3[nH]6)C=C5)C=C4)cc2)C1=O
REMARK SMILES IDX 23 1 22 2 21 3 20 4 19 5 17 6 18 7 16 8 12 9 13 10 14 11
REMARK SMILES IDX 15 12 10 13 11 14 9 15 8 16 7 17 1 18 2 19 3 20 4 21 97 22
REMARK SMILES IDX 5 23 98 25 6 26 24 27 25 28 26 29 27 30 28 31 29 32 30 33
REMARK SMILES IDX 31 34 32 35 96 36 33 37 95 38 34 39 35 40 36 41 89 42 37 43
REMARK SMILES IDX 94 44 88 45 90 46 38 47 93 48 87 49 86 50 39 52 73 53 52 54
REMARK SMILES IDX 72 55 53 56 56 57 71 58 91 59 54 60 55 61 70 63 92 64 57 65
REMARK SMILES IDX 40 66 41 67 50 68 42 69 43 70 49 71 51 72 44 73 45 74 46 75
REMARK SMILES IDX 47 76 48 77 74 78 75 79 84 80 76 81 77 82 83 83 85 84 78 85
REMARK SMILES IDX 79 86 80 87 81 88 82 89 58 90 59 91 68 92 60 93 61 94 67 95
REMARK SMILES IDX 69 96 62 97 63 98 64 99 65 100 66 101
REMARK H PARENT 4 24 90 51 56 62
REMARK Flexibility Score: inf
ROOT
ATOM      1  C   UNL     1      -0.968   4.075   0.749  1.00  0.00     0.188 C 
ENDROOT
BRANCH   1   2
ATOM      2  O   UNL     1      -2.374   4.042   0.610  1.00  0.00    -0.376 OA
BRANCH   2   3
ATOM      3  C   UNL     1      -3.020   2.800   0.534  1.00  0.00     0.202 C 
BRANCH   3   4
ATOM      4  C   UNL     1      -3.053   1.798   1.713  1.00  0.00     0.261 C 
BRANCH   4   5
ATOM      5  O   UNL     1      -2.310   2.014   2.938  1.00  0.00    -0.462 OA
BRANCH   5   6
ATOM      6  C   UNL     1      -1.098   1.416   2.894  1.00  0.00     0.328 C 
ATOM      7  O   UNL     1      -0.654   1.014   1.825  1.00  0.00    -0.250 OA
BRANCH   6   8
ATOM      8  C   UNL     1      -0.334   1.119   4.196  1.00  0.00     0.195 C 
ATOM      9  N   UNL     1      -0.227   2.021   5.322  1.00  0.00    -0.329 N 
ATOM     10  C   UNL     1      -0.983   1.473   6.439  1.00  0.00     0.120 C 
ATOM     11  C   UNL     1      -0.680  -0.009   6.328  1.00  0.00     0.024 C 
ATOM     12  C   UNL     1      -0.705  -0.243   4.817  1.00  0.00     0.039 C 
BRANCH   9  13
ATOM     13  C   UNL     1       0.973   2.682   5.587  1.00  0.00     0.225 C 
ATOM     14  O   UNL     1       1.349   2.849   6.753  1.00  0.00    -0.275 OA
BRANCH  13  15
ATOM     15  C   UNL     1       1.732   3.393   4.465  1.00  0.00     0.122 C 
BRANCH  15  16
ATOM     16  C   UNL     1       2.569   2.870   3.269  1.00  0.00     0.140 C 
BRANCH  16  17
ATOM     17  N   UNL     1       2.431   1.558   2.649  1.00  0.00    -0.262 N 
ATOM     18  C   UNL     1       2.707  -0.450  -0.324  1.00  0.00     0.045 C 
ATOM     19  C   UNL     1       2.112  -0.204   1.055  1.00  0.00     0.115 C 
ATOM     20  C   UNL     1       0.822  -1.021   1.165  1.00  0.00     0.045 C 
ATOM     21  N   UNL     1       2.956  -0.560   2.172  1.00  0.00    -0.324 N 
ATOM     22  C   UNL     1       2.023   1.323   1.353  1.00  0.00     0.255 C 
ATOM     23  C   UNL     1       3.042   0.438   3.115  1.00  0.00     0.325 C 
ATOM     24  H   UNL     1       3.421  -1.425   2.250  1.00  0.00     0.166 HD
ATOM     25  O   UNL     1       1.669   2.183   0.556  1.00  0.00    -0.272 OA
ATOM     26  O   UNL     1       3.588   0.302   4.207  1.00  0.00    -0.248 OA
ENDBRANCH  16  17
ENDBRANCH  15  16
ENDBRANCH  13  15
ENDBRANCH   9  13
ENDBRANCH   6   8
ENDBRANCH   5   6
ENDBRANCH   4   5
ENDBRANCH   3   4
ENDBRANCH   2   3
ENDBRANCH   1   2
BRANCH   1  27
ATOM     27  C   UNL     1      -0.601   4.561   2.146  1.00  0.00     0.188 C 
BRANCH  27  28
ATOM     28  O   UNL     1      -1.544   5.358   2.860  1.00  0.00    -0.376 OA
BRANCH  28  29
ATOM     29  C   UNL     1      -2.182   6.414   2.157  1.00  0.00     0.202 C 
BRANCH  29  30
ATOM     30  C   UNL     1      -1.342   7.651   1.839  1.00  0.00     0.261 C 
BRANCH  30  31
ATOM     31  O   UNL     1       0.043   7.404   1.561  1.00  0.00    -0.460 OA
BRANCH  31  32
ATOM     32  C   UNL     1       0.848   7.504   2.647  1.00  0.00     0.338 C 
ATOM     33  O   UNL     1       0.490   7.726   3.801  1.00  0.00    -0.246 OA
BRANCH  32  34
ATOM     34  C   UNL     1       2.254   7.212   2.297  1.00  0.00     0.060 A 
ATOM     35  C   UNL     1       3.022   6.496   3.223  1.00  0.00     0.016 A 
ATOM     36  C   UNL     1       2.847   7.689   1.125  1.00  0.00     0.016 A 
ATOM     37  C   UNL     1       4.376   6.253   2.989  1.00  0.00     0.010 A 
ATOM     38  C   UNL     1       4.218   7.481   0.908  1.00  0.00     0.010 A 
ATOM     39  C   UNL     1       4.993   6.779   1.848  1.00  0.00    -0.014 A 
BRANCH  39  40
ATOM     40  C   UNL     1       6.476   6.760   1.746  1.00  0.00     0.031 A 
ATOM     41  C   UNL     1       7.248   7.920   2.317  1.00  0.00     0.074 A 
ATOM     42  C   UNL     1       7.132   5.719   1.200  1.00  0.00     0.049 A 
ATOM     43  N   UNL     1       8.535   8.151   2.302  1.00  0.00    -0.248 NA
ATOM     44  C   UNL     1       6.458   8.952   3.008  1.00  0.00     0.031 C 
ATOM     45  C   UNL     1       6.508   4.499   0.691  1.00  0.00     0.029 A 
ATOM     46  N   UNL     1       8.475   5.525   0.984  1.00  0.00    -0.354 N 
ATOM     47  C   UNL     1       8.710   9.355   2.976  1.00  0.00     0.074 A 
ATOM     48  C   UNL     1       7.397   9.811   3.376  1.00  0.00     0.031 C 
ATOM     49  C   UNL     1       7.468   3.687   0.212  1.00  0.00     0.029 A 
ATOM     50  C   UNL     1       8.768   4.346   0.338  1.00  0.00     0.049 A 
ATOM     51  H   UNL     1       9.164   6.170   1.264  1.00  0.00     0.167 HD
ATOM     52  C   UNL     1       9.861  10.023   3.232  1.00  0.00     0.037 A 
ATOM     53  C   UNL     1       9.945   3.870  -0.122  1.00  0.00     0.037 A 
ATOM     54  C   UNL     1      11.163   9.576   2.812  1.00  0.00     0.049 A 
ATOM     55  C   UNL     1      11.201   4.685   0.079  1.00  0.00     0.074 A 
ATOM     56  C   UNL     1      12.387  10.195   3.000  1.00  0.00     0.029 A 
ATOM     57  N   UNL     1      11.412   8.407   2.107  1.00  0.00    -0.354 N 
ATOM     58  N   UNL     1      11.353   5.830   0.704  1.00  0.00    -0.248 NA
ATOM     59  C   UNL     1      12.445   4.149  -0.495  1.00  0.00     0.031 C 
ATOM     60  C   UNL     1      13.367   9.430   2.359  1.00  0.00     0.029 A 
ATOM     61  C   UNL     1      12.764   8.301   1.827  1.00  0.00     0.049 A 
ATOM     62  H   UNL     1      10.727   7.750   1.846  1.00  0.00     0.167 HD
ATOM     63  C   UNL     1      12.711   6.132   0.626  1.00  0.00     0.074 A 
ATOM     64  C   UNL     1      13.338   5.047  -0.099  1.00  0.00     0.031 C 
ATOM     65  C   UNL     1      13.378   7.208   1.113  1.00  0.00     0.037 A 
BRANCH  52  66
ATOM     66  C   UNL     1       9.752  11.341   3.949  1.00  0.00     0.058 A 
ATOM     67  C   UNL     1       9.419  11.424   5.311  1.00  0.00     0.135 A 
ATOM     68  C   UNL     1       9.998  12.541   3.263  1.00  0.00     0.135 A 
ATOM     69  F   UNL     1       9.154  10.310   6.011  1.00  0.00    -0.206 F 
ATOM     70  C   UNL     1       9.307  12.651   5.958  1.00  0.00     0.059 A 
ATOM     71  C   UNL     1       9.920  13.777   3.897  1.00  0.00     0.059 A 
ATOM     72  F   UNL     1      10.316  12.521   1.959  1.00  0.00    -0.206 F 
ATOM     73  C   UNL     1       9.557  13.823   5.241  1.00  0.00     0.060 A 
BRANCH  73  74
ATOM     74  S   UNL     1       9.398  15.408   6.091  1.00  0.00     0.124 S 
ATOM     75  O   UNL     1       7.951  15.505   6.259  1.00  0.00    -0.237 OA
ATOM     76  O   UNL     1      10.164  15.185   7.313  1.00  0.00    -0.237 OA
ATOM     77  O   UNL     1       9.984  16.359   5.152  1.00  0.00    -0.744 OA
ENDBRANCH  73  74
ENDBRANCH  52  66
BRANCH  53  78
ATOM     78  C   UNL     1       9.998   2.571  -0.854  1.00  0.00     0.058 A 
ATOM     79  C   UNL     1      10.681   1.463  -0.330  1.00  0.00     0.135 A 
ATOM     80  C   UNL     1       9.389   2.421  -2.111  1.00  0.00     0.135 A 
ATOM     81  F   UNL     1      11.301   1.557   0.856  1.00  0.00    -0.206 F 
ATOM     82  C   UNL     1      10.769   0.260  -1.027  1.00  0.00     0.059 A 
ATOM     83  C   UNL     1       9.437   1.220  -2.813  1.00  0.00     0.059 A 
ATOM     84  F   UNL     1       8.723   3.448  -2.663  1.00  0.00    -0.206 F 
ATOM     85  C   UNL     1      10.138   0.147  -2.267  1.00  0.00     0.060 A 
BRANCH  85  86
ATOM     86  S   UNL     1      10.213  -1.433  -3.140  1.00  0.00     0.124 S 
ATOM     87  O   UNL     1      11.608  -1.473  -3.561  1.00  0.00    -0.237 OA
ATOM     88  O   UNL     1       9.833  -2.378  -2.094  1.00  0.00    -0.237 OA
ATOM     89  O   UNL     1       9.234  -1.272  -4.211  1.00  0.00    -0.744 OA
ENDBRANCH  85  86
ENDBRANCH  53  78
BRANCH  65  90
ATOM     90  C   UNL     1      14.872   7.256   0.920  1.00  0.00     0.058 A 
ATOM     91  C   UNL     1      15.453   7.497  -0.334  1.00  0.00     0.135 A 
ATOM     92  C   UNL     1      15.733   7.126   2.024  1.00  0.00     0.135 A 
ATOM     93  F   UNL     1      14.680   7.625  -1.424  1.00  0.00    -0.206 F 
ATOM     94  C   UNL     1      16.834   7.586  -0.492  1.00  0.00     0.059 A 
ATOM     95  C   UNL     1      17.114   7.241   1.894  1.00  0.00     0.059 A 
ATOM     96  F   UNL     1      15.232   6.907   3.250  1.00  0.00    -0.206 F 
ATOM     97  C   UNL     1      17.656   7.461   0.629  1.00  0.00     0.060 A 
BRANCH  97  98
ATOM     98  S   UNL     1      19.442   7.618   0.416  1.00  0.00     0.124 S 
ATOM     99  O   UNL     1      19.771   6.363  -0.252  1.00  0.00    -0.237 OA
ATOM    100  O   UNL     1      19.554   8.821  -0.404  1.00  0.00    -0.237 OA
ATOM    101  O   UNL     1      19.939   7.750   1.783  1.00  0.00    -0.744 OA
ENDBRANCH  97  98
ENDBRANCH  65  90
ENDBRANCH  39  40
ENDBRANCH  32  34
ENDBRANCH  31  32
ENDBRANCH  30  31
ENDBRANCH  29  30
ENDBRANCH  28  29
ENDBRANCH  27  28
ENDBRANCH   1  27
TORSDOF 24
