REMARK SMILES O=C(OCCOCCOCCOC(=O)c1sccc1S(=O)(=O)N1CCO[C@@H]2CCCC[C@@H]21)c1ccc(-c2c3nc(c(-c4c(F)cc(S(=O)(=O)[O-])cc4F)c4ccc([nH]4)c(-c4c(F)cc(S(=O)(=O)[O-])cc4F)c4nc(c(-c5c(F)cc(S(=O)(=O)[O-])cc5F)c5ccc2[nH]5)C=C4)C=C3)cc1
REMARK SMILES IDX 7 1 6 2 5 3 4 4 3 5 2 6 1 7 33 8 34 9 98 10 35 11 97 12
REMARK SMILES IDX 36 13 37 14 38 15 91 16 39 17 96 18 90 19 92 20 40 21 95 22
REMARK SMILES IDX 89 23 88 24 41 26 75 27 54 28 74 29 55 30 58 31 73 32 93 33
REMARK SMILES IDX 56 34 57 35 72 37 94 38 59 39 42 40 43 41 52 42 44 43 45 44
REMARK SMILES IDX 51 45 53 46 46 47 47 48 48 49 49 50 50 51 76 52 77 53 86 54
REMARK SMILES IDX 78 55 79 56 85 57 87 58 80 59 81 60 82 61 83 62 84 63 60 64
REMARK SMILES IDX 61 65 70 66 62 67 63 68 69 69 71 70 64 71 65 72 66 73 67 74
REMARK SMILES IDX 68 75 8 76 9 77 10 78 11 79 12 80 13 81 14 82 15 83 16 84
REMARK SMILES IDX 19 85 17 86 18 87 20 88 21 89 22 90 23 91 24 92 32 93 25 94
REMARK SMILES IDX 27 95 31 96 26 97 28 98 30 99 29 100
REMARK H PARENT 92 25 58 36
REMARK Flexibility Score: inf
ROOT
ATOM      1  C   UNL     1       1.873  -0.225  -1.171  1.00  0.00     0.188 C 
ENDROOT
BRANCH   1   2
ATOM      2  O   UNL     1       3.261  -0.020  -0.878  1.00  0.00    -0.376 OA
BRANCH   2   3
ATOM      3  C   UNL     1       4.054  -1.183  -1.094  1.00  0.00     0.202 C 
BRANCH   3   4
ATOM      4  C   UNL     1       3.998  -2.227   0.026  1.00  0.00     0.261 C 
BRANCH   4   5
ATOM      5  O   UNL     1       2.821  -2.204   0.852  1.00  0.00    -0.460 OA
BRANCH   5   6
ATOM      6  C   UNL     1       2.389  -1.286   1.748  1.00  0.00     0.338 C 
ATOM      7  O   UNL     1       1.267  -1.447   2.232  1.00  0.00    -0.246 OA
BRANCH   6   8
ATOM      8  C   UNL     1       3.154  -0.066   2.169  1.00  0.00     0.060 A 
ATOM      9  C   UNL     1       4.529   0.116   2.024  1.00  0.00     0.016 A 
ATOM     10  C   UNL     1       2.426   0.939   2.845  1.00  0.00     0.016 A 
ATOM     11  C   UNL     1       5.166   1.235   2.563  1.00  0.00     0.010 A 
ATOM     12  C   UNL     1       3.060   2.053   3.411  1.00  0.00     0.010 A 
ATOM     13  C   UNL     1       4.445   2.179   3.304  1.00  0.00    -0.014 A 
BRANCH  13  14
ATOM     14  C   UNL     1       5.223   3.071   4.191  1.00  0.00     0.031 A 
ATOM     15  C   UNL     1       5.783   2.447   5.439  1.00  0.00     0.074 A 
ATOM     16  C   UNL     1       5.528   4.333   3.848  1.00  0.00     0.049 A 
ATOM     17  N   UNL     1       6.689   2.901   6.260  1.00  0.00    -0.248 NA
ATOM     18  C   UNL     1       5.268   1.109   5.783  1.00  0.00     0.031 C 
ATOM     19  C   UNL     1       5.047   5.021   2.655  1.00  0.00     0.029 A 
ATOM     20  N   UNL     1       6.349   5.250   4.454  1.00  0.00    -0.354 N 
ATOM     21  C   UNL     1       6.876   1.893   7.197  1.00  0.00     0.074 A 
ATOM     22  C   UNL     1       5.987   0.807   6.851  1.00  0.00     0.031 C 
ATOM     23  C   UNL     1       5.623   6.235   2.584  1.00  0.00     0.029 A 
ATOM     24  C   UNL     1       6.486   6.423   3.749  1.00  0.00     0.049 A 
ATOM     25  H   UNL     1       6.799   5.083   5.314  1.00  0.00     0.167 HD
ATOM     26  C   UNL     1       7.704   1.880   8.265  1.00  0.00     0.037 A 
ATOM     27  C   UNL     1       7.229   7.515   4.023  1.00  0.00     0.037 A 
ATOM     28  C   UNL     1       8.499   3.007   8.661  1.00  0.00     0.049 A 
ATOM     29  C   UNL     1       8.074   7.511   5.278  1.00  0.00     0.074 A 
ATOM     30  C   UNL     1       9.305   3.147   9.774  1.00  0.00     0.029 A 
ATOM     31  N   UNL     1       8.553   4.209   7.968  1.00  0.00    -0.354 N 
ATOM     32  N   UNL     1       8.270   6.540   6.141  1.00  0.00    -0.248 NA
ATOM     33  C   UNL     1       8.790   8.753   5.602  1.00  0.00     0.031 C 
ATOM     34  C   UNL     1       9.800   4.455   9.785  1.00  0.00     0.029 A 
ATOM     35  C   UNL     1       9.357   5.108   8.644  1.00  0.00     0.049 A 
ATOM     36  H   UNL     1       8.086   4.394   7.121  1.00  0.00     0.167 HD
ATOM     37  C   UNL     1       9.148   7.046   7.095  1.00  0.00     0.074 A 
ATOM     38  C   UNL     1       9.458   8.403   6.693  1.00  0.00     0.031 C 
ATOM     39  C   UNL     1       9.652   6.450   8.206  1.00  0.00     0.037 A 
BRANCH  26  40
ATOM     40  C   UNL     1       7.698   0.639   9.108  1.00  0.00     0.058 A 
ATOM     41  C   UNL     1       8.286  -0.557   8.665  1.00  0.00     0.135 A 
ATOM     42  C   UNL     1       7.047   0.631  10.351  1.00  0.00     0.135 A 
ATOM     43  F   UNL     1       8.888  -0.612   7.466  1.00  0.00    -0.206 F 
ATOM     44  C   UNL     1       8.203  -1.726   9.415  1.00  0.00     0.059 A 
ATOM     45  C   UNL     1       6.971  -0.521  11.126  1.00  0.00     0.059 A 
ATOM     46  F   UNL     1       6.450   1.743  10.808  1.00  0.00    -0.206 F 
ATOM     47  C   UNL     1       7.537  -1.699  10.642  1.00  0.00     0.060 A 
BRANCH  47  48
ATOM     48  S   UNL     1       7.412  -3.229  11.590  1.00  0.00     0.124 S 
ATOM     49  O   UNL     1       6.439  -3.980  10.801  1.00  0.00    -0.237 OA
ATOM     50  O   UNL     1       8.781  -3.732  11.553  1.00  0.00    -0.237 OA
ATOM     51  O   UNL     1       6.946  -2.781  12.899  1.00  0.00    -0.744 OA
ENDBRANCH  47  48
ENDBRANCH  26  40
BRANCH  27  52
ATOM     52  C   UNL     1       7.212   8.702   3.119  1.00  0.00     0.058 A 
ATOM     53  C   UNL     1       8.368   9.120   2.440  1.00  0.00     0.135 A 
ATOM     54  C   UNL     1       6.050   9.472   2.947  1.00  0.00     0.135 A 
ATOM     55  F   UNL     1       9.511   8.428   2.573  1.00  0.00    -0.206 F 
ATOM     56  C   UNL     1       8.383  10.268   1.652  1.00  0.00     0.059 A 
ATOM     57  C   UNL     1       6.031  10.607   2.140  1.00  0.00     0.059 A 
ATOM     58  F   UNL     1       4.913   9.120   3.567  1.00  0.00    -0.206 F 
ATOM     59  C   UNL     1       7.207  11.008   1.510  1.00  0.00     0.060 A 
BRANCH  59  60
ATOM     60  S   UNL     1       7.235  12.496   0.485  1.00  0.00     0.124 S 
ATOM     61  O   UNL     1       7.992  13.416   1.326  1.00  0.00    -0.237 OA
ATOM     62  O   UNL     1       7.915  12.029  -0.719  1.00  0.00    -0.237 OA
ATOM     63  O   UNL     1       5.821  12.816   0.317  1.00  0.00    -0.744 OA
ENDBRANCH  59  60
ENDBRANCH  27  52
BRANCH  39  64
ATOM     64  C   UNL     1      10.622   7.241   9.040  1.00  0.00     0.058 A 
ATOM     65  C   UNL     1      10.207   8.314   9.843  1.00  0.00     0.135 A 
ATOM     66  C   UNL     1      11.976   6.869   9.087  1.00  0.00     0.135 A 
ATOM     67  F   UNL     1       8.923   8.708   9.836  1.00  0.00    -0.206 F 
ATOM     68  C   UNL     1      11.106   9.010  10.644  1.00  0.00     0.059 A 
ATOM     69  C   UNL     1      12.886   7.531   9.903  1.00  0.00     0.059 A 
ATOM     70  F   UNL     1      12.420   5.838   8.351  1.00  0.00    -0.206 F 
ATOM     71  C   UNL     1      12.444   8.610  10.667  1.00  0.00     0.060 A 
BRANCH  71  72
ATOM     72  S   UNL     1      13.598   9.499  11.733  1.00  0.00     0.124 S 
ATOM     73  O   UNL     1      13.796  10.735  10.982  1.00  0.00    -0.237 OA
ATOM     74  O   UNL     1      12.843   9.626  12.976  1.00  0.00    -0.237 OA
ATOM     75  O   UNL     1      14.754   8.611  11.797  1.00  0.00    -0.744 OA
ENDBRANCH  71  72
ENDBRANCH  39  64
ENDBRANCH  13  14
ENDBRANCH   6   8
ENDBRANCH   5   6
ENDBRANCH   4   5
ENDBRANCH   3   4
ENDBRANCH   2   3
ENDBRANCH   1   2
BRANCH   1  76
ATOM     76  C   UNL     1       1.398   0.634  -2.336  1.00  0.00     0.188 C 
BRANCH  76  77
ATOM     77  O   UNL     1       1.935   0.236  -3.597  1.00  0.00    -0.376 OA
BRANCH  77  78
ATOM     78  C   UNL     1       3.197   0.823  -3.930  1.00  0.00     0.202 C 
BRANCH  78  79
ATOM     79  C   UNL     1       3.096   2.292  -4.349  1.00  0.00     0.261 C 
BRANCH  79  80
ATOM     80  O   UNL     1       2.951   3.140  -3.195  1.00  0.00    -0.459 OA
BRANCH  80  81
ATOM     81  C   UNL     1       2.084   4.185  -3.301  1.00  0.00     0.349 C 
ATOM     82  O   UNL     1       1.483   4.488  -4.323  1.00  0.00    -0.245 OA
BRANCH  81  83
ATOM     83  C   UNL     1       1.947   4.845  -2.025  1.00  0.00     0.132 A 
ATOM     84  S   UNL     1       0.701   4.351  -0.958  1.00  0.00    -0.136 S 
ATOM     85  C   UNL     1       2.651   5.914  -1.509  1.00  0.00     0.108 A 
ATOM     86  C   UNL     1       1.076   5.587   0.166  1.00  0.00     0.067 A 
ATOM     87  C   UNL     1       2.135   6.361  -0.254  1.00  0.00     0.034 A 
BRANCH  85  88
ATOM     88  S   UNL     1       3.979   6.670  -2.328  1.00  0.00     0.245 S 
ATOM     89  O   UNL     1       3.321   7.335  -3.428  1.00  0.00    -0.207 OA
ATOM     90  O   UNL     1       4.687   7.383  -1.289  1.00  0.00    -0.207 OA
BRANCH  88  91
ATOM     91  N   UNL     1       4.969   5.424  -2.931  1.00  0.00    -0.190 NA
ATOM     92  C   UNL     1       5.150   5.469  -4.404  1.00  0.00     0.131 C 
ATOM     93  C   UNL     1       6.143   4.971  -2.107  1.00  0.00     0.102 C 
ATOM     94  C   UNL     1       6.173   4.476  -4.939  1.00  0.00     0.177 C 
ATOM     95  C   UNL     1       7.025   3.913  -2.838  1.00  0.00     0.136 C 
ATOM     96  C   UNL     1       5.718   4.463  -0.720  1.00  0.00     0.023 C 
ATOM     97  O   UNL     1       6.411   3.402  -4.034  1.00  0.00    -0.375 OA
ATOM     98  C   UNL     1       7.403   2.712  -1.968  1.00  0.00     0.034 C 
ATOM     99  C   UNL     1       5.226   3.023  -0.697  1.00  0.00     0.002 C 
ATOM    100  C   UNL     1       6.178   2.041  -1.364  1.00  0.00     0.003 C 
ENDBRANCH  88  91
ENDBRANCH  85  88
ENDBRANCH  81  83
ENDBRANCH  80  81
ENDBRANCH  79  80
ENDBRANCH  78  79
ENDBRANCH  77  78
ENDBRANCH  76  77
ENDBRANCH   1  76
TORSDOF 22
