REMARK SMILES CCC[N@H+](CC(=O)OCCOCCOCCOC(=O)c1ccc(-c2c3nc(c(-c4c(F)cc(S(=O)(=O)[O-])cc4F)c4ccc([nH]4)c(-c4c(F)cc(S(=O)(=O)[O-])cc4F)c4nc(c(-c5c(F)cc(S(=O)(=O)[O-])cc5F)c5ccc2[nH]5)C=C4)C=C3)cc1)[C@H]1CCOC2(CCCCC2)C1
REMARK SMILES IDX 12 1 11 2 10 3 9 4 8 5 6 6 7 7 5 8 4 9 3 11 2 12 1 13 86 14
REMARK SMILES IDX 87 15 96 16 88 17 90 18 89 19 91 20 95 21 92 22 94 23 93 24
REMARK SMILES IDX 13 25 14 26 15 27 16 28 17 29 18 30 19 31 20 32 21 33 85 34
REMARK SMILES IDX 22 35 84 36 23 37 24 38 25 39 78 40 26 41 83 42 77 43 79 44
REMARK SMILES IDX 27 45 82 46 76 47 75 48 28 50 62 51 41 52 61 53 42 54 45 55
REMARK SMILES IDX 60 56 80 57 43 58 44 59 59 61 81 62 46 63 29 64 30 65 39 66
REMARK SMILES IDX 31 67 32 68 38 69 40 70 33 71 34 72 35 73 36 74 37 75 63 76
REMARK SMILES IDX 64 77 73 78 65 79 66 80 72 81 74 82 67 83 68 84 69 85 70 86
REMARK SMILES IDX 71 87 47 88 48 89 57 90 49 91 50 92 56 93 58 94 51 95 52 96
REMARK SMILES IDX 53 97 54 98 55 99
REMARK H PARENT 4 10 79 49 45 60
REMARK Flexibility Score: inf
ROOT
ATOM      1  C   UNL     1       3.148   2.422  -1.307  1.00  0.00     0.188 C 
ENDROOT
BRANCH   1   2
ATOM      2  O   UNL     1       3.316   2.561  -2.716  1.00  0.00    -0.376 OA
BRANCH   2   3
ATOM      3  C   UNL     1       2.448   1.838  -3.585  1.00  0.00     0.202 C 
BRANCH   3   4
ATOM      4  C   UNL     1       2.278   0.328  -3.353  1.00  0.00     0.261 C 
BRANCH   4   5
ATOM      5  O   UNL     1       1.835  -0.013  -2.024  1.00  0.00    -0.459 OA
BRANCH   5   6
ATOM      6  C   UNL     1       2.467  -1.030  -1.393  1.00  0.00     0.361 C 
ATOM      7  O   UNL     1       3.330  -1.721  -1.934  1.00  0.00    -0.245 OA
BRANCH   6   8
ATOM      8  C   UNL     1       2.079  -1.285   0.077  1.00  0.00     0.386 C 
BRANCH   8   9
ATOM      9  N   UNL     1       1.002  -0.480   0.759  1.00  0.00    -0.323 N 
ATOM     10  H   UNL     1       1.273   0.503   0.770  1.00  0.00     0.348 HD
BRANCH   9  11
ATOM     11  C   UNL     1      -0.280  -0.607  -0.003  1.00  0.00     0.262 C 
BRANCH  11  12
ATOM     12  C   UNL     1      -1.579   0.039   0.522  1.00  0.00     0.058 C 
ATOM     13  C   UNL     1      -1.575   1.560   0.638  1.00  0.00     0.010 C 
ENDBRANCH  11  12
ENDBRANCH   9  11
BRANCH   9  14
ATOM     14  C   UNL     1       0.839  -0.917   2.188  1.00  0.00     0.189 C 
ATOM     15  C   UNL     1       2.079  -1.402   2.982  1.00  0.00     0.093 C 
ATOM     16  C   UNL     1       0.282   0.213   3.075  1.00  0.00     0.100 C 
ATOM     17  C   UNL     1       1.681  -1.827   4.407  1.00  0.00     0.167 C 
ATOM     18  C   UNL     1      -0.222  -0.330   4.423  1.00  0.00     0.074 C 
ATOM     19  O   UNL     1       0.906  -0.863   5.127  1.00  0.00    -0.375 OA
ATOM     20  C   UNL     1      -1.336  -1.394   4.238  1.00  0.00     0.036 C 
ATOM     21  C   UNL     1      -0.787   0.869   5.226  1.00  0.00     0.036 C 
ATOM     22  C   UNL     1      -2.029  -1.784   5.537  1.00  0.00     0.003 C 
ATOM     23  C   UNL     1      -1.555   0.478   6.489  1.00  0.00     0.003 C 
ATOM     24  C   UNL     1      -2.632  -0.561   6.206  1.00  0.00     0.000 C 
ENDBRANCH   9  14
ENDBRANCH   8   9
ENDBRANCH   6   8
ENDBRANCH   5   6
ENDBRANCH   4   5
ENDBRANCH   3   4
ENDBRANCH   2   3
ENDBRANCH   1   2
BRANCH   1  25
ATOM     25  C   UNL     1       1.724   2.473  -0.728  1.00  0.00     0.188 C 
BRANCH  25  26
ATOM     26  O   UNL     1       0.721   2.724  -1.686  1.00  0.00    -0.376 OA
BRANCH  26  27
ATOM     27  C   UNL     1      -0.031   3.914  -1.601  1.00  0.00     0.202 C 
BRANCH  27  28
ATOM     28  C   UNL     1       0.654   5.273  -1.406  1.00  0.00     0.261 C 
BRANCH  28  29
ATOM     29  O   UNL     1       1.841   5.305  -0.603  1.00  0.00    -0.460 OA
BRANCH  29  30
ATOM     30  C   UNL     1       1.678   5.319   0.740  1.00  0.00     0.338 C 
ATOM     31  O   UNL     1       0.616   5.289   1.349  1.00  0.00    -0.246 OA
BRANCH  30  32
ATOM     32  C   UNL     1       3.013   5.156   1.356  1.00  0.00     0.060 A 
ATOM     33  C   UNL     1       3.266   4.044   2.172  1.00  0.00     0.016 A 
ATOM     34  C   UNL     1       4.016   6.096   1.114  1.00  0.00     0.016 A 
ATOM     35  C   UNL     1       4.516   3.891   2.777  1.00  0.00     0.010 A 
ATOM     36  C   UNL     1       5.260   5.950   1.734  1.00  0.00     0.010 A 
ATOM     37  C   UNL     1       5.506   4.866   2.596  1.00  0.00    -0.014 A 
BRANCH  37  38
ATOM     38  C   UNL     1       6.728   4.857   3.442  1.00  0.00     0.031 A 
ATOM     39  C   UNL     1       6.788   5.792   4.622  1.00  0.00     0.074 A 
ATOM     40  C   UNL     1       7.760   4.034   3.179  1.00  0.00     0.049 A 
ATOM     41  N   UNL     1       7.768   6.013   5.459  1.00  0.00    -0.248 NA
ATOM     42  C   UNL     1       5.580   6.591   4.886  1.00  0.00     0.031 C 
ATOM     43  C   UNL     1       7.813   3.064   2.087  1.00  0.00     0.029 A 
ATOM     44  N   UNL     1       8.972   3.896   3.810  1.00  0.00    -0.354 N 
ATOM     45  C   UNL     1       7.295   6.970   6.350  1.00  0.00     0.074 A 
ATOM     46  C   UNL     1       5.958   7.323   5.922  1.00  0.00     0.031 C 
ATOM     47  C   UNL     1       9.005   2.443   2.114  1.00  0.00     0.029 A 
ATOM     48  C   UNL     1       9.812   2.992   3.203  1.00  0.00     0.049 A 
ATOM     49  H   UNL     1       9.217   4.398   4.621  1.00  0.00     0.167 HD
ATOM     50  C   UNL     1       7.909   7.495   7.437  1.00  0.00     0.037 A 
ATOM     51  C   UNL     1      11.091   2.667   3.480  1.00  0.00     0.037 A 
ATOM     52  C   UNL     1       9.243   7.149   7.854  1.00  0.00     0.049 A 
ATOM     53  C   UNL     1      11.784   3.323   4.650  1.00  0.00     0.074 A 
ATOM     54  C   UNL     1       9.958   7.630   8.938  1.00  0.00     0.029 A 
ATOM     55  N   UNL     1      10.067   6.240   7.205  1.00  0.00    -0.354 N 
ATOM     56  N   UNL     1      11.320   4.213   5.495  1.00  0.00    -0.248 NA
ATOM     57  C   UNL     1      13.176   2.924   4.909  1.00  0.00     0.031 C 
ATOM     58  C   UNL     1      11.230   7.049   8.916  1.00  0.00     0.029 A 
ATOM     59  C   UNL     1      11.288   6.159   7.856  1.00  0.00     0.049 A 
ATOM     60  H   UNL     1       9.820   5.729   6.402  1.00  0.00     0.167 HD
ATOM     61  C   UNL     1      12.348   4.452   6.404  1.00  0.00     0.074 A 
ATOM     62  C   UNL     1      13.453   3.602   6.014  1.00  0.00     0.031 C 
ATOM     63  C   UNL     1      12.377   5.298   7.465  1.00  0.00     0.037 A 
BRANCH  50  64
ATOM     64  C   UNL     1       7.146   8.509   8.246  1.00  0.00     0.058 A 
ATOM     65  C   UNL     1       6.034   8.145   9.024  1.00  0.00     0.135 A 
ATOM     66  C   UNL     1       7.553   9.853   8.278  1.00  0.00     0.135 A 
ATOM     67  F   UNL     1       5.589   6.879   9.016  1.00  0.00    -0.206 F 
ATOM     68  C   UNL     1       5.339   9.080   9.784  1.00  0.00     0.059 A 
ATOM     69  C   UNL     1       6.891  10.800   9.056  1.00  0.00     0.059 A 
ATOM     70  F   UNL     1       8.607  10.258   7.552  1.00  0.00    -0.206 F 
ATOM     71  C   UNL     1       5.778  10.405   9.796  1.00  0.00     0.060 A 
BRANCH  71  72
ATOM     72  S   UNL     1       4.873  11.601  10.800  1.00  0.00     0.124 S 
ATOM     73  O   UNL     1       3.624  11.724  10.054  1.00  0.00    -0.237 OA
ATOM     74  O   UNL     1       4.778  10.918  12.086  1.00  0.00    -0.237 OA
ATOM     75  O   UNL     1       5.732  12.781  10.782  1.00  0.00    -0.744 OA
ENDBRANCH  71  72
ENDBRANCH  50  64
BRANCH  51  76
ATOM     76  C   UNL     1      11.819   1.684   2.628  1.00  0.00     0.058 A 
ATOM     77  C   UNL     1      12.229   0.442   3.134  1.00  0.00     0.135 A 
ATOM     78  C   UNL     1      12.149   1.985   1.296  1.00  0.00     0.135 A 
ATOM     79  F   UNL     1      11.950   0.110   4.404  1.00  0.00    -0.206 F 
ATOM     80  C   UNL     1      12.966  -0.454   2.365  1.00  0.00     0.059 A 
ATOM     81  C   UNL     1      12.857   1.092   0.497  1.00  0.00     0.059 A 
ATOM     82  F   UNL     1      11.775   3.155   0.757  1.00  0.00    -0.206 F 
ATOM     83  C   UNL     1      13.275  -0.119   1.046  1.00  0.00     0.060 A 
BRANCH  83  84
ATOM     84  S   UNL     1      14.213  -1.298   0.049  1.00  0.00     0.124 S 
ATOM     85  O   UNL     1      15.539  -1.199   0.648  1.00  0.00    -0.237 OA
ATOM     86  O   UNL     1      13.493  -2.544   0.293  1.00  0.00    -0.237 OA
ATOM     87  O   UNL     1      14.091  -0.766  -1.305  1.00  0.00    -0.744 OA
ENDBRANCH  83  84
ENDBRANCH  51  76
BRANCH  63  88
ATOM     88  C   UNL     1      13.622   5.310   8.314  1.00  0.00     0.058 A 
ATOM     89  C   UNL     1      14.836   5.838   7.849  1.00  0.00     0.135 A 
ATOM     90  C   UNL     1      13.587   4.817   9.630  1.00  0.00     0.135 A 
ATOM     91  F   UNL     1      14.929   6.322   6.600  1.00  0.00    -0.206 F 
ATOM     92  C   UNL     1      15.980   5.844   8.643  1.00  0.00     0.059 A 
ATOM     93  C   UNL     1      14.709   4.843  10.453  1.00  0.00     0.059 A 
ATOM     94  F   UNL     1      12.450   4.312  10.134  1.00  0.00    -0.206 F 
ATOM     95  C   UNL     1      15.906   5.343   9.944  1.00  0.00     0.060 A 
BRANCH  95  96
ATOM     96  S   UNL     1      17.394   5.370  10.967  1.00  0.00     0.124 S 
ATOM     97  O   UNL     1      18.194   4.317  10.351  1.00  0.00    -0.237 OA
ATOM     98  O   UNL     1      17.881   6.732  10.775  1.00  0.00    -0.237 OA
ATOM     99  O   UNL     1      16.892   5.074  12.306  1.00  0.00    -0.744 OA
ENDBRANCH  95  96
ENDBRANCH  63  88
ENDBRANCH  37  38
ENDBRANCH  30  32
ENDBRANCH  29  30
ENDBRANCH  28  29
ENDBRANCH  27  28
ENDBRANCH  26  27
ENDBRANCH  25  26
ENDBRANCH   1  25
TORSDOF 24
