REMARK SMILES O=C(OCCOCCOCCOC(=O)[C@H]1CC2(CC[NH+](C(=O)C3CC3)CC2)CN1C(=O)CCn1cccn1)c1ccc(-c2c3nc(c(-c4c(F)cc(S(=O)(=O)[O-])cc4F)c4ccc([nH]4)c(-c4c(F)cc(S(=O)(=O)[O-])cc4F)c4nc(c(-c5c(F)cc(S(=O)(=O)[O-])cc5F)c5ccc2[nH]5)C=C4)C=C3)cc1
REMARK SMILES IDX 8 1 7 2 6 3 5 4 4 5 3 6 2 7 1 8 39 9 40 10 104 11 41 12
REMARK SMILES IDX 103 13 42 14 43 15 44 16 97 17 45 18 102 19 96 20 98 21
REMARK SMILES IDX 46 22 101 23 95 24 94 25 47 27 81 28 60 29 80 30 61 31 64 32
REMARK SMILES IDX 79 33 99 34 62 35 63 36 78 38 100 39 65 40 48 41 49 42 58 43
REMARK SMILES IDX 50 44 51 45 57 46 59 47 52 48 53 49 54 50 55 51 56 52 82 53
REMARK SMILES IDX 83 54 92 55 84 56 85 57 91 58 93 59 86 60 87 61 88 62 89 63
REMARK SMILES IDX 90 64 66 65 67 66 76 67 68 68 69 69 75 70 77 71 70 72 71 73
REMARK SMILES IDX 72 74 73 75 74 76 9 77 10 78 11 79 12 80 13 81 14 82 15 83
REMARK SMILES IDX 16 84 29 85 17 86 28 87 18 88 27 89 19 90 26 91 20 92 30 94
REMARK SMILES IDX 31 95 32 96 33 97 34 98 35 99 38 100 36 101 37 102 21 103
REMARK SMILES IDX 22 104 23 105 24 106 25 107
REMARK H PARENT 98 26 64 37 20 93
REMARK Flexibility Score: inf
ROOT
ATOM      1  C   UNL     1       0.573   2.144   3.024  1.00  0.00     0.188 C 
ENDROOT
BRANCH   1   2
ATOM      2  C   UNL     1       2.059   2.122   2.658  1.00  0.00     0.188 C 
BRANCH   2   3
ATOM      3  O   UNL     1       2.788   0.903   2.640  1.00  0.00    -0.376 OA
BRANCH   3   4
ATOM      4  C   UNL     1       2.537  -0.032   3.672  1.00  0.00     0.202 C 
BRANCH   4   5
ATOM      5  C   UNL     1       2.997   0.355   5.076  1.00  0.00     0.261 C 
BRANCH   5   6
ATOM      6  O   UNL     1       2.582   1.667   5.486  1.00  0.00    -0.460 OA
BRANCH   6   7
ATOM      7  C   UNL     1       3.173   2.879   5.384  1.00  0.00     0.338 C 
ATOM      8  O   UNL     1       2.465   3.861   5.622  1.00  0.00    -0.246 OA
BRANCH   7   9
ATOM      9  C   UNL     1       4.572   3.147   4.915  1.00  0.00     0.060 A 
ATOM     10  C   UNL     1       5.564   2.201   4.666  1.00  0.00     0.016 A 
ATOM     11  C   UNL     1       4.911   4.511   4.778  1.00  0.00     0.016 A 
ATOM     12  C   UNL     1       6.889   2.598   4.543  1.00  0.00     0.010 A 
ATOM     13  C   UNL     1       6.223   4.915   4.588  1.00  0.00     0.010 A 
ATOM     14  C   UNL     1       7.218   3.951   4.600  1.00  0.00    -0.014 A 
BRANCH  14  15
ATOM     15  C   UNL     1       8.620   4.301   4.762  1.00  0.00     0.031 A 
ATOM     16  C   UNL     1       9.523   3.878   3.666  1.00  0.00     0.074 A 
ATOM     17  C   UNL     1       9.064   4.960   5.852  1.00  0.00     0.049 A 
ATOM     18  N   UNL     1      10.391   2.920   3.675  1.00  0.00    -0.248 NA
ATOM     19  C   UNL     1       9.335   4.505   2.352  1.00  0.00     0.031 C 
ATOM     20  C   UNL     1       8.277   5.644   6.884  1.00  0.00     0.029 A 
ATOM     21  N   UNL     1      10.345   5.225   6.225  1.00  0.00    -0.354 N 
ATOM     22  C   UNL     1      11.033   2.978   2.440  1.00  0.00     0.074 A 
ATOM     23  C   UNL     1      10.218   3.830   1.614  1.00  0.00     0.031 C 
ATOM     24  C   UNL     1       9.092   6.432   7.620  1.00  0.00     0.029 A 
ATOM     25  C   UNL     1      10.465   6.189   7.217  1.00  0.00     0.049 A 
ATOM     26  H   UNL     1      11.122   4.772   5.825  1.00  0.00     0.167 HD
ATOM     27  C   UNL     1      12.306   2.515   2.283  1.00  0.00     0.037 A 
ATOM     28  C   UNL     1      11.610   6.785   7.634  1.00  0.00     0.037 A 
ATOM     29  C   UNL     1      12.673   1.631   3.365  1.00  0.00     0.049 A 
ATOM     30  C   UNL     1      12.731   5.880   7.267  1.00  0.00     0.074 A 
ATOM     31  C   UNL     1      12.172   0.446   3.868  1.00  0.00     0.029 A 
ATOM     32  N   UNL     1      13.512   2.119   4.339  1.00  0.00    -0.354 N 
ATOM     33  N   UNL     1      12.917   4.702   7.802  1.00  0.00    -0.248 NA
ATOM     34  C   UNL     1      13.381   6.087   5.982  1.00  0.00     0.031 C 
ATOM     35  C   UNL     1      12.346   0.539   5.281  1.00  0.00     0.029 A 
ATOM     36  C   UNL     1      12.996   1.743   5.551  1.00  0.00     0.049 A 
ATOM     37  H   UNL     1      14.334   2.642   4.192  1.00  0.00     0.167 HD
ATOM     38  C   UNL     1      13.331   3.895   6.752  1.00  0.00     0.074 A 
ATOM     39  C   UNL     1      13.688   4.822   5.680  1.00  0.00     0.031 C 
ATOM     40  C   UNL     1      13.083   2.551   6.749  1.00  0.00     0.037 A 
BRANCH  27  41
ATOM     41  C   UNL     1      13.352   3.164   1.392  1.00  0.00     0.058 A 
ATOM     42  C   UNL     1      14.638   2.583   1.317  1.00  0.00     0.135 A 
ATOM     43  C   UNL     1      13.256   4.475   0.873  1.00  0.00     0.135 A 
ATOM     44  F   UNL     1      14.850   1.327   1.744  1.00  0.00    -0.206 F 
ATOM     45  C   UNL     1      15.761   3.297   0.896  1.00  0.00     0.059 A 
ATOM     46  C   UNL     1      14.354   5.186   0.402  1.00  0.00     0.059 A 
ATOM     47  F   UNL     1      12.118   5.175   0.878  1.00  0.00    -0.206 F 
ATOM     48  C   UNL     1      15.610   4.612   0.472  1.00  0.00     0.060 A 
BRANCH  48  49
ATOM     49  S   UNL     1      17.069   5.592   0.086  1.00  0.00     0.124 S 
ATOM     50  O   UNL     1      17.663   5.753   1.409  1.00  0.00    -0.237 OA
ATOM     51  O   UNL     1      17.785   4.718  -0.837  1.00  0.00    -0.237 OA
ATOM     52  O   UNL     1      16.511   6.803  -0.509  1.00  0.00    -0.744 OA
ENDBRANCH  48  49
ENDBRANCH  27  41
BRANCH  28  53
ATOM     53  C   UNL     1      11.799   8.219   7.980  1.00  0.00     0.058 A 
ATOM     54  C   UNL     1      12.975   8.674   8.601  1.00  0.00     0.135 A 
ATOM     55  C   UNL     1      10.948   9.218   7.461  1.00  0.00     0.135 A 
ATOM     56  F   UNL     1      13.854   7.794   9.106  1.00  0.00    -0.206 F 
ATOM     57  C   UNL     1      13.312  10.032   8.660  1.00  0.00     0.059 A 
ATOM     58  C   UNL     1      11.256  10.576   7.518  1.00  0.00     0.059 A 
ATOM     59  F   UNL     1       9.828   8.899   6.796  1.00  0.00    -0.206 F 
ATOM     60  C   UNL     1      12.453  10.975   8.097  1.00  0.00     0.060 A 
BRANCH  60  61
ATOM     61  S   UNL     1      12.960  12.710   8.015  1.00  0.00     0.124 S 
ATOM     62  O   UNL     1      12.893  13.110   9.416  1.00  0.00    -0.237 OA
ATOM     63  O   UNL     1      14.298  12.614   7.442  1.00  0.00    -0.237 OA
ATOM     64  O   UNL     1      11.955  13.316   7.145  1.00  0.00    -0.744 OA
ENDBRANCH  60  61
ENDBRANCH  28  53
BRANCH  40  65
ATOM     65  C   UNL     1      12.637   1.900   8.032  1.00  0.00     0.058 A 
ATOM     66  C   UNL     1      11.421   2.176   8.682  1.00  0.00     0.135 A 
ATOM     67  C   UNL     1      13.401   0.834   8.530  1.00  0.00     0.135 A 
ATOM     68  F   UNL     1      10.580   3.106   8.208  1.00  0.00    -0.206 F 
ATOM     69  C   UNL     1      11.003   1.447   9.798  1.00  0.00     0.059 A 
ATOM     70  C   UNL     1      12.989   0.074   9.622  1.00  0.00     0.059 A 
ATOM     71  F   UNL     1      14.542   0.479   7.915  1.00  0.00    -0.206 F 
ATOM     72  C   UNL     1      11.792   0.393  10.258  1.00  0.00     0.060 A 
BRANCH  72  73
ATOM     73  S   UNL     1      11.204  -0.609  11.641  1.00  0.00     0.124 S 
ATOM     74  O   UNL     1      11.360   0.301  12.770  1.00  0.00    -0.237 OA
ATOM     75  O   UNL     1       9.828  -0.908  11.252  1.00  0.00    -0.237 OA
ATOM     76  O   UNL     1      12.104  -1.759  11.637  1.00  0.00    -0.744 OA
ENDBRANCH  72  73
ENDBRANCH  40  65
ENDBRANCH  14  15
ENDBRANCH   7   9
ENDBRANCH   6   7
ENDBRANCH   5   6
ENDBRANCH   4   5
ENDBRANCH   3   4
ENDBRANCH   2   3
ENDBRANCH   1   2
BRANCH   1  77
ATOM     77  O   UNL     1      -0.302   2.006   1.896  1.00  0.00    -0.376 OA
BRANCH  77  78
ATOM     78  C   UNL     1       0.011   0.935   1.011  1.00  0.00     0.202 C 
BRANCH  78  79
ATOM     79  C   UNL     1       0.480   1.444  -0.364  1.00  0.00     0.261 C 
BRANCH  79  80
ATOM     80  O   UNL     1       1.618   2.349  -0.337  1.00  0.00    -0.462 OA
BRANCH  80  81
ATOM     81  C   UNL     1       1.804   3.009  -1.502  1.00  0.00     0.328 C 
ATOM     82  O   UNL     1       1.130   2.748  -2.503  1.00  0.00    -0.250 OA
BRANCH  81  83
ATOM     83  C   UNL     1       2.936   4.087  -1.576  1.00  0.00     0.195 C 
ATOM     84  C   UNL     1       2.407   5.227  -2.457  1.00  0.00     0.046 C 
ATOM     85  N   UNL     1       4.006   4.812  -0.844  1.00  0.00    -0.328 N 
ATOM     86  C   UNL     1       3.605   6.188  -2.691  1.00  0.00     0.001 C 
ATOM     87  C   UNL     1       4.750   5.539  -1.879  1.00  0.00     0.128 C 
ATOM     88  C   UNL     1       3.305   7.607  -2.156  1.00  0.00     0.071 C 
ATOM     89  C   UNL     1       3.909   6.291  -4.190  1.00  0.00     0.071 C 
ATOM     90  C   UNL     1       2.204   8.309  -2.943  1.00  0.00     0.270 C 
ATOM     91  C   UNL     1       2.762   6.984  -4.936  1.00  0.00     0.270 C 
ATOM     92  N   UNL     1       2.488   8.309  -4.377  1.00  0.00    -0.272 N 
ATOM     93  H   UNL     1       1.638   7.968  -4.015  1.00  0.00     0.356 HD
BRANCH  85  94
ATOM     94  C   UNL     1       3.984   5.476   0.378  1.00  0.00     0.225 C 
ATOM     95  O   UNL     1       4.794   6.360   0.671  1.00  0.00    -0.275 OA
BRANCH  94  96
ATOM     96  C   UNL     1       2.970   5.093   1.398  1.00  0.00     0.124 C 
BRANCH  96  97
ATOM     97  C   UNL     1       1.942   6.180   1.674  1.00  0.00     0.154 C 
BRANCH  97  98
ATOM     98  N   UNL     1       0.813   6.133   0.757  1.00  0.00    -0.272 N 
ATOM     99  C   UNL     1       0.011   5.055   0.517  1.00  0.00     0.108 A 
ATOM    100  N   UNL     1       0.440   7.220   0.054  1.00  0.00    -0.182 NA
ATOM    101  C   UNL     1      -0.895   5.435  -0.438  1.00  0.00     0.042 A 
ATOM    102  C   UNL     1      -0.610   6.793  -0.656  1.00  0.00     0.135 A 
ENDBRANCH  97  98
ENDBRANCH  96  97
ENDBRANCH  94  96
ENDBRANCH  85  94
BRANCH  92 103
ATOM    103  C   UNL     1       2.383   9.370  -5.273  1.00  0.00     0.315 C 
ATOM    104  O   UNL     1       2.405   9.165  -6.491  1.00  0.00    -0.231 OA
BRANCH 103 105
ATOM    105  C   UNL     1       2.302  10.809  -4.884  1.00  0.00     0.119 C 
ATOM    106  C   UNL     1       1.575  11.443  -3.735  1.00  0.00     0.019 C 
ATOM    107  C   UNL     1       3.083  11.391  -3.736  1.00  0.00     0.019 C 
ENDBRANCH 103 105
ENDBRANCH  92 103
ENDBRANCH  81  83
ENDBRANCH  80  81
ENDBRANCH  79  80
ENDBRANCH  78  79
ENDBRANCH  77  78
ENDBRANCH   1  77
TORSDOF 26
