REMARK SMILES O=C(OCCOCCOCCOC(=O)c1sccc1S(=O)(=O)Nc1ccc(Cn2cncn2)cc1)c1ccc(-c2c3nc(c(-c4c(F)cc(S(=O)(=O)[O-])cc4F)c4ccc([nH]4)c(-c4c(F)cc(S(=O)(=O)[O-])cc4F)c4nc(c(-c5c(F)cc(S(=O)(=O)[O-])cc5F)c5ccc2[nH]5)C=C4)C=C3)cc1
REMARK SMILES IDX 8 1 7 2 6 3 5 4 4 5 3 6 2 7 1 8 36 9 37 10 101 11 38 12
REMARK SMILES IDX 100 13 39 14 40 15 41 16 94 17 42 18 99 19 93 20 95 21 43 22
REMARK SMILES IDX 98 23 92 24 91 25 44 27 78 28 57 29 77 30 58 31 61 32 76 33
REMARK SMILES IDX 96 34 59 35 60 36 75 38 97 39 62 40 45 41 46 42 55 43 47 44
REMARK SMILES IDX 48 45 54 46 56 47 49 48 50 49 51 50 52 51 53 52 79 53 80 54
REMARK SMILES IDX 89 55 81 56 82 57 88 58 90 59 83 60 84 61 85 62 86 63 87 64
REMARK SMILES IDX 63 65 64 66 73 67 65 68 66 69 72 70 74 71 67 72 68 73 69 74
REMARK SMILES IDX 70 75 71 76 9 77 10 78 11 79 12 80 13 81 14 82 15 83 16 84
REMARK SMILES IDX 19 85 17 86 18 87 20 88 21 89 22 90 23 91 24 93 25 94 35 95
REMARK SMILES IDX 26 96 34 97 27 98 28 99 29 100 30 101 33 102 31 103 32 104
REMARK H PARENT 95 26 61 37 23 92
REMARK Flexibility Score: inf
ROOT
ATOM      1  C   UNL     1       3.581   0.005   1.662  1.00  0.00     0.188 C 
ENDROOT
BRANCH   1   2
ATOM      2  C   UNL     1       3.743  -0.668   0.291  1.00  0.00     0.188 C 
BRANCH   2   3
ATOM      3  O   UNL     1       4.718  -0.192  -0.636  1.00  0.00    -0.376 OA
BRANCH   3   4
ATOM      4  C   UNL     1       5.474   0.967  -0.336  1.00  0.00     0.202 C 
BRANCH   4   5
ATOM      5  C   UNL     1       4.814   2.305  -0.686  1.00  0.00     0.261 C 
BRANCH   5   6
ATOM      6  O   UNL     1       3.434   2.433  -0.298  1.00  0.00    -0.460 OA
BRANCH   6   7
ATOM      7  C   UNL     1       2.301   1.945  -0.853  1.00  0.00     0.338 C 
ATOM      8  O   UNL     1       1.247   2.126  -0.240  1.00  0.00    -0.246 OA
BRANCH   7   9
ATOM      9  C   UNL     1       2.239   1.142  -2.114  1.00  0.00     0.060 A 
ATOM     10  C   UNL     1       3.317   0.863  -2.952  1.00  0.00     0.016 A 
ATOM     11  C   UNL     1       0.978   0.610  -2.461  1.00  0.00     0.016 A 
ATOM     12  C   UNL     1       3.148   0.150  -4.125  1.00  0.00     0.010 A 
ATOM     13  C   UNL     1       0.796  -0.106  -3.643  1.00  0.00     0.010 A 
ATOM     14  C   UNL     1       1.880  -0.278  -4.499  1.00  0.00    -0.014 A 
BRANCH  14  15
ATOM     15  C   UNL     1       1.764  -0.686  -5.891  1.00  0.00     0.031 A 
ATOM     16  C   UNL     1       2.488  -1.904  -6.346  1.00  0.00     0.074 A 
ATOM     17  C   UNL     1       1.145   0.126  -6.767  1.00  0.00     0.049 A 
ATOM     18  N   UNL     1       3.466  -1.990  -7.192  1.00  0.00    -0.248 NA
ATOM     19  C   UNL     1       2.090  -3.186  -5.752  1.00  0.00     0.031 C 
ATOM     20  C   UNL     1       0.233   1.238  -6.478  1.00  0.00     0.029 A 
ATOM     21  N   UNL     1       1.162   0.072  -8.126  1.00  0.00    -0.354 N 
ATOM     22  C   UNL     1       3.696  -3.351  -7.378  1.00  0.00     0.074 A 
ATOM     23  C   UNL     1       2.879  -4.039  -6.408  1.00  0.00     0.031 C 
ATOM     24  C   UNL     1      -0.375   1.615  -7.620  1.00  0.00     0.029 A 
ATOM     25  C   UNL     1       0.202   0.867  -8.722  1.00  0.00     0.049 A 
ATOM     26  H   UNL     1       1.797  -0.481  -8.636  1.00  0.00     0.167 HD
ATOM     27  C   UNL     1       4.427  -3.852  -8.412  1.00  0.00     0.037 A 
ATOM     28  C   UNL     1      -0.170   0.840 -10.020  1.00  0.00     0.037 A 
ATOM     29  C   UNL     1       5.288  -2.874  -9.015  1.00  0.00     0.049 A 
ATOM     30  C   UNL     1       0.958   0.287 -10.808  1.00  0.00     0.074 A 
ATOM     31  C   UNL     1       6.378  -2.142  -8.587  1.00  0.00     0.029 A 
ATOM     32  N   UNL     1       4.912  -2.313 -10.209  1.00  0.00    -0.354 N 
ATOM     33  N   UNL     1       2.103   0.892 -10.980  1.00  0.00    -0.248 NA
ATOM     34  C   UNL     1       0.958  -1.134 -11.123  1.00  0.00     0.031 C 
ATOM     35  C   UNL     1       6.321  -0.915  -9.310  1.00  0.00     0.029 A 
ATOM     36  C   UNL     1       5.195  -0.971 -10.133  1.00  0.00     0.049 A 
ATOM     37  H   UNL     1       4.513  -2.783 -10.976  1.00  0.00     0.167 HD
ATOM     38  C   UNL     1       3.044  -0.125 -11.044  1.00  0.00     0.074 A 
ATOM     39  C   UNL     1       2.270  -1.341 -11.255  1.00  0.00     0.031 C 
ATOM     40  C   UNL     1       4.339   0.074 -10.656  1.00  0.00     0.037 A 
BRANCH  27  41
ATOM     41  C   UNL     1       4.168  -5.201  -9.027  1.00  0.00     0.058 A 
ATOM     42  C   UNL     1       5.153  -5.852  -9.794  1.00  0.00     0.135 A 
ATOM     43  C   UNL     1       2.875  -5.767  -9.075  1.00  0.00     0.135 A 
ATOM     44  F   UNL     1       6.405  -5.371  -9.849  1.00  0.00    -0.206 F 
ATOM     45  C   UNL     1       4.868  -6.981 -10.567  1.00  0.00     0.059 A 
ATOM     46  C   UNL     1       2.580  -6.917  -9.799  1.00  0.00     0.059 A 
ATOM     47  F   UNL     1       1.830  -5.173  -8.482  1.00  0.00    -0.206 F 
ATOM     48  C   UNL     1       3.575  -7.500 -10.569  1.00  0.00     0.060 A 
BRANCH  48  49
ATOM     49  S   UNL     1       3.178  -8.908 -11.623  1.00  0.00     0.124 S 
ATOM     50  O   UNL     1       3.091  -8.274 -12.933  1.00  0.00    -0.237 OA
ATOM     51  O   UNL     1       4.324  -9.787 -11.413  1.00  0.00    -0.237 OA
ATOM     52  O   UNL     1       1.917  -9.393 -11.069  1.00  0.00    -0.744 OA
ENDBRANCH  48  49
ENDBRANCH  27  41
BRANCH  28  53
ATOM     53  C   UNL     1      -1.572   0.899 -10.493  1.00  0.00     0.058 A 
ATOM     54  C   UNL     1      -1.881   1.156 -11.836  1.00  0.00     0.135 A 
ATOM     55  C   UNL     1      -2.640   0.470  -9.673  1.00  0.00     0.135 A 
ATOM     56  F   UNL     1      -0.915   1.526 -12.690  1.00  0.00    -0.206 F 
ATOM     57  C   UNL     1      -3.171   0.979 -12.342  1.00  0.00     0.059 A 
ATOM     58  C   UNL     1      -3.935   0.309 -10.149  1.00  0.00     0.059 A 
ATOM     59  F   UNL     1      -2.440   0.107  -8.397  1.00  0.00    -0.206 F 
ATOM     60  C   UNL     1      -4.190   0.545 -11.492  1.00  0.00     0.060 A 
BRANCH  60  61
ATOM     61  S   UNL     1      -5.821   0.173 -12.171  1.00  0.00     0.124 S 
ATOM     62  O   UNL     1      -6.307   1.502 -12.525  1.00  0.00    -0.237 OA
ATOM     63  O   UNL     1      -5.493  -0.707 -13.287  1.00  0.00    -0.237 OA
ATOM     64  O   UNL     1      -6.514  -0.469 -11.057  1.00  0.00    -0.744 OA
ENDBRANCH  60  61
ENDBRANCH  28  53
BRANCH  40  65
ATOM     65  C   UNL     1       4.807   1.495 -10.464  1.00  0.00     0.058 A 
ATOM     66  C   UNL     1       4.319   2.337  -9.449  1.00  0.00     0.135 A 
ATOM     67  C   UNL     1       5.888   1.970 -11.224  1.00  0.00     0.135 A 
ATOM     68  F   UNL     1       3.364   1.914  -8.609  1.00  0.00    -0.206 F 
ATOM     69  C   UNL     1       4.852   3.607  -9.225  1.00  0.00     0.059 A 
ATOM     70  C   UNL     1       6.455   3.224 -10.999  1.00  0.00     0.059 A 
ATOM     71  F   UNL     1       6.445   1.187 -12.164  1.00  0.00    -0.206 F 
ATOM     72  C   UNL     1       5.923   4.043 -10.004  1.00  0.00     0.060 A 
BRANCH  72  73
ATOM     73  S   UNL     1       6.681   5.643  -9.636  1.00  0.00     0.124 S 
ATOM     74  O   UNL     1       5.725   6.576 -10.222  1.00  0.00    -0.237 OA
ATOM     75  O   UNL     1       6.749   5.637  -8.177  1.00  0.00    -0.237 OA
ATOM     76  O   UNL     1       7.976   5.568 -10.309  1.00  0.00    -0.744 OA
ENDBRANCH  72  73
ENDBRANCH  40  65
ENDBRANCH  14  15
ENDBRANCH   7   9
ENDBRANCH   6   7
ENDBRANCH   5   6
ENDBRANCH   4   5
ENDBRANCH   3   4
ENDBRANCH   2   3
ENDBRANCH   1   2
BRANCH   1  77
ATOM     77  O   UNL     1       4.778   0.057   2.437  1.00  0.00    -0.376 OA
BRANCH  77  78
ATOM     78  C   UNL     1       5.093  -1.111   3.184  1.00  0.00     0.202 C 
BRANCH  78  79
ATOM     79  C   UNL     1       5.815  -2.201   2.387  1.00  0.00     0.261 C 
BRANCH  79  80
ATOM     80  O   UNL     1       5.149  -3.472   2.164  1.00  0.00    -0.459 OA
BRANCH  80  81
ATOM     81  C   UNL     1       3.804  -3.577   2.039  1.00  0.00     0.349 C 
ATOM     82  O   UNL     1       2.981  -2.704   2.251  1.00  0.00    -0.245 OA
BRANCH  81  83
ATOM     83  C   UNL     1       3.456  -4.873   1.550  1.00  0.00     0.133 A 
ATOM     84  S   UNL     1       2.979  -4.989  -0.092  1.00  0.00    -0.136 S 
ATOM     85  C   UNL     1       3.337  -6.069   2.215  1.00  0.00     0.113 A 
ATOM     86  C   UNL     1       2.648  -6.657   0.060  1.00  0.00     0.067 A 
ATOM     87  C   UNL     1       2.885  -7.112   1.340  1.00  0.00     0.035 A 
BRANCH  85  88
ATOM     88  S   UNL     1       3.680  -6.336   3.893  1.00  0.00     0.263 S 
ATOM     89  O   UNL     1       2.479  -6.955   4.407  1.00  0.00    -0.201 OA
ATOM     90  O   UNL     1       4.935  -7.057   3.846  1.00  0.00    -0.201 OA
BRANCH  88  91
ATOM     91  N   UNL     1       4.003  -4.937   4.746  1.00  0.00    -0.280 N 
ATOM     92  H   UNL     1       4.943  -4.773   4.990  1.00  0.00     0.180 HD
BRANCH  91  93
ATOM     93  C   UNL     1       3.051  -3.954   5.158  1.00  0.00     0.049 A 
ATOM     94  C   UNL     1       3.562  -2.841   5.840  1.00  0.00     0.027 A 
ATOM     95  C   UNL     1       1.741  -3.903   4.694  1.00  0.00     0.027 A 
ATOM     96  C   UNL     1       2.840  -1.636   5.908  1.00  0.00     0.008 A 
ATOM     97  C   UNL     1       1.023  -2.701   4.755  1.00  0.00     0.008 A 
ATOM     98  C   UNL     1       1.595  -1.528   5.281  1.00  0.00    -0.026 A 
BRANCH  98  99
ATOM     99  C   UNL     1       0.902  -0.220   4.946  1.00  0.00     0.181 C 
BRANCH  99 100
ATOM    100  N   UNL     1       1.402   0.979   5.600  1.00  0.00    -0.249 N 
ATOM    101  C   UNL     1       2.471   1.743   5.232  1.00  0.00     0.220 A 
ATOM    102  N   UNL     1       0.657   1.619   6.527  1.00  0.00    -0.160 NA
ATOM    103  N   UNL     1       2.470   2.863   5.919  1.00  0.00    -0.224 NA
ATOM    104  C   UNL     1       1.332   2.762   6.664  1.00  0.00     0.246 A 
ENDBRANCH  99 100
ENDBRANCH  98  99
ENDBRANCH  91  93
ENDBRANCH  88  91
ENDBRANCH  85  88
ENDBRANCH  81  83
ENDBRANCH  80  81
ENDBRANCH  79  80
ENDBRANCH  78  79
ENDBRANCH  77  78
ENDBRANCH   1  77
TORSDOF 25
