REMARK SMILES COc1ccc2c(c1)c(Cc1nc(-c3ccc(C(=O)OCCOCCOCCOC(=O)c4ccc(-c5c6nc(c(-c7c(F)cc(S(=O)(=O)[O-])cc7F)c7ccc([nH]7)c(-c7c(F)cc(S(=O)(=O)[O-])cc7F)c7nc(c(-c8c(F)cc(S(=O)(=O)[O-])cc8F)c8ccc5[nH]8)C=C7)C=C6)cc4)cc3)cs1)c(C)n2C(=O)c1ccc(Cl)cc1
REMARK SMILES IDX 24 1 23 2 22 3 21 4 20 5 18 6 19 7 17 8 14 9 15 10 99 11
REMARK SMILES IDX 16 12 98 13 13 14 11 15 12 16 101 17 100 18 10 19 9 20 3 21
REMARK SMILES IDX 4 22 8 23 5 24 7 25 6 26 104 27 102 28 103 29 2 30 1 31
REMARK SMILES IDX 105 32 106 33 107 34 108 35 113 36 109 37 112 38 110 39
REMARK SMILES IDX 111 40 25 41 26 42 27 43 28 44 29 45 30 46 31 47 32 48 33 49
REMARK SMILES IDX 97 50 34 51 96 52 35 53 36 54 37 55 90 56 38 57 95 58 89 59
REMARK SMILES IDX 91 60 39 61 94 62 88 63 87 64 40 66 74 67 53 68 73 69 54 70
REMARK SMILES IDX 57 71 72 72 92 73 55 74 56 75 71 77 93 78 58 79 41 80 42 81
REMARK SMILES IDX 51 82 43 83 44 84 50 85 52 86 45 87 46 88 47 89 48 90 49 91
REMARK SMILES IDX 75 92 76 93 85 94 77 95 78 96 84 97 86 98 79 99 80 100
REMARK SMILES IDX 81 101 82 102 83 103 59 104 60 105 69 106 61 107 62 108
REMARK SMILES IDX 68 109 70 110 63 111 64 112 65 113 66 114 67 115
REMARK H PARENT 91 65 57 76
REMARK Flexibility Score: inf
ROOT
ATOM      1  C   UNL     1      -4.297  -6.947   4.455  1.00  0.00     0.188 C 
ENDROOT
BRANCH   1   2
ATOM      2  O   UNL     1      -4.611  -6.784   5.816  1.00  0.00    -0.376 OA
BRANCH   2   3
ATOM      3  C   UNL     1      -3.800  -5.918   6.569  1.00  0.00     0.202 C 
BRANCH   3   4
ATOM      4  C   UNL     1      -3.259  -4.615   5.941  1.00  0.00     0.261 C 
BRANCH   4   5
ATOM      5  O   UNL     1      -3.682  -4.330   4.586  1.00  0.00    -0.460 OA
BRANCH   5   6
ATOM      6  C   UNL     1      -2.695  -3.975   3.718  1.00  0.00     0.338 C 
ATOM      7  O   UNL     1      -1.532  -3.758   4.017  1.00  0.00    -0.246 OA
BRANCH   6   8
ATOM      8  C   UNL     1      -3.117  -4.100   2.291  1.00  0.00     0.060 A 
ATOM      9  C   UNL     1      -3.379  -4.445  -0.537  1.00  0.00     0.001 A 
ATOM     10  C   UNL     1      -2.895  -5.447   0.283  1.00  0.00     0.011 A 
ATOM     11  C   UNL     1      -3.703  -3.232   0.085  1.00  0.00     0.011 A 
ATOM     12  C   UNL     1      -2.873  -5.315   1.669  1.00  0.00     0.016 A 
ATOM     13  C   UNL     1      -3.541  -3.046   1.489  1.00  0.00     0.016 A 
BRANCH   9  14
ATOM     14  C   UNL     1      -3.424  -4.698  -1.981  1.00  0.00     0.081 A 
ATOM     15  C   UNL     1      -3.013  -4.203  -4.096  1.00  0.00     0.098 A 
ATOM     16  N   UNL     1      -3.299  -3.692  -2.912  1.00  0.00    -0.241 NA
ATOM     17  S   UNL     1      -3.223  -5.903  -4.225  1.00  0.00    -0.126 S 
ATOM     18  C   UNL     1      -3.527  -5.963  -2.541  1.00  0.00     0.095 A 
BRANCH  15  19
ATOM     19  C   UNL     1      -2.597  -3.404  -5.296  1.00  0.00     0.105 C 
BRANCH  19  20
ATOM     20  C   UNL     1      -1.137  -3.014  -5.341  1.00  0.00    -0.012 A 
ATOM     21  C   UNL     1      -0.071  -0.795  -2.433  1.00  0.00     0.119 A 
ATOM     22  C   UNL     1       0.910  -0.135  -3.157  1.00  0.00     0.048 A 
ATOM     23  C   UNL     1      -0.784  -1.815  -3.051  1.00  0.00     0.057 A 
ATOM     24  C   UNL     1       1.325  -0.609  -4.421  1.00  0.00     0.031 A 
ATOM     25  C   UNL     1      -0.455  -2.249  -4.353  1.00  0.00     0.008 A 
ATOM     26  C   UNL     1       0.696  -1.744  -4.960  1.00  0.00     0.057 A 
ATOM     27  N   UNL     1       0.959  -2.536  -6.083  1.00  0.00    -0.280 N 
ATOM     28  C   UNL     1      -0.274  -3.123  -6.433  1.00  0.00     0.028 A 
ATOM     29  C   UNL     1      -0.592  -3.736  -7.758  1.00  0.00     0.065 C 
BRANCH  21  30
ATOM     30  O   UNL     1      -0.468  -0.509  -1.156  1.00  0.00    -0.497 OA
ATOM     31  C   UNL     1       0.541   0.035  -0.309  1.00  0.00     0.278 C 
ENDBRANCH  21  30
BRANCH  27  32
ATOM     32  C   UNL     1       2.200  -2.665  -6.775  1.00  0.00     0.262 C 
ATOM     33  O   UNL     1       2.175  -3.069  -7.941  1.00  0.00    -0.268 OA
BRANCH  32  34
ATOM     34  C   UNL     1       3.565  -2.421  -6.251  1.00  0.00     0.040 A 
ATOM     35  C   UNL     1       4.099  -3.197  -5.214  1.00  0.00     0.015 A 
ATOM     36  C   UNL     1       4.405  -1.562  -6.975  1.00  0.00     0.015 A 
ATOM     37  C   UNL     1       5.452  -3.057  -4.861  1.00  0.00     0.021 A 
ATOM     38  C   UNL     1       5.751  -1.421  -6.619  1.00  0.00     0.021 A 
ATOM     39  C   UNL     1       6.267  -2.160  -5.556  1.00  0.00     0.041 A 
ATOM     40  Cl  UNL     1       7.926  -1.987  -5.127  1.00  0.00    -0.084 Cl
ENDBRANCH  32  34
ENDBRANCH  27  32
ENDBRANCH  19  20
ENDBRANCH  15  19
ENDBRANCH   9  14
ENDBRANCH   6   8
ENDBRANCH   5   6
ENDBRANCH   4   5
ENDBRANCH   3   4
ENDBRANCH   2   3
ENDBRANCH   1   2
BRANCH   1  41
ATOM     41  C   UNL     1      -5.405  -6.404   3.523  1.00  0.00     0.188 C 
BRANCH  41  42
ATOM     42  O   UNL     1      -6.638  -5.992   4.098  1.00  0.00    -0.376 OA
BRANCH  42  43
ATOM     43  C   UNL     1      -7.273  -6.903   4.984  1.00  0.00     0.202 C 
BRANCH  43  44
ATOM     44  C   UNL     1      -7.511  -8.332   4.458  1.00  0.00     0.261 C 
BRANCH  44  45
ATOM     45  O   UNL     1      -6.290  -9.042   4.128  1.00  0.00    -0.460 OA
BRANCH  45  46
ATOM     46  C   UNL     1      -6.235  -9.651   2.897  1.00  0.00     0.338 C 
ATOM     47  O   UNL     1      -7.166  -9.893   2.185  1.00  0.00    -0.246 OA
BRANCH  46  48
ATOM     48  C   UNL     1      -4.800  -9.628   2.429  1.00  0.00     0.060 A 
ATOM     49  C   UNL     1      -3.700 -10.001   3.211  1.00  0.00     0.016 A 
ATOM     50  C   UNL     1      -4.559  -8.982   1.219  1.00  0.00     0.016 A 
ATOM     51  C   UNL     1      -2.396  -9.538   2.884  1.00  0.00     0.010 A 
ATOM     52  C   UNL     1      -3.256  -8.575   0.889  1.00  0.00     0.010 A 
ATOM     53  C   UNL     1      -2.160  -8.721   1.764  1.00  0.00    -0.014 A 
BRANCH  53  54
ATOM     54  C   UNL     1      -0.758  -8.396   1.289  1.00  0.00     0.031 A 
ATOM     55  C   UNL     1      -0.247  -9.609   0.624  1.00  0.00     0.074 A 
ATOM     56  C   UNL     1       0.089  -7.313   1.299  1.00  0.00     0.049 A 
ATOM     57  N   UNL     1       0.520 -10.469   1.204  1.00  0.00    -0.248 NA
ATOM     58  C   UNL     1      -0.835 -10.067  -0.640  1.00  0.00     0.031 C 
ATOM     59  C   UNL     1      -0.087  -5.992   1.892  1.00  0.00     0.029 A 
ATOM     60  N   UNL     1       1.336  -7.129   0.702  1.00  0.00    -0.354 N 
ATOM     61  C   UNL     1       0.747 -11.432   0.245  1.00  0.00     0.074 A 
ATOM     62  C   UNL     1      -0.315 -11.294  -0.716  1.00  0.00     0.031 C 
ATOM     63  C   UNL     1       0.754  -5.071   1.364  1.00  0.00     0.029 A 
ATOM     64  C   UNL     1       1.778  -5.783   0.626  1.00  0.00     0.049 A 
ATOM     65  H   UNL     1       1.871  -7.879   0.356  1.00  0.00     0.167 HD
ATOM     66  C   UNL     1       1.975 -12.001   0.147  1.00  0.00     0.037 A 
ATOM     67  C   UNL     1       2.969  -5.238   0.227  1.00  0.00     0.037 A 
ATOM     68  C   UNL     1       2.750 -11.790   1.353  1.00  0.00     0.049 A 
ATOM     69  C   UNL     1       3.991  -6.278   0.364  1.00  0.00     0.074 A 
ATOM     70  C   UNL     1       2.537 -12.018   2.702  1.00  0.00     0.029 A 
ATOM     71  N   UNL     1       3.803 -10.911   1.287  1.00  0.00    -0.354 N 
ATOM     72  N   UNL     1       4.469  -6.649   1.514  1.00  0.00    -0.248 NA
ATOM     73  C   UNL     1       4.178  -7.203  -0.736  1.00  0.00     0.031 C 
ATOM     74  C   UNL     1       3.190 -10.951   3.384  1.00  0.00     0.029 A 
ATOM     75  C   UNL     1       3.827 -10.159   2.433  1.00  0.00     0.049 A 
ATOM     76  H   UNL     1       4.438 -10.834   0.538  1.00  0.00     0.167 HD
ATOM     77  C   UNL     1       4.544  -8.021   1.403  1.00  0.00     0.074 A 
ATOM     78  C   UNL     1       4.492  -8.292  -0.033  1.00  0.00     0.031 C 
ATOM     79  C   UNL     1       4.326  -8.804   2.496  1.00  0.00     0.037 A 
BRANCH  66  80
ATOM     80  C   UNL     1       2.594 -12.364  -1.180  1.00  0.00     0.058 A 
ATOM     81  C   UNL     1       3.790 -13.104  -1.190  1.00  0.00     0.135 A 
ATOM     82  C   UNL     1       2.209 -11.814  -2.427  1.00  0.00     0.135 A 
ATOM     83  F   UNL     1       4.266 -13.644  -0.057  1.00  0.00    -0.206 F 
ATOM     84  C   UNL     1       4.571 -13.239  -2.335  1.00  0.00     0.059 A 
ATOM     85  C   UNL     1       2.934 -11.995  -3.593  1.00  0.00     0.059 A 
ATOM     86  F   UNL     1       1.168 -10.986  -2.571  1.00  0.00    -0.206 F 
ATOM     87  C   UNL     1       4.135 -12.675  -3.531  1.00  0.00     0.060 A 
BRANCH  87  88
ATOM     88  S   UNL     1       5.172 -12.777  -4.994  1.00  0.00     0.124 S 
ATOM     89  O   UNL     1       6.278 -11.904  -4.621  1.00  0.00    -0.237 OA
ATOM     90  O   UNL     1       5.467 -14.205  -5.051  1.00  0.00    -0.237 OA
ATOM     91  O   UNL     1       4.303 -12.278  -6.055  1.00  0.00    -0.744 OA
ENDBRANCH  87  88
ENDBRANCH  66  80
BRANCH  67  92
ATOM     92  C   UNL     1       3.369  -3.888  -0.256  1.00  0.00     0.058 A 
ATOM     93  C   UNL     1       4.537  -3.188   0.120  1.00  0.00     0.135 A 
ATOM     94  C   UNL     1       2.715  -3.394  -1.387  1.00  0.00     0.135 A 
ATOM     95  F   UNL     1       5.312  -3.657   1.107  1.00  0.00    -0.206 F 
ATOM     96  C   UNL     1       4.971  -2.011  -0.527  1.00  0.00     0.059 A 
ATOM     97  C   UNL     1       3.166  -2.264  -2.067  1.00  0.00     0.059 A 
ATOM     98  F   UNL     1       1.679  -4.065  -1.916  1.00  0.00    -0.206 F 
ATOM     99  C   UNL     1       4.250  -1.528  -1.610  1.00  0.00     0.060 A 
BRANCH  99 100
ATOM    100  S   UNL     1       4.697   0.029  -2.434  1.00  0.00     0.124 S 
ATOM    101  O   UNL     1       6.117   0.177  -2.139  1.00  0.00    -0.237 OA
ATOM    102  O   UNL     1       4.385  -0.216  -3.837  1.00  0.00    -0.237 OA
ATOM    103  O   UNL     1       3.810   0.981  -1.771  1.00  0.00    -0.744 OA
ENDBRANCH  99 100
ENDBRANCH  67  92
BRANCH  79 104
ATOM    104  C   UNL     1       4.389  -8.151   3.857  1.00  0.00     0.058 A 
ATOM    105  C   UNL     1       3.467  -7.204   4.341  1.00  0.00     0.135 A 
ATOM    106  C   UNL     1       5.350  -8.624   4.761  1.00  0.00     0.135 A 
ATOM    107  F   UNL     1       2.472  -6.752   3.566  1.00  0.00    -0.206 F 
ATOM    108  C   UNL     1       3.503  -6.748   5.663  1.00  0.00     0.059 A 
ATOM    109  C   UNL     1       5.388  -8.206   6.089  1.00  0.00     0.059 A 
ATOM    110  F   UNL     1       6.235  -9.556   4.370  1.00  0.00    -0.206 F 
ATOM    111  C   UNL     1       4.460  -7.268   6.535  1.00  0.00     0.060 A 
BRANCH 111 112
ATOM    112  S   UNL     1       4.421  -6.790   8.278  1.00  0.00     0.124 S 
ATOM    113  O   UNL     1       4.844  -5.395   8.229  1.00  0.00    -0.237 OA
ATOM    114  O   UNL     1       3.023  -7.017   8.636  1.00  0.00    -0.237 OA
ATOM    115  O   UNL     1       5.370  -7.707   8.905  1.00  0.00    -0.744 OA
ENDBRANCH 111 112
ENDBRANCH  79 104
ENDBRANCH  53  54
ENDBRANCH  46  48
ENDBRANCH  45  46
ENDBRANCH  44  45
ENDBRANCH  43  44
ENDBRANCH  42  43
ENDBRANCH  41  42
ENDBRANCH   1  41
TORSDOF 26
