REMARK SMILES CCCCCNC(=O)N1Cc2nc[nH]c2C[C@@H]1C(=O)OCCOCCOCCOC(=O)c1ccc(-c2c3nc(c(-c4c(F)cc(S(=O)(=O)[O-])cc4F)c4ccc([nH]4)c(-c4c(F)cc(S(=O)(=O)[O-])cc4F)c4nc(c(-c5c(F)cc(S(=O)(=O)[O-])cc5F)c5ccc2[nH]5)C=C4)C=C3)cc1
REMARK SMILES IDX 24 1 23 2 22 3 21 4 20 5 18 6 19 7 17 8 9 9 10 10 11 11
REMARK SMILES IDX 16 12 12 13 15 14 13 15 14 16 7 18 6 19 8 21 5 22 4 23 3 24
REMARK SMILES IDX 2 25 1 26 25 27 26 28 27 29 28 30 29 31 30 32 31 33 32 34
REMARK SMILES IDX 33 35 97 36 34 37 96 38 35 39 36 40 37 41 90 42 38 43 95 44
REMARK SMILES IDX 89 45 91 46 39 47 94 48 88 49 87 50 40 52 74 53 53 54 73 55
REMARK SMILES IDX 54 56 57 57 72 58 92 59 55 60 56 61 71 63 93 64 58 65 41 66
REMARK SMILES IDX 42 67 51 68 43 69 44 70 50 71 52 72 45 73 46 74 47 75 48 76
REMARK SMILES IDX 49 77 75 78 76 79 85 80 77 81 78 82 84 83 86 84 79 85 80 86
REMARK SMILES IDX 81 87 82 88 83 89 59 90 60 91 69 92 61 93 62 94 68 95 70 96
REMARK SMILES IDX 63 97 64 98 65 99 66 100 67 101
REMARK H PARENT 14 17 6 20 91 51 57 62
REMARK Flexibility Score: inf
ROOT
ATOM      1  C   UNL     1      -3.682  -0.399  -2.810  1.00  0.00     0.188 C 
ENDROOT
BRANCH   1   2
ATOM      2  O   UNL     1      -3.598  -0.921  -1.500  1.00  0.00    -0.376 OA
BRANCH   2   3
ATOM      3  C   UNL     1      -2.653  -0.276  -0.663  1.00  0.00     0.202 C 
BRANCH   3   4
ATOM      4  C   UNL     1      -3.027   1.114  -0.122  1.00  0.00     0.261 C 
BRANCH   4   5
ATOM      5  O   UNL     1      -3.407   2.189  -1.004  1.00  0.00    -0.462 OA
BRANCH   5   6
ATOM      6  C   UNL     1      -2.640   2.549  -2.059  1.00  0.00     0.329 C 
ATOM      7  O   UNL     1      -1.697   1.897  -2.494  1.00  0.00    -0.250 OA
BRANCH   6   8
ATOM      8  C   UNL     1      -3.021   3.928  -2.599  1.00  0.00     0.203 C 
ATOM      9  N   UNL     1      -2.261   5.104  -2.056  1.00  0.00    -0.305 N 
ATOM     10  C   UNL     1      -2.488   6.396  -2.766  1.00  0.00     0.180 C 
ATOM     11  C   UNL     1      -3.852   6.465  -3.384  1.00  0.00     0.081 A 
ATOM     12  C   UNL     1      -4.562   4.159  -2.652  1.00  0.00     0.093 C 
ATOM     13  N   UNL     1      -4.306   7.473  -4.198  1.00  0.00    -0.240 NA
ATOM     14  C   UNL     1      -4.778   5.452  -3.333  1.00  0.00     0.042 A 
ATOM     15  C   UNL     1      -5.483   7.066  -4.631  1.00  0.00     0.197 A 
ATOM     16  N   UNL     1      -5.816   5.834  -4.129  1.00  0.00    -0.348 N 
ATOM     17  H   UNL     1      -6.641   5.327  -4.309  1.00  0.00     0.167 HD
BRANCH   9  18
ATOM     18  C   UNL     1      -1.972   5.200  -0.713  1.00  0.00     0.318 C 
ATOM     19  N   UNL     1      -0.968   4.416  -0.210  1.00  0.00    -0.338 N 
ATOM     20  H   UNL     1      -0.803   4.515   0.755  1.00  0.00     0.165 HD
ATOM     21  O   UNL     1      -2.488   6.032   0.031  1.00  0.00    -0.249 OA
BRANCH  19  22
ATOM     22  C   UNL     1      -0.112   3.460  -0.888  1.00  0.00     0.117 C 
BRANCH  22  23
ATOM     23  C   UNL     1       1.328   3.333  -0.413  1.00  0.00     0.021 C 
BRANCH  23  24
ATOM     24  C   UNL     1       1.532   2.659   0.949  1.00  0.00     0.002 C 
BRANCH  24  25
ATOM     25  C   UNL     1       0.888   1.284   1.181  1.00  0.00    -0.003 C 
ATOM     26  C   UNL     1       1.202   0.223   0.137  1.00  0.00     0.004 C 
ENDBRANCH  24  25
ENDBRANCH  23  24
ENDBRANCH  22  23
ENDBRANCH  19  22
ENDBRANCH   9  18
ENDBRANCH   6   8
ENDBRANCH   5   6
ENDBRANCH   4   5
ENDBRANCH   3   4
ENDBRANCH   2   3
ENDBRANCH   1   2
BRANCH   1  27
ATOM     27  C   UNL     1      -4.852   0.568  -3.032  1.00  0.00     0.188 C 
BRANCH  27  28
ATOM     28  O   UNL     1      -5.820   0.846  -2.022  1.00  0.00    -0.376 OA
BRANCH  28  29
ATOM     29  C   UNL     1      -6.229  -0.133  -1.067  1.00  0.00     0.202 C 
BRANCH  29  30
ATOM     30  C   UNL     1      -6.798  -1.477  -1.514  1.00  0.00     0.261 C 
BRANCH  30  31
ATOM     31  O   UNL     1      -6.170  -1.980  -2.669  1.00  0.00    -0.460 OA
BRANCH  31  32
ATOM     32  C   UNL     1      -6.690  -1.505  -3.810  1.00  0.00     0.338 C 
ATOM     33  O   UNL     1      -7.625  -0.711  -3.936  1.00  0.00    -0.246 OA
BRANCH  32  34
ATOM     34  C   UNL     1      -5.950  -2.087  -4.926  1.00  0.00     0.060 A 
ATOM     35  C   UNL     1      -6.387  -1.712  -6.192  1.00  0.00     0.016 A 
ATOM     36  C   UNL     1      -5.190  -3.241  -4.684  1.00  0.00     0.016 A 
ATOM     37  C   UNL     1      -6.441  -2.702  -7.129  1.00  0.00     0.010 A 
ATOM     38  C   UNL     1      -5.262  -4.235  -5.611  1.00  0.00     0.010 A 
ATOM     39  C   UNL     1      -6.008  -3.979  -6.753  1.00  0.00    -0.014 A 
BRANCH  39  40
ATOM     40  C   UNL     1      -6.306  -5.065  -7.643  1.00  0.00     0.031 A 
ATOM     41  C   UNL     1      -5.412  -5.036  -8.809  1.00  0.00     0.074 A 
ATOM     42  C   UNL     1      -7.244  -5.981  -7.345  1.00  0.00     0.049 A 
ATOM     43  N   UNL     1      -5.708  -4.678 -10.011  1.00  0.00    -0.248 NA
ATOM     44  C   UNL     1      -3.965  -5.142  -8.547  1.00  0.00     0.031 C 
ATOM     45  C   UNL     1      -7.955  -6.185  -6.078  1.00  0.00     0.029 A 
ATOM     46  N   UNL     1      -7.690  -7.007  -8.107  1.00  0.00    -0.354 N 
ATOM     47  C   UNL     1      -4.519  -4.802 -10.715  1.00  0.00     0.074 A 
ATOM     48  C   UNL     1      -3.468  -4.807  -9.736  1.00  0.00     0.031 C 
ATOM     49  C   UNL     1      -8.549  -7.402  -6.095  1.00  0.00     0.029 A 
ATOM     50  C   UNL     1      -8.367  -7.998  -7.407  1.00  0.00     0.049 A 
ATOM     51  H   UNL     1      -7.545  -7.048  -9.080  1.00  0.00     0.167 HD
ATOM     52  C   UNL     1      -4.533  -5.245 -11.999  1.00  0.00     0.037 A 
ATOM     53  C   UNL     1      -8.645  -9.241  -7.883  1.00  0.00     0.037 A 
ATOM     54  C   UNL     1      -5.840  -5.060 -12.587  1.00  0.00     0.049 A 
ATOM     55  C   UNL     1      -8.523  -9.165  -9.368  1.00  0.00     0.074 A 
ATOM     56  C   UNL     1      -6.660  -3.965 -12.788  1.00  0.00     0.029 A 
ATOM     57  N   UNL     1      -6.650  -6.165 -12.697  1.00  0.00    -0.354 N 
ATOM     58  N   UNL     1      -9.334  -8.481 -10.131  1.00  0.00    -0.248 NA
ATOM     59  C   UNL     1      -7.223  -9.460  -9.955  1.00  0.00     0.031 C 
ATOM     60  C   UNL     1      -7.983  -4.441 -12.560  1.00  0.00     0.029 A 
ATOM     61  C   UNL     1      -7.915  -5.811 -12.303  1.00  0.00     0.049 A 
ATOM     62  H   UNL     1      -6.370  -7.058 -13.005  1.00  0.00     0.167 HD
ATOM     63  C   UNL     1      -8.518  -7.906 -11.097  1.00  0.00     0.074 A 
ATOM     64  C   UNL     1      -7.242  -8.608 -10.984  1.00  0.00     0.031 C 
ATOM     65  C   UNL     1      -8.858  -6.724 -11.692  1.00  0.00     0.037 A 
BRANCH  52  66
ATOM     66  C   UNL     1      -3.515  -6.223 -12.540  1.00  0.00     0.058 A 
ATOM     67  C   UNL     1      -3.579  -6.570 -13.903  1.00  0.00     0.135 A 
ATOM     68  C   UNL     1      -2.668  -7.036 -11.748  1.00  0.00     0.135 A 
ATOM     69  F   UNL     1      -4.350  -5.872 -14.751  1.00  0.00    -0.206 F 
ATOM     70  C   UNL     1      -2.923  -7.686 -14.420  1.00  0.00     0.059 A 
ATOM     71  C   UNL     1      -1.962  -8.117 -12.254  1.00  0.00     0.059 A 
ATOM     72  F   UNL     1      -2.540  -6.894 -10.425  1.00  0.00    -0.206 F 
ATOM     73  C   UNL     1      -2.129  -8.462 -13.581  1.00  0.00     0.060 A 
BRANCH  73  74
ATOM     74  S   UNL     1      -1.351  -9.951 -14.218  1.00  0.00     0.124 S 
ATOM     75  O   UNL     1      -2.508 -10.810 -14.434  1.00  0.00    -0.237 OA
ATOM     76  O   UNL     1      -0.687  -9.450 -15.417  1.00  0.00    -0.237 OA
ATOM     77  O   UNL     1      -0.457 -10.351 -13.135  1.00  0.00    -0.744 OA
ENDBRANCH  73  74
ENDBRANCH  52  66
BRANCH  53  78
ATOM     78  C   UNL     1      -8.616 -10.541  -7.155  1.00  0.00     0.058 A 
ATOM     79  C   UNL     1      -9.055 -11.721  -7.786  1.00  0.00     0.135 A 
ATOM     80  C   UNL     1      -7.890 -10.715  -5.960  1.00  0.00     0.135 A 
ATOM     81  F   UNL     1      -9.748 -11.655  -8.933  1.00  0.00    -0.206 F 
ATOM     82  C   UNL     1      -8.729 -12.994  -7.305  1.00  0.00     0.059 A 
ATOM     83  C   UNL     1      -7.564 -11.974  -5.454  1.00  0.00     0.059 A 
ATOM     84  F   UNL     1      -7.387  -9.668  -5.291  1.00  0.00    -0.206 F 
ATOM     85  C   UNL     1      -7.957 -13.110  -6.151  1.00  0.00     0.060 A 
BRANCH  85  86
ATOM     86  S   UNL     1      -7.355 -14.738  -5.642  1.00  0.00     0.124 S 
ATOM     87  O   UNL     1      -8.580 -15.381  -5.179  1.00  0.00    -0.237 OA
ATOM     88  O   UNL     1      -6.790 -15.259  -6.882  1.00  0.00    -0.237 OA
ATOM     89  O   UNL     1      -6.380 -14.427  -4.599  1.00  0.00    -0.744 OA
ENDBRANCH  85  86
ENDBRANCH  53  78
BRANCH  65  90
ATOM     90  C   UNL     1     -10.272  -6.226 -11.538  1.00  0.00     0.058 A 
ATOM     91  C   UNL     1     -10.864  -5.842 -10.321  1.00  0.00     0.135 A 
ATOM     92  C   UNL     1     -11.004  -5.983 -12.711  1.00  0.00     0.135 A 
ATOM     93  F   UNL     1     -10.194  -5.949  -9.164  1.00  0.00    -0.206 F 
ATOM     94  C   UNL     1     -12.140  -5.273 -10.274  1.00  0.00     0.059 A 
ATOM     95  C   UNL     1     -12.260  -5.387 -12.690  1.00  0.00     0.059 A 
ATOM     96  F   UNL     1     -10.469  -6.274 -13.909  1.00  0.00    -0.206 F 
ATOM     97  C   UNL     1     -12.829  -5.045 -11.466  1.00  0.00     0.060 A 
BRANCH  97  98
ATOM     98  S   UNL     1     -14.442  -4.234 -11.418  1.00  0.00     0.124 S 
ATOM     99  O   UNL     1     -15.291  -5.273 -10.846  1.00  0.00    -0.237 OA
ATOM    100  O   UNL     1     -14.191  -3.077 -10.564  1.00  0.00    -0.237 OA
ATOM    101  O   UNL     1     -14.706  -3.915 -12.820  1.00  0.00    -0.744 OA
ENDBRANCH  97  98
ENDBRANCH  65  90
ENDBRANCH  39  40
ENDBRANCH  32  34
ENDBRANCH  31  32
ENDBRANCH  30  31
ENDBRANCH  29  30
ENDBRANCH  28  29
ENDBRANCH  27  28
ENDBRANCH   1  27
TORSDOF 25
