REMARK SMILES Cc1cc(C)n(C)c(=O)c1C(=O)[NH+]1CCC2(CC1)C[NH2+][C@@H](C(=O)OCCOCCOCCOC(=O)c1ccc(-c3c4nc(c(-c5c(F)cc(S(=O)(=O)[O-])cc5F)c5ccc([nH]5)c(-c5c(F)cc(S(=O)(=O)[O-])cc5F)c5nc(c(-c6c(F)cc(S(=O)(=O)[O-])cc6F)c6ccc3[nH]6)C=C5)C=C4)cc1)C2
REMARK SMILES IDX 29 1 28 2 27 3 26 4 25 5 24 6 22 7 23 8 21 9 13 10 14 11
REMARK SMILES IDX 18 12 15 14 17 15 16 16 19 17 102 18 20 19 11 22 12 23 10 24
REMARK SMILES IDX 1 25 2 26 3 27 4 28 8 29 5 30 6 31 9 32 7 33 30 34 31 35
REMARK SMILES IDX 32 36 33 37 34 38 35 39 36 40 37 41 101 42 38 43 100 44
REMARK SMILES IDX 39 45 40 46 41 47 94 48 42 49 99 50 93 51 95 52 43 53 98 54
REMARK SMILES IDX 92 55 91 56 44 58 78 59 57 60 77 61 58 62 61 63 76 64 96 65
REMARK SMILES IDX 59 66 60 67 75 69 97 70 62 71 45 72 46 73 55 74 47 75 48 76
REMARK SMILES IDX 54 77 56 78 49 79 50 80 51 81 52 82 53 83 79 84 80 85 89 86
REMARK SMILES IDX 81 87 82 88 88 89 90 90 83 91 84 92 85 93 86 94 87 95 63 96
REMARK SMILES IDX 64 97 73 98 65 99 66 100 72 101 74 102 67 103 68 104 69 105
REMARK SMILES IDX 70 106 71 107
REMARK H PARENT 13 13 20 20 20 21 95 57 61 68
REMARK Flexibility Score: inf
ROOT
ATOM      1  C   UNL     1      -2.031   6.912  -0.178  1.00  0.00     0.188 C 
ENDROOT
BRANCH   1   2
ATOM      2  C   UNL     1      -1.265   8.102   0.425  1.00  0.00     0.188 C 
BRANCH   2   3
ATOM      3  O   UNL     1      -1.056   9.265  -0.371  1.00  0.00    -0.376 OA
BRANCH   3   4
ATOM      4  C   UNL     1      -0.738   9.109  -1.748  1.00  0.00     0.202 C 
BRANCH   4   5
ATOM      5  C   UNL     1       0.501   8.279  -2.106  1.00  0.00     0.261 C 
BRANCH   5   6
ATOM      6  O   UNL     1       0.597   7.028  -1.399  1.00  0.00    -0.459 OA
BRANCH   6   7
ATOM      7  C   UNL     1       1.792   6.767  -0.806  1.00  0.00     0.364 C 
ATOM      8  O   UNL     1       2.789   7.477  -0.913  1.00  0.00    -0.245 OA
BRANCH   7   9
ATOM      9  C   UNL     1       1.803   5.482   0.040  1.00  0.00     0.294 C 
ATOM     10  N   UNL     1      -0.760   0.943   1.070  1.00  0.00    -0.267 N 
ATOM     11  C   UNL     1      -0.676   2.057   2.003  1.00  0.00     0.271 C 
ATOM     12  C   UNL     1      -0.802   1.354  -0.324  1.00  0.00     0.271 C 
ATOM     13  H   UNL     1      -0.905   1.597   1.791  1.00  0.00     0.357 HD
ATOM     14  C   UNL     1       0.695   2.699   1.841  1.00  0.00     0.075 C 
ATOM     15  C   UNL     1       0.367   2.274  -0.722  1.00  0.00     0.075 C 
ATOM     16  C   UNL     1       0.994   3.179   0.397  1.00  0.00     0.036 C 
ATOM     17  C   UNL     1       2.531   3.294   0.226  1.00  0.00     0.268 C 
ATOM     18  C   UNL     1       0.536   4.644   0.188  1.00  0.00     0.090 C 
ATOM     19  N   UNL     1       2.737   4.505  -0.556  1.00  0.00    -0.334 N 
ATOM     20  H   UNL     1       2.514   4.344  -1.538  1.00  0.00     0.347 HD
ATOM     21  H   UNL     1       3.705   4.826  -0.535  1.00  0.00     0.347 HD
BRANCH  10  22
ATOM     22  C   UNL     1      -0.869  -0.344   1.590  1.00  0.00     0.350 C 
ATOM     23  O   UNL     1      -1.251  -0.517   2.750  1.00  0.00    -0.225 OA
BRANCH  22  24
ATOM     24  C   UNL     1      -0.387  -1.550   0.824  1.00  0.00     0.147 A 
ATOM     25  C   UNL     1       1.848  -0.532   0.090  1.00  0.00     0.045 C 
ATOM     26  C   UNL     1       0.817  -1.608   0.212  1.00  0.00    -0.027 A 
ATOM     27  C   UNL     1       1.329  -2.859  -0.306  1.00  0.00     0.026 A 
ATOM     28  C   UNL     1       0.794  -4.035   0.038  1.00  0.00     0.018 A 
ATOM     29  C   UNL     1      -1.107  -2.869   1.047  1.00  0.00     0.267 A 
ATOM     30  C   UNL     1       1.500  -5.292  -0.389  1.00  0.00     0.064 C 
ATOM     31  N   UNL     1      -0.388  -4.051   0.767  1.00  0.00    -0.315 N 
ATOM     32  O   UNL     1      -2.267  -2.893   1.457  1.00  0.00    -0.268 OA
ATOM     33  C   UNL     1      -0.946  -5.312   1.237  1.00  0.00     0.153 C 
ENDBRANCH  22  24
ENDBRANCH  10  22
ENDBRANCH   7   9
ENDBRANCH   6   7
ENDBRANCH   5   6
ENDBRANCH   4   5
ENDBRANCH   3   4
ENDBRANCH   2   3
ENDBRANCH   1   2
BRANCH   1  34
ATOM     34  O   UNL     1      -2.663   7.198  -1.406  1.00  0.00    -0.376 OA
BRANCH  34  35
ATOM     35  C   UNL     1      -4.011   6.798  -1.525  1.00  0.00     0.202 C 
BRANCH  35  36
ATOM     36  C   UNL     1      -4.992   7.638  -0.695  1.00  0.00     0.261 C 
BRANCH  36  37
ATOM     37  O   UNL     1      -4.609   7.894   0.671  1.00  0.00    -0.460 OA
BRANCH  37  38
ATOM     38  C   UNL     1      -4.775   6.888   1.563  1.00  0.00     0.338 C 
ATOM     39  O   UNL     1      -5.225   5.778   1.324  1.00  0.00    -0.246 OA
BRANCH  38  40
ATOM     40  C   UNL     1      -4.090   7.271   2.823  1.00  0.00     0.060 A 
ATOM     41  C   UNL     1      -3.041   6.471   3.301  1.00  0.00     0.016 A 
ATOM     42  C   UNL     1      -4.463   8.422   3.521  1.00  0.00     0.016 A 
ATOM     43  C   UNL     1      -2.371   6.815   4.481  1.00  0.00     0.010 A 
ATOM     44  C   UNL     1      -3.811   8.748   4.718  1.00  0.00     0.010 A 
ATOM     45  C   UNL     1      -2.776   7.937   5.218  1.00  0.00    -0.014 A 
BRANCH  45  46
ATOM     46  C   UNL     1      -2.266   8.147   6.600  1.00  0.00     0.031 A 
ATOM     47  C   UNL     1      -3.091   7.625   7.748  1.00  0.00     0.074 A 
ATOM     48  C   UNL     1      -1.095   8.764   6.846  1.00  0.00     0.049 A 
ATOM     49  N   UNL     1      -2.883   7.726   9.035  1.00  0.00    -0.248 NA
ATOM     50  C   UNL     1      -4.315   6.888   7.392  1.00  0.00     0.031 C 
ATOM     51  C   UNL     1      -0.174   9.272   5.832  1.00  0.00     0.029 A 
ATOM     52  N   UNL     1      -0.481   9.071   8.039  1.00  0.00    -0.354 N 
ATOM     53  C   UNL     1      -3.942   7.061   9.642  1.00  0.00     0.074 A 
ATOM     54  C   UNL     1      -4.813   6.596   8.584  1.00  0.00     0.031 C 
ATOM     55  C   UNL     1       0.887   9.829   6.445  1.00  0.00     0.029 A 
ATOM     56  C   UNL     1       0.708   9.748   7.895  1.00  0.00     0.049 A 
ATOM     57  H   UNL     1      -0.859   8.828   8.915  1.00  0.00     0.167 HD
ATOM     58  C   UNL     1      -4.164   6.840  10.959  1.00  0.00     0.037 A 
ATOM     59  C   UNL     1       1.545  10.256   8.825  1.00  0.00     0.037 A 
ATOM     60  C   UNL     1      -3.307   7.308  12.015  1.00  0.00     0.049 A 
ATOM     61  C   UNL     1       1.220  10.093  10.291  1.00  0.00     0.074 A 
ATOM     62  C   UNL     1      -3.456   7.138  13.380  1.00  0.00     0.029 A 
ATOM     63  N   UNL     1      -2.145   8.041  11.828  1.00  0.00    -0.354 N 
ATOM     64  N   UNL     1       0.219   9.456  10.850  1.00  0.00    -0.248 NA
ATOM     65  C   UNL     1       2.136  10.725  11.255  1.00  0.00     0.031 C 
ATOM     66  C   UNL     1      -2.413   7.811  14.021  1.00  0.00     0.029 A 
ATOM     67  C   UNL     1      -1.581   8.353  13.054  1.00  0.00     0.049 A 
ATOM     68  H   UNL     1      -1.776   8.301  10.953  1.00  0.00     0.167 HD
ATOM     69  C   UNL     1       0.401   9.585  12.225  1.00  0.00     0.074 A 
ATOM     70  C   UNL     1       1.613  10.352  12.416  1.00  0.00     0.031 C 
ATOM     71  C   UNL     1      -0.367   9.109  13.237  1.00  0.00     0.037 A 
BRANCH  58  72
ATOM     72  C   UNL     1      -5.392   6.059  11.337  1.00  0.00     0.058 A 
ATOM     73  C   UNL     1      -5.483   4.678  11.100  1.00  0.00     0.135 A 
ATOM     74  C   UNL     1      -6.466   6.685  11.989  1.00  0.00     0.135 A 
ATOM     75  F   UNL     1      -4.492   4.035  10.461  1.00  0.00    -0.206 F 
ATOM     76  C   UNL     1      -6.603   3.948  11.482  1.00  0.00     0.059 A 
ATOM     77  C   UNL     1      -7.584   5.969  12.405  1.00  0.00     0.059 A 
ATOM     78  F   UNL     1      -6.431   8.004  12.235  1.00  0.00    -0.206 F 
ATOM     79  C   UNL     1      -7.646   4.602  12.139  1.00  0.00     0.060 A 
BRANCH  79  80
ATOM     80  S   UNL     1      -9.082   3.632  12.646  1.00  0.00     0.124 S 
ATOM     81  O   UNL     1      -9.679   3.298  11.357  1.00  0.00    -0.237 OA
ATOM     82  O   UNL     1      -8.467   2.523  13.367  1.00  0.00    -0.237 OA
ATOM     83  O   UNL     1      -9.849   4.563  13.469  1.00  0.00    -0.744 OA
ENDBRANCH  79  80
ENDBRANCH  58  72
BRANCH  59  84
ATOM     84  C   UNL     1       2.786  10.970   8.408  1.00  0.00     0.058 A 
ATOM     85  C   UNL     1       4.052  10.423   8.663  1.00  0.00     0.135 A 
ATOM     86  C   UNL     1       2.734  12.214   7.761  1.00  0.00     0.135 A 
ATOM     87  F   UNL     1       4.158   9.245   9.298  1.00  0.00    -0.206 F 
ATOM     88  C   UNL     1       5.222  11.084   8.300  1.00  0.00     0.059 A 
ATOM     89  C   UNL     1       3.888  12.883   7.363  1.00  0.00     0.059 A 
ATOM     90  F   UNL     1       1.548  12.784   7.493  1.00  0.00    -0.206 F 
ATOM     91  C   UNL     1       5.129  12.312   7.643  1.00  0.00     0.060 A 
BRANCH  91  92
ATOM     92  S   UNL     1       6.654  13.133   7.129  1.00  0.00     0.124 S 
ATOM     93  O   UNL     1       7.232  13.513   8.413  1.00  0.00    -0.237 OA
ATOM     94  O   UNL     1       7.344  12.066   6.410  1.00  0.00    -0.237 OA
ATOM     95  O   UNL     1       6.181  14.236   6.299  1.00  0.00    -0.744 OA
ENDBRANCH  91  92
ENDBRANCH  59  84
BRANCH  71  96
ATOM     96  C   UNL     1       0.074   9.374  14.652  1.00  0.00     0.058 A 
ATOM     97  C   UNL     1      -0.037  10.647  15.232  1.00  0.00     0.135 A 
ATOM     98  C   UNL     1       0.518   8.320  15.470  1.00  0.00     0.135 A 
ATOM     99  F   UNL     1      -0.451  11.690  14.496  1.00  0.00    -0.206 F 
ATOM    100  C   UNL     1       0.281  10.867  16.569  1.00  0.00     0.059 A 
ATOM    101  C   UNL     1       0.814   8.512  16.816  1.00  0.00     0.059 A 
ATOM    102  F   UNL     1       0.632   7.079  14.970  1.00  0.00    -0.206 F 
ATOM    103  C   UNL     1       0.696   9.791  17.356  1.00  0.00     0.060 A 
BRANCH 103 104
ATOM    104  S   UNL     1       1.045  10.086  19.104  1.00  0.00     0.124 S 
ATOM    105  O   UNL     1       2.262  10.887  19.031  1.00  0.00    -0.237 OA
ATOM    106  O   UNL     1      -0.154  10.792  19.544  1.00  0.00    -0.237 OA
ATOM    107  O   UNL     1       1.212   8.742  19.651  1.00  0.00    -0.744 OA
ENDBRANCH 103 104
ENDBRANCH  71  96
ENDBRANCH  45  46
ENDBRANCH  38  40
ENDBRANCH  37  38
ENDBRANCH  36  37
ENDBRANCH  35  36
ENDBRANCH  34  35
ENDBRANCH   1  34
TORSDOF 22
