REMARK SMILES C[C@@H](NS(=O)(=O)c1ccc2c(c1)CCC2)C(=O)OCCOCCOCCOC(=O)c1ccc(-c2c3nc(c(-c4c(F)cc(S(=O)(=O)[O-])cc4F)c4ccc([nH]4)c(-c4c(F)cc(S(=O)(=O)[O-])cc4F)c4nc(c(-c5c(F)cc(S(=O)(=O)[O-])cc5F)c5ccc2[nH]5)C=C4)C=C3)cc1
REMARK SMILES IDX 22 1 21 2 20 3 19 4 18 5 16 6 17 7 2 8 1 9 3 10 4 12 5 13
REMARK SMILES IDX 6 14 7 15 8 16 12 17 9 18 11 19 10 20 13 21 15 22 14 23
REMARK SMILES IDX 23 24 24 25 25 26 26 27 27 28 28 29 29 30 30 31 31 32 95 33
REMARK SMILES IDX 32 34 94 35 33 36 34 37 35 38 88 39 36 40 93 41 87 42 89 43
REMARK SMILES IDX 37 44 92 45 86 46 85 47 38 49 72 50 51 51 71 52 52 53 55 54
REMARK SMILES IDX 70 55 90 56 53 57 54 58 69 60 91 61 56 62 39 63 40 64 49 65
REMARK SMILES IDX 41 66 42 67 48 68 50 69 43 70 44 71 45 72 46 73 47 74 73 75
REMARK SMILES IDX 74 76 83 77 75 78 76 79 82 80 84 81 77 82 78 83 79 84 80 85
REMARK SMILES IDX 81 86 57 87 58 88 67 89 59 90 60 91 66 92 68 93 61 94 62 95
REMARK SMILES IDX 63 96 64 97 65 98
REMARK H PARENT 3 11 89 48 55 59
REMARK Flexibility Score: inf
ROOT
ATOM      1  C   UNL     1      -2.957  -1.041   0.916  1.00  0.00     0.188 C 
ENDROOT
BRANCH   1   2
ATOM      2  O   UNL     1      -3.870  -0.059   0.434  1.00  0.00    -0.376 OA
BRANCH   2   3
ATOM      3  C   UNL     1      -3.451   0.806  -0.615  1.00  0.00     0.202 C 
BRANCH   3   4
ATOM      4  C   UNL     1      -2.510   1.926  -0.199  1.00  0.00     0.261 C 
BRANCH   4   5
ATOM      5  O   UNL     1      -1.107   1.631  -0.198  1.00  0.00    -0.462 OA
BRANCH   5   6
ATOM      6  C   UNL     1      -0.513   1.319   0.991  1.00  0.00     0.323 C 
ATOM      7  O   UNL     1      -1.056   0.801   1.953  1.00  0.00    -0.250 OA
BRANCH   6   8
ATOM      8  C   UNL     1       0.908   1.817   1.041  1.00  0.00     0.176 C 
ATOM      9  C   UNL     1       1.683   1.270  -0.154  1.00  0.00     0.038 C 
BRANCH   8  10
ATOM     10  N   UNL     1       0.841   3.303   1.067  1.00  0.00    -0.197 NA
ATOM     11  H   UNL     1       0.199   3.593   0.330  1.00  0.00     0.142 HD
BRANCH  10  12
ATOM     12  S   UNL     1       0.322   4.044   2.518  1.00  0.00     0.241 S 
ATOM     13  O   UNL     1       0.758   3.203   3.612  1.00  0.00    -0.207 OA
ATOM     14  O   UNL     1       0.777   5.410   2.394  1.00  0.00    -0.207 OA
BRANCH  12  15
ATOM     15  C   UNL     1      -1.468   4.085   2.492  1.00  0.00     0.082 A 
ATOM     16  C   UNL     1      -2.128   5.156   1.859  1.00  0.00     0.022 A 
ATOM     17  C   UNL     1      -2.214   3.093   3.151  1.00  0.00     0.025 A 
ATOM     18  C   UNL     1      -3.530   5.199   1.803  1.00  0.00     0.005 A 
ATOM     19  C   UNL     1      -3.597   3.088   2.989  1.00  0.00    -0.043 A 
ATOM     20  C   UNL     1      -4.248   4.138   2.332  1.00  0.00    -0.045 A 
ATOM     21  C   UNL     1      -4.569   1.997   3.338  1.00  0.00     0.036 C 
ATOM     22  C   UNL     1      -5.727   3.895   2.293  1.00  0.00     0.036 C 
ATOM     23  C   UNL     1      -5.766   2.368   2.441  1.00  0.00     0.010 C 
ENDBRANCH  12  15
ENDBRANCH  10  12
ENDBRANCH   8  10
ENDBRANCH   6   8
ENDBRANCH   5   6
ENDBRANCH   4   5
ENDBRANCH   3   4
ENDBRANCH   2   3
ENDBRANCH   1   2
BRANCH   1  24
ATOM     24  C   UNL     1      -1.847  -1.503  -0.042  1.00  0.00     0.188 C 
BRANCH  24  25
ATOM     25  O   UNL     1      -2.248  -2.024  -1.308  1.00  0.00    -0.376 OA
BRANCH  25  26
ATOM     26  C   UNL     1      -3.483  -2.724  -1.352  1.00  0.00     0.202 C 
BRANCH  26  27
ATOM     27  C   UNL     1      -3.450  -4.140  -0.771  1.00  0.00     0.261 C 
BRANCH  27  28
ATOM     28  O   UNL     1      -3.026  -4.195   0.604  1.00  0.00    -0.460 OA
BRANCH  28  29
ATOM     29  C   UNL     1      -1.729  -4.553   0.790  1.00  0.00     0.338 C 
ATOM     30  O   UNL     1      -0.921  -4.838  -0.078  1.00  0.00    -0.246 OA
BRANCH  29  31
ATOM     31  C   UNL     1      -1.344  -4.402   2.211  1.00  0.00     0.060 A 
ATOM     32  C   UNL     1      -0.126  -3.769   2.503  1.00  0.00     0.016 A 
ATOM     33  C   UNL     1      -2.102  -4.974   3.234  1.00  0.00     0.016 A 
ATOM     34  C   UNL     1       0.379  -3.783   3.802  1.00  0.00     0.010 A 
ATOM     35  C   UNL     1      -1.589  -4.995   4.536  1.00  0.00     0.010 A 
ATOM     36  C   UNL     1      -0.321  -4.452   4.813  1.00  0.00    -0.014 A 
BRANCH  36  37
ATOM     37  C   UNL     1       0.366  -4.765   6.093  1.00  0.00     0.031 A 
ATOM     38  C   UNL     1       0.894  -6.162   6.304  1.00  0.00     0.074 A 
ATOM     39  C   UNL     1       0.560  -3.820   7.030  1.00  0.00     0.049 A 
ATOM     40  N   UNL     1       1.480  -6.682   7.351  1.00  0.00    -0.248 NA
ATOM     41  C   UNL     1       0.734  -7.102   5.181  1.00  0.00     0.031 C 
ATOM     42  C   UNL     1       0.136  -2.425   6.923  1.00  0.00     0.029 A 
ATOM     43  N   UNL     1       1.158  -3.897   8.263  1.00  0.00    -0.354 N 
ATOM     44  C   UNL     1       1.758  -8.003   7.015  1.00  0.00     0.074 A 
ATOM     45  C   UNL     1       1.234  -8.220   5.685  1.00  0.00     0.031 C 
ATOM     46  C   UNL     1       0.470  -1.780   8.054  1.00  0.00     0.029 A 
ATOM     47  C   UNL     1       1.102  -2.723   8.976  1.00  0.00     0.049 A 
ATOM     48  H   UNL     1       1.586  -4.715   8.604  1.00  0.00     0.167 HD
ATOM     49  C   UNL     1       2.409  -8.945   7.740  1.00  0.00     0.037 A 
ATOM     50  C   UNL     1       1.492  -2.450  10.237  1.00  0.00     0.037 A 
ATOM     51  C   UNL     1       2.926  -8.722   9.066  1.00  0.00     0.049 A 
ATOM     52  C   UNL     1       2.147  -3.536  11.055  1.00  0.00     0.074 A 
ATOM     53  C   UNL     1       3.594  -9.610   9.891  1.00  0.00     0.029 A 
ATOM     54  N   UNL     1       2.834  -7.525   9.762  1.00  0.00    -0.354 N 
ATOM     55  N   UNL     1       2.409  -4.779  10.723  1.00  0.00    -0.248 NA
ATOM     56  C   UNL     1       2.569  -3.179  12.417  1.00  0.00     0.031 C 
ATOM     57  C   UNL     1       3.861  -8.966  11.103  1.00  0.00     0.029 A 
ATOM     58  C   UNL     1       3.417  -7.657  11.012  1.00  0.00     0.049 A 
ATOM     59  H   UNL     1       2.416  -6.702   9.418  1.00  0.00     0.167 HD
ATOM     60  C   UNL     1       3.055  -5.340  11.822  1.00  0.00     0.074 A 
ATOM     61  C   UNL     1       3.159  -4.295  12.819  1.00  0.00     0.031 C 
ATOM     62  C   UNL     1       3.520  -6.604  11.992  1.00  0.00     0.037 A 
BRANCH  49  63
ATOM     63  C   UNL     1       2.589 -10.306   7.120  1.00  0.00     0.058 A 
ATOM     64  C   UNL     1       3.457 -10.513   6.035  1.00  0.00     0.135 A 
ATOM     65  C   UNL     1       1.921 -11.425   7.643  1.00  0.00     0.135 A 
ATOM     66  F   UNL     1       4.108  -9.477   5.482  1.00  0.00    -0.206 F 
ATOM     67  C   UNL     1       3.638 -11.775   5.477  1.00  0.00     0.059 A 
ATOM     68  C   UNL     1       2.111 -12.702   7.120  1.00  0.00     0.059 A 
ATOM     69  F   UNL     1       1.076 -11.287   8.677  1.00  0.00    -0.206 F 
ATOM     70  C   UNL     1       2.963 -12.865   6.030  1.00  0.00     0.060 A 
BRANCH  70  71
ATOM     71  S   UNL     1       3.226 -14.497   5.304  1.00  0.00     0.124 S 
ATOM     72  O   UNL     1       2.547 -14.358   4.020  1.00  0.00    -0.237 OA
ATOM     73  O   UNL     1       4.681 -14.580   5.246  1.00  0.00    -0.237 OA
ATOM     74  O   UNL     1       2.587 -15.400   6.256  1.00  0.00    -0.744 OA
ENDBRANCH  70  71
ENDBRANCH  49  63
BRANCH  50  75
ATOM     75  C   UNL     1       1.253  -1.100  10.819  1.00  0.00     0.058 A 
ATOM     76  C   UNL     1       2.315  -0.248  11.156  1.00  0.00     0.135 A 
ATOM     77  C   UNL     1      -0.051  -0.645  11.075  1.00  0.00     0.135 A 
ATOM     78  F   UNL     1       3.581  -0.639  10.943  1.00  0.00    -0.206 F 
ATOM     79  C   UNL     1       2.098   0.990  11.754  1.00  0.00     0.059 A 
ATOM     80  C   UNL     1      -0.296   0.603  11.640  1.00  0.00     0.059 A 
ATOM     81  F   UNL     1      -1.106  -1.414  10.762  1.00  0.00    -0.206 F 
ATOM     82  C   UNL     1       0.787   1.406  11.992  1.00  0.00     0.060 A 
BRANCH  82  83
ATOM     83  S   UNL     1       0.513   3.020  12.756  1.00  0.00     0.124 S 
ATOM     84  O   UNL     1       0.949   2.773  14.126  1.00  0.00    -0.237 OA
ATOM     85  O   UNL     1       1.374   3.887  11.959  1.00  0.00    -0.237 OA
ATOM     86  O   UNL     1      -0.920   3.236  12.581  1.00  0.00    -0.744 OA
ENDBRANCH  82  83
ENDBRANCH  50  75
BRANCH  62  87
ATOM     87  C   UNL     1       4.226  -6.914  13.287  1.00  0.00     0.058 A 
ATOM     88  C   UNL     1       3.542  -6.981  14.510  1.00  0.00     0.135 A 
ATOM     89  C   UNL     1       5.607  -7.178  13.296  1.00  0.00     0.135 A 
ATOM     90  F   UNL     1       2.222  -6.738  14.561  1.00  0.00    -0.206 F 
ATOM     91  C   UNL     1       4.206  -7.256  15.702  1.00  0.00     0.059 A 
ATOM     92  C   UNL     1       6.285  -7.489  14.470  1.00  0.00     0.059 A 
ATOM     93  F   UNL     1       6.310  -7.144  12.153  1.00  0.00    -0.206 F 
ATOM     94  C   UNL     1       5.579  -7.507  15.672  1.00  0.00     0.060 A 
BRANCH  94  95
ATOM     95  S   UNL     1       6.427  -7.870  17.224  1.00  0.00     0.124 S 
ATOM     96  O   UNL     1       6.436  -6.560  17.867  1.00  0.00    -0.237 OA
ATOM     97  O   UNL     1       5.552  -8.868  17.831  1.00  0.00    -0.237 OA
ATOM     98  O   UNL     1       7.730  -8.367  16.793  1.00  0.00    -0.744 OA
ENDBRANCH  94  95
ENDBRANCH  62  87
ENDBRANCH  36  37
ENDBRANCH  29  31
ENDBRANCH  28  29
ENDBRANCH  27  28
ENDBRANCH  26  27
ENDBRANCH  25  26
ENDBRANCH  24  25
ENDBRANCH   1  24
TORSDOF 23
