REMARK SMILES CCCCCCNC(=O)Oc1cccc(-c2ccc([C@@H](C)C(=O)OCCOCCOCCOC(=O)c3ccc(-c4c5nc(c(-c6c(F)cc(S(=O)(=O)[O-])cc6F)c6ccc([nH]6)c(-c6c(F)cc(S(=O)(=O)[O-])cc6F)c6nc(c(-c7c(F)cc(S(=O)(=O)[O-])cc7F)c7ccc4[nH]7)C=C6)C=C5)cc3)cc2F)c1
REMARK SMILES IDX 25 1 24 2 22 3 23 4 20 5 21 6 19 7 16 8 17 9 103 10 18 11
REMARK SMILES IDX 102 12 104 13 15 14 11 15 12 16 105 17 13 18 14 19 10 20
REMARK SMILES IDX 8 21 7 22 9 24 6 25 5 26 4 27 3 28 2 29 1 30 26 31 27 32
REMARK SMILES IDX 28 33 29 34 30 35 31 36 32 37 33 38 34 39 35 40 36 41 37 42
REMARK SMILES IDX 101 43 38 44 100 45 39 46 40 47 41 48 94 49 42 50 99 51
REMARK SMILES IDX 93 52 95 53 43 54 98 55 92 56 91 57 44 59 78 60 57 61 77 62
REMARK SMILES IDX 58 63 61 64 76 65 96 66 59 67 60 68 75 70 97 71 62 72 45 73
REMARK SMILES IDX 46 74 55 75 47 76 48 77 54 78 56 79 49 80 50 81 51 82 52 83
REMARK SMILES IDX 53 84 79 85 80 86 89 87 81 88 82 89 88 90 90 91 83 92 84 93
REMARK SMILES IDX 85 94 86 95 87 96 63 97 64 98 73 99 65 100 66 101 72 102
REMARK SMILES IDX 74 103 67 104 68 105 69 106 70 107 71 108
REMARK H PARENT 7 23 95 58 61 69
REMARK Flexibility Score: inf
ROOT
ATOM      1  C   UNL     1      -2.511  15.624   3.801  1.00  0.00     0.261 C 
ENDROOT
BRANCH   1   2
ATOM      2  O   UNL     1      -3.497  14.649   3.393  1.00  0.00    -0.463 OA
BRANCH   2   3
ATOM      3  C   UNL     1      -4.321  15.019   2.381  1.00  0.00     0.313 C 
ATOM      4  O   UNL     1      -4.305  16.143   1.881  1.00  0.00    -0.252 OA
BRANCH   3   5
ATOM      5  C   UNL     1      -5.288  13.951   1.861  1.00  0.00     0.126 C 
ATOM      6  C   UNL     1      -6.708  14.514   1.929  1.00  0.00     0.025 C 
BRANCH   5   7
ATOM      7  C   UNL     1      -5.267  12.519   2.396  1.00  0.00    -0.031 A 
ATOM      8  C   UNL     1      -5.244   9.779   3.265  1.00  0.00     0.018 A 
ATOM      9  C   UNL     1      -5.349  10.845   4.178  1.00  0.00     0.012 A 
ATOM     10  C   UNL     1      -5.162  10.120   1.911  1.00  0.00     0.131 A 
ATOM     11  C   UNL     1      -5.370  12.191   3.754  1.00  0.00     0.005 A 
ATOM     12  C   UNL     1      -5.180  11.452   1.480  1.00  0.00     0.044 A 
ATOM     13  F   UNL     1      -5.085   9.161   0.975  1.00  0.00    -0.206 F 
BRANCH   8  14
ATOM     14  C   UNL     1      -5.275   8.368   3.709  1.00  0.00    -0.012 A 
ATOM     15  C   UNL     1      -4.358   6.112   3.763  1.00  0.00     0.133 A 
ATOM     16  C   UNL     1      -5.452   5.651   4.492  1.00  0.00     0.047 A 
ATOM     17  C   UNL     1      -4.263   7.451   3.364  1.00  0.00     0.056 A 
ATOM     18  C   UNL     1      -6.456   6.545   4.848  1.00  0.00     0.004 A 
ATOM     19  C   UNL     1      -6.367   7.887   4.460  1.00  0.00     0.009 A 
BRANCH  15  20
ATOM     20  O   UNL     1      -3.440   5.140   3.325  1.00  0.00    -0.410 OA
BRANCH  20  21
ATOM     21  C   UNL     1      -2.119   5.261   3.726  1.00  0.00     0.412 C 
ATOM     22  N   UNL     1      -1.315   4.253   3.266  1.00  0.00    -0.321 N 
ATOM     23  H   UNL     1      -0.350   4.352   3.433  1.00  0.00     0.167 HD
ATOM     24  O   UNL     1      -1.669   6.143   4.457  1.00  0.00    -0.224 OA
BRANCH  22  25
ATOM     25  C   UNL     1      -1.730   3.055   2.558  1.00  0.00     0.119 C 
BRANCH  25  26
ATOM     26  C   UNL     1      -1.090   2.922   1.176  1.00  0.00     0.021 C 
BRANCH  26  27
ATOM     27  C   UNL     1       0.437   2.782   1.171  1.00  0.00     0.002 C 
BRANCH  27  28
ATOM     28  C   UNL     1       1.002   1.572   1.925  1.00  0.00    -0.000 C 
BRANCH  28  29
ATOM     29  C   UNL     1       0.531   0.201   1.432  1.00  0.00    -0.003 C 
ATOM     30  C   UNL     1       0.942  -0.102  -0.002  1.00  0.00     0.004 C 
ENDBRANCH  28  29
ENDBRANCH  27  28
ENDBRANCH  26  27
ENDBRANCH  25  26
ENDBRANCH  22  25
ENDBRANCH  20  21
ENDBRANCH  15  20
ENDBRANCH   8  14
ENDBRANCH   5   7
ENDBRANCH   3   5
ENDBRANCH   2   3
ENDBRANCH   1   2
BRANCH   1  31
ATOM     31  C   UNL     1      -1.063  15.115   3.813  1.00  0.00     0.202 C 
BRANCH  31  32
ATOM     32  O   UNL     1      -0.531  14.604   2.598  1.00  0.00    -0.376 OA
BRANCH  32  33
ATOM     33  C   UNL     1      -1.182  13.514   1.954  1.00  0.00     0.188 C 
BRANCH  33  34
ATOM     34  C   UNL     1      -1.816  12.408   2.809  1.00  0.00     0.188 C 
BRANCH  34  35
ATOM     35  O   UNL     1      -1.401  12.402   4.160  1.00  0.00    -0.376 OA
BRANCH  35  36
ATOM     36  C   UNL     1      -0.914  11.165   4.650  1.00  0.00     0.202 C 
BRANCH  36  37
ATOM     37  C   UNL     1       0.488  10.830   4.131  1.00  0.00     0.261 C 
BRANCH  37  38
ATOM     38  O   UNL     1       0.621  10.792   2.697  1.00  0.00    -0.460 OA
BRANCH  38  39
ATOM     39  C   UNL     1      -0.026   9.801   2.047  1.00  0.00     0.338 C 
ATOM     40  O   UNL     1      -0.701   8.909   2.551  1.00  0.00    -0.246 OA
BRANCH  39  41
ATOM     41  C   UNL     1       0.017  10.090   0.600  1.00  0.00     0.060 A 
ATOM     42  C   UNL     1      -1.187  10.184  -0.115  1.00  0.00     0.016 A 
ATOM     43  C   UNL     1       1.239  10.275  -0.049  1.00  0.00     0.016 A 
ATOM     44  C   UNL     1      -1.167  10.438  -1.488  1.00  0.00     0.010 A 
ATOM     45  C   UNL     1       1.257  10.508  -1.426  1.00  0.00     0.010 A 
ATOM     46  C   UNL     1       0.057  10.563  -2.158  1.00  0.00    -0.014 A 
BRANCH  46  47
ATOM     47  C   UNL     1       0.107  10.569  -3.642  1.00  0.00     0.031 A 
ATOM     48  C   UNL     1       0.422   9.279  -4.350  1.00  0.00     0.074 A 
ATOM     49  C   UNL     1      -0.099  11.695  -4.349  1.00  0.00     0.049 A 
ATOM     50  N   UNL     1       0.628   9.057  -5.622  1.00  0.00    -0.248 NA
ATOM     51  C   UNL     1       0.524   8.078  -3.505  1.00  0.00     0.031 C 
ATOM     52  C   UNL     1      -0.446  12.998  -3.786  1.00  0.00     0.029 A 
ATOM     53  N   UNL     1      -0.025  11.922  -5.702  1.00  0.00    -0.354 N 
ATOM     54  C   UNL     1       0.899   7.698  -5.729  1.00  0.00     0.074 A 
ATOM     55  C   UNL     1       0.854   7.150  -4.391  1.00  0.00     0.031 C 
ATOM     56  C   UNL     1      -0.532  13.895  -4.784  1.00  0.00     0.029 A 
ATOM     57  C   UNL     1      -0.210  13.239  -6.051  1.00  0.00     0.049 A 
ATOM     58  H   UNL     1       0.144  11.209  -6.360  1.00  0.00     0.167 HD
ATOM     59  C   UNL     1       1.158   6.972  -6.842  1.00  0.00     0.037 A 
ATOM     60  C   UNL     1      -0.101  13.849  -7.250  1.00  0.00     0.037 A 
ATOM     61  C   UNL     1       1.202   7.522  -8.172  1.00  0.00     0.049 A 
ATOM     62  C   UNL     1       0.251  13.032  -8.469  1.00  0.00     0.074 A 
ATOM     63  C   UNL     1       1.434   6.863  -9.366  1.00  0.00     0.029 A 
ATOM     64  N   UNL     1       1.019   8.861  -8.483  1.00  0.00    -0.354 N 
ATOM     65  N   UNL     1       0.484  11.743  -8.562  1.00  0.00    -0.248 NA
ATOM     66  C   UNL     1       0.356  13.751  -9.748  1.00  0.00     0.031 C 
ATOM     67  C   UNL     1       1.445   7.812 -10.393  1.00  0.00     0.029 A 
ATOM     68  C   UNL     1       1.159   9.053  -9.848  1.00  0.00     0.049 A 
ATOM     69  H   UNL     1       0.819   9.571  -7.830  1.00  0.00     0.167 HD
ATOM     70  C   UNL     1       0.732  11.495  -9.909  1.00  0.00     0.074 A 
ATOM     71  C   UNL     1       0.612  12.764 -10.595  1.00  0.00     0.031 C 
ATOM     72  C   UNL     1       1.028  10.321 -10.523  1.00  0.00     0.037 A 
BRANCH  59  73
ATOM     73  C   UNL     1       1.444   5.506  -6.668  1.00  0.00     0.058 A 
ATOM     74  C   UNL     1       0.439   4.592  -6.314  1.00  0.00     0.135 A 
ATOM     75  C   UNL     1       2.736   5.004  -6.894  1.00  0.00     0.135 A 
ATOM     76  F   UNL     1      -0.809   5.021  -6.066  1.00  0.00    -0.206 F 
ATOM     77  C   UNL     1       0.709   3.235  -6.169  1.00  0.00     0.059 A 
ATOM     78  C   UNL     1       3.022   3.647  -6.782  1.00  0.00     0.059 A 
ATOM     79  F   UNL     1       3.735   5.835  -7.230  1.00  0.00    -0.206 F 
ATOM     80  C   UNL     1       2.005   2.772  -6.407  1.00  0.00     0.060 A 
BRANCH  80  81
ATOM     81  S   UNL     1       2.335   1.007  -6.223  1.00  0.00     0.124 S 
ATOM     82  O   UNL     1       2.262   0.846  -4.774  1.00  0.00    -0.237 OA
ATOM     83  O   UNL     1       1.243   0.405  -6.981  1.00  0.00    -0.237 OA
ATOM     84  O   UNL     1       3.663   0.846  -6.805  1.00  0.00    -0.744 OA
ENDBRANCH  80  81
ENDBRANCH  59  73
BRANCH  60  85
ATOM     85  C   UNL     1      -0.307  15.319  -7.359  1.00  0.00     0.058 A 
ATOM     86  C   UNL     1      -1.416  15.850  -8.032  1.00  0.00     0.135 A 
ATOM     87  C   UNL     1       0.608  16.224  -6.795  1.00  0.00     0.135 A 
ATOM     88  F   UNL     1      -2.310  15.028  -8.603  1.00  0.00    -0.206 F 
ATOM     89  C   UNL     1      -1.608  17.223  -8.155  1.00  0.00     0.059 A 
ATOM     90  C   UNL     1       0.423  17.601  -6.880  1.00  0.00     0.059 A 
ATOM     91  F   UNL     1       1.685  15.769  -6.136  1.00  0.00    -0.206 F 
ATOM     92  C   UNL     1      -0.684  18.091  -7.571  1.00  0.00     0.060 A 
BRANCH  92  93
ATOM     93  S   UNL     1      -0.970  19.870  -7.692  1.00  0.00     0.124 S 
ATOM     94  O   UNL     1      -0.676  20.121  -9.099  1.00  0.00    -0.237 OA
ATOM     95  O   UNL     1      -2.373  19.981  -7.304  1.00  0.00    -0.237 OA
ATOM     96  O   UNL     1      -0.017  20.430  -6.739  1.00  0.00    -0.744 OA
ENDBRANCH  92  93
ENDBRANCH  60  85
BRANCH  72  97
ATOM     97  C   UNL     1       1.203  10.335 -12.018  1.00  0.00     0.058 A 
ATOM     98  C   UNL     1       2.333  10.901 -12.628  1.00  0.00     0.135 A 
ATOM     99  C   UNL     1       0.256   9.711 -12.848  1.00  0.00     0.135 A 
ATOM    100  F   UNL     1       3.268  11.514 -11.884  1.00  0.00    -0.206 F 
ATOM    101  C   UNL     1       2.508  10.868 -14.009  1.00  0.00     0.059 A 
ATOM    102  C   UNL     1       0.425   9.640 -14.228  1.00  0.00     0.059 A 
ATOM    103  F   UNL     1      -0.837   9.142 -12.317  1.00  0.00    -0.206 F 
ATOM    104  C   UNL     1       1.550  10.231 -14.800  1.00  0.00     0.060 A 
BRANCH 104 105
ATOM    105  S   UNL     1       1.808  10.161 -16.586  1.00  0.00     0.124 S 
ATOM    106  O   UNL     1       1.541  11.541 -16.977  1.00  0.00    -0.237 OA
ATOM    107  O   UNL     1       3.200   9.732 -16.684  1.00  0.00    -0.237 OA
ATOM    108  O   UNL     1       0.824   9.180 -17.035  1.00  0.00    -0.744 OA
ENDBRANCH 104 105
ENDBRANCH  72  97
ENDBRANCH  46  47
ENDBRANCH  39  41
ENDBRANCH  38  39
ENDBRANCH  37  38
ENDBRANCH  36  37
ENDBRANCH  35  36
ENDBRANCH  34  35
ENDBRANCH  33  34
ENDBRANCH  32  33
ENDBRANCH  31  32
ENDBRANCH   1  31
TORSDOF 29
