REMARK SMILES Cc1cccc(-c2ncc(C[NH+]3CCC4(CC3)NC(=O)C[C@H]4C(=O)OCCOCCOCCOC(=O)c3ccc(-c4c5nc(c(-c6c(F)cc(S(=O)(=O)[O-])cc6F)c6ccc([nH]6)c(-c6c(F)cc(S(=O)(=O)[O-])cc6F)c6nc(c(-c7c(F)cc(S(=O)(=O)[O-])cc7F)c7ccc4[nH]7)C=C6)C=C5)cc3)cn2)c1
REMARK SMILES IDX 29 1 28 2 27 3 26 4 25 5 23 6 24 7 22 8 12 9 13 10 17 11
REMARK SMILES IDX 14 13 16 14 15 15 18 16 19 17 21 19 20 20 11 21 10 22 7 23
REMARK SMILES IDX 8 24 104 25 9 26 103 27 6 28 1 29 2 30 3 31 105 32 4 33 5 34
REMARK SMILES IDX 30 35 31 36 32 37 33 38 34 39 35 40 36 41 37 42 38 43 102 44
REMARK SMILES IDX 39 45 101 46 40 47 41 48 42 49 95 50 43 51 100 52 94 53
REMARK SMILES IDX 96 54 44 55 99 56 93 57 92 58 45 60 79 61 58 62 78 63 59 64
REMARK SMILES IDX 62 65 77 66 97 67 60 68 61 69 76 71 98 72 63 73 46 74 47 75
REMARK SMILES IDX 56 76 48 77 49 78 55 79 57 80 50 81 51 82 52 83 53 84 54 85
REMARK SMILES IDX 80 86 81 87 90 88 82 89 83 90 89 91 91 92 84 93 85 94 86 95
REMARK SMILES IDX 87 96 88 97 64 98 65 99 74 100 66 101 67 102 73 103 75 104
REMARK SMILES IDX 68 105 69 106 70 107 71 108 72 109
REMARK H PARENT 12 12 18 18 96 59 62 70
REMARK Flexibility Score: inf
ROOT
ATOM      1  C   UNL     1      -2.256   7.572  -5.504  1.00  0.00     0.188 C 
ENDROOT
BRANCH   1   2
ATOM      2  O   UNL     1      -1.075   6.862  -5.962  1.00  0.00    -0.376 OA
BRANCH   2   3
ATOM      3  C   UNL     1      -0.541   5.530  -5.711  1.00  0.00     0.202 C 
BRANCH   3   4
ATOM      4  C   UNL     1       0.007   4.594  -4.282  1.00  0.00     0.261 C 
BRANCH   4   5
ATOM      5  O   UNL     1       0.608   4.823  -2.534  1.00  0.00    -0.463 OA
BRANCH   5   6
ATOM      6  C   UNL     1       1.438   5.633  -1.494  1.00  0.00     0.311 C 
ATOM      7  O   UNL     1       2.130   6.657  -1.657  1.00  0.00    -0.252 OA
BRANCH   6   8
ATOM      8  C   UNL     1       1.255   5.465  -0.053  1.00  0.00     0.134 C 
ATOM      9  N   UNL     1      -3.413   7.239   0.342  1.00  0.00    -0.331 N 
ATOM     10  C   UNL     1      -2.082   7.527   1.333  1.00  0.00     0.264 C 
ATOM     11  C   UNL     1      -2.737   6.685  -1.375  1.00  0.00     0.264 C 
ATOM     12  H   UNL     1      -4.024   8.020   0.102  1.00  0.00     0.348 HD
ATOM     13  C   UNL     1      -0.695   6.380   1.604  1.00  0.00     0.091 C 
ATOM     14  C   UNL     1      -1.280   4.991  -1.297  1.00  0.00     0.091 C 
ATOM     15  C   UNL     1      -0.145   5.116   0.326  1.00  0.00     0.064 C 
ATOM     16  N   UNL     1       0.126   3.912   1.072  1.00  0.00    -0.349 N 
ATOM     17  C   UNL     1       1.464   3.663   1.347  1.00  0.00     0.221 C 
ATOM     18  H   UNL     1      -0.592   3.305   1.368  1.00  0.00     0.164 HD
ATOM     19  C   UNL     1       2.301   4.701   0.701  1.00  0.00     0.117 C 
ATOM     20  O   UNL     1       1.887   2.762   2.049  1.00  0.00    -0.275 OA
BRANCH   9  21
ATOM     21  C   UNL     1      -4.382   6.099   1.290  1.00  0.00     0.302 C 
BRANCH  21  22
ATOM     22  C   UNL     1      -4.126   4.456   1.597  1.00  0.00     0.043 A 
ATOM     23  C   UNL     1      -2.811   1.986   1.157  1.00  0.00     0.159 A 
ATOM     24  N   UNL     1      -2.359   2.820   2.121  1.00  0.00    -0.236 NA
ATOM     25  N   UNL     1      -4.026   2.174   0.622  1.00  0.00    -0.236 NA
ATOM     26  C   UNL     1      -3.086   3.973   2.382  1.00  0.00     0.124 A 
ATOM     27  C   UNL     1      -4.665   3.374   0.900  1.00  0.00     0.124 A 
BRANCH  23  28
ATOM     28  C   UNL     1      -1.954   0.827   0.682  1.00  0.00     0.019 A 
ATOM     29  C   UNL     1       1.797  -0.052   0.130  1.00  0.00     0.044 C 
ATOM     30  C   UNL     1       0.294  -0.199   0.183  1.00  0.00    -0.050 A 
ATOM     31  C   UNL     1      -0.296  -1.435  -0.013  1.00  0.00     0.003 A 
ATOM     32  C   UNL     1      -0.548   0.891   0.503  1.00  0.00     0.015 A 
ATOM     33  C   UNL     1      -1.686  -1.542   0.053  1.00  0.00     0.001 A 
ATOM     34  C   UNL     1      -2.498  -0.430   0.381  1.00  0.00     0.012 A 
ENDBRANCH  23  28
ENDBRANCH  21  22
ENDBRANCH   9  21
ENDBRANCH   6   8
ENDBRANCH   5   6
ENDBRANCH   4   5
ENDBRANCH   3   4
ENDBRANCH   2   3
ENDBRANCH   1   2
BRANCH   1  35
ATOM     35  C   UNL     1      -3.647   6.926  -5.407  1.00  0.00     0.188 C 
BRANCH  35  36
ATOM     36  O   UNL     1      -3.654   5.639  -5.989  1.00  0.00    -0.376 OA
BRANCH  36  37
ATOM     37  C   UNL     1      -4.467   4.625  -5.399  1.00  0.00     0.202 C 
BRANCH  37  38
ATOM     38  C   UNL     1      -5.571   4.967  -4.363  1.00  0.00     0.261 C 
BRANCH  38  39
ATOM     39  O   UNL     1      -5.458   4.968  -2.849  1.00  0.00    -0.460 OA
BRANCH  39  40
ATOM     40  C   UNL     1      -4.998   4.946  -1.562  1.00  0.00     0.338 C 
ATOM     41  O   UNL     1      -5.869   5.139  -0.726  1.00  0.00    -0.246 OA
BRANCH  40  42
ATOM     42  C   UNL     1      -3.412   4.734  -1.203  1.00  0.00     0.060 A 
ATOM     43  C   UNL     1      -2.286   5.611  -0.012  1.00  0.00     0.016 A 
ATOM     44  C   UNL     1      -2.971   4.838  -2.709  1.00  0.00     0.016 A 
ATOM     45  C   UNL     1      -0.918   6.789  -0.817  1.00  0.00     0.010 A 
ATOM     46  C   UNL     1      -1.810   5.872  -3.291  1.00  0.00     0.010 A 
ATOM     47  C   UNL     1      -0.611   6.778  -2.578  1.00  0.00    -0.014 A 
BRANCH  47  48
ATOM     48  C   UNL     1       0.970   6.715  -3.622  1.00  0.00     0.031 A 
ATOM     49  C   UNL     1       2.360   5.387  -3.652  1.00  0.00     0.074 A 
ATOM     50  C   UNL     1       1.159   7.596  -4.617  1.00  0.00     0.049 A 
ATOM     51  N   UNL     1       3.614   5.546  -3.252  1.00  0.00    -0.248 NA
ATOM     52  C   UNL     1       2.221   3.723  -3.511  1.00  0.00     0.031 C 
ATOM     53  C   UNL     1       2.128   7.538  -5.713  1.00  0.00     0.029 A 
ATOM     54  N   UNL     1       0.438   8.747  -4.889  1.00  0.00    -0.354 N 
ATOM     55  C   UNL     1       4.205   4.253  -3.050  1.00  0.00     0.074 A 
ATOM     56  C   UNL     1       3.189   3.365  -2.695  1.00  0.00     0.031 C 
ATOM     57  C   UNL     1       2.178   8.754  -6.295  1.00  0.00     0.029 A 
ATOM     58  C   UNL     1       1.342   9.632  -5.487  1.00  0.00     0.049 A 
ATOM     59  H   UNL     1      -0.515   8.909  -4.700  1.00  0.00     0.167 HD
ATOM     60  C   UNL     1       5.290   3.799  -3.751  1.00  0.00     0.037 A 
ATOM     61  C   UNL     1       1.759  10.667  -4.705  1.00  0.00     0.037 A 
ATOM     62  C   UNL     1       5.655   4.891  -4.612  1.00  0.00     0.049 A 
ATOM     63  C   UNL     1       3.219  10.444  -4.371  1.00  0.00     0.074 A 
ATOM     64  C   UNL     1       5.285   5.223  -5.903  1.00  0.00     0.029 A 
ATOM     65  N   UNL     1       5.981   6.064  -3.970  1.00  0.00    -0.354 N 
ATOM     66  N   UNL     1       3.803   9.275  -4.240  1.00  0.00    -0.248 NA
ATOM     67  C   UNL     1       4.173  11.545  -4.412  1.00  0.00     0.031 C 
ATOM     68  C   UNL     1       5.351   6.647  -6.001  1.00  0.00     0.029 A 
ATOM     69  C   UNL     1       5.748   7.155  -4.772  1.00  0.00     0.049 A 
ATOM     70  H   UNL     1       6.335   6.115  -3.053  1.00  0.00     0.167 HD
ATOM     71  C   UNL     1       5.164   9.447  -4.239  1.00  0.00     0.074 A 
ATOM     72  C   UNL     1       5.338  10.884  -4.346  1.00  0.00     0.031 C 
ATOM     73  C   UNL     1       6.100   8.450  -4.225  1.00  0.00     0.037 A 
BRANCH  60  74
ATOM     74  C   UNL     1       5.711   2.322  -3.934  1.00  0.00     0.058 A 
ATOM     75  C   UNL     1       6.505   1.964  -5.042  1.00  0.00     0.135 A 
ATOM     76  C   UNL     1       5.401   1.221  -3.084  1.00  0.00     0.135 A 
ATOM     77  F   UNL     1       6.933   2.892  -5.910  1.00  0.00    -0.206 F 
ATOM     78  C   UNL     1       6.917   0.651  -5.312  1.00  0.00     0.059 A 
ATOM     79  C   UNL     1       5.746  -0.114  -3.369  1.00  0.00     0.059 A 
ATOM     80  F   UNL     1       4.802   1.386  -1.896  1.00  0.00    -0.206 F 
ATOM     81  C   UNL     1       6.525  -0.388  -4.479  1.00  0.00     0.060 A 
BRANCH  81  82
ATOM     82  S   UNL     1       7.112  -2.061  -4.831  1.00  0.00     0.124 S 
ATOM     83  O   UNL     1       6.671  -2.261  -6.208  1.00  0.00    -0.237 OA
ATOM     84  O   UNL     1       8.552  -1.922  -4.641  1.00  0.00    -0.237 OA
ATOM     85  O   UNL     1       6.427  -2.884  -3.838  1.00  0.00    -0.744 OA
ENDBRANCH  81  82
ENDBRANCH  60  74
BRANCH  61  86
ATOM     86  C   UNL     1       0.606  11.173  -3.862  1.00  0.00     0.058 A 
ATOM     87  C   UNL     1      -0.523  11.656  -4.579  1.00  0.00     0.135 A 
ATOM     88  C   UNL     1       0.364  10.753  -2.543  1.00  0.00     0.135 A 
ATOM     89  F   UNL     1      -0.382  12.055  -5.856  1.00  0.00    -0.206 F 
ATOM     90  C   UNL     1      -1.825  11.577  -4.083  1.00  0.00     0.059 A 
ATOM     91  C   UNL     1      -0.941  10.683  -2.017  1.00  0.00     0.059 A 
ATOM     92  F   UNL     1       1.369  10.293  -1.786  1.00  0.00    -0.206 F 
ATOM     93  C   UNL     1      -2.029  11.039  -2.818  1.00  0.00     0.060 A 
BRANCH  93  94
ATOM     94  S   UNL     1      -3.739  10.724  -2.303  1.00  0.00     0.124 S 
ATOM     95  O   UNL     1      -4.409  11.970  -2.666  1.00  0.00    -0.237 OA
ATOM     96  O   UNL     1      -4.081   9.568  -3.132  1.00  0.00    -0.237 OA
ATOM     97  O   UNL     1      -3.616  10.487  -0.872  1.00  0.00    -0.744 OA
ENDBRANCH  93  94
ENDBRANCH  61  86
BRANCH  73  98
ATOM     98  C   UNL     1       7.501   8.604  -3.649  1.00  0.00     0.058 A 
ATOM     99  C   UNL     1       7.873   9.660  -2.805  1.00  0.00     0.135 A 
ATOM    100  C   UNL     1       8.475   7.571  -3.778  1.00  0.00     0.135 A 
ATOM    101  F   UNL     1       7.015  10.626  -2.452  1.00  0.00    -0.206 F 
ATOM    102  C   UNL     1       9.147   9.760  -2.259  1.00  0.00     0.059 A 
ATOM    103  C   UNL     1       9.696   7.585  -3.125  1.00  0.00     0.059 A 
ATOM    104  F   UNL     1       8.289   6.488  -4.547  1.00  0.00    -0.206 F 
ATOM    105  C   UNL     1      10.052   8.721  -2.430  1.00  0.00     0.060 A 
BRANCH 105 106
ATOM    106  S   UNL     1      11.716   8.882  -1.790  1.00  0.00     0.124 S 
ATOM    107  O   UNL     1      12.352   9.643  -2.861  1.00  0.00    -0.237 OA
ATOM    108  O   UNL     1      11.508   9.603  -0.538  1.00  0.00    -0.237 OA
ATOM    109  O   UNL     1      12.159   7.499  -1.646  1.00  0.00    -0.744 OA
ENDBRANCH 105 106
ENDBRANCH  73  98
ENDBRANCH  47  48
ENDBRANCH  40  42
ENDBRANCH  39  40
ENDBRANCH  38  39
ENDBRANCH  37  38
ENDBRANCH  36  37
ENDBRANCH  35  36
ENDBRANCH   1  35
TORSDOF 23
