REMARK SMILES O=C(C[C@H]1C[C@H]2CC[C@@H](C1)N2C(=O)[C@H]1CCCCO1)OCCOCCOCCOC(=O)c1ccc(-c2c3nc(c(-c4c(F)cc(S(=O)(=O)[O-])cc4F)c4ccc([nH]4)c(-c4c(F)cc(S(=O)(=O)[O-])cc4F)c4nc(c(-c5c(F)cc(S(=O)(=O)[O-])cc5F)c5ccc2[nH]5)C=C4)C=C3)cc1
REMARK SMILES IDX 24 1 23 2 22 3 21 4 20 5 2 6 1 7 3 8 4 9 5 10 10 11 6 12
REMARK SMILES IDX 9 13 7 14 11 15 8 16 12 17 13 18 14 19 15 20 19 21 16 22
REMARK SMILES IDX 18 23 17 24 25 25 26 26 27 27 28 28 29 29 30 30 31 31 32 32
REMARK SMILES IDX 33 33 97 34 34 35 96 36 35 37 36 38 37 39 90 40 38 41 95 42
REMARK SMILES IDX 89 43 91 44 39 45 94 46 88 47 87 48 40 50 74 51 53 52 73 53
REMARK SMILES IDX 54 54 57 55 72 56 92 57 55 58 56 59 71 61 93 62 58 63 41 64
REMARK SMILES IDX 42 65 51 66 43 67 44 68 50 69 52 70 45 71 46 72 47 73 48 74
REMARK SMILES IDX 49 75 75 76 76 77 85 78 77 79 78 80 84 81 86 82 79 83 80 84
REMARK SMILES IDX 81 85 82 86 83 87 59 88 60 89 69 90 61 91 62 92 68 93 70 94
REMARK SMILES IDX 63 95 64 96 65 97 66 98 67 99
REMARK H PARENT 91 49 57 60
REMARK Flexibility Score: inf
ROOT
ATOM      1  C   UNL     1       9.023   8.160   2.251  1.00  0.00     0.188 C 
ENDROOT
BRANCH   1   2
ATOM      2  O   UNL     1       9.106   7.034   1.383  1.00  0.00    -0.376 OA
BRANCH   2   3
ATOM      3  C   UNL     1       8.628   5.816   1.928  1.00  0.00     0.202 C 
BRANCH   3   4
ATOM      4  C   UNL     1       7.201   5.869   2.458  1.00  0.00     0.261 C 
BRANCH   4   5
ATOM      5  O   UNL     1       6.971   6.623   3.694  1.00  0.00    -0.463 OA
BRANCH   5   6
ATOM      6  C   UNL     1       7.532   6.875   4.891  1.00  0.00     0.306 C 
ATOM      7  O   UNL     1       7.052   7.776   5.580  1.00  0.00    -0.252 OA
BRANCH   6   8
ATOM      8  C   UNL     1       8.722   6.111   5.399  1.00  0.00     0.126 C 
BRANCH   8   9
ATOM      9  C   UNL     1       8.564   4.647   5.819  1.00  0.00     0.004 C 
ATOM     10  C   UNL     1       8.059   4.300   7.248  1.00  0.00     0.029 C 
ATOM     11  C   UNL     1       7.818   3.833   4.785  1.00  0.00     0.029 C 
ATOM     12  C   UNL     1       6.590   3.793   7.325  1.00  0.00     0.085 C 
ATOM     13  C   UNL     1       6.300   3.677   5.030  1.00  0.00     0.085 C 
ATOM     14  C   UNL     1       5.669   4.976   7.006  1.00  0.00     0.027 C 
ATOM     15  N   UNL     1       6.300   2.870   6.216  1.00  0.00    -0.334 N 
ATOM     16  C   UNL     1       5.374   4.798   5.514  1.00  0.00     0.027 C 
BRANCH  15  17
ATOM     17  C   UNL     1       6.198   1.495   6.259  1.00  0.00     0.252 C 
ATOM     18  O   UNL     1       6.349   0.883   7.316  1.00  0.00    -0.272 OA
BRANCH  17  19
ATOM     19  C   UNL     1       5.796   0.776   4.913  1.00  0.00     0.207 C 
ATOM     20  C   UNL     1       6.927   0.755   3.862  1.00  0.00     0.042 C 
ATOM     21  O   UNL     1       5.358  -0.564   5.161  1.00  0.00    -0.368 OA
ATOM     22  C   UNL     1       6.553  -0.025   2.607  1.00  0.00     0.006 C 
ATOM     23  C   UNL     1       4.881  -1.222   3.990  1.00  0.00     0.161 C 
ATOM     24  C   UNL     1       6.006  -1.388   2.981  1.00  0.00     0.029 C 
ENDBRANCH  17  19
ENDBRANCH  15  17
ENDBRANCH   8   9
ENDBRANCH   6   8
ENDBRANCH   5   6
ENDBRANCH   4   5
ENDBRANCH   3   4
ENDBRANCH   2   3
ENDBRANCH   1   2
BRANCH   1  25
ATOM     25  C   UNL     1       7.704   8.943   2.094  1.00  0.00     0.188 C 
BRANCH  25  26
ATOM     26  O   UNL     1       7.018   8.599   0.894  1.00  0.00    -0.376 OA
BRANCH  26  27
ATOM     27  C   UNL     1       7.205   9.506  -0.186  1.00  0.00     0.202 C 
BRANCH  27  28
ATOM     28  C   UNL     1       8.634   9.591  -0.748  1.00  0.00     0.261 C 
BRANCH  28  29
ATOM     29  O   UNL     1       9.660  10.105   0.131  1.00  0.00    -0.460 OA
BRANCH  29  30
ATOM     30  C   UNL     1       9.474  11.269   0.796  1.00  0.00     0.338 C 
ATOM     31  O   UNL     1       8.553  12.053   0.647  1.00  0.00    -0.246 OA
BRANCH  30  32
ATOM     32  C   UNL     1      10.444  11.302   1.930  1.00  0.00     0.060 A 
ATOM     33  C   UNL     1       9.975  11.530   3.235  1.00  0.00     0.016 A 
ATOM     34  C   UNL     1      11.796  11.017   1.724  1.00  0.00     0.016 A 
ATOM     35  C   UNL     1      10.858  11.502   4.325  1.00  0.00     0.010 A 
ATOM     36  C   UNL     1      12.681  11.014   2.810  1.00  0.00     0.010 A 
ATOM     37  C   UNL     1      12.226  11.284   4.115  1.00  0.00    -0.014 A 
BRANCH  37  38
ATOM     38  C   UNL     1      13.226  11.553   5.186  1.00  0.00     0.031 A 
ATOM     39  C   UNL     1      13.887  12.908   5.199  1.00  0.00     0.074 A 
ATOM     40  C   UNL     1      13.596  10.624   6.089  1.00  0.00     0.049 A 
ATOM     41  N   UNL     1      14.902  13.331   5.905  1.00  0.00    -0.248 NA
ATOM     42  C   UNL     1      13.329  13.917   4.282  1.00  0.00     0.031 C 
ATOM     43  C   UNL     1      13.019   9.289   6.226  1.00  0.00     0.029 A 
ATOM     44  N   UNL     1      14.582  10.662   7.051  1.00  0.00    -0.354 N 
ATOM     45  C   UNL     1      15.124  14.641   5.498  1.00  0.00     0.074 A 
ATOM     46  C   UNL     1      14.140  14.945   4.483  1.00  0.00     0.031 C 
ATOM     47  C   UNL     1      13.688   8.621   7.185  1.00  0.00     0.029 A 
ATOM     48  C   UNL     1      14.767   9.464   7.703  1.00  0.00     0.049 A 
ATOM     49  H   UNL     1      15.107  11.470   7.252  1.00  0.00     0.167 HD
ATOM     50  C   UNL     1      16.065  15.513   5.927  1.00  0.00     0.037 A 
ATOM     51  C   UNL     1      15.720   9.077   8.579  1.00  0.00     0.037 A 
ATOM     52  C   UNL     1      17.033  15.228   6.950  1.00  0.00     0.049 A 
ATOM     53  C   UNL     1      16.804  10.049   8.991  1.00  0.00     0.074 A 
ATOM     54  C   UNL     1      17.982  16.079   7.492  1.00  0.00     0.029 A 
ATOM     55  N   UNL     1      17.191  14.003   7.575  1.00  0.00    -0.354 N 
ATOM     56  N   UNL     1      16.970  11.302   8.637  1.00  0.00    -0.248 NA
ATOM     57  C   UNL     1      17.840   9.551   9.912  1.00  0.00     0.031 C 
ATOM     58  C   UNL     1      18.753  15.351   8.401  1.00  0.00     0.029 A 
ATOM     59  C   UNL     1      18.250  14.062   8.465  1.00  0.00     0.049 A 
ATOM     60  H   UNL     1      16.633  13.208   7.412  1.00  0.00     0.167 HD
ATOM     61  C   UNL     1      18.111  11.741   9.305  1.00  0.00     0.074 A 
ATOM     62  C   UNL     1      18.587  10.630  10.099  1.00  0.00     0.031 C 
ATOM     63  C   UNL     1      18.713  12.955   9.261  1.00  0.00     0.037 A 
BRANCH  50  64
ATOM     64  C   UNL     1      16.125  16.863   5.274  1.00  0.00     0.058 A 
ATOM     65  C   UNL     1      15.191  17.868   5.565  1.00  0.00     0.135 A 
ATOM     66  C   UNL     1      17.188  17.179   4.412  1.00  0.00     0.135 A 
ATOM     67  F   UNL     1      14.145  17.608   6.365  1.00  0.00    -0.206 F 
ATOM     68  C   UNL     1      15.312  19.144   5.027  1.00  0.00     0.059 A 
ATOM     69  C   UNL     1      17.341  18.455   3.881  1.00  0.00     0.059 A 
ATOM     70  F   UNL     1      18.101  16.247   4.096  1.00  0.00    -0.206 F 
ATOM     71  C   UNL     1      16.396  19.430   4.194  1.00  0.00     0.060 A 
BRANCH  71  72
ATOM     72  S   UNL     1      16.568  21.108   3.550  1.00  0.00     0.124 S 
ATOM     73  O   UNL     1      15.485  21.158   2.573  1.00  0.00    -0.237 OA
ATOM     74  O   UNL     1      16.379  21.921   4.748  1.00  0.00    -0.237 OA
ATOM     75  O   UNL     1      17.917  21.122   2.993  1.00  0.00    -0.744 OA
ENDBRANCH  71  72
ENDBRANCH  50  64
BRANCH  51  76
ATOM     76  C   UNL     1      15.759   7.676   9.088  1.00  0.00     0.058 A 
ATOM     77  C   UNL     1      15.547   7.385  10.445  1.00  0.00     0.135 A 
ATOM     78  C   UNL     1      16.080   6.607   8.237  1.00  0.00     0.135 A 
ATOM     79  F   UNL     1      15.259   8.374  11.305  1.00  0.00    -0.206 F 
ATOM     80  C   UNL     1      15.682   6.092  10.945  1.00  0.00     0.059 A 
ATOM     81  C   UNL     1      16.192   5.302   8.707  1.00  0.00     0.059 A 
ATOM     82  F   UNL     1      16.290   6.827   6.929  1.00  0.00    -0.206 F 
ATOM     83  C   UNL     1      16.009   5.058  10.067  1.00  0.00     0.060 A 
BRANCH  83  84
ATOM     84  S   UNL     1      16.168   3.380  10.717  1.00  0.00     0.124 S 
ATOM     85  O   UNL     1      17.458   3.449  11.393  1.00  0.00    -0.237 OA
ATOM     86  O   UNL     1      14.997   3.273  11.581  1.00  0.00    -0.237 OA
ATOM     87  O   UNL     1      16.127   2.552   9.514  1.00  0.00    -0.744 OA
ENDBRANCH  83  84
ENDBRANCH  51  76
BRANCH  63  88
ATOM     88  C   UNL     1      19.942  13.171  10.104  1.00  0.00     0.058 A 
ATOM     89  C   UNL     1      21.180  12.610   9.755  1.00  0.00     0.135 A 
ATOM     90  C   UNL     1      19.900  14.019  11.223  1.00  0.00     0.135 A 
ATOM     91  F   UNL     1      21.275  11.789   8.697  1.00  0.00    -0.206 F 
ATOM     92  C   UNL     1      22.332  12.875  10.491  1.00  0.00     0.059 A 
ATOM     93  C   UNL     1      21.044  14.318  11.958  1.00  0.00     0.059 A 
ATOM     94  F   UNL     1      18.744  14.591  11.595  1.00  0.00    -0.206 F 
ATOM     95  C   UNL     1      22.255  13.735  11.588  1.00  0.00     0.060 A 
BRANCH  95  96
ATOM     96  S   UNL     1      23.768  14.114  12.499  1.00  0.00     0.124 S 
ATOM     97  O   UNL     1      23.999  12.867  13.219  1.00  0.00    -0.237 OA
ATOM     98  O   UNL     1      24.713  14.411  11.426  1.00  0.00    -0.237 OA
ATOM     99  O   UNL     1      23.390  15.256  13.326  1.00  0.00    -0.744 OA
ENDBRANCH  95  96
ENDBRANCH  63  88
ENDBRANCH  37  38
ENDBRANCH  30  32
ENDBRANCH  29  30
ENDBRANCH  28  29
ENDBRANCH  27  28
ENDBRANCH  26  27
ENDBRANCH  25  26
ENDBRANCH   1  25
TORSDOF 23
