REMARK SMILES Cc1cc(C(=O)N2[C@@H](C(=O)OCCOCCOCCOC(=O)c3ccc(-c4c5nc(c(-c6c(F)cc(S(=O)(=O)[O-])cc6F)c6ccc([nH]6)c(-c6c(F)cc(S(=O)(=O)[O-])cc6F)c6nc(c(-c7c(F)cc(S(=O)(=O)[O-])cc7F)c7ccc4[nH]7)C=C6)C=C5)cc3)C[C@H]3CCCC[C@H]32)c(C)s1
REMARK SMILES IDX 16 1 15 2 14 3 13 4 12 5 11 6 9 7 10 8 8 9 7 10 95 11 89 12
REMARK SMILES IDX 90 13 94 14 91 15 93 16 92 17 5 18 6 19 4 20 1 21 2 22 3 23
REMARK SMILES IDX 98 24 96 25 97 26 17 27 18 28 19 29 20 30 21 31 22 32 23 33
REMARK SMILES IDX 24 34 88 35 25 36 87 37 26 38 27 39 28 40 81 41 29 42 86 43
REMARK SMILES IDX 80 44 82 45 30 46 85 47 79 48 78 49 31 51 65 52 44 53 64 54
REMARK SMILES IDX 45 55 48 56 63 57 83 58 46 59 47 60 62 62 84 63 49 64 32 65
REMARK SMILES IDX 33 66 42 67 34 68 35 69 41 70 43 71 36 72 37 73 38 74 39 75
REMARK SMILES IDX 40 76 66 77 67 78 76 79 68 80 69 81 75 82 77 83 70 84 71 85
REMARK SMILES IDX 72 86 73 87 74 88 50 89 51 90 60 91 52 92 53 93 59 94 61 95
REMARK SMILES IDX 54 96 55 97 56 98 57 99 58 100
REMARK H PARENT 82 50 48 61
REMARK Flexibility Score: inf
ROOT
ATOM      1  C   UNL     1       1.666  -6.686  -3.070  1.00  0.00     0.188 C 
ENDROOT
BRANCH   1   2
ATOM      2  C   UNL     1       0.592  -6.294  -4.091  1.00  0.00     0.188 C 
BRANCH   2   3
ATOM      3  O   UNL     1       0.869  -5.270  -5.041  1.00  0.00    -0.376 OA
BRANCH   3   4
ATOM      4  C   UNL     1       1.994  -4.429  -4.857  1.00  0.00     0.202 C 
BRANCH   4   5
ATOM      5  C   UNL     1       1.825  -3.265  -3.871  1.00  0.00     0.261 C 
BRANCH   5   6
ATOM      6  O   UNL     1       1.446  -3.609  -2.523  1.00  0.00    -0.462 OA
BRANCH   6   7
ATOM      7  C   UNL     1       0.111  -3.568  -2.260  1.00  0.00     0.328 C 
ATOM      8  O   UNL     1      -0.755  -3.406  -3.113  1.00  0.00    -0.250 OA
BRANCH   7   9
ATOM      9  C   UNL     1      -0.245  -3.834  -0.787  1.00  0.00     0.196 C 
ATOM     10  N   UNL     1       0.812  -3.696   0.240  1.00  0.00    -0.322 N 
ATOM     11  C   UNL     1       0.919  -4.891   1.075  1.00  0.00     0.089 C 
ATOM     12  C   UNL     1      -0.773  -5.262  -0.590  1.00  0.00     0.043 C 
ATOM     13  C   UNL     1      -0.444  -5.563   0.875  1.00  0.00     0.014 C 
ATOM     14  C   UNL     1       2.134  -5.753   0.722  1.00  0.00     0.025 C 
ATOM     15  C   UNL     1      -0.502  -7.035   1.259  1.00  0.00     0.006 C 
ATOM     16  C   UNL     1       2.013  -7.187   1.228  1.00  0.00     0.002 C 
ATOM     17  C   UNL     1       0.707  -7.834   0.790  1.00  0.00     0.000 C 
BRANCH  10  18
ATOM     18  C   UNL     1       1.398  -2.515   0.680  1.00  0.00     0.255 C 
ATOM     19  O   UNL     1       2.421  -2.514   1.363  1.00  0.00    -0.269 OA
BRANCH  18  20
ATOM     20  C   UNL     1       0.686  -1.269   0.381  1.00  0.00     0.053 A 
ATOM     21  C   UNL     1      -2.580   0.625   0.035  1.00  0.00     0.056 C 
ATOM     22  C   UNL     1      -1.170   0.154   0.128  1.00  0.00     0.003 A 
ATOM     23  C   UNL     1      -0.721  -1.058   0.596  1.00  0.00     0.029 A 
ATOM     24  S   UNL     1       0.131   1.146  -0.342  1.00  0.00    -0.145 S 
ATOM     25  C   UNL     1       1.287  -0.083  -0.013  1.00  0.00     0.014 A 
ATOM     26  C   UNL     1       2.737   0.234  -0.176  1.00  0.00     0.057 C 
ENDBRANCH  18  20
ENDBRANCH  10  18
ENDBRANCH   7   9
ENDBRANCH   6   7
ENDBRANCH   5   6
ENDBRANCH   4   5
ENDBRANCH   3   4
ENDBRANCH   2   3
ENDBRANCH   1   2
BRANCH   1  27
ATOM     27  O   UNL     1       2.922  -6.949  -3.681  1.00  0.00    -0.376 OA
BRANCH  27  28
ATOM     28  C   UNL     1       3.485  -8.213  -3.368  1.00  0.00     0.202 C 
BRANCH  28  29
ATOM     29  C   UNL     1       2.965  -9.301  -4.310  1.00  0.00     0.261 C 
BRANCH  29  30
ATOM     30  O   UNL     1       1.531  -9.431  -4.360  1.00  0.00    -0.460 OA
BRANCH  30  31
ATOM     31  C   UNL     1       0.915  -9.915  -3.263  1.00  0.00     0.338 C 
ATOM     32  O   UNL     1       1.455 -10.242  -2.209  1.00  0.00    -0.246 OA
BRANCH  31  33
ATOM     33  C   UNL     1      -0.548  -9.830  -3.460  1.00  0.00     0.060 A 
ATOM     34  C   UNL     1      -1.334  -9.204  -2.485  1.00  0.00     0.016 A 
ATOM     35  C   UNL     1      -1.151 -10.383  -4.593  1.00  0.00     0.016 A 
ATOM     36  C   UNL     1      -2.724  -9.158  -2.620  1.00  0.00     0.010 A 
ATOM     37  C   UNL     1      -2.544 -10.348  -4.722  1.00  0.00     0.010 A 
ATOM     38  C   UNL     1      -3.341  -9.763  -3.722  1.00  0.00    -0.014 A 
BRANCH  38  39
ATOM     39  C   UNL     1      -4.817  -9.935  -3.759  1.00  0.00     0.031 A 
ATOM     40  C   UNL     1      -5.397 -11.268  -3.371  1.00  0.00     0.074 A 
ATOM     41  C   UNL     1      -5.633  -8.934  -4.140  1.00  0.00     0.049 A 
ATOM     42  N   UNL     1      -6.636 -11.684  -3.423  1.00  0.00    -0.248 NA
ATOM     43  C   UNL     1      -4.448 -12.269  -2.857  1.00  0.00     0.031 C 
ATOM     44  C   UNL     1      -5.206  -7.585  -4.501  1.00  0.00     0.029 A 
ATOM     45  N   UNL     1      -6.997  -8.912  -4.304  1.00  0.00    -0.354 N 
ATOM     46  C   UNL     1      -6.614 -12.997  -2.969  1.00  0.00     0.074 A 
ATOM     47  C   UNL     1      -5.236 -13.315  -2.662  1.00  0.00     0.031 C 
ATOM     48  C   UNL     1      -6.285  -6.871  -4.869  1.00  0.00     0.029 A 
ATOM     49  C   UNL     1      -7.472  -7.723  -4.806  1.00  0.00     0.049 A 
ATOM     50  H   UNL     1      -7.579  -9.675  -4.083  1.00  0.00     0.167 HD
ATOM     51  C   UNL     1      -7.647 -13.861  -2.821  1.00  0.00     0.037 A 
ATOM     52  C   UNL     1      -8.714  -7.374  -5.202  1.00  0.00     0.037 A 
ATOM     53  C   UNL     1      -9.018 -13.544  -3.127  1.00  0.00     0.049 A 
ATOM     54  C   UNL     1      -9.840  -8.372  -5.089  1.00  0.00     0.074 A 
ATOM     55  C   UNL     1     -10.138 -14.345  -2.986  1.00  0.00     0.029 A 
ATOM     56  N   UNL     1      -9.456 -12.335  -3.646  1.00  0.00    -0.354 N 
ATOM     57  N   UNL     1      -9.811  -9.604  -4.637  1.00  0.00    -0.248 NA
ATOM     58  C   UNL     1     -11.169  -7.932  -5.540  1.00  0.00     0.031 C 
ATOM     59  C   UNL     1     -11.245 -13.639  -3.468  1.00  0.00     0.029 A 
ATOM     60  C   UNL     1     -10.825 -12.377  -3.856  1.00  0.00     0.049 A 
ATOM     61  H   UNL     1      -8.879 -11.560  -3.836  1.00  0.00     0.167 HD
ATOM     62  C   UNL     1     -11.118 -10.075  -4.725  1.00  0.00     0.074 A 
ATOM     63  C   UNL     1     -11.916  -8.993  -5.264  1.00  0.00     0.031 C 
ATOM     64  C   UNL     1     -11.613 -11.292  -4.387  1.00  0.00     0.037 A 
BRANCH  51  65
ATOM     65  C   UNL     1      -7.327 -15.249  -2.339  1.00  0.00     0.058 A 
ATOM     66  C   UNL     1      -6.940 -15.505  -1.014  1.00  0.00     0.135 A 
ATOM     67  C   UNL     1      -7.433 -16.343  -3.213  1.00  0.00     0.135 A 
ATOM     68  F   UNL     1      -6.805 -14.493  -0.142  1.00  0.00    -0.206 F 
ATOM     69  C   UNL     1      -6.639 -16.792  -0.581  1.00  0.00     0.059 A 
ATOM     70  C   UNL     1      -7.164 -17.642  -2.795  1.00  0.00     0.059 A 
ATOM     71  F   UNL     1      -7.797 -16.155  -4.492  1.00  0.00    -0.206 F 
ATOM     72  C   UNL     1      -6.752 -17.854  -1.480  1.00  0.00     0.060 A 
BRANCH  72  73
ATOM     73  S   UNL     1      -6.352 -19.518  -0.905  1.00  0.00     0.124 S 
ATOM     74  O   UNL     1      -4.897 -19.448  -0.806  1.00  0.00    -0.237 OA
ATOM     75  O   UNL     1      -7.070 -19.590   0.364  1.00  0.00    -0.237 OA
ATOM     76  O   UNL     1      -6.868 -20.378  -1.964  1.00  0.00    -0.744 OA
ENDBRANCH  72  73
ENDBRANCH  51  65
BRANCH  52  77
ATOM     77  C   UNL     1      -8.958  -6.020  -5.769  1.00  0.00     0.058 A 
ATOM     78  C   UNL     1      -9.713  -5.065  -5.072  1.00  0.00     0.135 A 
ATOM     79  C   UNL     1      -8.443  -5.655  -7.023  1.00  0.00     0.135 A 
ATOM     80  F   UNL     1     -10.242  -5.371  -3.878  1.00  0.00    -0.206 F 
ATOM     81  C   UNL     1      -9.955  -3.800  -5.599  1.00  0.00     0.059 A 
ATOM     82  C   UNL     1      -8.649  -4.388  -7.560  1.00  0.00     0.059 A 
ATOM     83  F   UNL     1      -7.712  -6.531  -7.730  1.00  0.00    -0.206 F 
ATOM     84  C   UNL     1      -9.414  -3.469  -6.843  1.00  0.00     0.060 A 
BRANCH  84  85
ATOM     85  S   UNL     1      -9.687  -1.805  -7.490  1.00  0.00     0.124 S 
ATOM     86  O   UNL     1     -11.094  -1.864  -7.868  1.00  0.00    -0.237 OA
ATOM     87  O   UNL     1      -9.370  -0.972  -6.335  1.00  0.00    -0.237 OA
ATOM     88  O   UNL     1      -8.739  -1.716  -8.597  1.00  0.00    -0.744 OA
ENDBRANCH  84  85
ENDBRANCH  52  77
BRANCH  64  89
ATOM     89  C   UNL     1     -13.093 -11.518  -4.547  1.00  0.00     0.058 A 
ATOM     90  C   UNL     1     -13.688 -11.672  -5.809  1.00  0.00     0.135 A 
ATOM     91  C   UNL     1     -13.917 -11.646  -3.417  1.00  0.00     0.135 A 
ATOM     92  F   UNL     1     -12.948 -11.555  -6.923  1.00  0.00    -0.206 F 
ATOM     93  C   UNL     1     -15.050 -11.924  -5.946  1.00  0.00     0.059 A 
ATOM     94  C   UNL     1     -15.276 -11.925  -3.528  1.00  0.00     0.059 A 
ATOM     95  F   UNL     1     -13.399 -11.520  -2.184  1.00  0.00    -0.206 F 
ATOM     96  C   UNL     1     -15.836 -12.051  -4.798  1.00  0.00     0.060 A 
BRANCH  96  97
ATOM     97  S   UNL     1     -17.595 -12.415  -4.987  1.00  0.00     0.124 S 
ATOM     98  O   UNL     1     -18.113 -11.132  -5.450  1.00  0.00    -0.237 OA
ATOM     99  O   UNL     1     -17.588 -13.490  -5.976  1.00  0.00    -0.237 OA
ATOM    100  O   UNL     1     -18.007 -12.812  -3.644  1.00  0.00    -0.744 OA
ENDBRANCH  96  97
ENDBRANCH  64  89
ENDBRANCH  38  39
ENDBRANCH  31  33
ENDBRANCH  30  31
ENDBRANCH  29  30
ENDBRANCH  28  29
ENDBRANCH  27  28
ENDBRANCH   1  27
TORSDOF 22
