REMARK SMILES O=C(OCCOCCOCCOC(=O)[C@@H]1CN(C(=O)[C@H]2CC=CCC2)c2ccccc2O1)c1ccc(-c2c3nc(c(-c4c(F)cc(S(=O)(=O)[O-])cc4F)c4ccc([nH]4)c(-c4c(F)cc(S(=O)(=O)[O-])cc4F)c4nc(c(-c5c(F)cc(S(=O)(=O)[O-])cc5F)c5ccc2[nH]5)C=C4)C=C3)cc1
REMARK SMILES IDX 7 1 6 2 5 3 4 4 3 5 2 6 1 7 33 8 34 9 98 10 35 11 97 12
REMARK SMILES IDX 36 13 37 14 38 15 91 16 39 17 96 18 90 19 92 20 40 21 95 22
REMARK SMILES IDX 89 23 88 24 41 26 75 27 54 28 74 29 55 30 58 31 73 32 93 33
REMARK SMILES IDX 56 34 57 35 72 37 94 38 59 39 42 40 43 41 52 42 44 43 45 44
REMARK SMILES IDX 51 45 53 46 46 47 47 48 48 49 49 50 50 51 76 52 77 53 86 54
REMARK SMILES IDX 78 55 79 56 85 57 87 58 80 59 81 60 82 61 83 62 84 63 60 64
REMARK SMILES IDX 61 65 70 66 62 67 63 68 69 69 71 70 64 71 65 72 66 73 67 74
REMARK SMILES IDX 68 75 8 76 9 77 10 78 11 79 12 80 13 81 14 82 15 83 16 84
REMARK SMILES IDX 32 85 17 86 31 87 26 88 30 89 27 90 29 91 28 92 18 93 19 94
REMARK SMILES IDX 20 95 21 96 25 97 22 98 24 99 23 100
REMARK H PARENT 92 25 58 36
REMARK Flexibility Score: inf
ROOT
ATOM      1  C   UNL     1       2.571   0.812  -2.502  1.00  0.00     0.188 C 
ENDROOT
BRANCH   1   2
ATOM      2  O   UNL     1       3.807   1.058  -1.821  1.00  0.00    -0.376 OA
BRANCH   2   3
ATOM      3  C   UNL     1       4.788   0.031  -1.974  1.00  0.00     0.202 C 
BRANCH   3   4
ATOM      4  C   UNL     1       4.529  -1.265  -1.204  1.00  0.00     0.261 C 
BRANCH   4   5
ATOM      5  O   UNL     1       3.145  -1.511  -0.932  1.00  0.00    -0.460 OA
BRANCH   5   6
ATOM      6  C   UNL     1       2.378  -0.852  -0.026  1.00  0.00     0.338 C 
ATOM      7  O   UNL     1       1.169  -1.049  -0.011  1.00  0.00    -0.246 OA
BRANCH   6   8
ATOM      8  C   UNL     1       2.988  -0.039   1.054  1.00  0.00     0.060 A 
ATOM      9  C   UNL     1       3.490   1.690   1.114  1.00  0.00     0.016 A 
ATOM     10  C   UNL     1       3.311  -0.966   2.447  1.00  0.00     0.016 A 
ATOM     11  C   UNL     1       4.400   2.188   2.794  1.00  0.00     0.010 A 
ATOM     12  C   UNL     1       4.101  -0.384   3.858  1.00  0.00     0.010 A 
ATOM     13  C   UNL     1       4.703   1.177   4.078  1.00  0.00    -0.014 A 
BRANCH  13  14
ATOM     14  C   UNL     1       5.720   1.761   5.113  1.00  0.00     0.031 A 
ATOM     15  C   UNL     1       6.315   0.843   6.120  1.00  0.00     0.074 A 
ATOM     16  C   UNL     1       6.287   3.018   5.135  1.00  0.00     0.049 A 
ATOM     17  N   UNL     1       6.820   1.103   7.289  1.00  0.00    -0.248 NA
ATOM     18  C   UNL     1       6.387  -0.569   5.739  1.00  0.00     0.031 C 
ATOM     19  C   UNL     1       6.497   3.940   4.018  1.00  0.00     0.029 A 
ATOM     20  N   UNL     1       6.758   3.820   6.161  1.00  0.00    -0.354 N 
ATOM     21  C   UNL     1       7.166  -0.134   7.804  1.00  0.00     0.074 A 
ATOM     22  C   UNL     1       6.663  -1.139   6.897  1.00  0.00     0.031 C 
ATOM     23  C   UNL     1       6.584   5.213   4.407  1.00  0.00     0.029 A 
ATOM     24  C   UNL     1       6.837   5.175   5.822  1.00  0.00     0.049 A 
ATOM     25  H   UNL     1       7.013   3.469   7.045  1.00  0.00     0.167 HD
ATOM     26  C   UNL     1       7.958  -0.402   8.863  1.00  0.00     0.037 A 
ATOM     27  C   UNL     1       7.233   6.284   6.477  1.00  0.00     0.037 A 
ATOM     28  C   UNL     1       8.641   0.626   9.597  1.00  0.00     0.049 A 
ATOM     29  C   UNL     1       8.004   5.992   7.714  1.00  0.00     0.074 A 
ATOM     30  C   UNL     1       9.459   0.495  10.700  1.00  0.00     0.029 A 
ATOM     31  N   UNL     1       8.626   1.978   9.260  1.00  0.00    -0.354 N 
ATOM     32  N   UNL     1       8.197   4.818   8.264  1.00  0.00    -0.248 NA
ATOM     33  C   UNL     1       8.715   7.101   8.347  1.00  0.00     0.031 C 
ATOM     34  C   UNL     1       9.881   1.774  11.074  1.00  0.00     0.029 A 
ATOM     35  C   UNL     1       9.384   2.699  10.165  1.00  0.00     0.049 A 
ATOM     36  H   UNL     1       8.147   2.364   8.492  1.00  0.00     0.167 HD
ATOM     37  C   UNL     1       9.099   5.027   9.279  1.00  0.00     0.074 A 
ATOM     38  C   UNL     1       9.415   6.448   9.265  1.00  0.00     0.031 C 
ATOM     39  C   UNL     1       9.627   4.121  10.134  1.00  0.00     0.037 A 
BRANCH  26  40
ATOM     40  C   UNL     1       8.056  -1.843   9.270  1.00  0.00     0.058 A 
ATOM     41  C   UNL     1       8.675  -2.829   8.479  1.00  0.00     0.135 A 
ATOM     42  C   UNL     1       7.384  -2.262  10.428  1.00  0.00     0.135 A 
ATOM     43  F   UNL     1       9.290  -2.492   7.332  1.00  0.00    -0.206 F 
ATOM     44  C   UNL     1       8.562  -4.181   8.785  1.00  0.00     0.059 A 
ATOM     45  C   UNL     1       7.296  -3.604  10.776  1.00  0.00     0.059 A 
ATOM     46  F   UNL     1       6.764  -1.365  11.210  1.00  0.00    -0.206 F 
ATOM     47  C   UNL     1       7.865  -4.558   9.934  1.00  0.00     0.060 A 
BRANCH  47  48
ATOM     48  S   UNL     1       7.701  -6.315  10.309  1.00  0.00     0.124 S 
ATOM     49  O   UNL     1       6.738  -6.741   9.299  1.00  0.00    -0.237 OA
ATOM     50  O   UNL     1       9.066  -6.797  10.126  1.00  0.00    -0.237 OA
ATOM     51  O   UNL     1       7.215  -6.323  11.685  1.00  0.00    -0.744 OA
ENDBRANCH  47  48
ENDBRANCH  26  40
BRANCH  27  52
ATOM     52  C   UNL     1       7.136   7.654   5.868  1.00  0.00     0.058 A 
ATOM     53  C   UNL     1       8.250   8.344   5.359  1.00  0.00     0.135 A 
ATOM     54  C   UNL     1       5.888   8.289   5.736  1.00  0.00     0.135 A 
ATOM     55  F   UNL     1       9.467   7.783   5.415  1.00  0.00    -0.206 F 
ATOM     56  C   UNL     1       8.140   9.615   4.785  1.00  0.00     0.059 A 
ATOM     57  C   UNL     1       5.749   9.553   5.154  1.00  0.00     0.059 A 
ATOM     58  F   UNL     1       4.774   7.672   6.161  1.00  0.00    -0.206 F 
ATOM     59  C   UNL     1       6.885  10.217   4.694  1.00  0.00     0.060 A 
BRANCH  59  60
ATOM     60  S   UNL     1       6.755  11.863   3.949  1.00  0.00     0.124 S 
ATOM     61  O   UNL     1       7.460  12.687   4.924  1.00  0.00    -0.237 OA
ATOM     62  O   UNL     1       7.428  11.672   2.668  1.00  0.00    -0.237 OA
ATOM     63  O   UNL     1       5.314  12.084   3.865  1.00  0.00    -0.744 OA
ENDBRANCH  59  60
ENDBRANCH  27  52
BRANCH  39  64
ATOM     64  C   UNL     1      10.565   4.682  11.144  1.00  0.00     0.058 A 
ATOM     65  C   UNL     1      10.094   5.497  12.184  1.00  0.00     0.135 A 
ATOM     66  C   UNL     1      11.933   4.391  11.075  1.00  0.00     0.135 A 
ATOM     67  F   UNL     1       8.791   5.812  12.264  1.00  0.00    -0.206 F 
ATOM     68  C   UNL     1      10.964   6.037  13.113  1.00  0.00     0.059 A 
ATOM     69  C   UNL     1      12.815   4.888  12.019  1.00  0.00     0.059 A 
ATOM     70  F   UNL     1      12.415   3.616  10.091  1.00  0.00    -0.206 F 
ATOM     71  C   UNL     1      12.321   5.720  13.025  1.00  0.00     0.060 A 
BRANCH  71  72
ATOM     72  S   UNL     1      13.432   6.395  14.268  1.00  0.00     0.124 S 
ATOM     73  O   UNL     1      13.507   7.794  13.861  1.00  0.00    -0.237 OA
ATOM     74  O   UNL     1      12.705   6.129  15.506  1.00  0.00    -0.237 OA
ATOM     75  O   UNL     1      14.654   5.619  14.085  1.00  0.00    -0.744 OA
ENDBRANCH  71  72
ENDBRANCH  39  64
ENDBRANCH  13  14
ENDBRANCH   6   8
ENDBRANCH   5   6
ENDBRANCH   4   5
ENDBRANCH   3   4
ENDBRANCH   2   3
ENDBRANCH   1   2
BRANCH   1  76
ATOM     76  C   UNL     1       1.971   2.039  -3.177  1.00  0.00     0.188 C 
BRANCH  76  77
ATOM     77  O   UNL     1       2.749   2.685  -4.174  1.00  0.00    -0.376 OA
BRANCH  77  78
ATOM     78  C   UNL     1       4.086   3.026  -3.835  1.00  0.00     0.202 C 
BRANCH  78  79
ATOM     79  C   UNL     1       4.328   4.064  -2.721  1.00  0.00     0.261 C 
BRANCH  79  80
ATOM     80  O   UNL     1       3.427   4.027  -1.594  1.00  0.00    -0.460 OA
BRANCH  80  81
ATOM     81  C   UNL     1       2.348   4.859  -1.667  1.00  0.00     0.349 C 
ATOM     82  O   UNL     1       2.133   5.599  -2.623  1.00  0.00    -0.248 OA
BRANCH  81  83
ATOM     83  C   UNL     1       1.454   4.860  -0.405  1.00  0.00     0.302 C 
ATOM     84  C   UNL     1       1.618   3.841   0.700  1.00  0.00     0.183 C 
ATOM     85  O   UNL     1       0.101   5.138  -0.612  1.00  0.00    -0.475 OA
ATOM     86  N   UNL     1       0.861   2.598   0.850  1.00  0.00    -0.304 N 
ATOM     87  C   UNL     1      -0.746   4.087  -0.368  1.00  0.00     0.144 A 
ATOM     88  C   UNL     1      -0.443   2.827   0.243  1.00  0.00     0.086 A 
ATOM     89  C   UNL     1      -2.037   4.436  -0.759  1.00  0.00     0.049 A 
ATOM     90  C   UNL     1      -1.480   1.901   0.285  1.00  0.00     0.030 A 
ATOM     91  C   UNL     1      -3.061   3.523  -0.627  1.00  0.00     0.004 A 
ATOM     92  C   UNL     1      -2.775   2.251  -0.138  1.00  0.00     0.002 A 
BRANCH  86  93
ATOM     93  C   UNL     1       1.169   1.497   1.833  1.00  0.00     0.230 C 
ATOM     94  O   UNL     1       0.294   0.671   2.146  1.00  0.00    -0.274 OA
BRANCH  93  95
ATOM     95  C   UNL     1       2.793   1.246   2.756  1.00  0.00     0.083 C 
ATOM     96  C   UNL     1       4.791   0.668   1.904  1.00  0.00     0.040 C 
ATOM     97  C   UNL     1       2.624   3.123   3.201  1.00  0.00     0.018 C 
ATOM     98  C   UNL     1       5.637   2.231   1.030  1.00  0.00    -0.030 C 
ATOM     99  C   UNL     1       3.770   4.272   2.252  1.00  0.00     0.028 C 
ATOM    100  C   UNL     1       5.115   3.620   1.132  1.00  0.00    -0.031 C 
ENDBRANCH  93  95
ENDBRANCH  86  93
ENDBRANCH  81  83
ENDBRANCH  80  81
ENDBRANCH  79  80
ENDBRANCH  78  79
ENDBRANCH  77  78
ENDBRANCH  76  77
ENDBRANCH   1  76
TORSDOF 22
