REMARK SMILES O=C(OCCOCCOCCOC(=O)[C@H]1CCCN(C(=O)C2CC[NH+](Cc3ccco3)CC2)C1)c1ccc(-c2c3nc(c(-c4c(F)cc(S(=O)(=O)[O-])cc4F)c4ccc([nH]4)c(-c4c(F)cc(S(=O)(=O)[O-])cc4F)c4nc(c(-c5c(F)cc(S(=O)(=O)[O-])cc5F)c5ccc2[nH]5)C=C4)C=C3)cc1
REMARK SMILES IDX 8 1 7 2 6 3 5 4 4 5 3 6 2 7 1 8 35 9 36 10 100 11 37 12
REMARK SMILES IDX 99 13 38 14 39 15 40 16 93 17 41 18 98 19 92 20 94 21 42 22
REMARK SMILES IDX 97 23 91 24 90 25 43 27 77 28 56 29 76 30 57 31 60 32 75 33
REMARK SMILES IDX 95 34 58 35 59 36 74 38 96 39 61 40 44 41 45 42 54 43 46 44
REMARK SMILES IDX 47 45 53 46 55 47 48 48 49 49 50 50 51 51 52 52 78 53 79 54
REMARK SMILES IDX 88 55 80 56 81 57 87 58 89 59 82 60 83 61 84 62 85 63 86 64
REMARK SMILES IDX 62 65 63 66 72 67 64 68 65 69 71 70 73 71 66 72 67 73 68 74
REMARK SMILES IDX 69 75 70 76 9 77 10 78 11 79 12 80 13 81 14 82 15 83 16 84
REMARK SMILES IDX 34 85 17 86 19 87 18 88 20 89 21 90 22 91 23 92 33 93 24 94
REMARK SMILES IDX 32 95 25 96 26 98 27 99 28 100 31 101 29 102 30 103
REMARK H PARENT 94 26 60 37 25 97
REMARK Flexibility Score: inf
ROOT
ATOM      1  C   UNL     1       5.489   1.939  -7.745  1.00  0.00     0.188 C 
ENDROOT
BRANCH   1   2
ATOM      2  C   UNL     1       6.156   1.937  -6.362  1.00  0.00     0.188 C 
BRANCH   2   3
ATOM      3  O   UNL     1       6.005   3.137  -5.597  1.00  0.00    -0.376 OA
BRANCH   3   4
ATOM      4  C   UNL     1       6.964   4.142  -5.926  1.00  0.00     0.202 C 
BRANCH   4   5
ATOM      5  C   UNL     1       8.307   4.021  -5.187  1.00  0.00     0.261 C 
BRANCH   5   6
ATOM      6  O   UNL     1       8.739   2.670  -4.956  1.00  0.00    -0.460 OA
BRANCH   6   7
ATOM      7  C   UNL     1       8.342   1.772  -4.022  1.00  0.00     0.338 C 
ATOM      8  O   UNL     1       8.775   0.623  -4.131  1.00  0.00    -0.246 OA
BRANCH   7   9
ATOM      9  C   UNL     1       7.443   2.068  -2.852  1.00  0.00     0.060 A 
ATOM     10  C   UNL     1       6.797   3.276  -2.580  1.00  0.00     0.016 A 
ATOM     11  C   UNL     1       7.258   1.021  -1.925  1.00  0.00     0.016 A 
ATOM     12  C   UNL     1       6.087   3.478  -1.392  1.00  0.00     0.010 A 
ATOM     13  C   UNL     1       6.521   1.204  -0.747  1.00  0.00     0.010 A 
ATOM     14  C   UNL     1       5.974   2.458  -0.450  1.00  0.00    -0.014 A 
BRANCH  14  15
ATOM     15  C   UNL     1       5.463   2.766   0.906  1.00  0.00     0.031 A 
ATOM     16  C   UNL     1       6.455   3.031   1.994  1.00  0.00     0.074 A 
ATOM     17  C   UNL     1       4.155   2.951   1.162  1.00  0.00     0.049 A 
ATOM     18  N   UNL     1       6.233   3.393   3.228  1.00  0.00    -0.248 NA
ATOM     19  C   UNL     1       7.878   2.964   1.624  1.00  0.00     0.031 C 
ATOM     20  C   UNL     1       3.116   3.000   0.149  1.00  0.00     0.029 A 
ATOM     21  N   UNL     1       3.474   3.155   2.337  1.00  0.00    -0.354 N 
ATOM     22  C   UNL     1       7.480   3.666   3.763  1.00  0.00     0.074 A 
ATOM     23  C   UNL     1       8.462   3.362   2.744  1.00  0.00     0.031 C 
ATOM     24  C   UNL     1       1.922   3.121   0.748  1.00  0.00     0.029 A 
ATOM     25  C   UNL     1       2.106   3.160   2.184  1.00  0.00     0.049 A 
ATOM     26  H   UNL     1       3.921   3.284   3.205  1.00  0.00     0.167 HD
ATOM     27  C   UNL     1       7.772   4.164   4.985  1.00  0.00     0.037 A 
ATOM     28  C   UNL     1       1.115   3.192   3.095  1.00  0.00     0.037 A 
ATOM     29  C   UNL     1       6.796   4.413   6.010  1.00  0.00     0.049 A 
ATOM     30  C   UNL     1       1.486   3.449   4.515  1.00  0.00     0.074 A 
ATOM     31  C   UNL     1       6.997   4.865   7.301  1.00  0.00     0.029 A 
ATOM     32  N   UNL     1       5.432   4.203   5.867  1.00  0.00    -0.354 N 
ATOM     33  N   UNL     1       2.675   3.651   5.020  1.00  0.00    -0.248 NA
ATOM     34  C   UNL     1       0.378   3.567   5.470  1.00  0.00     0.031 C 
ATOM     35  C   UNL     1       5.761   4.871   7.959  1.00  0.00     0.029 A 
ATOM     36  C   UNL     1       4.784   4.468   7.063  1.00  0.00     0.049 A 
ATOM     37  H   UNL     1       4.989   3.909   5.038  1.00  0.00     0.167 HD
ATOM     38  C   UNL     1       2.460   3.975   6.347  1.00  0.00     0.074 A 
ATOM     39  C   UNL     1       1.028   3.910   6.572  1.00  0.00     0.031 C 
ATOM     40  C   UNL     1       3.367   4.343   7.280  1.00  0.00     0.037 A 
BRANCH  27  41
ATOM     41  C   UNL     1       9.222   4.405   5.269  1.00  0.00     0.058 A 
ATOM     42  C   UNL     1       9.912   5.493   4.709  1.00  0.00     0.135 A 
ATOM     43  C   UNL     1       9.942   3.496   6.055  1.00  0.00     0.135 A 
ATOM     44  F   UNL     1       9.270   6.370   3.921  1.00  0.00    -0.206 F 
ATOM     45  C   UNL     1      11.280   5.651   4.895  1.00  0.00     0.059 A 
ATOM     46  C   UNL     1      11.307   3.645   6.268  1.00  0.00     0.059 A 
ATOM     47  F   UNL     1       9.326   2.431   6.592  1.00  0.00    -0.206 F 
ATOM     48  C   UNL     1      11.970   4.714   5.667  1.00  0.00     0.060 A 
BRANCH  48  49
ATOM     49  S   UNL     1      13.755   4.898   5.861  1.00  0.00     0.124 S 
ATOM     50  O   UNL     1      14.234   4.462   4.552  1.00  0.00    -0.237 OA
ATOM     51  O   UNL     1      13.895   6.323   6.144  1.00  0.00    -0.237 OA
ATOM     52  O   UNL     1      14.067   4.007   6.973  1.00  0.00    -0.744 OA
ENDBRANCH  48  49
ENDBRANCH  27  41
BRANCH  28  53
ATOM     53  C   UNL     1      -0.312   2.977   2.740  1.00  0.00     0.058 A 
ATOM     54  C   UNL     1      -1.124   4.003   2.240  1.00  0.00     0.135 A 
ATOM     55  C   UNL     1      -0.897   1.713   2.933  1.00  0.00     0.135 A 
ATOM     56  F   UNL     1      -0.615   5.230   2.053  1.00  0.00    -0.206 F 
ATOM     57  C   UNL     1      -2.457   3.775   1.899  1.00  0.00     0.059 A 
ATOM     58  C   UNL     1      -2.230   1.464   2.612  1.00  0.00     0.059 A 
ATOM     59  F   UNL     1      -0.155   0.696   3.399  1.00  0.00    -0.206 F 
ATOM     60  C   UNL     1      -3.001   2.499   2.079  1.00  0.00     0.060 A 
BRANCH  60  61
ATOM     61  S   UNL     1      -4.632   2.120   1.378  1.00  0.00     0.124 S 
ATOM     62  O   UNL     1      -5.512   2.375   2.510  1.00  0.00    -0.237 OA
ATOM     63  O   UNL     1      -4.726   3.060   0.265  1.00  0.00    -0.237 OA
ATOM     64  O   UNL     1      -4.494   0.722   0.978  1.00  0.00    -0.744 OA
ENDBRANCH  60  61
ENDBRANCH  28  53
BRANCH  40  65
ATOM     65  C   UNL     1       2.810   4.704   8.619  1.00  0.00     0.058 A 
ATOM     66  C   UNL     1       2.332   3.722   9.499  1.00  0.00     0.135 A 
ATOM     67  C   UNL     1       2.715   6.049   9.002  1.00  0.00     0.135 A 
ATOM     68  F   UNL     1       2.376   2.425   9.155  1.00  0.00    -0.206 F 
ATOM     69  C   UNL     1       1.749   4.066  10.710  1.00  0.00     0.059 A 
ATOM     70  C   UNL     1       2.159   6.414  10.220  1.00  0.00     0.059 A 
ATOM     71  F   UNL     1       3.149   7.020   8.183  1.00  0.00    -0.206 F 
ATOM     72  C   UNL     1       1.665   5.416  11.060  1.00  0.00     0.060 A 
BRANCH  72  73
ATOM     73  S   UNL     1       0.921   5.853  12.643  1.00  0.00     0.124 S 
ATOM     74  O   UNL     1      -0.500   5.711  12.347  1.00  0.00    -0.237 OA
ATOM     75  O   UNL     1       1.486   4.851  13.542  1.00  0.00    -0.237 OA
ATOM     76  O   UNL     1       1.385   7.219  12.867  1.00  0.00    -0.744 OA
ENDBRANCH  72  73
ENDBRANCH  40  65
ENDBRANCH  14  15
ENDBRANCH   7   9
ENDBRANCH   6   7
ENDBRANCH   5   6
ENDBRANCH   4   5
ENDBRANCH   3   4
ENDBRANCH   2   3
ENDBRANCH   1   2
BRANCH   1  77
ATOM     77  O   UNL     1       5.324   3.241  -8.305  1.00  0.00    -0.376 OA
BRANCH  77  78
ATOM     78  C   UNL     1       3.977   3.533  -8.696  1.00  0.00     0.202 C 
BRANCH  78  79
ATOM     79  C   UNL     1       3.096   3.964  -7.524  1.00  0.00     0.261 C 
BRANCH  79  80
ATOM     80  O   UNL     1       3.031   2.961  -6.508  1.00  0.00    -0.463 OA
BRANCH  80  81
ATOM     81  C   UNL     1       2.290   1.830  -6.689  1.00  0.00     0.310 C 
ATOM     82  O   UNL     1       1.624   1.591  -7.681  1.00  0.00    -0.252 OA
BRANCH  81  83
ATOM     83  C   UNL     1       2.557   0.883  -5.518  1.00  0.00     0.119 C 
ATOM     84  C   UNL     1       2.833   1.774  -4.278  1.00  0.00     0.019 C 
ATOM     85  C   UNL     1       1.451  -0.213  -5.382  1.00  0.00     0.134 C 
ATOM     86  C   UNL     1       2.466   1.129  -2.986  1.00  0.00     0.022 C 
ATOM     87  N   UNL     1       1.128  -0.559  -3.991  1.00  0.00    -0.342 N 
ATOM     88  C   UNL     1       1.085   0.597  -3.172  1.00  0.00     0.119 C 
BRANCH  87  89
ATOM     89  C   UNL     1       0.828  -1.834  -3.543  1.00  0.00     0.226 C 
ATOM     90  O   UNL     1       0.836  -2.775  -4.351  1.00  0.00    -0.275 OA
BRANCH  89  91
ATOM     91  C   UNL     1       0.439  -2.161  -2.049  1.00  0.00     0.090 C 
ATOM     92  C   UNL     1      -1.071  -2.179  -1.783  1.00  0.00     0.075 C 
ATOM     93  C   UNL     1       1.171  -1.501  -0.862  1.00  0.00     0.075 C 
ATOM     94  C   UNL     1      -1.676  -0.806  -1.503  1.00  0.00     0.263 C 
ATOM     95  C   UNL     1       0.351  -0.431  -0.084  1.00  0.00     0.263 C 
ATOM     96  N   UNL     1      -0.757   0.100  -0.857  1.00  0.00    -0.329 N 
ATOM     97  H   UNL     1      -0.142   0.309  -1.643  1.00  0.00     0.348 HD
BRANCH  96  98
ATOM     98  C   UNL     1      -1.257   1.436  -0.578  1.00  0.00     0.338 C 
BRANCH  98  99
ATOM     99  C   UNL     1      -1.149   2.396  -1.725  1.00  0.00     0.157 A 
ATOM    100  C   UNL     1      -1.977   2.709  -2.785  1.00  0.00     0.052 A 
ATOM    101  O   UNL     1      -0.038   3.194  -1.776  1.00  0.00    -0.463 OA
ATOM    102  C   UNL     1      -1.340   3.749  -3.510  1.00  0.00     0.042 A 
ATOM    103  C   UNL     1      -0.173   4.023  -2.840  1.00  0.00     0.195 A 
ENDBRANCH  98  99
ENDBRANCH  96  98
ENDBRANCH  89  91
ENDBRANCH  87  89
ENDBRANCH  81  83
ENDBRANCH  80  81
ENDBRANCH  79  80
ENDBRANCH  78  79
ENDBRANCH  77  78
ENDBRANCH   1  77
TORSDOF 24
