REMARK SMILES Cc1nc(CC(=O)N2Cc3nc[nH]c3C[C@H]2C(=O)OCCOCCOCCOC(=O)c2ccc(-c3c4nc(c(-c5c(F)cc(S(=O)(=O)[O-])cc5F)c5ccc([nH]5)c(-c5c(F)cc(S(=O)(=O)[O-])cc5F)c5nc(c(-c6c(F)cc(S(=O)(=O)[O-])cc6F)c6ccc3[nH]6)C=C5)C=C4)cc2)cs1
REMARK SMILES IDX 23 1 22 2 21 3 20 4 19 5 17 6 18 7 16 8 8 9 9 10 10 11 15 12
REMARK SMILES IDX 11 13 14 14 12 15 13 16 6 18 7 19 5 20 4 21 1 22 2 23 3 24
REMARK SMILES IDX 98 25 97 26 24 27 25 28 26 29 27 30 28 31 29 32 30 33 31 34
REMARK SMILES IDX 32 35 96 36 33 37 95 38 34 39 35 40 36 41 89 42 37 43 94 44
REMARK SMILES IDX 88 45 90 46 38 47 93 48 87 49 86 50 39 52 73 53 52 54 72 55
REMARK SMILES IDX 53 56 56 57 71 58 91 59 54 60 55 61 70 63 92 64 57 65 40 66
REMARK SMILES IDX 41 67 50 68 42 69 43 70 49 71 51 72 44 73 45 74 46 75 47 76
REMARK SMILES IDX 48 77 74 78 75 79 84 80 76 81 77 82 83 83 85 84 78 85 79 86
REMARK SMILES IDX 80 87 81 88 82 89 58 90 59 91 68 92 60 93 61 94 67 95 69 96
REMARK SMILES IDX 62 97 63 98 64 99 65 100 66 101
REMARK H PARENT 13 17 90 51 56 62
REMARK Flexibility Score: inf
ROOT
ATOM      1  C   UNL     1      -1.264  -4.139  -2.600  1.00  0.00     0.188 C 
ENDROOT
BRANCH   1   2
ATOM      2  O   UNL     1      -2.127  -4.657  -3.594  1.00  0.00    -0.376 OA
BRANCH   2   3
ATOM      3  C   UNL     1      -1.703  -4.620  -4.949  1.00  0.00     0.202 C 
BRANCH   3   4
ATOM      4  C   UNL     1      -1.023  -3.361  -5.529  1.00  0.00     0.261 C 
BRANCH   4   5
ATOM      5  O   UNL     1       0.123  -2.874  -4.800  1.00  0.00    -0.462 OA
BRANCH   5   6
ATOM      6  C   UNL     1       0.079  -1.607  -4.333  1.00  0.00     0.329 C 
ATOM      7  O   UNL     1      -0.835  -0.823  -4.585  1.00  0.00    -0.250 OA
BRANCH   6   8
ATOM      8  C   UNL     1       1.297  -1.179  -3.468  1.00  0.00     0.201 C 
ATOM      9  N   UNL     1       2.413  -2.103  -3.030  1.00  0.00    -0.322 N 
ATOM     10  C   UNL     1       3.215  -2.746  -4.105  1.00  0.00     0.178 C 
ATOM     11  C   UNL     1       3.350  -1.812  -5.259  1.00  0.00     0.081 A 
ATOM     12  C   UNL     1       1.936   0.020  -4.234  1.00  0.00     0.093 C 
ATOM     13  N   UNL     1       3.925  -2.124  -6.462  1.00  0.00    -0.240 NA
ATOM     14  C   UNL     1       2.765  -0.566  -5.316  1.00  0.00     0.042 A 
ATOM     15  C   UNL     1       3.679  -1.089  -7.235  1.00  0.00     0.197 A 
ATOM     16  N   UNL     1       2.977  -0.111  -6.580  1.00  0.00    -0.348 N 
ATOM     17  H   UNL     1       2.684   0.753  -6.951  1.00  0.00     0.167 HD
BRANCH   9  18
ATOM     18  C   UNL     1       2.997  -2.065  -1.762  1.00  0.00     0.229 C 
ATOM     19  O   UNL     1       4.225  -2.142  -1.628  1.00  0.00    -0.274 OA
BRANCH  18  20
ATOM     20  C   UNL     1       2.142  -2.120  -0.498  1.00  0.00     0.157 C 
BRANCH  20  21
ATOM     21  C   UNL     1       1.240  -0.968  -0.248  1.00  0.00     0.061 A 
ATOM     22  C   UNL     1      -2.268   0.026   0.020  1.00  0.00     0.079 C 
ATOM     23  C   UNL     1      -0.785  -0.083  -0.024  1.00  0.00     0.090 A 
ATOM     24  N   UNL     1      -0.131  -1.190  -0.300  1.00  0.00    -0.246 NA
ATOM     25  S   UNL     1       0.199   1.296   0.266  1.00  0.00    -0.127 S 
ATOM     26  C   UNL     1       1.600   0.330   0.058  1.00  0.00     0.091 A 
ENDBRANCH  20  21
ENDBRANCH  18  20
ENDBRANCH   9  18
ENDBRANCH   6   8
ENDBRANCH   5   6
ENDBRANCH   4   5
ENDBRANCH   3   4
ENDBRANCH   2   3
ENDBRANCH   1   2
BRANCH   1  27
ATOM     27  C   UNL     1       0.213  -4.569  -2.566  1.00  0.00     0.188 C 
BRANCH  27  28
ATOM     28  O   UNL     1       0.807  -5.055  -3.747  1.00  0.00    -0.376 OA
BRANCH  28  29
ATOM     29  C   UNL     1       1.075  -6.401  -4.090  1.00  0.00     0.202 C 
BRANCH  29  30
ATOM     30  C   UNL     1       0.418  -7.611  -3.444  1.00  0.00     0.261 C 
BRANCH  30  31
ATOM     31  O   UNL     1      -0.272  -7.315  -2.262  1.00  0.00    -0.460 OA
BRANCH  31  32
ATOM     32  C   UNL     1       0.528  -7.164  -1.193  1.00  0.00     0.338 C 
ATOM     33  O   UNL     1       1.752  -7.157  -1.169  1.00  0.00    -0.246 OA
BRANCH  32  34
ATOM     34  C   UNL     1      -0.344  -6.976  -0.037  1.00  0.00     0.060 A 
ATOM     35  C   UNL     1       0.292  -6.696   1.172  1.00  0.00     0.016 A 
ATOM     36  C   UNL     1      -1.649  -7.477  -0.127  1.00  0.00     0.016 A 
ATOM     37  C   UNL     1      -0.238  -7.269   2.294  1.00  0.00     0.010 A 
ATOM     38  C   UNL     1      -2.148  -8.092   0.978  1.00  0.00     0.010 A 
ATOM     39  C   UNL     1      -1.369  -8.070   2.132  1.00  0.00    -0.014 A 
BRANCH  39  40
ATOM     40  C   UNL     1      -1.767  -8.916   3.223  1.00  0.00     0.031 A 
ATOM     41  C   UNL     1      -2.516  -8.169   4.249  1.00  0.00     0.074 A 
ATOM     42  C   UNL     1      -1.568 -10.245   3.136  1.00  0.00     0.049 A 
ATOM     43  N   UNL     1      -2.199  -7.990   5.486  1.00  0.00    -0.248 NA
ATOM     44  C   UNL     1      -3.646  -7.335   3.792  1.00  0.00     0.031 C 
ATOM     45  C   UNL     1      -1.051 -11.006   1.990  1.00  0.00     0.029 A 
ATOM     46  N   UNL     1      -1.922 -11.222   4.006  1.00  0.00    -0.354 N 
ATOM     47  C   UNL     1      -3.241  -7.241   6.015  1.00  0.00     0.074 A 
ATOM     48  C   UNL     1      -3.951  -6.671   4.905  1.00  0.00     0.031 C 
ATOM     49  C   UNL     1      -1.356 -12.313   2.151  1.00  0.00     0.029 A 
ATOM     50  C   UNL     1      -1.996 -12.490   3.441  1.00  0.00     0.049 A 
ATOM     51  H   UNL     1      -2.110 -11.048   4.957  1.00  0.00     0.167 HD
ATOM     52  C   UNL     1      -3.630  -7.411   7.304  1.00  0.00     0.037 A 
ATOM     53  C   UNL     1      -2.659 -13.550   3.972  1.00  0.00     0.037 A 
ATOM     54  C   UNL     1      -2.586  -8.025   8.085  1.00  0.00     0.049 A 
ATOM     55  C   UNL     1      -2.877 -13.239   5.415  1.00  0.00     0.074 A 
ATOM     56  C   UNL     1      -1.276  -7.682   8.363  1.00  0.00     0.029 A 
ATOM     57  N   UNL     1      -2.699  -9.366   8.369  1.00  0.00    -0.354 N 
ATOM     58  N   UNL     1      -1.911 -13.148   6.291  1.00  0.00    -0.248 NA
ATOM     59  C   UNL     1      -4.107 -12.547   5.783  1.00  0.00     0.031 C 
ATOM     60  C   UNL     1      -0.560  -8.912   8.360  1.00  0.00     0.029 A 
ATOM     61  C   UNL     1      -1.474  -9.945   8.148  1.00  0.00     0.049 A 
ATOM     62  H   UNL     1      -3.513  -9.827   8.676  1.00  0.00     0.167 HD
ATOM     63  C   UNL     1      -2.251 -12.067   7.095  1.00  0.00     0.074 A 
ATOM     64  C   UNL     1      -3.652 -11.790   6.787  1.00  0.00     0.031 C 
ATOM     65  C   UNL     1      -1.290 -11.312   7.708  1.00  0.00     0.037 A 
BRANCH  52  66
ATOM     66  C   UNL     1      -5.075  -7.389   7.727  1.00  0.00     0.058 A 
ATOM     67  C   UNL     1      -5.382  -7.380   9.099  1.00  0.00     0.135 A 
ATOM     68  C   UNL     1      -6.161  -7.652   6.857  1.00  0.00     0.135 A 
ATOM     69  F   UNL     1      -4.424  -7.152  10.011  1.00  0.00    -0.206 F 
ATOM     70  C   UNL     1      -6.657  -7.681   9.575  1.00  0.00     0.059 A 
ATOM     71  C   UNL     1      -7.450  -7.893   7.306  1.00  0.00     0.059 A 
ATOM     72  F   UNL     1      -6.013  -7.790   5.534  1.00  0.00    -0.206 F 
ATOM     73  C   UNL     1      -7.679  -7.953   8.668  1.00  0.00     0.060 A 
BRANCH  73  74
ATOM     74  S   UNL     1      -9.294  -8.459   9.276  1.00  0.00     0.124 S 
ATOM     75  O   UNL     1      -8.999  -9.785   9.805  1.00  0.00    -0.237 OA
ATOM     76  O   UNL     1      -9.582  -7.423  10.263  1.00  0.00    -0.237 OA
ATOM     77  O   UNL     1     -10.129  -8.425   8.079  1.00  0.00    -0.744 OA
ENDBRANCH  73  74
ENDBRANCH  52  66
BRANCH  53  78
ATOM     78  C   UNL     1      -3.421 -14.604   3.242  1.00  0.00     0.058 A 
ATOM     79  C   UNL     1      -3.900 -15.746   3.908  1.00  0.00     0.135 A 
ATOM     80  C   UNL     1      -3.920 -14.400   1.938  1.00  0.00     0.135 A 
ATOM     81  F   UNL     1      -3.501 -16.013   5.161  1.00  0.00    -0.206 F 
ATOM     82  C   UNL     1      -4.849 -16.605   3.336  1.00  0.00     0.059 A 
ATOM     83  C   UNL     1      -4.850 -15.249   1.341  1.00  0.00     0.059 A 
ATOM     84  F   UNL     1      -3.594 -13.312   1.226  1.00  0.00    -0.206 F 
ATOM     85  C   UNL     1      -5.333 -16.335   2.057  1.00  0.00     0.060 A 
BRANCH  85  86
ATOM     86  S   UNL     1      -6.688 -17.326   1.382  1.00  0.00     0.124 S 
ATOM     87  O   UNL     1      -6.032 -18.605   1.133  1.00  0.00    -0.237 OA
ATOM     88  O   UNL     1      -7.657 -17.306   2.472  1.00  0.00    -0.237 OA
ATOM     89  O   UNL     1      -7.086 -16.586   0.187  1.00  0.00    -0.744 OA
ENDBRANCH  85  86
ENDBRANCH  53  78
BRANCH  65  90
ATOM     90  C   UNL     1       0.123 -11.838   7.725  1.00  0.00     0.058 A 
ATOM     91  C   UNL     1       0.912 -12.032   6.575  1.00  0.00     0.135 A 
ATOM     92  C   UNL     1       0.757 -11.996   8.966  1.00  0.00     0.135 A 
ATOM     93  F   UNL     1       0.417 -11.792   5.353  1.00  0.00    -0.206 F 
ATOM     94  C   UNL     1       2.253 -12.410   6.655  1.00  0.00     0.059 A 
ATOM     95  C   UNL     1       2.102 -12.339   9.071  1.00  0.00     0.059 A 
ATOM     96  F   UNL     1       0.080 -11.758  10.101  1.00  0.00    -0.206 F 
ATOM     97  C   UNL     1       2.841 -12.560   7.910  1.00  0.00     0.060 A 
BRANCH  97  98
ATOM     98  S   UNL     1       4.595 -12.976   8.018  1.00  0.00     0.124 S 
ATOM     99  O   UNL     1       4.603 -14.376   7.609  1.00  0.00    -0.237 OA
ATOM    100  O   UNL     1       5.203 -12.037   7.078  1.00  0.00    -0.237 OA
ATOM    101  O   UNL     1       4.918 -12.733   9.422  1.00  0.00    -0.744 OA
ENDBRANCH  97  98
ENDBRANCH  65  90
ENDBRANCH  39  40
ENDBRANCH  32  34
ENDBRANCH  31  32
ENDBRANCH  30  31
ENDBRANCH  29  30
ENDBRANCH  28  29
ENDBRANCH  27  28
ENDBRANCH   1  27
TORSDOF 23
