REMARK SMILES CC[C@@H](C)CN(CC)C(=O)N1CC[C@@](CC)(C(=O)OCCOCCOCCOC(=O)c2ccc(-c3c4nc(c(-c5c(F)cc(S(=O)(=O)[O-])cc5F)c5ccc([nH]5)c(-c5c(F)cc(S(=O)(=O)[O-])cc5F)c5nc(c(-c6c(F)cc(S(=O)(=O)[O-])cc6F)c6ccc3[nH]6)C=C5)C=C4)cc2)C1
REMARK SMILES IDX 23 1 22 2 21 3 20 4 19 5 17 6 18 7 14 8 11 9 12 10 97 11
REMARK SMILES IDX 13 12 9 13 10 14 6 15 5 16 3 17 4 18 2 19 1 20 7 21 8 22
REMARK SMILES IDX 15 23 16 24 24 25 25 26 26 27 27 28 28 29 29 30 30 31 31 32
REMARK SMILES IDX 32 33 96 34 33 35 95 36 34 37 35 38 36 39 89 40 37 41 94 42
REMARK SMILES IDX 88 43 90 44 38 45 93 46 87 47 86 48 39 50 73 51 52 52 72 53
REMARK SMILES IDX 53 54 56 55 71 56 91 57 54 58 55 59 70 61 92 62 57 63 40 64
REMARK SMILES IDX 41 65 50 66 42 67 43 68 49 69 51 70 44 71 45 72 46 73 47 74
REMARK SMILES IDX 48 75 74 76 75 77 84 78 76 79 77 80 83 81 85 82 78 83 79 84
REMARK SMILES IDX 80 85 81 86 82 87 58 88 59 89 68 90 60 91 61 92 67 93 69 94
REMARK SMILES IDX 62 95 63 96 64 97 65 98 66 99
REMARK H PARENT 90 49 56 60
REMARK Flexibility Score: inf
ROOT
ATOM      1  C   UNL     1      -0.668  -1.679  -8.170  1.00  0.00     0.188 C 
ENDROOT
BRANCH   1   2
ATOM      2  O   UNL     1      -0.669  -0.668  -9.175  1.00  0.00    -0.376 OA
BRANCH   2   3
ATOM      3  C   UNL     1       0.334  -0.670 -10.177  1.00  0.00     0.202 C 
BRANCH   3   4
ATOM      4  C   UNL     1       1.748  -0.296  -9.735  1.00  0.00     0.261 C 
BRANCH   4   5
ATOM      5  O   UNL     1       2.290  -1.120  -8.682  1.00  0.00    -0.463 OA
BRANCH   5   6
ATOM      6  C   UNL     1       2.428  -0.502  -7.480  1.00  0.00     0.314 C 
ATOM      7  O   UNL     1       2.097   0.661  -7.273  1.00  0.00    -0.252 OA
BRANCH   6   8
ATOM      8  C   UNL     1       3.166  -1.336  -6.427  1.00  0.00     0.087 C 
ATOM      9  N   UNL     1       2.117  -2.398  -4.507  1.00  0.00    -0.323 N 
ATOM     10  C   UNL     1       2.213  -3.419  -5.524  1.00  0.00     0.122 C 
ATOM     11  C   UNL     1       2.416  -1.097  -5.099  1.00  0.00     0.140 C 
ATOM     12  C   UNL     1       3.196  -2.872  -6.551  1.00  0.00     0.042 C 
BRANCH   9  13
ATOM     13  C   UNL     1       1.208  -2.402  -3.461  1.00  0.00     0.320 C 
ATOM     14  O   UNL     1       0.410  -1.468  -3.357  1.00  0.00    -0.248 OA
BRANCH  13  15
ATOM     15  N   UNL     1       1.257  -3.406  -2.511  1.00  0.00    -0.325 N 
BRANCH  15  16
ATOM     16  C   UNL     1       0.433  -3.247  -1.292  1.00  0.00     0.124 C 
BRANCH  16  17
ATOM     17  C   UNL     1       1.069  -2.339  -0.201  1.00  0.00     0.005 C 
ATOM     18  C   UNL     1       0.538  -2.765   1.175  1.00  0.00     0.009 C 
BRANCH  17  19
ATOM     19  C   UNL     1       0.781  -0.845  -0.478  1.00  0.00     0.002 C 
ATOM     20  C   UNL     1       1.181   0.125   0.625  1.00  0.00     0.004 C 
ENDBRANCH  17  19
ENDBRANCH  16  17
ENDBRANCH  15  16
BRANCH  15  21
ATOM     21  C   UNL     1       2.030  -4.640  -2.591  1.00  0.00     0.118 C 
ATOM     22  C   UNL     1       1.202  -5.752  -3.231  1.00  0.00     0.027 C 
ENDBRANCH  15  21
ENDBRANCH  13  15
ENDBRANCH   9  13
BRANCH   8  23
ATOM     23  C   UNL     1       4.609  -0.775  -6.388  1.00  0.00     0.017 C 
ATOM     24  C   UNL     1       5.433  -1.111  -7.632  1.00  0.00     0.005 C 
ENDBRANCH   8  23
ENDBRANCH   6   8
ENDBRANCH   5   6
ENDBRANCH   4   5
ENDBRANCH   3   4
ENDBRANCH   2   3
ENDBRANCH   1   2
BRANCH   1  25
ATOM     25  C   UNL     1      -0.030  -3.041  -8.479  1.00  0.00     0.188 C 
BRANCH  25  26
ATOM     26  O   UNL     1      -0.259  -3.455  -9.817  1.00  0.00    -0.376 OA
BRANCH  26  27
ATOM     27  C   UNL     1      -0.806  -4.752  -9.967  1.00  0.00     0.202 C 
BRANCH  27  28
ATOM     28  C   UNL     1      -2.327  -4.758  -9.790  1.00  0.00     0.261 C 
BRANCH  28  29
ATOM     29  O   UNL     1      -2.808  -4.172  -8.566  1.00  0.00    -0.460 OA
BRANCH  29  30
ATOM     30  C   UNL     1      -2.589  -4.865  -7.433  1.00  0.00     0.338 C 
ATOM     31  O   UNL     1      -1.990  -5.937  -7.342  1.00  0.00    -0.246 OA
BRANCH  30  32
ATOM     32  C   UNL     1      -3.017  -4.055  -6.276  1.00  0.00     0.060 A 
ATOM     33  C   UNL     1      -2.096  -3.812  -5.253  1.00  0.00     0.016 A 
ATOM     34  C   UNL     1      -4.321  -3.559  -6.173  1.00  0.00     0.016 A 
ATOM     35  C   UNL     1      -2.491  -3.116  -4.110  1.00  0.00     0.010 A 
ATOM     36  C   UNL     1      -4.715  -2.874  -5.015  1.00  0.00     0.010 A 
ATOM     37  C   UNL     1      -3.811  -2.677  -3.957  1.00  0.00    -0.014 A 
BRANCH  37  38
ATOM     38  C   UNL     1      -4.269  -2.177  -2.632  1.00  0.00     0.031 A 
ATOM     39  C   UNL     1      -5.045  -3.108  -1.735  1.00  0.00     0.074 A 
ATOM     40  C   UNL     1      -3.954  -0.944  -2.192  1.00  0.00     0.049 A 
ATOM     41  N   UNL     1      -5.580  -2.884  -0.562  1.00  0.00    -0.248 NA
ATOM     42  C   UNL     1      -5.234  -4.482  -2.227  1.00  0.00     0.031 C 
ATOM     43  C   UNL     1      -3.138   0.030  -2.914  1.00  0.00     0.029 A 
ATOM     44  N   UNL     1      -4.287  -0.301  -1.023  1.00  0.00    -0.354 N 
ATOM     45  C   UNL     1      -6.177  -4.080  -0.181  1.00  0.00     0.074 A 
ATOM     46  C   UNL     1      -5.957  -5.022  -1.257  1.00  0.00     0.031 C 
ATOM     47  C   UNL     1      -3.048   1.153  -2.181  1.00  0.00     0.029 A 
ATOM     48  C   UNL     1      -3.824   0.992  -0.952  1.00  0.00     0.049 A 
ATOM     49  H   UNL     1      -4.809  -0.726  -0.304  1.00  0.00     0.167 HD
ATOM     50  C   UNL     1      -6.843  -4.372   0.963  1.00  0.00     0.037 A 
ATOM     51  C   UNL     1      -4.020   1.943  -0.016  1.00  0.00     0.037 A 
ATOM     52  C   UNL     1      -7.061  -3.438   2.037  1.00  0.00     0.049 A 
ATOM     53  C   UNL     1      -4.838   1.622   1.210  1.00  0.00     0.074 A 
ATOM     54  C   UNL     1      -7.731  -3.642   3.231  1.00  0.00     0.029 A 
ATOM     55  N   UNL     1      -6.620  -2.123   2.047  1.00  0.00    -0.354 N 
ATOM     56  N   UNL     1      -5.409   0.491   1.552  1.00  0.00    -0.248 NA
ATOM     57  C   UNL     1      -5.038   2.709   2.181  1.00  0.00     0.031 C 
ATOM     58  C   UNL     1      -7.735  -2.437   3.943  1.00  0.00     0.029 A 
ATOM     59  C   UNL     1      -7.022  -1.497   3.216  1.00  0.00     0.049 A 
ATOM     60  H   UNL     1      -6.099  -1.697   1.329  1.00  0.00     0.167 HD
ATOM     61  C   UNL     1      -6.009   0.723   2.787  1.00  0.00     0.074 A 
ATOM     62  C   UNL     1      -5.723   2.098   3.138  1.00  0.00     0.031 C 
ATOM     63  C   UNL     1      -6.730  -0.128   3.561  1.00  0.00     0.037 A 
BRANCH  50  64
ATOM     64  C   UNL     1      -7.419  -5.755   1.091  1.00  0.00     0.058 A 
ATOM     65  C   UNL     1      -6.608  -6.881   1.308  1.00  0.00     0.135 A 
ATOM     66  C   UNL     1      -8.807  -5.954   1.011  1.00  0.00     0.135 A 
ATOM     67  F   UNL     1      -5.273  -6.750   1.373  1.00  0.00    -0.206 F 
ATOM     68  C   UNL     1      -7.150  -8.158   1.411  1.00  0.00     0.059 A 
ATOM     69  C   UNL     1      -9.373  -7.219   1.137  1.00  0.00     0.059 A 
ATOM     70  F   UNL     1      -9.628  -4.913   0.802  1.00  0.00    -0.206 F 
ATOM     71  C   UNL     1      -8.534  -8.318   1.320  1.00  0.00     0.060 A 
BRANCH  71  72
ATOM     72  S   UNL     1      -9.223  -9.982   1.444  1.00  0.00     0.124 S 
ATOM     73  O   UNL     1      -8.845 -10.550   0.154  1.00  0.00    -0.237 OA
ATOM     74  O   UNL     1      -8.522 -10.525   2.604  1.00  0.00    -0.237 OA
ATOM     75  O   UNL     1     -10.651  -9.747   1.632  1.00  0.00    -0.744 OA
ENDBRANCH  71  72
ENDBRANCH  50  64
BRANCH  51  76
ATOM     76  C   UNL     1      -3.456   3.308  -0.209  1.00  0.00     0.058 A 
ATOM     77  C   UNL     1      -2.426   3.797   0.608  1.00  0.00     0.135 A 
ATOM     78  C   UNL     1      -3.958   4.162  -1.205  1.00  0.00     0.135 A 
ATOM     79  F   UNL     1      -1.926   3.028   1.588  1.00  0.00    -0.206 F 
ATOM     80  C   UNL     1      -1.925   5.087   0.458  1.00  0.00     0.059 A 
ATOM     81  C   UNL     1      -3.455   5.446  -1.392  1.00  0.00     0.059 A 
ATOM     82  F   UNL     1      -4.945   3.746  -2.014  1.00  0.00    -0.206 F 
ATOM     83  C   UNL     1      -2.446   5.905  -0.546  1.00  0.00     0.060 A 
BRANCH  83  84
ATOM     84  S   UNL     1      -1.768   7.567  -0.753  1.00  0.00     0.124 S 
ATOM     85  O   UNL     1      -2.340   8.263   0.394  1.00  0.00    -0.237 OA
ATOM     86  O   UNL     1      -0.330   7.324  -0.699  1.00  0.00    -0.237 OA
ATOM     87  O   UNL     1      -2.279   7.978  -2.058  1.00  0.00    -0.744 OA
ENDBRANCH  83  84
ENDBRANCH  51  76
BRANCH  63  88
ATOM     88  C   UNL     1      -7.230   0.389   4.884  1.00  0.00     0.058 A 
ATOM     89  C   UNL     1      -8.278   1.319   4.968  1.00  0.00     0.135 A 
ATOM     90  C   UNL     1      -6.676  -0.082   6.086  1.00  0.00     0.135 A 
ATOM     91  F   UNL     1      -8.842   1.805   3.851  1.00  0.00    -0.206 F 
ATOM     92  C   UNL     1      -8.737   1.789   6.196  1.00  0.00     0.059 A 
ATOM     93  C   UNL     1      -7.138   0.353   7.325  1.00  0.00     0.059 A 
ATOM     94  F   UNL     1      -5.682  -0.984   6.065  1.00  0.00    -0.206 F 
ATOM     95  C   UNL     1      -8.159   1.302   7.370  1.00  0.00     0.060 A 
BRANCH  95  96
ATOM     96  S   UNL     1      -8.771   1.906   8.957  1.00  0.00     0.124 S 
ATOM     97  O   UNL     1      -8.182   3.240   9.012  1.00  0.00    -0.237 OA
ATOM     98  O   UNL     1     -10.219   1.860   8.774  1.00  0.00    -0.237 OA
ATOM     99  O   UNL     1      -8.237   0.944   9.916  1.00  0.00    -0.744 OA
ENDBRANCH  95  96
ENDBRANCH  63  88
ENDBRANCH  37  38
ENDBRANCH  30  32
ENDBRANCH  29  30
ENDBRANCH  28  29
ENDBRANCH  27  28
ENDBRANCH  26  27
ENDBRANCH  25  26
ENDBRANCH   1  25
TORSDOF 27
