REMARK SMILES Cc1cc(OC(F)(F)F)cc2c1O[C@H](C(F)(F)F)C(C(=O)OCCOCCOCCOC(=O)c1ccc(-c3c4nc(c(-c5c(F)cc(S(=O)(=O)[O-])cc5F)c5ccc([nH]5)c(-c5c(F)cc(S(=O)(=O)[O-])cc5F)c5nc(c(-c6c(F)cc(S(=O)(=O)[O-])cc6F)c6ccc3[nH]6)C=C5)C=C4)cc1)=C2
REMARK SMILES IDX 27 1 26 2 25 3 24 4 23 5 22 6 20 7 21 8 19 9 1 10 2 11 3 12
REMARK SMILES IDX 12 13 4 14 11 15 13 16 10 17 100 18 14 19 5 20 6 21 7 22
REMARK SMILES IDX 8 23 9 24 15 25 16 26 17 27 18 28 28 29 29 30 30 31 31 32
REMARK SMILES IDX 32 33 33 34 34 35 35 36 99 37 36 38 98 39 37 40 38 41 39 42
REMARK SMILES IDX 92 43 40 44 97 45 91 46 93 47 41 48 96 49 90 50 89 51 42 53
REMARK SMILES IDX 76 54 55 55 75 56 56 57 59 58 74 59 94 60 57 61 58 62 73 64
REMARK SMILES IDX 95 65 60 66 43 67 44 68 53 69 45 70 46 71 52 72 54 73 47 74
REMARK SMILES IDX 48 75 49 76 50 77 51 78 77 79 78 80 87 81 79 82 80 83 86 84
REMARK SMILES IDX 88 85 81 86 82 87 83 88 84 89 85 90 61 91 62 92 71 93 63 94
REMARK SMILES IDX 64 95 70 96 72 97 65 98 66 99 67 100 68 101 69 102
REMARK H PARENT 93 52 59 63
REMARK Flexibility Score: inf
ROOT
ATOM      1  C   UNL     1      -5.341   2.015  -2.875  1.00  0.00     0.188 C 
ENDROOT
BRANCH   1   2
ATOM      2  C   UNL     1      -5.375   3.088  -3.985  1.00  0.00     0.188 C 
BRANCH   2   3
ATOM      3  O   UNL     1      -6.244   2.819  -5.057  1.00  0.00    -0.376 OA
BRANCH   3   4
ATOM      4  C   UNL     1      -5.838   2.078  -6.189  1.00  0.00     0.202 C 
BRANCH   4   5
ATOM      5  C   UNL     1      -4.561   1.228  -6.306  1.00  0.00     0.261 C 
BRANCH   5   6
ATOM      6  O   UNL     1      -3.713   1.139  -5.163  1.00  0.00    -0.460 OA
BRANCH   6   7
ATOM      7  C   UNL     1      -2.563   1.851  -5.224  1.00  0.00     0.338 C 
ATOM      8  O   UNL     1      -2.206   2.586  -6.129  1.00  0.00    -0.246 OA
BRANCH   7   9
ATOM      9  C   UNL     1      -1.825   1.677  -3.959  1.00  0.00     0.087 C 
ATOM     10  C   UNL     1       0.863  -0.165   0.024  1.00  0.00     0.048 C 
ATOM     11  C   UNL     1       0.531   1.188  -0.544  1.00  0.00    -0.005 A 
ATOM     12  C   UNL     1       1.099   2.325   0.061  1.00  0.00     0.054 A 
ATOM     13  C   UNL     1      -0.320   1.349  -1.648  1.00  0.00     0.131 A 
ATOM     14  C   UNL     1       0.837   3.603  -0.432  1.00  0.00     0.130 A 
ATOM     15  C   UNL     1      -0.562   2.625  -2.164  1.00  0.00     0.021 A 
ATOM     16  O   UNL     1      -0.878   0.217  -2.171  1.00  0.00    -0.475 OA
ATOM     17  C   UNL     1      -0.002   3.746  -1.541  1.00  0.00     0.058 A 
ATOM     18  C   UNL     1      -1.342   2.783  -3.381  1.00  0.00     0.027 C 
ATOM     19  C   UNL     1      -1.661   0.295  -3.389  1.00  0.00     0.316 C 
BRANCH  14  20
ATOM     20  O   UNL     1       1.329   4.778   0.060  1.00  0.00    -0.406 OA
BRANCH  20  21
ATOM     21  C   UNL     1       2.381   4.707   1.010  1.00  0.00     0.573 C 
ATOM     22  F   UNL     1       1.957   4.144   2.162  1.00  0.00    -0.132 F 
ATOM     23  F   UNL     1       3.424   3.995   0.525  1.00  0.00    -0.132 F 
ATOM     24  F   UNL     1       2.816   5.955   1.282  1.00  0.00    -0.132 F 
ENDBRANCH  20  21
ENDBRANCH  14  20
BRANCH  19  25
ATOM     25  C   UNL     1      -1.061  -0.696  -4.398  1.00  0.00     0.430 C 
ATOM     26  F   UNL     1      -0.905  -1.925  -3.846  1.00  0.00    -0.167 F 
ATOM     27  F   UNL     1      -1.858  -0.863  -5.481  1.00  0.00    -0.167 F 
ATOM     28  F   UNL     1       0.151  -0.298  -4.846  1.00  0.00    -0.167 F 
ENDBRANCH  19  25
ENDBRANCH   7   9
ENDBRANCH   6   7
ENDBRANCH   5   6
ENDBRANCH   4   5
ENDBRANCH   3   4
ENDBRANCH   2   3
ENDBRANCH   1   2
BRANCH   1  29
ATOM     29  O   UNL     1      -6.221   0.901  -2.950  1.00  0.00    -0.376 OA
BRANCH  29  30
ATOM     30  C   UNL     1      -7.611   1.147  -3.146  1.00  0.00     0.202 C 
BRANCH  30  31
ATOM     31  C   UNL     1      -8.345   2.076  -2.172  1.00  0.00     0.261 C 
BRANCH  31  32
ATOM     32  O   UNL     1      -7.807   3.409  -2.125  1.00  0.00    -0.460 OA
BRANCH  32  33
ATOM     33  C   UNL     1      -7.360   3.814  -0.910  1.00  0.00     0.338 C 
ATOM     34  O   UNL     1      -7.406   3.197   0.140  1.00  0.00    -0.246 OA
BRANCH  33  35
ATOM     35  C   UNL     1      -6.618   5.079  -1.062  1.00  0.00     0.060 A 
ATOM     36  C   UNL     1      -5.235   5.072  -0.836  1.00  0.00     0.016 A 
ATOM     37  C   UNL     1      -7.285   6.269  -1.356  1.00  0.00     0.016 A 
ATOM     38  C   UNL     1      -4.512   6.261  -0.896  1.00  0.00     0.010 A 
ATOM     39  C   UNL     1      -6.566   7.468  -1.374  1.00  0.00     0.010 A 
ATOM     40  C   UNL     1      -5.184   7.471  -1.116  1.00  0.00    -0.014 A 
BRANCH  40  41
ATOM     41  C   UNL     1      -4.480   8.745  -0.844  1.00  0.00     0.031 A 
ATOM     42  C   UNL     1      -4.467   9.255   0.572  1.00  0.00     0.074 A 
ATOM     43  C   UNL     1      -3.844   9.420  -1.818  1.00  0.00     0.049 A 
ATOM     44  N   UNL     1      -3.930  10.344   1.055  1.00  0.00    -0.248 NA
ATOM     45  C   UNL     1      -5.145   8.418   1.578  1.00  0.00     0.031 C 
ATOM     46  C   UNL     1      -3.741   8.998  -3.214  1.00  0.00     0.029 A 
ATOM     47  N   UNL     1      -3.165  10.612  -1.776  1.00  0.00    -0.354 N 
ATOM     48  C   UNL     1      -4.184  10.312   2.421  1.00  0.00     0.074 A 
ATOM     49  C   UNL     1      -4.951   9.116   2.687  1.00  0.00     0.031 C 
ATOM     50  C   UNL     1      -3.049   9.926  -3.899  1.00  0.00     0.029 A 
ATOM     51  C   UNL     1      -2.683  11.018  -2.997  1.00  0.00     0.049 A 
ATOM     52  H   UNL     1      -3.034  11.127  -0.947  1.00  0.00     0.167 HD
ATOM     53  C   UNL     1      -3.805  11.197   3.371  1.00  0.00     0.037 A 
ATOM     54  C   UNL     1      -2.039  12.151  -3.344  1.00  0.00     0.037 A 
ATOM     55  C   UNL     1      -3.075  12.405   3.100  1.00  0.00     0.049 A 
ATOM     56  C   UNL     1      -1.741  13.185  -2.287  1.00  0.00     0.074 A 
ATOM     57  C   UNL     1      -2.655  13.374   3.993  1.00  0.00     0.029 A 
ATOM     58  N   UNL     1      -2.672  12.818   1.839  1.00  0.00    -0.354 N 
ATOM     59  N   UNL     1      -1.970  13.136  -0.996  1.00  0.00    -0.248 NA
ATOM     60  C   UNL     1      -1.107  14.434  -2.735  1.00  0.00     0.031 C 
ATOM     61  C   UNL     1      -2.038  14.397   3.266  1.00  0.00     0.029 A 
ATOM     62  C   UNL     1      -2.034  14.043   1.926  1.00  0.00     0.049 A 
ATOM     63  H   UNL     1      -2.817  12.314   1.006  1.00  0.00     0.167 HD
ATOM     64  C   UNL     1      -1.491  14.335  -0.476  1.00  0.00     0.074 A 
ATOM     65  C   UNL     1      -0.949  15.085  -1.590  1.00  0.00     0.031 C 
ATOM     66  C   UNL     1      -1.501  14.777   0.806  1.00  0.00     0.037 A 
BRANCH  53  67
ATOM     67  C   UNL     1      -4.188  10.896   4.790  1.00  0.00     0.058 A 
ATOM     68  C   UNL     1      -3.530   9.899   5.526  1.00  0.00     0.135 A 
ATOM     69  C   UNL     1      -5.192  11.636   5.434  1.00  0.00     0.135 A 
ATOM     70  F   UNL     1      -2.580   9.147   4.947  1.00  0.00    -0.206 F 
ATOM     71  C   UNL     1      -3.860   9.638   6.851  1.00  0.00     0.059 A 
ATOM     72  C   UNL     1      -5.524  11.407   6.765  1.00  0.00     0.059 A 
ATOM     73  F   UNL     1      -5.858  12.592   4.769  1.00  0.00    -0.206 F 
ATOM     74  C   UNL     1      -4.857  10.401   7.463  1.00  0.00     0.060 A 
BRANCH  74  75
ATOM     75  S   UNL     1      -5.255  10.063   9.191  1.00  0.00     0.124 S 
ATOM     76  O   UNL     1      -5.911   8.763   9.091  1.00  0.00    -0.237 OA
ATOM     77  O   UNL     1      -3.938  10.062   9.819  1.00  0.00    -0.237 OA
ATOM     78  O   UNL     1      -6.124  11.175   9.564  1.00  0.00    -0.744 OA
ENDBRANCH  74  75
ENDBRANCH  53  67
BRANCH  54  79
ATOM     79  C   UNL     1      -1.643  12.385  -4.759  1.00  0.00     0.058 A 
ATOM     80  C   UNL     1      -0.294  12.385  -5.140  1.00  0.00     0.135 A 
ATOM     81  C   UNL     1      -2.603  12.631  -5.753  1.00  0.00     0.135 A 
ATOM     82  F   UNL     1       0.662  12.171  -4.223  1.00  0.00    -0.206 F 
ATOM     83  C   UNL     1       0.093  12.633  -6.454  1.00  0.00     0.059 A 
ATOM     84  C   UNL     1      -2.243  12.859  -7.078  1.00  0.00     0.059 A 
ATOM     85  F   UNL     1      -3.908  12.639  -5.441  1.00  0.00    -0.206 F 
ATOM     86  C   UNL     1      -0.890  12.866  -7.417  1.00  0.00     0.060 A 
BRANCH  86  87
ATOM     87  S   UNL     1      -0.378  13.148  -9.126  1.00  0.00     0.124 S 
ATOM     88  O   UNL     1       0.223  14.473  -9.039  1.00  0.00    -0.237 OA
ATOM     89  O   UNL     1       0.547  12.041  -9.352  1.00  0.00    -0.237 OA
ATOM     90  O   UNL     1      -1.631  13.070  -9.870  1.00  0.00    -0.744 OA
ENDBRANCH  86  87
ENDBRANCH  54  79
BRANCH  66  91
ATOM     91  C   UNL     1      -0.907  16.129   1.088  1.00  0.00     0.058 A 
ATOM     92  C   UNL     1      -1.585  17.309   0.750  1.00  0.00     0.135 A 
ATOM     93  C   UNL     1       0.304  16.244   1.790  1.00  0.00     0.135 A 
ATOM     94  F   UNL     1      -2.743  17.253   0.074  1.00  0.00    -0.206 F 
ATOM     95  C   UNL     1      -1.081  18.559   1.093  1.00  0.00     0.059 A 
ATOM     96  C   UNL     1       0.815  17.483   2.165  1.00  0.00     0.059 A 
ATOM     97  F   UNL     1       0.986  15.145   2.147  1.00  0.00    -0.206 F 
ATOM     98  C   UNL     1       0.116  18.636   1.808  1.00  0.00     0.060 A 
BRANCH  98  99
ATOM     99  S   UNL     1       0.724  20.263   2.301  1.00  0.00     0.124 S 
ATOM    100  O   UNL     1       1.165  20.812   1.023  1.00  0.00    -0.237 OA
ATOM    101  O   UNL     1      -0.468  20.879   2.878  1.00  0.00    -0.237 OA
ATOM    102  O   UNL     1       1.787  19.957   3.253  1.00  0.00    -0.744 OA
ENDBRANCH  98  99
ENDBRANCH  66  91
ENDBRANCH  40  41
ENDBRANCH  33  35
ENDBRANCH  32  33
ENDBRANCH  31  32
ENDBRANCH  30  31
ENDBRANCH  29  30
ENDBRANCH   1  29
TORSDOF 23
