REMARK SMILES Cc1nc(-c2ccccc2)sc1C(=O)N[C@@H](CC1=c2ccccc2=NC1)C(=O)OCCOCCOCCOC(=O)c1ccc(-c2c3nc(c(-c4c(F)cc(S(=O)(=O)[O-])cc4F)c4ccc([nH]4)c(-c4c(F)cc(S(=O)(=O)[O-])cc4F)c4nc(c(-c5c(F)cc(S(=O)(=O)[O-])cc5F)c5ccc2[nH]5)C=C4)C=C3)cc1
REMARK SMILES IDX 33 1 32 2 31 3 30 4 29 5 27 6 28 7 16 8 15 9 13 10 14 11
REMARK SMILES IDX 12 13 1 14 2 15 3 16 4 17 11 18 5 19 6 20 10 21 7 22 9 23
REMARK SMILES IDX 8 24 17 25 18 26 19 27 26 28 20 29 24 30 25 31 21 32 23 33
REMARK SMILES IDX 22 34 34 35 35 36 36 37 37 38 38 39 39 40 40 41 41 42 42 43
REMARK SMILES IDX 106 44 43 45 105 46 44 47 45 48 46 49 99 50 47 51 104 52
REMARK SMILES IDX 98 53 100 54 48 55 103 56 97 57 96 58 49 60 83 61 62 62
REMARK SMILES IDX 82 63 63 64 66 65 81 66 101 67 64 68 65 69 80 71 102 72
REMARK SMILES IDX 67 73 50 74 51 75 60 76 52 77 53 78 59 79 61 80 54 81 55 82
REMARK SMILES IDX 56 83 57 84 58 85 84 86 85 87 94 88 86 89 87 90 93 91 95 92
REMARK SMILES IDX 88 93 89 94 90 95 91 96 92 97 68 98 69 99 78 100 70 101
REMARK SMILES IDX 71 102 77 103 79 104 72 105 73 106 74 107 75 108 76 109
REMARK H PARENT 15 12 100 59 66 70
REMARK Flexibility Score: inf
ROOT
ATOM      1  C   UNL     1      -3.198  -1.809   3.605  1.00  0.00     0.188 C 
ENDROOT
BRANCH   1   2
ATOM      2  O   UNL     1      -4.264  -2.191   4.465  1.00  0.00    -0.376 OA
BRANCH   2   3
ATOM      3  C   UNL     1      -5.038  -3.336   4.110  1.00  0.00     0.202 C 
BRANCH   3   4
ATOM      4  C   UNL     1      -5.532  -3.477   2.658  1.00  0.00     0.261 C 
BRANCH   4   5
ATOM      5  O   UNL     1      -4.491  -3.380   1.658  1.00  0.00    -0.462 OA
BRANCH   5   6
ATOM      6  C   UNL     1      -4.774  -2.587   0.598  1.00  0.00     0.329 C 
ATOM      7  O   UNL     1      -5.880  -2.097   0.381  1.00  0.00    -0.250 OA
BRANCH   6   8
ATOM      8  C   UNL     1      -3.591  -2.328  -0.361  1.00  0.00     0.196 C 
BRANCH   8   9
ATOM      9  N   UNL     1      -2.221  -2.747  -0.081  1.00  0.00    -0.338 N 
ATOM     10  C   UNL     1      -0.985  -2.151  -0.245  1.00  0.00     0.264 C 
ATOM     11  O   UNL     1      -0.061  -2.971  -0.156  1.00  0.00    -0.268 OA
ATOM     12  H   UNL     1      -2.166  -3.649   0.308  1.00  0.00     0.164 HD
BRANCH  10  13
ATOM     13  C   UNL     1      -0.727  -0.717  -0.439  1.00  0.00     0.115 A 
ATOM     14  C   UNL     1      -2.885   0.812  -0.634  1.00  0.00     0.068 C 
ATOM     15  C   UNL     1      -1.444   0.474  -0.557  1.00  0.00     0.062 A 
ATOM     16  N   UNL     1      -0.678   1.622  -0.576  1.00  0.00    -0.241 NA
ATOM     17  C   UNL     1       0.604   1.380  -0.547  1.00  0.00     0.124 A 
ATOM     18  S   UNL     1       0.995  -0.276  -0.523  1.00  0.00    -0.108 S 
BRANCH  17  19
ATOM     19  C   UNL     1       1.575   2.473  -0.470  1.00  0.00     0.010 A 
ATOM     20  C   UNL     1       1.332   3.491   0.468  1.00  0.00     0.011 A 
ATOM     21  C   UNL     1       2.623   2.638  -1.380  1.00  0.00     0.011 A 
ATOM     22  C   UNL     1       2.108   4.647   0.506  1.00  0.00     0.001 A 
ATOM     23  C   UNL     1       3.390   3.811  -1.357  1.00  0.00     0.001 A 
ATOM     24  C   UNL     1       3.131   4.812  -0.418  1.00  0.00     0.000 A 
ENDBRANCH  17  19
ENDBRANCH  10  13
ENDBRANCH   8   9
BRANCH   8  25
ATOM     25  C   UNL     1      -3.990  -2.779  -1.779  1.00  0.00     0.070 C 
BRANCH  25  26
ATOM     26  C   UNL     1      -4.157  -4.268  -1.843  1.00  0.00    -0.037 C 
ATOM     27  C   UNL     1      -3.206  -5.189  -1.975  1.00  0.00     0.001 A 
ATOM     28  C   UNL     1      -5.490  -4.914  -1.604  1.00  0.00     0.174 C 
ATOM     29  C   UNL     1      -1.794  -5.164  -2.179  1.00  0.00     0.010 A 
ATOM     30  C   UNL     1      -3.924  -6.433  -1.657  1.00  0.00     0.065 A 
ATOM     31  N   UNL     1      -5.207  -6.363  -1.471  1.00  0.00    -0.280 NA
ATOM     32  C   UNL     1      -1.101  -6.303  -2.023  1.00  0.00     0.001 A 
ATOM     33  C   UNL     1      -3.094  -7.647  -1.512  1.00  0.00     0.028 A 
ATOM     34  C   UNL     1      -1.762  -7.548  -1.670  1.00  0.00     0.002 A 
ENDBRANCH  25  26
ENDBRANCH   8  25
ENDBRANCH   6   8
ENDBRANCH   5   6
ENDBRANCH   4   5
ENDBRANCH   3   4
ENDBRANCH   2   3
ENDBRANCH   1   2
BRANCH   1  35
ATOM     35  C   UNL     1      -2.175  -2.880   3.200  1.00  0.00     0.188 C 
BRANCH  35  36
ATOM     36  O   UNL     1      -2.569  -4.208   3.435  1.00  0.00    -0.376 OA
BRANCH  36  37
ATOM     37  C   UNL     1      -1.825  -4.993   4.350  1.00  0.00     0.202 C 
BRANCH  37  38
ATOM     38  C   UNL     1      -1.274  -4.420   5.675  1.00  0.00     0.261 C 
BRANCH  38  39
ATOM     39  O   UNL     1      -0.840  -3.050   5.696  1.00  0.00    -0.460 OA
BRANCH  39  40
ATOM     40  C   UNL     1       0.398  -2.786   5.200  1.00  0.00     0.338 C 
ATOM     41  O   UNL     1       1.198  -3.598   4.782  1.00  0.00    -0.246 OA
BRANCH  40  42
ATOM     42  C   UNL     1       0.498  -1.314   5.009  1.00  0.00     0.060 A 
ATOM     43  C   UNL     1       0.624  -0.807   3.707  1.00  0.00     0.016 A 
ATOM     44  C   UNL     1       0.434  -0.440   6.096  1.00  0.00     0.016 A 
ATOM     45  C   UNL     1       0.695   0.572   3.491  1.00  0.00     0.010 A 
ATOM     46  C   UNL     1       0.545   0.940   5.880  1.00  0.00     0.010 A 
ATOM     47  C   UNL     1       0.699   1.454   4.579  1.00  0.00    -0.014 A 
BRANCH  47  48
ATOM     48  C   UNL     1       1.085   2.875   4.373  1.00  0.00     0.031 A 
ATOM     49  C   UNL     1       2.527   3.254   4.584  1.00  0.00     0.074 A 
ATOM     50  C   UNL     1       0.208   3.802   3.945  1.00  0.00     0.049 A 
ATOM     51  N   UNL     1       3.098   4.429   4.523  1.00  0.00    -0.248 NA
ATOM     52  C   UNL     1       3.448   2.152   4.905  1.00  0.00     0.031 C 
ATOM     53  C   UNL     1      -1.183   3.548   3.576  1.00  0.00     0.029 A 
ATOM     54  N   UNL     1       0.379   5.145   3.706  1.00  0.00    -0.354 N 
ATOM     55  C   UNL     1       4.438   4.212   4.828  1.00  0.00     0.074 A 
ATOM     56  C   UNL     1       4.592   2.795   5.077  1.00  0.00     0.031 C 
ATOM     57  C   UNL     1      -1.731   4.694   3.131  1.00  0.00     0.029 A 
ATOM     58  C   UNL     1      -0.750   5.775   3.235  1.00  0.00     0.049 A 
ATOM     59  H   UNL     1       1.232   5.614   3.857  1.00  0.00     0.167 HD
ATOM     60  C   UNL     1       5.447   5.111   4.904  1.00  0.00     0.037 A 
ATOM     61  C   UNL     1      -0.969   7.073   2.938  1.00  0.00     0.037 A 
ATOM     62  C   UNL     1       5.299   6.518   4.641  1.00  0.00     0.049 A 
ATOM     63  C   UNL     1       0.153   8.072   3.101  1.00  0.00     0.074 A 
ATOM     64  C   UNL     1       6.259   7.512   4.715  1.00  0.00     0.029 A 
ATOM     65  N   UNL     1       4.117   7.132   4.255  1.00  0.00    -0.354 N 
ATOM     66  N   UNL     1       1.408   7.862   3.425  1.00  0.00    -0.248 NA
ATOM     67  C   UNL     1      -0.173   9.488   2.870  1.00  0.00     0.031 C 
ATOM     68  C   UNL     1       5.645   8.735   4.428  1.00  0.00     0.029 A 
ATOM     69  C   UNL     1       4.316   8.495   4.114  1.00  0.00     0.049 A 
ATOM     70  H   UNL     1       3.262   6.667   4.103  1.00  0.00     0.167 HD
ATOM     71  C   UNL     1       2.019   9.114   3.422  1.00  0.00     0.074 A 
ATOM     72  C   UNL     1       1.005  10.072   3.037  1.00  0.00     0.031 C 
ATOM     73  C   UNL     1       3.302   9.442   3.720  1.00  0.00     0.037 A 
BRANCH  60  74
ATOM     74  C   UNL     1       6.792   4.608   5.351  1.00  0.00     0.058 A 
ATOM     75  C   UNL     1       7.604   3.808   4.533  1.00  0.00     0.135 A 
ATOM     76  C   UNL     1       7.282   4.954   6.622  1.00  0.00     0.135 A 
ATOM     77  F   UNL     1       7.175   3.429   3.318  1.00  0.00    -0.206 F 
ATOM     78  C   UNL     1       8.842   3.346   4.968  1.00  0.00     0.059 A 
ATOM     79  C   UNL     1       8.530   4.529   7.066  1.00  0.00     0.059 A 
ATOM     80  F   UNL     1       6.544   5.713   7.447  1.00  0.00    -0.206 F 
ATOM     81  C   UNL     1       9.297   3.713   6.237  1.00  0.00     0.060 A 
BRANCH  81  82
ATOM     82  S   UNL     1      10.906   3.108   6.787  1.00  0.00     0.124 S 
ATOM     83  O   UNL     1      10.624   1.694   7.014  1.00  0.00    -0.237 OA
ATOM     84  O   UNL     1      11.759   3.408   5.642  1.00  0.00    -0.237 OA
ATOM     85  O   UNL     1      11.174   3.894   7.987  1.00  0.00    -0.744 OA
ENDBRANCH  81  82
ENDBRANCH  60  74
BRANCH  61  86
ATOM     86  C   UNL     1      -2.315   7.525   2.483  1.00  0.00     0.058 A 
ATOM     87  C   UNL     1      -2.514   8.055   1.199  1.00  0.00     0.135 A 
ATOM     88  C   UNL     1      -3.428   7.461   3.337  1.00  0.00     0.135 A 
ATOM     89  F   UNL     1      -1.480   8.163   0.350  1.00  0.00    -0.206 F 
ATOM     90  C   UNL     1      -3.761   8.515   0.782  1.00  0.00     0.059 A 
ATOM     91  C   UNL     1      -4.690   7.885   2.933  1.00  0.00     0.059 A 
ATOM     92  F   UNL     1      -3.296   6.968   4.579  1.00  0.00    -0.206 F 
ATOM     93  C   UNL     1      -4.845   8.420   1.656  1.00  0.00     0.060 A 
BRANCH  93  94
ATOM     94  S   UNL     1      -6.469   8.975   1.093  1.00  0.00     0.124 S 
ATOM     95  O   UNL     1      -6.302  10.423   1.091  1.00  0.00    -0.237 OA
ATOM     96  O   UNL     1      -6.571   8.342  -0.219  1.00  0.00    -0.237 OA
ATOM     97  O   UNL     1      -7.375   8.444   2.107  1.00  0.00    -0.744 OA
ENDBRANCH  93  94
ENDBRANCH  61  86
BRANCH  73  98
ATOM     98  C   UNL     1       3.701  10.892   3.619  1.00  0.00     0.058 A 
ATOM     99  C   UNL     1       3.255  11.849   4.544  1.00  0.00     0.135 A 
ATOM    100  C   UNL     1       4.598  11.317   2.623  1.00  0.00     0.135 A 
ATOM    101  F   UNL     1       2.397  11.501   5.516  1.00  0.00    -0.206 F 
ATOM    102  C   UNL     1       3.662  13.179   4.471  1.00  0.00     0.059 A 
ATOM    103  C   UNL     1       5.041  12.634   2.549  1.00  0.00     0.059 A 
ATOM    104  F   UNL     1       5.069  10.442   1.720  1.00  0.00    -0.206 F 
ATOM    105  C   UNL     1       4.558  13.562   3.471  1.00  0.00     0.060 A 
BRANCH 105 106
ATOM    106  S   UNL     1       5.104  15.282   3.410  1.00  0.00     0.124 S 
ATOM    107  O   UNL     1       3.904  15.954   2.922  1.00  0.00    -0.237 OA
ATOM    108  O   UNL     1       5.458  15.547   4.801  1.00  0.00    -0.237 OA
ATOM    109  O   UNL     1       6.227  15.251   2.478  1.00  0.00    -0.744 OA
ENDBRANCH 105 106
ENDBRANCH  73  98
ENDBRANCH  47  48
ENDBRANCH  40  42
ENDBRANCH  39  40
ENDBRANCH  38  39
ENDBRANCH  37  38
ENDBRANCH  36  37
ENDBRANCH  35  36
ENDBRANCH   1  35
TORSDOF 25
