REMARK SMILES O=C(OCCOCCOCCOC(=O)[C@H]1CC(=O)N(Cc2cccc(Cl)c2)C1)c1ccc(-c2c3nc(c(-c4c(F)cc(S(=O)(=O)[O-])cc4F)c4ccc([nH]4)c(-c4c(F)cc(S(=O)(=O)[O-])cc4F)c4nc(c(-c5c(F)cc(S(=O)(=O)[O-])cc5F)c5ccc2[nH]5)C=C4)C=C3)cc1
REMARK SMILES IDX 7 1 6 2 5 3 4 4 3 5 2 6 1 7 29 8 30 9 94 10 31 11 93 12
REMARK SMILES IDX 32 13 33 14 34 15 87 16 35 17 92 18 86 19 88 20 36 21 91 22
REMARK SMILES IDX 85 23 84 24 37 26 71 27 50 28 70 29 51 30 54 31 69 32 89 33
REMARK SMILES IDX 52 34 53 35 68 37 90 38 55 39 38 40 39 41 48 42 40 43 41 44
REMARK SMILES IDX 47 45 49 46 42 47 43 48 44 49 45 50 46 51 72 52 73 53 82 54
REMARK SMILES IDX 74 55 75 56 81 57 83 58 76 59 77 60 78 61 79 62 80 63 56 64
REMARK SMILES IDX 57 65 66 66 58 67 59 68 65 69 67 70 60 71 61 72 62 73 63 74
REMARK SMILES IDX 64 75 8 76 9 77 10 78 11 79 12 80 13 81 14 82 15 83 16 84
REMARK SMILES IDX 28 85 17 86 19 87 18 88 20 89 21 90 22 91 27 92 23 93 25 94
REMARK SMILES IDX 24 95 26 96
REMARK H PARENT 88 25 54 36
REMARK Flexibility Score: inf
ROOT
ATOM      1  C   UNL     1       4.807   1.646   3.576  1.00  0.00     0.188 C 
ENDROOT
BRANCH   1   2
ATOM      2  O   UNL     1       4.145   2.518   4.500  1.00  0.00    -0.376 OA
BRANCH   2   3
ATOM      3  C   UNL     1       4.305   2.123   5.869  1.00  0.00     0.202 C 
BRANCH   3   4
ATOM      4  C   UNL     1       3.527   0.869   6.307  1.00  0.00     0.261 C 
BRANCH   4   5
ATOM      5  O   UNL     1       3.310  -0.075   5.247  1.00  0.00    -0.460 OA
BRANCH   5   6
ATOM      6  C   UNL     1       2.292  -0.128   4.351  1.00  0.00     0.338 C 
ATOM      7  O   UNL     1       2.324  -1.023   3.505  1.00  0.00    -0.246 OA
BRANCH   6   8
ATOM      8  C   UNL     1       1.140   0.831   4.314  1.00  0.00     0.060 A 
ATOM      9  C   UNL     1       1.096   2.088   4.921  1.00  0.00     0.016 A 
ATOM     10  C   UNL     1       0.018   0.434   3.563  1.00  0.00     0.016 A 
ATOM     11  C   UNL     1      -0.051   2.877   4.887  1.00  0.00     0.010 A 
ATOM     12  C   UNL     1      -1.127   1.233   3.493  1.00  0.00     0.010 A 
ATOM     13  C   UNL     1      -1.180   2.435   4.204  1.00  0.00    -0.014 A 
BRANCH  13  14
ATOM     14  C   UNL     1      -2.440   3.188   4.372  1.00  0.00     0.031 A 
ATOM     15  C   UNL     1      -3.418   2.699   5.379  1.00  0.00     0.074 A 
ATOM     16  C   UNL     1      -2.684   4.291   3.647  1.00  0.00     0.049 A 
ATOM     17  N   UNL     1      -4.524   3.260   5.773  1.00  0.00    -0.248 NA
ATOM     18  C   UNL     1      -3.125   1.402   6.011  1.00  0.00     0.031 C 
ATOM     19  C   UNL     1      -1.799   4.744   2.594  1.00  0.00     0.029 A 
ATOM     20  N   UNL     1      -3.710   5.204   3.634  1.00  0.00    -0.354 N 
ATOM     21  C   UNL     1      -5.085   2.368   6.670  1.00  0.00     0.074 A 
ATOM     22  C   UNL     1      -4.199   1.230   6.764  1.00  0.00     0.031 C 
ATOM     23  C   UNL     1      -2.333   5.825   2.012  1.00  0.00     0.029 A 
ATOM     24  C   UNL     1      -3.529   6.229   2.724  1.00  0.00     0.049 A 
ATOM     25  H   UNL     1      -4.500   5.135   4.217  1.00  0.00     0.167 HD
ATOM     26  C   UNL     1      -6.256   2.496   7.329  1.00  0.00     0.037 A 
ATOM     27  C   UNL     1      -4.215   7.380   2.541  1.00  0.00     0.037 A 
ATOM     28  C   UNL     1      -7.129   3.626   7.165  1.00  0.00     0.049 A 
ATOM     29  C   UNL     1      -5.444   7.543   3.393  1.00  0.00     0.074 A 
ATOM     30  C   UNL     1      -8.366   3.851   7.736  1.00  0.00     0.029 A 
ATOM     31  N   UNL     1      -6.858   4.717   6.345  1.00  0.00    -0.354 N 
ATOM     32  N   UNL     1      -5.902   6.743   4.328  1.00  0.00    -0.248 NA
ATOM     33  C   UNL     1      -6.259   8.741   3.165  1.00  0.00     0.031 C 
ATOM     34  C   UNL     1      -8.866   5.053   7.222  1.00  0.00     0.029 A 
ATOM     35  C   UNL     1      -7.915   5.608   6.378  1.00  0.00     0.049 A 
ATOM     36  H   UNL     1      -6.034   4.837   5.819  1.00  0.00     0.167 HD
ATOM     37  C   UNL     1      -7.059   7.340   4.798  1.00  0.00     0.074 A 
ATOM     38  C   UNL     1      -7.177   8.613   4.110  1.00  0.00     0.031 C 
ATOM     39  C   UNL     1      -7.976   6.865   5.675  1.00  0.00     0.037 A 
BRANCH  26  40
ATOM     40  C   UNL     1      -6.664   1.340   8.189  1.00  0.00     0.058 A 
ATOM     41  C   UNL     1      -5.989   1.024   9.379  1.00  0.00     0.135 A 
ATOM     42  C   UNL     1      -7.697   0.488   7.771  1.00  0.00     0.135 A 
ATOM     43  F   UNL     1      -4.962   1.782   9.797  1.00  0.00    -0.206 F 
ATOM     44  C   UNL     1      -6.302  -0.118  10.107  1.00  0.00     0.059 A 
ATOM     45  C   UNL     1      -8.046  -0.643   8.499  1.00  0.00     0.059 A 
ATOM     46  F   UNL     1      -8.355   0.733   6.628  1.00  0.00    -0.206 F 
ATOM     47  C   UNL     1      -7.330  -0.947   9.656  1.00  0.00     0.060 A 
BRANCH  47  48
ATOM     48  S   UNL     1      -7.710  -2.437  10.598  1.00  0.00     0.124 S 
ATOM     49  O   UNL     1      -6.559  -3.279  10.290  1.00  0.00    -0.237 OA
ATOM     50  O   UNL     1      -7.777  -1.930  11.965  1.00  0.00    -0.237 OA
ATOM     51  O   UNL     1      -8.982  -2.881  10.035  1.00  0.00    -0.744 OA
ENDBRANCH  47  48
ENDBRANCH  26  40
BRANCH  27  52
ATOM     52  C   UNL     1      -3.728   8.504   1.663  1.00  0.00     0.058 A 
ATOM     53  C   UNL     1      -3.478   9.781   2.212  1.00  0.00     0.135 A 
ATOM     54  C   UNL     1      -3.453   8.357   0.295  1.00  0.00     0.135 A 
ATOM     55  F   UNL     1      -3.741  10.019   3.506  1.00  0.00    -0.206 F 
ATOM     56  C   UNL     1      -2.952  10.835   1.465  1.00  0.00     0.059 A 
ATOM     57  C   UNL     1      -2.895   9.388  -0.469  1.00  0.00     0.059 A 
ATOM     58  F   UNL     1      -3.680   7.185  -0.316  1.00  0.00    -0.206 F 
ATOM     59  C   UNL     1      -2.637  10.622   0.128  1.00  0.00     0.060 A 
BRANCH  59  60
ATOM     60  S   UNL     1      -1.810  11.943  -0.790  1.00  0.00     0.124 S 
ATOM     61  O   UNL     1      -2.886  12.912  -0.959  1.00  0.00    -0.237 OA
ATOM     62  O   UNL     1      -0.739  12.334   0.121  1.00  0.00    -0.237 OA
ATOM     63  O   UNL     1      -1.364  11.273  -2.009  1.00  0.00    -0.744 OA
ENDBRANCH  59  60
ENDBRANCH  27  52
BRANCH  39  64
ATOM     64  C   UNL     1      -9.175   7.733   5.900  1.00  0.00     0.058 A 
ATOM     65  C   UNL     1     -10.127   7.932   4.886  1.00  0.00     0.135 A 
ATOM     66  C   UNL     1      -9.377   8.362   7.135  1.00  0.00     0.135 A 
ATOM     67  F   UNL     1      -9.967   7.358   3.683  1.00  0.00    -0.206 F 
ATOM     68  C   UNL     1     -11.220   8.763   5.078  1.00  0.00     0.059 A 
ATOM     69  C   UNL     1     -10.485   9.167   7.361  1.00  0.00     0.059 A 
ATOM     70  F   UNL     1      -8.496   8.194   8.134  1.00  0.00    -0.206 F 
ATOM     71  C   UNL     1     -11.391   9.374   6.321  1.00  0.00     0.060 A 
BRANCH  71  72
ATOM     72  S   UNL     1     -12.834  10.424   6.566  1.00  0.00     0.124 S 
ATOM     73  O   UNL     1     -12.464  11.614   5.807  1.00  0.00    -0.237 OA
ATOM     74  O   UNL     1     -13.907   9.616   5.996  1.00  0.00    -0.237 OA
ATOM     75  O   UNL     1     -12.887  10.593   8.015  1.00  0.00    -0.744 OA
ENDBRANCH  71  72
ENDBRANCH  39  64
ENDBRANCH  13  14
ENDBRANCH   6   8
ENDBRANCH   5   6
ENDBRANCH   4   5
ENDBRANCH   3   4
ENDBRANCH   2   3
ENDBRANCH   1   2
BRANCH   1  76
ATOM     76  C   UNL     1       5.591   2.361   2.479  1.00  0.00     0.188 C 
BRANCH  76  77
ATOM     77  O   UNL     1       6.657   3.219   2.871  1.00  0.00    -0.376 OA
BRANCH  77  78
ATOM     78  C   UNL     1       6.399   4.194   3.872  1.00  0.00     0.202 C 
BRANCH  78  79
ATOM     79  C   UNL     1       5.403   5.325   3.579  1.00  0.00     0.261 C 
BRANCH  79  80
ATOM     80  O   UNL     1       4.259   4.973   2.792  1.00  0.00    -0.463 OA
BRANCH  80  81
ATOM     81  C   UNL     1       4.439   5.160   1.461  1.00  0.00     0.311 C 
ATOM     82  O   UNL     1       5.502   5.477   0.934  1.00  0.00    -0.252 OA
BRANCH  81  83
ATOM     83  C   UNL     1       3.172   5.102   0.671  1.00  0.00     0.128 C 
ATOM     84  C   UNL     1       1.980   4.251   1.072  1.00  0.00     0.117 C 
ATOM     85  C   UNL     1       2.624   6.503   0.773  1.00  0.00     0.135 C 
ATOM     86  C   UNL     1       0.862   5.044   0.413  1.00  0.00     0.223 C 
ATOM     87  N   UNL     1       1.249   6.371   0.410  1.00  0.00    -0.337 N 
ATOM     88  O   UNL     1      -0.181   4.569  -0.011  1.00  0.00    -0.275 OA
BRANCH  87  89
ATOM     89  C   UNL     1       0.447   7.558   0.128  1.00  0.00     0.155 C 
BRANCH  89  90
ATOM     90  C   UNL     1       0.584   8.558   1.264  1.00  0.00    -0.027 A 
ATOM     91  C   UNL     1       1.657   9.460   1.287  1.00  0.00     0.005 A 
ATOM     92  C   UNL     1      -0.243   8.510   2.392  1.00  0.00     0.026 A 
ATOM     93  C   UNL     1       1.906  10.253   2.411  1.00  0.00     0.002 A 
ATOM     94  C   UNL     1      -0.013   9.319   3.503  1.00  0.00     0.041 A 
ATOM     95  C   UNL     1       1.067  10.186   3.521  1.00  0.00     0.020 A 
ATOM     96  Cl  UNL     1      -1.036   9.195   4.882  1.00  0.00    -0.084 Cl
ENDBRANCH  89  90
ENDBRANCH  87  89
ENDBRANCH  81  83
ENDBRANCH  80  81
ENDBRANCH  79  80
ENDBRANCH  78  79
ENDBRANCH  77  78
ENDBRANCH  76  77
ENDBRANCH   1  76
TORSDOF 22
