REMARK SMILES O=C(COc1ccccc1/C=C1\C(=O)Nc2ccccc21)OCCOCCOCCOC(=O)c1ccc(-c2c3nc(c(-c4c(F)cc(S(=O)(=O)[O-])cc4F)c4ccc([nH]4)c(-c4c(F)cc(S(=O)(=O)[O-])cc4F)c4nc(c(-c5c(F)cc(S(=O)(=O)[O-])cc5F)c5ccc2[nH]5)C=C4)C=C3)cc1
REMARK SMILES IDX 26 1 25 2 24 3 23 4 22 5 2 6 1 7 3 8 4 9 5 10 6 11 10 12
REMARK SMILES IDX 7 13 9 14 8 15 11 16 12 17 13 18 21 19 14 20 15 21 16 22
REMARK SMILES IDX 20 23 17 25 19 26 18 27 27 28 28 29 29 30 30 31 31 32 32 33
REMARK SMILES IDX 33 34 34 35 35 36 99 37 36 38 98 39 37 40 38 41 39 42 92 43
REMARK SMILES IDX 40 44 97 45 91 46 93 47 41 48 96 49 90 50 89 51 42 53 76 54
REMARK SMILES IDX 55 55 75 56 56 57 59 58 74 59 94 60 57 61 58 62 73 64 95 65
REMARK SMILES IDX 60 66 43 67 44 68 53 69 45 70 46 71 52 72 54 73 47 74 48 75
REMARK SMILES IDX 49 76 50 77 51 78 77 79 78 80 87 81 79 82 80 83 86 84 88 85
REMARK SMILES IDX 81 86 82 87 83 88 84 89 85 90 61 91 62 92 71 93 63 94 64 95
REMARK SMILES IDX 70 96 72 97 65 98 66 99 67 100 68 101 69 102
REMARK H PARENT 15 24 93 52 59 63
REMARK Flexibility Score: inf
ROOT
ATOM      1  C   UNL     1       3.724   2.085  -1.095  1.00  0.00     0.188 C 
ENDROOT
BRANCH   1   2
ATOM      2  O   UNL     1       4.845   1.203  -1.087  1.00  0.00    -0.376 OA
BRANCH   2   3
ATOM      3  C   UNL     1       4.805   0.184  -0.098  1.00  0.00     0.202 C 
BRANCH   3   4
ATOM      4  C   UNL     1       3.913  -0.975  -0.529  1.00  0.00     0.261 C 
BRANCH   4   5
ATOM      5  O   UNL     1       2.504  -0.644  -0.632  1.00  0.00    -0.461 OA
BRANCH   5   6
ATOM      6  C   UNL     1       1.667  -0.154   0.314  1.00  0.00     0.344 C 
ATOM      7  O   UNL     1       0.600   0.346  -0.038  1.00  0.00    -0.248 OA
BRANCH   6   8
ATOM      8  C   UNL     1       2.053  -0.213   1.778  1.00  0.00     0.351 C 
BRANCH   8   9
ATOM      9  O   UNL     1       3.104  -1.117   2.050  1.00  0.00    -0.481 OA
BRANCH   9  10
ATOM     10  C   UNL     1       2.777  -2.173   2.854  1.00  0.00     0.127 A 
ATOM     11  C   UNL     1       3.442  -2.154   4.086  1.00  0.00     0.047 A 
ATOM     12  C   UNL     1       2.007  -3.284   2.438  1.00  0.00     0.017 A 
ATOM     13  C   UNL     1       3.369  -3.249   4.933  1.00  0.00     0.004 A 
ATOM     14  C   UNL     1       2.030  -4.403   3.276  1.00  0.00     0.012 A 
ATOM     15  C   UNL     1       2.681  -4.381   4.517  1.00  0.00     0.001 A 
BRANCH  12  16
ATOM     16  C   UNL     1       1.268  -3.296   1.152  1.00  0.00     0.026 C 
ATOM     17  C   UNL     1       0.062  -3.803   0.825  1.00  0.00     0.050 C 
ATOM     18  C   UNL     1      -0.874  -4.677   1.635  1.00  0.00     0.256 C 
ATOM     19  C   UNL     1      -0.636  -3.541  -0.456  1.00  0.00     0.011 A 
ATOM     20  O   UNL     1      -0.734  -5.139   2.748  1.00  0.00    -0.269 OA
ATOM     21  N   UNL     1      -1.963  -4.909   0.812  1.00  0.00    -0.321 N 
ATOM     22  C   UNL     1      -1.849  -4.234  -0.394  1.00  0.00     0.049 A 
ATOM     23  C   UNL     1      -0.374  -2.733  -1.551  1.00  0.00     0.011 A 
ATOM     24  H   UNL     1      -2.726  -5.482   1.054  1.00  0.00     0.170 HD
ATOM     25  C   UNL     1      -2.805  -4.184  -1.391  1.00  0.00     0.027 A 
ATOM     26  C   UNL     1      -1.338  -2.646  -2.567  1.00  0.00     0.001 A 
ATOM     27  C   UNL     1      -2.540  -3.370  -2.491  1.00  0.00     0.002 A 
ENDBRANCH  12  16
ENDBRANCH   9  10
ENDBRANCH   8   9
ENDBRANCH   6   8
ENDBRANCH   5   6
ENDBRANCH   4   5
ENDBRANCH   3   4
ENDBRANCH   2   3
ENDBRANCH   1   2
BRANCH   1  28
ATOM     28  C   UNL     1       2.828   1.906  -2.335  1.00  0.00     0.188 C 
BRANCH  28  29
ATOM     29  O   UNL     1       3.458   1.708  -3.599  1.00  0.00    -0.376 OA
BRANCH  29  30
ATOM     30  C   UNL     1       4.662   2.412  -3.867  1.00  0.00     0.202 C 
BRANCH  30  31
ATOM     31  C   UNL     1       4.528   3.926  -4.057  1.00  0.00     0.261 C 
BRANCH  31  32
ATOM     32  O   UNL     1       4.129   4.603  -2.849  1.00  0.00    -0.460 OA
BRANCH  32  33
ATOM     33  C   UNL     1       2.894   5.160  -2.877  1.00  0.00     0.338 C 
ATOM     34  O   UNL     1       2.148   5.226  -3.840  1.00  0.00    -0.246 OA
BRANCH  33  35
ATOM     35  C   UNL     1       2.459   5.548  -1.513  1.00  0.00     0.060 A 
ATOM     36  C   UNL     1       1.163   5.182  -1.124  1.00  0.00     0.016 A 
ATOM     37  C   UNL     1       3.248   6.331  -0.666  1.00  0.00     0.016 A 
ATOM     38  C   UNL     1       0.623   5.663   0.069  1.00  0.00     0.010 A 
ATOM     39  C   UNL     1       2.697   6.826   0.527  1.00  0.00     0.010 A 
ATOM     40  C   UNL     1       1.363   6.539   0.873  1.00  0.00    -0.014 A 
BRANCH  40  41
ATOM     41  C   UNL     1       0.652   7.317   1.924  1.00  0.00     0.031 A 
ATOM     42  C   UNL     1       0.140   8.693   1.575  1.00  0.00     0.074 A 
ATOM     43  C   UNL     1       0.389   6.800   3.138  1.00  0.00     0.049 A 
ATOM     44  N   UNL     1      -0.544   9.536   2.307  1.00  0.00    -0.248 NA
ATOM     45  C   UNL     1       0.436   9.179   0.218  1.00  0.00     0.031 C 
ATOM     46  C   UNL     1       0.794   5.476   3.603  1.00  0.00     0.029 A 
ATOM     47  N   UNL     1      -0.289   7.339   4.205  1.00  0.00    -0.354 N 
ATOM     48  C   UNL     1      -0.774  10.642   1.496  1.00  0.00     0.074 A 
ATOM     49  C   UNL     1      -0.118  10.382   0.232  1.00  0.00     0.031 C 
ATOM     50  C   UNL     1       0.368   5.310   4.869  1.00  0.00     0.029 A 
ATOM     51  C   UNL     1      -0.331   6.519   5.307  1.00  0.00     0.049 A 
ATOM     52  H   UNL     1      -0.707   8.230   4.182  1.00  0.00     0.167 HD
ATOM     53  C   UNL     1      -1.480  11.766   1.765  1.00  0.00     0.037 A 
ATOM     54  C   UNL     1      -0.863   6.722   6.529  1.00  0.00     0.037 A 
ATOM     55  C   UNL     1      -2.129  12.043   3.019  1.00  0.00     0.049 A 
ATOM     56  C   UNL     1      -1.600   8.005   6.826  1.00  0.00     0.074 A 
ATOM     57  C   UNL     1      -2.858  13.163   3.383  1.00  0.00     0.029 A 
ATOM     58  N   UNL     1      -2.128  11.196   4.115  1.00  0.00    -0.354 N 
ATOM     59  N   UNL     1      -1.819   9.034   6.043  1.00  0.00    -0.248 NA
ATOM     60  C   UNL     1      -2.173   8.146   8.174  1.00  0.00     0.031 C 
ATOM     61  C   UNL     1      -3.269  13.007   4.711  1.00  0.00     0.029 A 
ATOM     62  C   UNL     1      -2.832  11.773   5.160  1.00  0.00     0.049 A 
ATOM     63  H   UNL     1      -1.691  10.314   4.147  1.00  0.00     0.167 HD
ATOM     64  C   UNL     1      -2.569   9.933   6.795  1.00  0.00     0.074 A 
ATOM     65  C   UNL     1      -2.784   9.320   8.089  1.00  0.00     0.031 C 
ATOM     66  C   UNL     1      -3.039  11.157   6.447  1.00  0.00     0.037 A 
BRANCH  53  67
ATOM     67  C   UNL     1      -1.582  12.791   0.671  1.00  0.00     0.058 A 
ATOM     68  C   UNL     1      -2.405  12.586  -0.448  1.00  0.00     0.135 A 
ATOM     69  C   UNL     1      -0.873  13.999   0.753  1.00  0.00     0.135 A 
ATOM     70  F   UNL     1      -3.088  11.438  -0.584  1.00  0.00    -0.206 F 
ATOM     71  C   UNL     1      -2.505  13.536  -1.459  1.00  0.00     0.059 A 
ATOM     72  C   UNL     1      -0.976  14.973  -0.235  1.00  0.00     0.059 A 
ATOM     73  F   UNL     1      -0.070  14.241   1.801  1.00  0.00    -0.206 F 
ATOM     74  C   UNL     1      -1.786  14.726  -1.344  1.00  0.00     0.060 A 
BRANCH  74  75
ATOM     75  S   UNL     1      -1.930  15.954  -2.660  1.00  0.00     0.124 S 
ATOM     76  O   UNL     1      -1.128  15.344  -3.716  1.00  0.00    -0.237 OA
ATOM     77  O   UNL     1      -3.370  15.990  -2.898  1.00  0.00    -0.237 OA
ATOM     78  O   UNL     1      -1.367  17.160  -2.062  1.00  0.00    -0.744 OA
ENDBRANCH  74  75
ENDBRANCH  53  67
BRANCH  54  79
ATOM     79  C   UNL     1      -0.709   5.689   7.589  1.00  0.00     0.058 A 
ATOM     80  C   UNL     1      -1.801   4.935   8.041  1.00  0.00     0.135 A 
ATOM     81  C   UNL     1       0.538   5.462   8.192  1.00  0.00     0.135 A 
ATOM     82  F   UNL     1      -3.017   5.128   7.506  1.00  0.00    -0.206 F 
ATOM     83  C   UNL     1      -1.669   4.005   9.068  1.00  0.00     0.059 A 
ATOM     84  C   UNL     1       0.700   4.522   9.204  1.00  0.00     0.059 A 
ATOM     85  F   UNL     1       1.616   6.153   7.789  1.00  0.00    -0.206 F 
ATOM     86  C   UNL     1      -0.413   3.807   9.644  1.00  0.00     0.060 A 
BRANCH  86  87
ATOM     87  S   UNL     1      -0.235   2.571  10.949  1.00  0.00     0.124 S 
ATOM     88  O   UNL     1      -0.788   3.276  12.099  1.00  0.00    -0.237 OA
ATOM     89  O   UNL     1      -1.034   1.462  10.435  1.00  0.00    -0.237 OA
ATOM     90  O   UNL     1       1.204   2.330  10.984  1.00  0.00    -0.744 OA
ENDBRANCH  86  87
ENDBRANCH  54  79
BRANCH  66  91
ATOM     91  C   UNL     1      -3.849  11.907   7.470  1.00  0.00     0.058 A 
ATOM     92  C   UNL     1      -3.253  12.487   8.601  1.00  0.00     0.135 A 
ATOM     93  C   UNL     1      -5.235  12.064   7.308  1.00  0.00     0.135 A 
ATOM     94  F   UNL     1      -1.931  12.366   8.805  1.00  0.00    -0.206 F 
ATOM     95  C   UNL     1      -4.007  13.164   9.555  1.00  0.00     0.059 A 
ATOM     96  C   UNL     1      -6.005  12.758   8.237  1.00  0.00     0.059 A 
ATOM     97  F   UNL     1      -5.854  11.543   6.237  1.00  0.00    -0.206 F 
ATOM     98  C   UNL     1      -5.385  13.288   9.367  1.00  0.00     0.060 A 
BRANCH  98  99
ATOM     99  S   UNL     1      -6.357  14.166  10.611  1.00  0.00     0.124 S 
ATOM    100  O   UNL     1      -6.464  13.161  11.663  1.00  0.00    -0.237 OA
ATOM    101  O   UNL     1      -5.513  15.317  10.918  1.00  0.00    -0.237 OA
ATOM    102  O   UNL     1      -7.599  14.479   9.910  1.00  0.00    -0.744 OA
ENDBRANCH  98  99
ENDBRANCH  66  91
ENDBRANCH  40  41
ENDBRANCH  33  35
ENDBRANCH  32  33
ENDBRANCH  31  32
ENDBRANCH  30  31
ENDBRANCH  29  30
ENDBRANCH  28  29
ENDBRANCH   1  28
TORSDOF 23
