REMARK SMILES Cc1cc(S(=O)(=O)Nc2ccc(F)cc2C(=O)OCCOCCOCCOC(=O)c2ccc(-c3c4nc(c(-c5c(F)cc(S(=O)(=O)[O-])cc5F)c5ccc([nH]5)c(-c5c(F)cc(S(=O)(=O)[O-])cc5F)c5nc(c(-c6c(F)cc(S(=O)(=O)[O-])cc6F)c6ccc3[nH]6)C=C5)C=C4)cc2)c(C)s1
REMARK SMILES IDX 22 1 21 2 20 3 19 4 18 5 16 6 17 7 15 8 9 9 10 10 11 11
REMARK SMILES IDX 14 12 12 13 13 14 8 15 5 17 6 18 7 19 4 20 1 21 2 22 3 23
REMARK SMILES IDX 98 24 96 25 97 26 23 27 24 28 25 29 26 30 27 31 28 32 29 33
REMARK SMILES IDX 30 34 31 35 95 36 32 37 94 38 33 39 34 40 35 41 88 42 36 43
REMARK SMILES IDX 93 44 87 45 89 46 37 47 92 48 86 49 85 50 38 52 72 53 51 54
REMARK SMILES IDX 71 55 52 56 55 57 70 58 90 59 53 60 54 61 69 63 91 64 56 65
REMARK SMILES IDX 39 66 40 67 49 68 41 69 42 70 48 71 50 72 43 73 44 74 45 75
REMARK SMILES IDX 46 76 47 77 73 78 74 79 83 80 75 81 76 82 82 83 84 84 77 85
REMARK SMILES IDX 78 86 79 87 80 88 81 89 57 90 58 91 67 92 59 93 60 94 66 95
REMARK SMILES IDX 68 96 61 97 62 98 63 99 64 100 65 101
REMARK H PARENT 8 16 89 51 55 62
REMARK Flexibility Score: inf
ROOT
ATOM      1  C   UNL     1      -1.271  -5.950   3.698  1.00  0.00     0.188 C 
ENDROOT
BRANCH   1   2
ATOM      2  O   UNL     1      -0.608  -7.138   4.110  1.00  0.00    -0.376 OA
BRANCH   2   3
ATOM      3  C   UNL     1       0.594  -7.544   3.470  1.00  0.00     0.202 C 
BRANCH   3   4
ATOM      4  C   UNL     1       0.567  -7.758   1.954  1.00  0.00     0.261 C 
BRANCH   4   5
ATOM      5  O   UNL     1       0.137  -6.598   1.215  1.00  0.00    -0.460 OA
BRANCH   5   6
ATOM      6  C   UNL     1      -0.978  -6.782   0.465  1.00  0.00     0.340 C 
ATOM      7  O   UNL     1      -1.578  -7.838   0.323  1.00  0.00    -0.246 OA
BRANCH   6   8
ATOM      8  C   UNL     1      -1.496  -5.521  -0.125  1.00  0.00     0.087 A 
ATOM      9  C   UNL     1      -0.701  -4.455  -0.595  1.00  0.00     0.064 A 
ATOM     10  C   UNL     1      -1.305  -3.505  -1.430  1.00  0.00     0.030 A 
ATOM     11  C   UNL     1      -2.697  -3.445  -1.546  1.00  0.00     0.041 A 
ATOM     12  C   UNL     1      -2.894  -5.453  -0.240  1.00  0.00     0.057 A 
ATOM     13  C   UNL     1      -3.480  -4.389  -0.902  1.00  0.00     0.124 A 
ATOM     14  F   UNL     1      -4.813  -4.281  -0.939  1.00  0.00    -0.207 F 
BRANCH   9  15
ATOM     15  N   UNL     1       0.659  -4.323  -0.170  1.00  0.00    -0.279 N 
ATOM     16  H   UNL     1       1.085  -5.122   0.218  1.00  0.00     0.180 HD
BRANCH  15  17
ATOM     17  S   UNL     1       1.597  -2.939  -0.271  1.00  0.00     0.263 S 
ATOM     18  O   UNL     1       1.919  -2.723  -1.667  1.00  0.00    -0.201 OA
ATOM     19  O   UNL     1       2.637  -3.074   0.726  1.00  0.00    -0.201 OA
BRANCH  17  20
ATOM     20  C   UNL     1       0.788  -1.455   0.174  1.00  0.00     0.101 A 
ATOM     21  C   UNL     1      -2.461   0.412   0.575  1.00  0.00     0.056 C 
ATOM     22  C   UNL     1      -1.048  -0.064   0.507  1.00  0.00     0.003 A 
ATOM     23  C   UNL     1      -0.563  -1.350   0.632  1.00  0.00     0.037 A 
ATOM     24  S   UNL     1       0.213   1.048   0.217  1.00  0.00    -0.145 S 
ATOM     25  C   UNL     1       1.373  -0.204   0.046  1.00  0.00     0.022 A 
ATOM     26  C   UNL     1       2.783   0.174  -0.263  1.00  0.00     0.058 C 
ENDBRANCH  17  20
ENDBRANCH  15  17
ENDBRANCH   9  15
ENDBRANCH   6   8
ENDBRANCH   5   6
ENDBRANCH   4   5
ENDBRANCH   3   4
ENDBRANCH   2   3
ENDBRANCH   1   2
BRANCH   1  27
ATOM     27  C   UNL     1      -0.458  -4.677   3.387  1.00  0.00     0.188 C 
BRANCH  27  28
ATOM     28  O   UNL     1       0.921  -4.758   3.698  1.00  0.00    -0.376 OA
BRANCH  28  29
ATOM     29  C   UNL     1       1.354  -3.942   4.783  1.00  0.00     0.202 C 
BRANCH  29  30
ATOM     30  C   UNL     1       0.850  -4.377   6.167  1.00  0.00     0.261 C 
BRANCH  30  31
ATOM     31  O   UNL     1      -0.580  -4.388   6.327  1.00  0.00    -0.460 OA
BRANCH  31  32
ATOM     32  C   UNL     1      -1.221  -3.199   6.253  1.00  0.00     0.338 C 
ATOM     33  O   UNL     1      -0.718  -2.107   6.064  1.00  0.00    -0.246 OA
BRANCH  32  34
ATOM     34  C   UNL     1      -2.674  -3.471   6.236  1.00  0.00     0.060 A 
ATOM     35  C   UNL     1      -3.437  -3.018   5.151  1.00  0.00     0.016 A 
ATOM     36  C   UNL     1      -3.276  -4.180   7.277  1.00  0.00     0.016 A 
ATOM     37  C   UNL     1      -4.812  -3.260   5.118  1.00  0.00     0.010 A 
ATOM     38  C   UNL     1      -4.656  -4.403   7.251  1.00  0.00     0.010 A 
ATOM     39  C   UNL     1      -5.435  -3.925   6.184  1.00  0.00    -0.014 A 
BRANCH  39  40
ATOM     40  C   UNL     1      -6.915  -3.981   6.267  1.00  0.00     0.031 A 
ATOM     41  C   UNL     1      -7.632  -2.930   7.069  1.00  0.00     0.074 A 
ATOM     42  C   UNL     1      -7.616  -4.944   5.642  1.00  0.00     0.049 A 
ATOM     43  N   UNL     1      -8.909  -2.801   7.314  1.00  0.00    -0.248 NA
ATOM     44  C   UNL     1      -6.793  -1.882   7.674  1.00  0.00     0.031 C 
ATOM     45  C   UNL     1      -7.045  -5.998   4.805  1.00  0.00     0.029 A 
ATOM     46  N   UNL     1      -8.967  -5.192   5.621  1.00  0.00    -0.354 N 
ATOM     47  C   UNL     1      -9.030  -1.660   8.098  1.00  0.00     0.074 A 
ATOM     48  C   UNL     1      -7.693  -1.149   8.311  1.00  0.00     0.031 C 
ATOM     49  C   UNL     1      -8.040  -6.782   4.354  1.00  0.00     0.029 A 
ATOM     50  C   UNL     1      -9.314  -6.306   4.894  1.00  0.00     0.049 A 
ATOM     51  H   UNL     1      -9.625  -4.625   6.083  1.00  0.00     0.167 HD
ATOM     52  C   UNL     1     -10.152  -1.085   8.589  1.00  0.00     0.037 A 
ATOM     53  C   UNL     1     -10.517  -6.884   4.701  1.00  0.00     0.037 A 
ATOM     54  C   UNL     1     -11.480  -1.601   8.388  1.00  0.00     0.049 A 
ATOM     55  C   UNL     1     -11.746  -6.276   5.327  1.00  0.00     0.074 A 
ATOM     56  C   UNL     1     -12.681  -1.080   8.839  1.00  0.00     0.029 A 
ATOM     57  N   UNL     1     -11.784  -2.759   7.689  1.00  0.00    -0.354 N 
ATOM     58  N   UNL     1     -11.847  -5.188   6.054  1.00  0.00    -0.248 NA
ATOM     59  C   UNL     1     -13.022  -6.975   5.113  1.00  0.00     0.031 C 
ATOM     60  C   UNL     1     -13.706  -1.948   8.451  1.00  0.00     0.029 A 
ATOM     61  C   UNL     1     -13.150  -2.984   7.718  1.00  0.00     0.049 A 
ATOM     62  H   UNL     1     -11.126  -3.336   7.239  1.00  0.00     0.167 HD
ATOM     63  C   UNL     1     -13.198  -5.061   6.365  1.00  0.00     0.074 A 
ATOM     64  C   UNL     1     -13.877  -6.180   5.745  1.00  0.00     0.031 C 
ATOM     65  C   UNL     1     -13.817  -4.102   7.097  1.00  0.00     0.037 A 
BRANCH  52  66
ATOM     66  C   UNL     1      -9.989   0.161   9.411  1.00  0.00     0.058 A 
ATOM     67  C   UNL     1     -10.190   0.130  10.799  1.00  0.00     0.135 A 
ATOM     68  C   UNL     1      -9.662   1.392   8.821  1.00  0.00     0.135 A 
ATOM     69  F   UNL     1     -10.493  -1.024  11.414  1.00  0.00    -0.206 F 
ATOM     70  C   UNL     1     -10.080   1.279  11.575  1.00  0.00     0.059 A 
ATOM     71  C   UNL     1      -9.525   2.550   9.580  1.00  0.00     0.059 A 
ATOM     72  F   UNL     1      -9.434   1.468   7.500  1.00  0.00    -0.206 F 
ATOM     73  C   UNL     1      -9.746   2.485  10.956  1.00  0.00     0.060 A 
BRANCH  73  74
ATOM     74  S   UNL     1      -9.555   3.957  11.983  1.00  0.00     0.124 S 
ATOM     75  O   UNL     1     -10.937   4.262  12.331  1.00  0.00    -0.237 OA
ATOM     76  O   UNL     1      -8.716   3.465  13.072  1.00  0.00    -0.237 OA
ATOM     77  O   UNL     1      -8.904   4.910  11.087  1.00  0.00    -0.744 OA
ENDBRANCH  73  74
ENDBRANCH  52  66
BRANCH  53  78
ATOM     78  C   UNL     1     -10.617  -8.112   3.868  1.00  0.00     0.058 A 
ATOM     79  C   UNL     1     -10.113  -9.341   4.320  1.00  0.00     0.135 A 
ATOM     80  C   UNL     1     -11.187  -8.069   2.587  1.00  0.00     0.135 A 
ATOM     81  F   UNL     1      -9.561  -9.435   5.539  1.00  0.00    -0.206 F 
ATOM     82  C   UNL     1     -10.138 -10.477   3.518  1.00  0.00     0.059 A 
ATOM     83  C   UNL     1     -11.243  -9.198   1.774  1.00  0.00     0.059 A 
ATOM     84  F   UNL     1     -11.701  -6.921   2.121  1.00  0.00    -0.206 F 
ATOM     85  C   UNL     1     -10.696 -10.393   2.241  1.00  0.00     0.060 A 
BRANCH  85  86
ATOM     86  S   UNL     1     -10.683 -11.868   1.200  1.00  0.00     0.124 S 
ATOM     87  O   UNL     1      -9.261 -12.001   0.903  1.00  0.00    -0.237 OA
ATOM     88  O   UNL     1     -11.242 -12.878   2.093  1.00  0.00    -0.237 OA
ATOM     89  O   UNL     1     -11.529 -11.493   0.072  1.00  0.00    -0.744 OA
ENDBRANCH  85  86
ENDBRANCH  53  78
BRANCH  65  90
ATOM     90  C   UNL     1     -15.309  -4.194   7.264  1.00  0.00     0.058 A 
ATOM     91  C   UNL     1     -16.155  -3.282   6.612  1.00  0.00     0.135 A 
ATOM     92  C   UNL     1     -15.894  -5.119   8.141  1.00  0.00     0.135 A 
ATOM     93  F   UNL     1     -15.646  -2.373   5.766  1.00  0.00    -0.206 F 
ATOM     94  C   UNL     1     -17.527  -3.269   6.842  1.00  0.00     0.059 A 
ATOM     95  C   UNL     1     -17.268  -5.139   8.370  1.00  0.00     0.059 A 
ATOM     96  F   UNL     1     -15.130  -6.019   8.781  1.00  0.00    -0.206 F 
ATOM     97  C   UNL     1     -18.073  -4.197   7.729  1.00  0.00     0.060 A 
BRANCH  97  98
ATOM     98  S   UNL     1     -19.855  -4.165   8.020  1.00  0.00     0.124 S 
ATOM     99  O   UNL     1     -20.006  -2.953   8.819  1.00  0.00    -0.237 OA
ATOM    100  O   UNL     1     -20.390  -4.101   6.663  1.00  0.00    -0.237 OA
ATOM    101  O   UNL     1     -20.107  -5.418   8.726  1.00  0.00    -0.744 OA
ENDBRANCH  97  98
ENDBRANCH  65  90
ENDBRANCH  39  40
ENDBRANCH  32  34
ENDBRANCH  31  32
ENDBRANCH  30  31
ENDBRANCH  29  30
ENDBRANCH  28  29
ENDBRANCH  27  28
ENDBRANCH   1  27
TORSDOF 23
