REMARK SMILES CC(C)C[C@H](NC(=O)[C@@H](NC(=O)N1CC(OCCOCCOCCOC(=O)c2ccc(-c3c4nc(c(-c5c(F)cc(S(=O)(=O)[O-])cc5F)c5ccc([nH]5)c(-c5c(F)cc(S(=O)(=O)[O-])cc5F)c5nc(c(-c6c(F)cc(S(=O)(=O)[O-])cc6F)c6ccc3[nH]6)C=C5)C=C4)cc2)=Nc2ccccc21)C(C)C)C(=O)[O-]
REMARK SMILES IDX 20 1 19 2 18 3 17 4 16 5 15 6 13 7 14 8 100 9 95 10 99 11
REMARK SMILES IDX 94 12 96 13 98 14 97 15 11 16 10 17 12 19 9 20 7 21 6 22
REMARK SMILES IDX 8 24 5 25 4 26 2 27 1 28 3 29 104 30 105 31 106 32 101 33
REMARK SMILES IDX 102 34 103 35 21 36 22 37 23 38 24 39 25 40 26 41 27 42
REMARK SMILES IDX 28 43 29 44 93 45 30 46 92 47 31 48 32 49 33 50 86 51 34 52
REMARK SMILES IDX 91 53 85 54 87 55 35 56 90 57 84 58 83 59 36 61 70 62 49 63
REMARK SMILES IDX 69 64 50 65 53 66 68 67 88 68 51 69 52 70 67 72 89 73 54 74
REMARK SMILES IDX 37 75 38 76 47 77 39 78 40 79 46 80 48 81 41 82 42 83 43 84
REMARK SMILES IDX 44 85 45 86 71 87 72 88 81 89 73 90 74 91 80 92 82 93 75 94
REMARK SMILES IDX 76 95 77 96 78 97 79 98 55 99 56 100 65 101 57 102 58 103
REMARK SMILES IDX 64 104 66 105 59 106 60 107 61 108 62 109 63 110
REMARK H PARENT 10 18 6 23 87 60 53 71
REMARK Flexibility Score: inf
ROOT
ATOM      1  C   UNL     1      -5.026  -1.636  -0.036  1.00  0.00     0.188 C 
ENDROOT
BRANCH   1   2
ATOM      2  O   UNL     1      -6.245  -2.201  -0.511  1.00  0.00    -0.376 OA
BRANCH   2   3
ATOM      3  C   UNL     1      -6.963  -1.318  -1.378  1.00  0.00     0.201 C 
BRANCH   3   4
ATOM      4  C   UNL     1      -7.689  -0.191  -0.630  1.00  0.00     0.259 C 
BRANCH   4   5
ATOM      5  O   UNL     1      -6.906   1.024  -0.622  1.00  0.00    -0.477 OA
BRANCH   5   6
ATOM      6  C   UNL     1      -6.274   1.399   0.518  1.00  0.00     0.209 C 
ATOM      7  N   UNL     1      -4.260   2.553   1.238  1.00  0.00    -0.283 N 
ATOM      8  C   UNL     1      -5.406   2.626   0.332  1.00  0.00     0.224 C 
ATOM      9  C   UNL     1      -4.641   2.218   2.578  1.00  0.00     0.072 A 
ATOM     10  C   UNL     1      -5.709   1.299   2.740  1.00  0.00     0.091 A 
ATOM     11  C   UNL     1      -3.991   2.721   3.707  1.00  0.00     0.029 A 
ATOM     12  N   UNL     1      -6.437   0.785   1.647  1.00  0.00    -0.214 NA
ATOM     13  C   UNL     1      -6.013   0.810   4.013  1.00  0.00     0.030 A 
ATOM     14  C   UNL     1      -4.331   2.243   4.980  1.00  0.00     0.002 A 
ATOM     15  C   UNL     1      -5.317   1.269   5.130  1.00  0.00     0.002 A 
BRANCH   7  16
ATOM     16  C   UNL     1      -3.093   3.137   0.841  1.00  0.00     0.323 C 
ATOM     17  N   UNL     1      -1.879   2.594   1.097  1.00  0.00    -0.326 N 
ATOM     18  H   UNL     1      -1.183   3.287   1.169  1.00  0.00     0.166 HD
ATOM     19  O   UNL     1      -3.086   4.149   0.131  1.00  0.00    -0.248 OA
BRANCH  17  20
ATOM     20  C   UNL     1      -1.318   1.234   1.300  1.00  0.00     0.175 C 
BRANCH  20  21
ATOM     21  C   UNL     1      -0.705   0.585   0.019  1.00  0.00     0.243 C 
ATOM     22  N   UNL     1      -1.453   0.237  -1.066  1.00  0.00    -0.346 N 
ATOM     23  H   UNL     1      -1.685  -0.711  -1.195  1.00  0.00     0.164 HD
ATOM     24  O   UNL     1       0.488   0.266  -0.009  1.00  0.00    -0.273 OA
BRANCH  22  25
ATOM     25  C   UNL     1      -1.927   1.215  -2.048  1.00  0.00     0.128 C 
BRANCH  25  26
ATOM     26  C   UNL     1      -0.884   1.462  -3.171  1.00  0.00     0.034 C 
BRANCH  26  27
ATOM     27  C   UNL     1      -0.712   2.965  -3.473  1.00  0.00    -0.015 C 
ATOM     28  C   UNL     1       0.284   3.588  -2.494  1.00  0.00     0.007 C 
ATOM     29  C   UNL     1      -0.242   3.192  -4.911  1.00  0.00     0.007 C 
ENDBRANCH  26  27
ENDBRANCH  25  26
BRANCH  25  30
ATOM     30  C   UNL     1      -3.262   0.733  -2.610  1.00  0.00     0.064 C 
ATOM     31  O   UNL     1      -4.357   0.944  -2.116  1.00  0.00    -0.548 OA
ATOM     32  O   UNL     1      -3.168  -0.122  -3.647  1.00  0.00    -0.548 OA
ENDBRANCH  25  30
ENDBRANCH  22  25
ENDBRANCH  20  21
BRANCH  20  33
ATOM     33  C   UNL     1      -2.098   0.317   2.265  1.00  0.00     0.015 C 
ATOM     34  C   UNL     1      -2.068  -1.190   2.090  1.00  0.00     0.010 C 
ATOM     35  C   UNL     1      -1.663   0.626   3.704  1.00  0.00     0.010 C 
ENDBRANCH  20  33
ENDBRANCH  17  20
ENDBRANCH   7  16
ENDBRANCH   5   6
ENDBRANCH   4   5
ENDBRANCH   3   4
ENDBRANCH   2   3
ENDBRANCH   1   2
BRANCH   1  36
ATOM     36  C   UNL     1      -3.829  -2.512  -0.388  1.00  0.00     0.188 C 
BRANCH  36  37
ATOM     37  O   UNL     1      -3.828  -2.950  -1.746  1.00  0.00    -0.376 OA
BRANCH  37  38
ATOM     38  C   UNL     1      -3.264  -4.264  -1.868  1.00  0.00     0.202 C 
BRANCH  38  39
ATOM     39  C   UNL     1      -1.741  -4.318  -1.666  1.00  0.00     0.261 C 
BRANCH  39  40
ATOM     40  O   UNL     1      -1.361  -4.185  -0.277  1.00  0.00    -0.460 OA
BRANCH  40  41
ATOM     41  C   UNL     1      -0.061  -3.801  -0.102  1.00  0.00     0.338 C 
ATOM     42  O   UNL     1       0.739  -3.595  -0.993  1.00  0.00    -0.246 OA
BRANCH  41  43
ATOM     43  C   UNL     1       0.222  -3.508   1.330  1.00  0.00     0.060 A 
ATOM     44  C   UNL     1       0.946  -2.345   1.609  1.00  0.00     0.016 A 
ATOM     45  C   UNL     1      -0.246  -4.290   2.391  1.00  0.00     0.016 A 
ATOM     46  C   UNL     1       1.103  -1.906   2.927  1.00  0.00     0.010 A 
ATOM     47  C   UNL     1       0.001  -3.897   3.724  1.00  0.00     0.010 A 
ATOM     48  C   UNL     1       0.660  -2.688   4.010  1.00  0.00    -0.014 A 
BRANCH  48  49
ATOM     49  C   UNL     1       1.006  -2.267   5.405  1.00  0.00     0.031 A 
ATOM     50  C   UNL     1       2.469  -2.146   5.764  1.00  0.00     0.074 A 
ATOM     51  C   UNL     1       0.076  -1.913   6.321  1.00  0.00     0.049 A 
ATOM     52  N   UNL     1       3.021  -1.739   6.877  1.00  0.00    -0.248 NA
ATOM     53  C   UNL     1       3.440  -2.493   4.711  1.00  0.00     0.031 C 
ATOM     54  C   UNL     1      -1.369  -1.866   6.099  1.00  0.00     0.029 A 
ATOM     55  N   UNL     1       0.211  -1.488   7.627  1.00  0.00    -0.354 N 
ATOM     56  C   UNL     1       4.390  -1.744   6.640  1.00  0.00     0.074 A 
ATOM     57  C   UNL     1       4.588  -2.151   5.269  1.00  0.00     0.031 C 
ATOM     58  C   UNL     1      -1.979  -1.405   7.208  1.00  0.00     0.029 A 
ATOM     59  C   UNL     1      -0.982  -1.192   8.255  1.00  0.00     0.049 A 
ATOM     60  H   UNL     1       1.084  -1.405   8.074  1.00  0.00     0.167 HD
ATOM     61  C   UNL     1       5.407  -1.499   7.497  1.00  0.00     0.037 A 
ATOM     62  C   UNL     1      -1.242  -0.825   9.530  1.00  0.00     0.037 A 
ATOM     63  C   UNL     1       5.236  -1.279   8.902  1.00  0.00     0.049 A 
ATOM     64  C   UNL     1      -0.093  -0.744  10.512  1.00  0.00     0.074 A 
ATOM     65  C   UNL     1       6.201  -1.248   9.892  1.00  0.00     0.029 A 
ATOM     66  N   UNL     1       4.011  -1.098   9.522  1.00  0.00    -0.354 N 
ATOM     67  N   UNL     1       1.196  -0.824  10.284  1.00  0.00    -0.248 NA
ATOM     68  C   UNL     1      -0.436  -0.570  11.934  1.00  0.00     0.031 C 
ATOM     69  C   UNL     1       5.552  -1.097  11.122  1.00  0.00     0.029 A 
ATOM     70  C   UNL     1       4.191  -0.979  10.887  1.00  0.00     0.049 A 
ATOM     71  H   UNL     1       3.143  -1.059   9.060  1.00  0.00     0.167 HD
ATOM     72  C   UNL     1       1.812  -0.711  11.528  1.00  0.00     0.074 A 
ATOM     73  C   UNL     1       0.761  -0.523  12.503  1.00  0.00     0.031 C 
ATOM     74  C   UNL     1       3.130  -0.778  11.839  1.00  0.00     0.037 A 
BRANCH  61  75
ATOM     75  C   UNL     1       6.791  -1.610   6.934  1.00  0.00     0.058 A 
ATOM     76  C   UNL     1       7.360  -0.575   6.178  1.00  0.00     0.135 A 
ATOM     77  C   UNL     1       7.526  -2.795   7.096  1.00  0.00     0.135 A 
ATOM     78  F   UNL     1       6.677   0.561   5.964  1.00  0.00    -0.206 F 
ATOM     79  C   UNL     1       8.610  -0.719   5.584  1.00  0.00     0.059 A 
ATOM     80  C   UNL     1       8.781  -2.955   6.522  1.00  0.00     0.059 A 
ATOM     81  F   UNL     1       7.007  -3.822   7.787  1.00  0.00    -0.206 F 
ATOM     82  C   UNL     1       9.308  -1.916   5.755  1.00  0.00     0.060 A 
BRANCH  82  83
ATOM     83  S   UNL     1      10.911  -2.107   4.948  1.00  0.00     0.124 S 
ATOM     84  O   UNL     1      10.516  -2.269   3.552  1.00  0.00    -0.237 OA
ATOM     85  O   UNL     1      11.578  -0.851   5.277  1.00  0.00    -0.237 OA
ATOM     86  O   UNL     1      11.471  -3.296   5.583  1.00  0.00    -0.744 OA
ENDBRANCH  82  83
ENDBRANCH  61  75
BRANCH  62  87
ATOM     87  C   UNL     1      -2.639  -0.592  10.019  1.00  0.00     0.058 A 
ATOM     88  C   UNL     1      -3.028   0.650  10.550  1.00  0.00     0.135 A 
ATOM     89  C   UNL     1      -3.580  -1.633  10.067  1.00  0.00     0.135 A 
ATOM     90  F   UNL     1      -2.165   1.677  10.554  1.00  0.00    -0.206 F 
ATOM     91  C   UNL     1      -4.279   0.841  11.139  1.00  0.00     0.059 A 
ATOM     92  C   UNL     1      -4.847  -1.458  10.622  1.00  0.00     0.059 A 
ATOM     93  F   UNL     1      -3.270  -2.845   9.584  1.00  0.00    -0.206 F 
ATOM     94  C   UNL     1      -5.179  -0.224  11.177  1.00  0.00     0.060 A 
BRANCH  94  95
ATOM     95  S   UNL     1      -6.798   0.017  11.944  1.00  0.00     0.124 S 
ATOM     96  O   UNL     1      -6.469  -0.092  13.361  1.00  0.00    -0.237 OA
ATOM     97  O   UNL     1      -7.170   1.347  11.475  1.00  0.00    -0.237 OA
ATOM     98  O   UNL     1      -7.591  -1.078  11.393  1.00  0.00    -0.744 OA
ENDBRANCH  94  95
ENDBRANCH  62  87
BRANCH  74  99
ATOM     99  C   UNL     1       3.522  -0.640  13.282  1.00  0.00     0.058 A 
ATOM    100  C   UNL     1       3.344  -1.692  14.193  1.00  0.00     0.135 A 
ATOM    101  C   UNL     1       4.181   0.516  13.730  1.00  0.00     0.135 A 
ATOM    102  F   UNL     1       2.719  -2.817  13.812  1.00  0.00    -0.206 F 
ATOM    103  C   UNL     1       3.802  -1.601  15.503  1.00  0.00     0.059 A 
ATOM    104  C   UNL     1       4.666   0.620  15.029  1.00  0.00     0.059 A 
ATOM    105  F   UNL     1       4.386   1.545  12.892  1.00  0.00    -0.206 F 
ATOM    106  C   UNL     1       4.468  -0.443  15.910  1.00  0.00     0.060 A 
BRANCH 106 107
ATOM    107  S   UNL     1       5.124  -0.364  17.591  1.00  0.00     0.124 S 
ATOM    108  O   UNL     1       3.916  -0.106  18.366  1.00  0.00    -0.237 OA
ATOM    109  O   UNL     1       5.716  -1.688  17.760  1.00  0.00    -0.237 OA
ATOM    110  O   UNL     1       6.080   0.738  17.529  1.00  0.00    -0.744 OA
ENDBRANCH 106 107
ENDBRANCH  74  99
ENDBRANCH  48  49
ENDBRANCH  41  43
ENDBRANCH  40  41
ENDBRANCH  39  40
ENDBRANCH  38  39
ENDBRANCH  37  38
ENDBRANCH  36  37
ENDBRANCH   1  36
TORSDOF 27
