REMARK SMILES CC[C@](C)(NC(=O)c1nc2nccc(C)n2n1)C(=O)OCCOCCOCCOC(=O)c1ccc(-c2c3nc(c(-c4c(F)cc(S(=O)(=O)[O-])cc4F)c4ccc([nH]4)c(-c4c(F)cc(S(=O)(=O)[O-])cc4F)c4nc(c(-c5c(F)cc(S(=O)(=O)[O-])cc5F)c5ccc2[nH]5)C=C4)C=C3)cc1
REMARK SMILES IDX 25 1 24 2 23 3 22 4 21 5 20 6 18 7 19 8 3 9 4 10 2 11 1 12
REMARK SMILES IDX 5 13 6 14 7 16 8 17 9 18 17 19 10 20 16 21 11 22 14 23 12 24
REMARK SMILES IDX 13 25 15 26 26 27 27 28 28 29 29 30 30 31 31 32 32 33 33 34
REMARK SMILES IDX 97 35 34 36 96 37 35 38 36 39 37 40 90 41 38 42 95 43 89 44
REMARK SMILES IDX 91 45 39 46 94 47 88 48 87 49 40 51 74 52 53 53 73 54 54 55
REMARK SMILES IDX 57 56 72 57 92 58 55 59 56 60 71 62 93 63 58 64 41 65 42 66
REMARK SMILES IDX 51 67 43 68 44 69 50 70 52 71 45 72 46 73 47 74 48 75 49 76
REMARK SMILES IDX 75 77 76 78 85 79 77 80 78 81 84 82 86 83 79 84 80 85 81 86
REMARK SMILES IDX 82 87 83 88 59 89 60 90 69 91 61 92 62 93 68 94 70 95 63 96
REMARK SMILES IDX 64 97 65 98 66 99 67 100
REMARK H PARENT 5 15 91 50 57 61
REMARK Flexibility Score: inf
ROOT
ATOM      1  C   UNL     1       3.409   4.230  -1.285  1.00  0.00     0.188 C 
ENDROOT
BRANCH   1   2
ATOM      2  C   UNL     1       3.188   2.788  -0.874  1.00  0.00     0.188 C 
BRANCH   2   3
ATOM      3  O   UNL     1       4.228   2.126  -0.162  1.00  0.00    -0.376 OA
BRANCH   3   4
ATOM      4  C   UNL     1       5.022   1.245  -0.950  1.00  0.00     0.202 C 
BRANCH   4   5
ATOM      5  C   UNL     1       4.336  -0.022  -1.508  1.00  0.00     0.261 C 
BRANCH   5   6
ATOM      6  O   UNL     1       3.194   0.287  -2.323  1.00  0.00    -0.462 OA
BRANCH   6   7
ATOM      7  C   UNL     1       1.968   0.021  -1.809  1.00  0.00     0.331 C 
ATOM      8  O   UNL     1       1.768  -0.809  -0.928  1.00  0.00    -0.249 OA
BRANCH   7   9
ATOM      9  C   UNL     1       0.833   0.882  -2.472  1.00  0.00     0.135 C 
ATOM     10  C   UNL     1       0.078   1.533  -1.264  1.00  0.00     0.047 C 
BRANCH   9  11
ATOM     11  C   UNL     1      -0.087  -0.111  -3.244  1.00  0.00     0.037 C 
ATOM     12  C   UNL     1      -1.559  -0.149  -2.828  1.00  0.00     0.007 C 
ENDBRANCH   9  11
BRANCH   9  13
ATOM     13  N   UNL     1       1.244   2.024  -3.378  1.00  0.00    -0.334 N 
ATOM     14  C   UNL     1       2.008   2.008  -4.549  1.00  0.00     0.291 C 
ATOM     15  H   UNL     1       0.924   2.913  -3.101  1.00  0.00     0.165 HD
ATOM     16  O   UNL     1       1.418   2.181  -5.618  1.00  0.00    -0.266 OA
BRANCH  14  17
ATOM     17  C   UNL     1       3.502   2.086  -4.463  1.00  0.00     0.241 A 
ATOM     18  N   UNL     1       4.138   3.228  -4.052  1.00  0.00    -0.184 NA
ATOM     19  N   UNL     1       4.374   1.135  -4.860  1.00  0.00    -0.139 NA
ATOM     20  C   UNL     1       5.411   2.954  -4.003  1.00  0.00     0.253 A 
ATOM     21  N   UNL     1       5.579   1.654  -4.467  1.00  0.00    -0.201 N 
ATOM     22  N   UNL     1       6.427   3.688  -3.455  1.00  0.00    -0.220 NA
ATOM     23  C   UNL     1       6.836   1.038  -4.381  1.00  0.00     0.045 A 
ATOM     24  C   UNL     1       7.566   3.083  -3.342  1.00  0.00     0.117 A 
ATOM     25  C   UNL     1       7.861   1.703  -3.812  1.00  0.00     0.044 A 
ATOM     26  C   UNL     1       6.961  -0.352  -4.900  1.00  0.00     0.067 C 
ENDBRANCH  14  17
ENDBRANCH   9  13
ENDBRANCH   7   9
ENDBRANCH   6   7
ENDBRANCH   5   6
ENDBRANCH   4   5
ENDBRANCH   3   4
ENDBRANCH   2   3
ENDBRANCH   1   2
BRANCH   1  27
ATOM     27  O   UNL     1       2.789   4.614  -2.516  1.00  0.00    -0.376 OA
BRANCH  27  28
ATOM     28  C   UNL     1       3.263   5.766  -3.257  1.00  0.00     0.202 C 
BRANCH  28  29
ATOM     29  C   UNL     1       4.489   6.575  -2.789  1.00  0.00     0.261 C 
BRANCH  29  30
ATOM     30  O   UNL     1       4.475   6.840  -1.398  1.00  0.00    -0.460 OA
BRANCH  30  31
ATOM     31  C   UNL     1       3.264   7.188  -0.941  1.00  0.00     0.338 C 
ATOM     32  O   UNL     1       2.400   7.825  -1.546  1.00  0.00    -0.246 OA
BRANCH  31  33
ATOM     33  C   UNL     1       3.092   6.575   0.389  1.00  0.00     0.060 A 
ATOM     34  C   UNL     1       1.853   6.845   0.949  1.00  0.00     0.016 A 
ATOM     35  C   UNL     1       4.259   6.435   1.137  1.00  0.00     0.016 A 
ATOM     36  C   UNL     1       1.918   7.733   1.967  1.00  0.00     0.010 A 
ATOM     37  C   UNL     1       4.354   7.345   2.128  1.00  0.00     0.010 A 
ATOM     38  C   UNL     1       3.204   8.090   2.379  1.00  0.00    -0.014 A 
BRANCH  38  39
ATOM     39  C   UNL     1       3.349   9.350   3.028  1.00  0.00     0.031 A 
ATOM     40  C   UNL     1       3.187   9.158   4.465  1.00  0.00     0.074 A 
ATOM     41  C   UNL     1       3.649  10.453   2.326  1.00  0.00     0.049 A 
ATOM     42  N   UNL     1       2.096   9.296   5.138  1.00  0.00    -0.248 NA
ATOM     43  C   UNL     1       4.227   8.358   5.138  1.00  0.00     0.031 C 
ATOM     44  C   UNL     1       4.079  10.591   0.930  1.00  0.00     0.029 A 
ATOM     45  N   UNL     1       3.742  11.714   2.803  1.00  0.00    -0.354 N 
ATOM     46  C   UNL     1       2.444   8.863   6.403  1.00  0.00     0.074 A 
ATOM     47  C   UNL     1       3.578   7.993   6.242  1.00  0.00     0.031 C 
ATOM     48  C   UNL     1       4.628  11.818   0.760  1.00  0.00     0.029 A 
ATOM     49  C   UNL     1       4.475  12.571   1.989  1.00  0.00     0.049 A 
ATOM     50  H   UNL     1       3.328  12.001   3.650  1.00  0.00     0.167 HD
ATOM     51  C   UNL     1       2.069   9.565   7.501  1.00  0.00     0.037 A 
ATOM     52  C   UNL     1       5.024  13.722   2.454  1.00  0.00     0.037 A 
ATOM     53  C   UNL     1       1.013  10.498   7.202  1.00  0.00     0.049 A 
ATOM     54  C   UNL     1       4.287  14.047   3.723  1.00  0.00     0.074 A 
ATOM     55  C   UNL     1      -0.266  10.362   6.696  1.00  0.00     0.029 A 
ATOM     56  N   UNL     1       1.372  11.811   6.986  1.00  0.00    -0.354 N 
ATOM     57  N   UNL     1       3.010  14.339   3.767  1.00  0.00    -0.248 NA
ATOM     58  C   UNL     1       4.838  13.524   4.970  1.00  0.00     0.031 C 
ATOM     59  C   UNL     1      -0.444  11.469   5.816  1.00  0.00     0.029 A 
ATOM     60  C   UNL     1       0.706  12.260   5.870  1.00  0.00     0.049 A 
ATOM     61  H   UNL     1       1.997  12.336   7.536  1.00  0.00     0.167 HD
ATOM     62  C   UNL     1       2.518  13.674   4.888  1.00  0.00     0.074 A 
ATOM     63  C   UNL     1       3.704  13.233   5.617  1.00  0.00     0.031 C 
ATOM     64  C   UNL     1       1.209  13.286   4.976  1.00  0.00     0.037 A 
BRANCH  51  65
ATOM     65  C   UNL     1       2.951   9.653   8.707  1.00  0.00     0.058 A 
ATOM     66  C   UNL     1       2.390   9.980   9.946  1.00  0.00     0.135 A 
ATOM     67  C   UNL     1       4.367   9.616   8.653  1.00  0.00     0.135 A 
ATOM     68  F   UNL     1       1.060  10.085  10.082  1.00  0.00    -0.206 F 
ATOM     69  C   UNL     1       3.184  10.262  11.056  1.00  0.00     0.059 A 
ATOM     70  C   UNL     1       5.171   9.808   9.760  1.00  0.00     0.059 A 
ATOM     71  F   UNL     1       5.042   9.488   7.504  1.00  0.00    -0.206 F 
ATOM     72  C   UNL     1       4.572  10.170  10.951  1.00  0.00     0.060 A 
BRANCH  72  73
ATOM     73  S   UNL     1       5.603  10.612  12.354  1.00  0.00     0.124 S 
ATOM     74  O   UNL     1       5.379  12.051  12.433  1.00  0.00    -0.237 OA
ATOM     75  O   UNL     1       5.017   9.810  13.422  1.00  0.00    -0.237 OA
ATOM     76  O   UNL     1       6.940  10.203  11.932  1.00  0.00    -0.744 OA
ENDBRANCH  72  73
ENDBRANCH  51  65
BRANCH  52  77
ATOM     77  C   UNL     1       6.389  14.232   2.153  1.00  0.00     0.058 A 
ATOM     78  C   UNL     1       6.776  15.526   2.541  1.00  0.00     0.135 A 
ATOM     79  C   UNL     1       7.427  13.379   1.720  1.00  0.00     0.135 A 
ATOM     80  F   UNL     1       5.859  16.396   2.988  1.00  0.00    -0.206 F 
ATOM     81  C   UNL     1       8.116  15.934   2.544  1.00  0.00     0.059 A 
ATOM     82  C   UNL     1       8.765  13.767   1.702  1.00  0.00     0.059 A 
ATOM     83  F   UNL     1       7.189  12.103   1.386  1.00  0.00    -0.206 F 
ATOM     84  C   UNL     1       9.106  15.038   2.142  1.00  0.00     0.060 A 
BRANCH  84  85
ATOM     85  S   UNL     1      10.847  15.497   2.307  1.00  0.00     0.124 S 
ATOM     86  O   UNL     1      10.969  16.578   1.335  1.00  0.00    -0.237 OA
ATOM     87  O   UNL     1      10.929  15.888   3.710  1.00  0.00    -0.237 OA
ATOM     88  O   UNL     1      11.558  14.268   1.963  1.00  0.00    -0.744 OA
ENDBRANCH  84  85
ENDBRANCH  52  77
BRANCH  64  89
ATOM     89  C   UNL     1       0.243  13.799   3.934  1.00  0.00     0.058 A 
ATOM     90  C   UNL     1       0.291  13.453   2.570  1.00  0.00     0.135 A 
ATOM     91  C   UNL     1      -0.874  14.529   4.364  1.00  0.00     0.135 A 
ATOM     92  F   UNL     1       1.271  12.669   2.099  1.00  0.00    -0.206 F 
ATOM     93  C   UNL     1      -0.704  13.846   1.671  1.00  0.00     0.059 A 
ATOM     94  C   UNL     1      -1.893  14.907   3.493  1.00  0.00     0.059 A 
ATOM     95  F   UNL     1      -1.015  14.835   5.665  1.00  0.00    -0.206 F 
ATOM     96  C   UNL     1      -1.796  14.573   2.144  1.00  0.00     0.060 A 
BRANCH  96  97
ATOM     97  S   UNL     1      -3.118  15.029   0.999  1.00  0.00     0.124 S 
ATOM     98  O   UNL     1      -2.455  15.999   0.134  1.00  0.00    -0.237 OA
ATOM     99  O   UNL     1      -3.454  13.750   0.378  1.00  0.00    -0.237 OA
ATOM    100  O   UNL     1      -4.153  15.578   1.872  1.00  0.00    -0.744 OA
ENDBRANCH  96  97
ENDBRANCH  64  89
ENDBRANCH  38  39
ENDBRANCH  31  33
ENDBRANCH  30  31
ENDBRANCH  29  30
ENDBRANCH  28  29
ENDBRANCH  27  28
ENDBRANCH   1  27
TORSDOF 23
