REMARK SMILES CCOc1ccccc1Nc1ccc(C(=O)OCCOCCOCCOC(=O)c2ccc(-c3c4nc(c(-c5c(F)cc(S(=O)(=O)[O-])cc5F)c5ccc([nH]5)c(-c5c(F)cc(S(=O)(=O)[O-])cc5F)c5nc(c(-c6c(F)cc(S(=O)(=O)[O-])cc6F)c6ccc3[nH]6)C=C5)C=C4)cc2)cc1N
REMARK SMILES IDX 21 1 20 2 19 3 18 4 17 5 15 6 16 7 14 8 11 9 12 10 96 11
REMARK SMILES IDX 13 12 95 13 10 14 9 16 4 17 5 18 6 19 8 20 7 21 3 22 2 23
REMARK SMILES IDX 1 24 97 25 22 28 23 29 24 30 25 31 26 32 27 33 28 34 29 35
REMARK SMILES IDX 30 36 94 37 31 38 93 39 32 40 33 41 34 42 87 43 35 44 92 45
REMARK SMILES IDX 86 46 88 47 36 48 91 49 85 50 84 51 37 53 71 54 50 55 70 56
REMARK SMILES IDX 51 57 54 58 69 59 89 60 52 61 53 62 68 64 90 65 55 66 38 67
REMARK SMILES IDX 39 68 48 69 40 70 41 71 47 72 49 73 42 74 43 75 44 76 45 77
REMARK SMILES IDX 46 78 72 79 73 80 82 81 74 82 75 83 81 84 83 85 76 86 77 87
REMARK SMILES IDX 78 88 79 89 80 90 56 91 57 92 66 93 58 94 59 95 65 96 67 97
REMARK SMILES IDX 60 98 61 99 62 100 63 101 64 102
REMARK H PARENT 10 15 97 26 97 27 88 52 54 63
REMARK Flexibility Score: inf
ROOT
ATOM      1  C   UNL     1       5.310  -6.216  -1.662  1.00  0.00     0.188 C 
ENDROOT
BRANCH   1   2
ATOM      2  O   UNL     1       6.358  -7.156  -1.717  1.00  0.00    -0.376 OA
BRANCH   2   3
ATOM      3  C   UNL     1       7.671  -6.743  -2.052  1.00  0.00     0.202 C 
BRANCH   3   4
ATOM      4  C   UNL     1       8.243  -5.325  -1.846  1.00  0.00     0.261 C 
BRANCH   4   5
ATOM      5  O   UNL     1       7.341  -4.293  -1.454  1.00  0.00    -0.460 OA
BRANCH   5   6
ATOM      6  C   UNL     1       6.913  -3.484  -2.456  1.00  0.00     0.338 C 
ATOM      7  O   UNL     1       7.226  -3.544  -3.623  1.00  0.00    -0.246 OA
BRANCH   6   8
ATOM      8  C   UNL     1       5.850  -2.593  -1.941  1.00  0.00     0.062 A 
ATOM      9  C   UNL     1       3.891  -0.763  -1.179  1.00  0.00     0.062 A 
ATOM     10  C   UNL     1       3.732  -1.516  -2.348  1.00  0.00     0.029 A 
ATOM     11  C   UNL     1       4.990  -1.021  -0.319  1.00  0.00     0.056 A 
ATOM     12  C   UNL     1       4.714  -2.420  -2.737  1.00  0.00     0.018 A 
ATOM     13  C   UNL     1       5.960  -1.947  -0.706  1.00  0.00     0.043 A 
BRANCH   9  14
ATOM     14  N   UNL     1       3.038   0.344  -0.996  1.00  0.00    -0.351 N 
ATOM     15  H   UNL     1       2.075   0.144  -1.030  1.00  0.00     0.167 HD
BRANCH  14  16
ATOM     16  C   UNL     1       3.365   1.697  -0.771  1.00  0.00     0.081 A 
ATOM     17  C   UNL     1       2.361   2.599  -0.386  1.00  0.00     0.142 A 
ATOM     18  C   UNL     1       2.656   3.941  -0.136  1.00  0.00     0.048 A 
ATOM     19  C   UNL     1       3.972   4.395  -0.240  1.00  0.00     0.004 A 
ATOM     20  C   UNL     1       4.680   2.177  -0.871  1.00  0.00     0.030 A 
ATOM     21  C   UNL     1       4.984   3.513  -0.611  1.00  0.00     0.002 A 
BRANCH  17  22
ATOM     22  O   UNL     1       1.047   2.202  -0.390  1.00  0.00    -0.492 OA
BRANCH  22  23
ATOM     23  C   UNL     1       0.630   1.646   0.863  1.00  0.00     0.226 C 
ATOM     24  C   UNL     1       0.406   0.147   0.729  1.00  0.00     0.049 C 
ENDBRANCH  22  23
ENDBRANCH  17  22
ENDBRANCH  14  16
ENDBRANCH   9  14
BRANCH  11  25
ATOM     25  N   UNL     1       5.053  -0.447   0.949  1.00  0.00    -0.397 N 
ATOM     26  H   UNL     1       4.372   0.207   1.228  1.00  0.00     0.156 HD
ATOM     27  H   UNL     1       5.779  -0.695   1.566  1.00  0.00     0.156 HD
ENDBRANCH  11  25
ENDBRANCH   6   8
ENDBRANCH   5   6
ENDBRANCH   4   5
ENDBRANCH   3   4
ENDBRANCH   2   3
ENDBRANCH   1   2
BRANCH   1  28
ATOM     28  C   UNL     1       5.035  -5.670  -0.244  1.00  0.00     0.188 C 
BRANCH  28  29
ATOM     29  O   UNL     1       5.925  -5.982   0.817  1.00  0.00    -0.376 OA
BRANCH  29  30
ATOM     30  C   UNL     1       6.255  -7.338   1.081  1.00  0.00     0.202 C 
BRANCH  30  31
ATOM     31  C   UNL     1       5.224  -8.485   1.015  1.00  0.00     0.261 C 
BRANCH  31  32
ATOM     32  O   UNL     1       4.220  -8.409  -0.005  1.00  0.00    -0.460 OA
BRANCH  32  33
ATOM     33  C   UNL     1       2.969  -8.118   0.428  1.00  0.00     0.338 C 
ATOM     34  O   UNL     1       2.614  -7.915   1.577  1.00  0.00    -0.246 OA
BRANCH  33  35
ATOM     35  C   UNL     1       2.089  -7.909  -0.737  1.00  0.00     0.060 A 
ATOM     36  C   UNL     1       1.569  -6.627  -0.967  1.00  0.00     0.016 A 
ATOM     37  C   UNL     1       1.737  -8.976  -1.564  1.00  0.00     0.016 A 
ATOM     38  C   UNL     1       0.678  -6.412  -2.017  1.00  0.00     0.010 A 
ATOM     39  C   UNL     1       0.824  -8.762  -2.602  1.00  0.00     0.010 A 
ATOM     40  C   UNL     1       0.270  -7.487  -2.816  1.00  0.00    -0.014 A 
BRANCH  40  41
ATOM     41  C   UNL     1      -0.859  -7.316  -3.764  1.00  0.00     0.031 A 
ATOM     42  C   UNL     1      -2.228  -7.777  -3.345  1.00  0.00     0.074 A 
ATOM     43  C   UNL     1      -0.673  -6.760  -4.974  1.00  0.00     0.049 A 
ATOM     44  N   UNL     1      -3.344  -7.790  -4.025  1.00  0.00    -0.248 NA
ATOM     45  C   UNL     1      -2.350  -8.299  -1.974  1.00  0.00     0.031 C 
ATOM     46  C   UNL     1       0.598  -6.245  -5.480  1.00  0.00     0.029 A 
ATOM     47  N   UNL     1      -1.556  -6.554  -6.004  1.00  0.00    -0.354 N 
ATOM     48  C   UNL     1      -4.298  -8.335  -3.174  1.00  0.00     0.074 A 
ATOM     49  C   UNL     1      -3.623  -8.663  -1.937  1.00  0.00     0.031 C 
ATOM     50  C   UNL     1       0.416  -5.801  -6.736  1.00  0.00     0.029 A 
ATOM     51  C   UNL     1      -0.972  -6.032  -7.133  1.00  0.00     0.049 A 
ATOM     52  H   UNL     1      -2.517  -6.761  -5.940  1.00  0.00     0.167 HD
ATOM     53  C   UNL     1      -5.618  -8.541  -3.403  1.00  0.00     0.037 A 
ATOM     54  C   UNL     1      -1.492  -5.797  -8.355  1.00  0.00     0.037 A 
ATOM     55  C   UNL     1      -6.281  -8.217  -4.639  1.00  0.00     0.049 A 
ATOM     56  C   UNL     1      -2.949  -6.088  -8.610  1.00  0.00     0.074 A 
ATOM     57  C   UNL     1      -7.619  -8.357  -4.960  1.00  0.00     0.029 A 
ATOM     58  N   UNL     1      -5.653  -7.704  -5.766  1.00  0.00    -0.354 N 
ATOM     59  N   UNL     1      -3.850  -6.570  -7.787  1.00  0.00    -0.248 NA
ATOM     60  C   UNL     1      -3.461  -5.798  -9.956  1.00  0.00     0.031 C 
ATOM     61  C   UNL     1      -7.790  -7.988  -6.298  1.00  0.00     0.029 A 
ATOM     62  C   UNL     1      -6.571  -7.553  -6.793  1.00  0.00     0.049 A 
ATOM     63  H   UNL     1      -4.696  -7.480  -5.826  1.00  0.00     0.167 HD
ATOM     64  C   UNL     1      -5.040  -6.617  -8.508  1.00  0.00     0.074 A 
ATOM     65  C   UNL     1      -4.745  -6.104  -9.830  1.00  0.00     0.031 C 
ATOM     66  C   UNL     1      -6.266  -7.040  -8.108  1.00  0.00     0.037 A 
BRANCH  53  67
ATOM     67  C   UNL     1      -6.420  -9.184  -2.304  1.00  0.00     0.058 A 
ATOM     68  C   UNL     1      -6.707  -8.517  -1.102  1.00  0.00     0.135 A 
ATOM     69  C   UNL     1      -6.917 -10.489  -2.461  1.00  0.00     0.135 A 
ATOM     70  F   UNL     1      -6.244  -7.275  -0.890  1.00  0.00    -0.206 F 
ATOM     71  C   UNL     1      -7.425  -9.133  -0.082  1.00  0.00     0.059 A 
ATOM     72  C   UNL     1      -7.664 -11.113  -1.467  1.00  0.00     0.059 A 
ATOM     73  F   UNL     1      -6.672 -11.174  -3.589  1.00  0.00    -0.206 F 
ATOM     74  C   UNL     1      -7.896 -10.434  -0.273  1.00  0.00     0.060 A 
BRANCH  74  75
ATOM     75  S   UNL     1      -8.813 -11.225   1.066  1.00  0.00     0.124 S 
ATOM     76  O   UNL     1      -7.750 -11.482   2.034  1.00  0.00    -0.237 OA
ATOM     77  O   UNL     1      -9.773 -10.192   1.440  1.00  0.00    -0.237 OA
ATOM     78  O   UNL     1      -9.384 -12.410   0.434  1.00  0.00    -0.744 OA
ENDBRANCH  74  75
ENDBRANCH  53  67
BRANCH  54  79
ATOM     79  C   UNL     1      -0.617  -5.267  -9.436  1.00  0.00     0.058 A 
ATOM     80  C   UNL     1      -0.765  -3.957  -9.914  1.00  0.00     0.135 A 
ATOM     81  C   UNL     1       0.403  -6.055  -9.993  1.00  0.00     0.135 A 
ATOM     82  F   UNL     1      -1.735  -3.170  -9.424  1.00  0.00    -0.206 F 
ATOM     83  C   UNL     1       0.066  -3.446 -10.906  1.00  0.00     0.059 A 
ATOM     84  C   UNL     1       1.263  -5.558 -10.967  1.00  0.00     0.059 A 
ATOM     85  F   UNL     1       0.590  -7.313  -9.566  1.00  0.00    -0.206 F 
ATOM     86  C   UNL     1       1.084  -4.252 -11.420  1.00  0.00     0.060 A 
BRANCH  86  87
ATOM     87  S   UNL     1       2.204  -3.550 -12.651  1.00  0.00     0.124 S 
ATOM     88  O   UNL     1       1.338  -3.459 -13.820  1.00  0.00    -0.237 OA
ATOM     89  O   UNL     1       2.579  -2.282 -12.033  1.00  0.00    -0.237 OA
ATOM     90  O   UNL     1       3.275  -4.539 -12.734  1.00  0.00    -0.744 OA
ENDBRANCH  86  87
ENDBRANCH  54  79
BRANCH  66  91
ATOM     91  C   UNL     1      -7.399  -6.938  -9.096  1.00  0.00     0.058 A 
ATOM     92  C   UNL     1      -7.491  -7.784 -10.213  1.00  0.00     0.135 A 
ATOM     93  C   UNL     1      -8.441  -6.019  -8.887  1.00  0.00     0.135 A 
ATOM     94  F   UNL     1      -6.522  -8.678 -10.464  1.00  0.00    -0.206 F 
ATOM     95  C   UNL     1      -8.562  -7.707 -11.098  1.00  0.00     0.059 A 
ATOM     96  C   UNL     1      -9.537  -5.945  -9.742  1.00  0.00     0.059 A 
ATOM     97  F   UNL     1      -8.412  -5.192  -7.829  1.00  0.00    -0.206 F 
ATOM     98  C   UNL     1      -9.583  -6.786 -10.852  1.00  0.00     0.060 A 
BRANCH  98  99
ATOM     99  S   UNL     1     -10.983  -6.720 -11.990  1.00  0.00     0.124 S 
ATOM    100  O   UNL     1     -10.381  -6.096 -13.163  1.00  0.00    -0.237 OA
ATOM    101  O   UNL     1     -11.336  -8.129 -12.132  1.00  0.00    -0.237 OA
ATOM    102  O   UNL     1     -11.962  -5.904 -11.278  1.00  0.00    -0.744 OA
ENDBRANCH  98  99
ENDBRANCH  66  91
ENDBRANCH  40  41
ENDBRANCH  33  35
ENDBRANCH  32  33
ENDBRANCH  31  32
ENDBRANCH  30  31
ENDBRANCH  29  30
ENDBRANCH  28  29
ENDBRANCH   1  28
TORSDOF 25
