REMARK SMILES O=C(Nc1ccc(N2CCCCC2)cc1C(=O)OCCOCCOCCOC(=O)c1ccc(-c2c3nc(c(-c4c(F)cc(S(=O)(=O)[O-])cc4F)c4ccc([nH]4)c(-c4c(F)cc(S(=O)(=O)[O-])cc4F)c4nc(c(-c5c(F)cc(S(=O)(=O)[O-])cc5F)c5ccc2[nH]5)C=C4)C=C3)cc1)c1ccccc1
REMARK SMILES IDX 23 1 22 2 21 3 20 4 19 5 18 6 16 7 17 8 15 9 4 10 5 11 6 12
REMARK SMILES IDX 14 13 7 14 3 15 1 16 2 17 96 19 97 20 101 21 98 22 100 23
REMARK SMILES IDX 99 24 8 25 9 26 13 27 10 28 12 29 11 30 24 31 25 32 26 33
REMARK SMILES IDX 27 34 28 35 29 36 30 37 31 38 95 39 32 40 94 41 33 42 34 43
REMARK SMILES IDX 35 44 88 45 36 46 93 47 87 48 89 49 37 50 92 51 86 52 85 53
REMARK SMILES IDX 38 55 72 56 51 57 71 58 52 59 55 60 70 61 90 62 53 63 54 64
REMARK SMILES IDX 69 66 91 67 56 68 39 69 40 70 49 71 41 72 42 73 48 74 50 75
REMARK SMILES IDX 43 76 44 77 45 78 46 79 47 80 73 81 74 82 83 83 75 84 76 85
REMARK SMILES IDX 82 86 84 87 77 88 78 89 79 90 80 91 81 92 57 93 58 94 67 95
REMARK SMILES IDX 59 96 60 97 66 98 68 99 61 100 62 101 63 102 64 103 65 104
REMARK H PARENT 3 18 89 54 55 65
REMARK Flexibility Score: inf
ROOT
ATOM      1  C   UNL     1       4.024  -1.073  -3.644  1.00  0.00     0.188 C 
ENDROOT
BRANCH   1   2
ATOM      2  C   UNL     1       4.476  -2.524  -3.360  1.00  0.00     0.188 C 
BRANCH   2   3
ATOM      3  O   UNL     1       3.413  -3.446  -3.329  1.00  0.00    -0.376 OA
BRANCH   3   4
ATOM      4  C   UNL     1       2.912  -3.862  -2.079  1.00  0.00     0.202 C 
BRANCH   4   5
ATOM      5  C   UNL     1       2.853  -2.955  -0.842  1.00  0.00     0.261 C 
BRANCH   5   6
ATOM      6  O   UNL     1       3.494  -1.674  -0.872  1.00  0.00    -0.460 OA
BRANCH   6   7
ATOM      7  C   UNL     1       4.721  -1.592  -0.297  1.00  0.00     0.340 C 
ATOM      8  O   UNL     1       5.395  -2.543   0.067  1.00  0.00    -0.246 OA
BRANCH   7   9
ATOM      9  C   UNL     1       5.221  -0.188  -0.308  1.00  0.00     0.085 A 
ATOM     10  C   UNL     1       4.424   0.965  -0.143  1.00  0.00     0.056 A 
ATOM     11  C   UNL     1       5.013   2.216  -0.375  1.00  0.00     0.029 A 
ATOM     12  C   UNL     1       6.381   2.330  -0.622  1.00  0.00     0.028 A 
ATOM     13  C   UNL     1       6.603  -0.051  -0.582  1.00  0.00     0.043 A 
ATOM     14  C   UNL     1       7.201   1.203  -0.705  1.00  0.00     0.038 A 
BRANCH  10  15
ATOM     15  N   UNL     1       3.080   1.044   0.287  1.00  0.00    -0.321 N 
ATOM     16  O   UNL     1       1.132   0.470   1.274  1.00  0.00    -0.269 OA
ATOM     17  C   UNL     1       2.345   0.287   1.174  1.00  0.00     0.255 C 
ATOM     18  H   UNL     1       2.571   1.779  -0.126  1.00  0.00     0.170 HD
BRANCH  17  19
ATOM     19  C   UNL     1       2.995  -0.703   2.063  1.00  0.00     0.040 A 
ATOM     20  C   UNL     1       4.236  -0.459   2.661  1.00  0.00     0.014 A 
ATOM     21  C   UNL     1       2.377  -1.949   2.211  1.00  0.00     0.014 A 
ATOM     22  C   UNL     1       4.931  -1.512   3.252  1.00  0.00     0.001 A 
ATOM     23  C   UNL     1       3.074  -2.998   2.808  1.00  0.00     0.001 A 
ATOM     24  C   UNL     1       4.364  -2.786   3.294  1.00  0.00     0.000 A 
ENDBRANCH  17  19
ENDBRANCH  10  15
BRANCH  14  25
ATOM     25  N   UNL     1       8.554   1.382  -0.880  1.00  0.00    -0.372 N 
ATOM     26  C   UNL     1       9.358   1.755   0.282  1.00  0.00     0.116 C 
ATOM     27  C   UNL     1       9.273   0.793  -2.003  1.00  0.00     0.116 C 
ATOM     28  C   UNL     1      10.391   2.792  -0.151  1.00  0.00     0.021 C 
ATOM     29  C   UNL     1      10.314   1.810  -2.485  1.00  0.00     0.021 C 
ATOM     30  C   UNL     1      11.212   2.297  -1.343  1.00  0.00     0.004 C 
ENDBRANCH  14  25
ENDBRANCH   7   9
ENDBRANCH   6   7
ENDBRANCH   5   6
ENDBRANCH   4   5
ENDBRANCH   3   4
ENDBRANCH   2   3
ENDBRANCH   1   2
BRANCH   1  31
ATOM     31  O   UNL     1       2.650  -0.770  -3.850  1.00  0.00    -0.376 OA
BRANCH  31  32
ATOM     32  C   UNL     1       1.868  -1.609  -4.689  1.00  0.00     0.202 C 
BRANCH  32  33
ATOM     33  C   UNL     1       2.356  -1.964  -6.106  1.00  0.00     0.261 C 
BRANCH  33  34
ATOM     34  O   UNL     1       3.724  -2.395  -6.206  1.00  0.00    -0.460 OA
BRANCH  34  35
ATOM     35  C   UNL     1       4.580  -1.515  -6.784  1.00  0.00     0.338 C 
ATOM     36  O   UNL     1       4.298  -0.438  -7.287  1.00  0.00    -0.246 OA
BRANCH  35  37
ATOM     37  C   UNL     1       5.974  -1.937  -6.514  1.00  0.00     0.060 A 
ATOM     38  C   UNL     1       6.824  -1.031  -5.859  1.00  0.00     0.016 A 
ATOM     39  C   UNL     1       6.441  -3.204  -6.871  1.00  0.00     0.016 A 
ATOM     40  C   UNL     1       8.144  -1.378  -5.579  1.00  0.00     0.010 A 
ATOM     41  C   UNL     1       7.778  -3.538  -6.623  1.00  0.00     0.010 A 
ATOM     42  C   UNL     1       8.642  -2.615  -6.004  1.00  0.00    -0.014 A 
BRANCH  42  43
ATOM     43  C   UNL     1      10.110  -2.828  -6.039  1.00  0.00     0.031 A 
ATOM     44  C   UNL     1      10.834  -2.476  -7.311  1.00  0.00     0.074 A 
ATOM     45  C   UNL     1      10.794  -3.287  -4.975  1.00  0.00     0.049 A 
ATOM     46  N   UNL     1      12.096  -2.620  -7.618  1.00  0.00    -0.248 NA
ATOM     47  C   UNL     1      10.018  -1.875  -8.381  1.00  0.00     0.031 C 
ATOM     48  C   UNL     1      10.220  -3.613  -3.672  1.00  0.00     0.029 A 
ATOM     49  N   UNL     1      12.131  -3.571  -4.835  1.00  0.00    -0.354 N 
ATOM     50  C   UNL     1      12.225  -2.132  -8.913  1.00  0.00     0.074 A 
ATOM     51  C   UNL     1      10.911  -1.712  -9.345  1.00  0.00     0.031 C 
ATOM     52  C   UNL     1      11.196  -4.082  -2.872  1.00  0.00     0.029 A 
ATOM     53  C   UNL     1      12.456  -4.116  -3.615  1.00  0.00     0.049 A 
ATOM     54  H   UNL     1      12.794  -3.401  -5.543  1.00  0.00     0.167 HD
ATOM     55  C   UNL     1      13.339  -2.034  -9.674  1.00  0.00     0.037 A 
ATOM     56  C   UNL     1      13.628  -4.611  -3.167  1.00  0.00     0.037 A 
ATOM     57  C   UNL     1      14.643  -2.467  -9.252  1.00  0.00     0.049 A 
ATOM     58  C   UNL     1      14.842  -4.573  -4.065  1.00  0.00     0.074 A 
ATOM     59  C   UNL     1      15.834  -2.421  -9.955  1.00  0.00     0.029 A 
ATOM     60  N   UNL     1      14.926  -3.035  -8.019  1.00  0.00    -0.354 N 
ATOM     61  N   UNL     1      14.955  -4.098  -5.284  1.00  0.00    -0.248 NA
ATOM     62  C   UNL     1      16.090  -5.134  -3.526  1.00  0.00     0.031 C 
ATOM     63  C   UNL     1      16.830  -3.002  -9.163  1.00  0.00     0.029 A 
ATOM     64  C   UNL     1      16.270  -3.361  -7.947  1.00  0.00     0.049 A 
ATOM     65  H   UNL     1      14.269  -3.185  -7.302  1.00  0.00     0.167 HD
ATOM     66  C   UNL     1      16.288  -4.278  -5.643  1.00  0.00     0.074 A 
ATOM     67  C   UNL     1      16.946  -4.895  -4.510  1.00  0.00     0.031 C 
ATOM     68  C   UNL     1      16.913  -3.961  -6.805  1.00  0.00     0.037 A 
BRANCH  55  69
ATOM     69  C   UNL     1      13.185  -1.458 -11.053  1.00  0.00     0.058 A 
ATOM     70  C   UNL     1      12.940  -0.091 -11.257  1.00  0.00     0.135 A 
ATOM     71  C   UNL     1      13.302  -2.280 -12.185  1.00  0.00     0.135 A 
ATOM     72  F   UNL     1      12.793   0.734 -10.207  1.00  0.00    -0.206 F 
ATOM     73  C   UNL     1      12.797   0.438 -12.535  1.00  0.00     0.059 A 
ATOM     74  C   UNL     1      13.190  -1.768 -13.473  1.00  0.00     0.059 A 
ATOM     75  F   UNL     1      13.527  -3.596 -12.044  1.00  0.00    -0.206 F 
ATOM     76  C   UNL     1      12.925  -0.408 -13.637  1.00  0.00     0.060 A 
BRANCH  76  77
ATOM     77  S   UNL     1      12.750   0.296 -15.289  1.00  0.00     0.124 S 
ATOM     78  O   UNL     1      11.314   0.551 -15.346  1.00  0.00    -0.237 OA
ATOM     79  O   UNL     1      13.601   1.480 -15.215  1.00  0.00    -0.237 OA
ATOM     80  O   UNL     1      13.233  -0.766 -16.166  1.00  0.00    -0.744 OA
ENDBRANCH  76  77
ENDBRANCH  55  69
BRANCH  56  81
ATOM     81  C   UNL     1      13.715  -5.219  -1.810  1.00  0.00     0.058 A 
ATOM     82  C   UNL     1      14.461  -4.616  -0.787  1.00  0.00     0.135 A 
ATOM     83  C   UNL     1      13.075  -6.434  -1.520  1.00  0.00     0.135 A 
ATOM     84  F   UNL     1      15.105  -3.462  -1.018  1.00  0.00    -0.206 F 
ATOM     85  C   UNL     1      14.584  -5.202   0.470  1.00  0.00     0.059 A 
ATOM     86  C   UNL     1      13.161  -7.027  -0.263  1.00  0.00     0.059 A 
ATOM     87  F   UNL     1      12.345  -7.052  -2.462  1.00  0.00    -0.206 F 
ATOM     88  C   UNL     1      13.928  -6.408   0.722  1.00  0.00     0.060 A 
BRANCH  88  89
ATOM     89  S   UNL     1      14.061  -7.140   2.369  1.00  0.00     0.124 S 
ATOM     90  O   UNL     1      15.431  -7.639   2.358  1.00  0.00    -0.237 OA
ATOM     91  O   UNL     1      13.806  -5.992   3.234  1.00  0.00    -0.237 OA
ATOM     92  O   UNL     1      13.016  -8.159   2.368  1.00  0.00    -0.744 OA
ENDBRANCH  88  89
ENDBRANCH  56  81
BRANCH  68  93
ATOM     93  C   UNL     1      18.392  -4.227  -6.903  1.00  0.00     0.058 A 
ATOM     94  C   UNL     1      18.904  -5.527  -7.034  1.00  0.00     0.135 A 
ATOM     95  C   UNL     1      19.303  -3.158  -6.935  1.00  0.00     0.135 A 
ATOM     96  F   UNL     1      18.078  -6.585  -7.007  1.00  0.00    -0.206 F 
ATOM     97  C   UNL     1      20.269  -5.760  -7.171  1.00  0.00     0.059 A 
ATOM     98  C   UNL     1      20.669  -3.365  -7.100  1.00  0.00     0.059 A 
ATOM     99  F   UNL     1      18.866  -1.893  -6.827  1.00  0.00    -0.206 F 
ATOM    100  C   UNL     1      21.144  -4.672  -7.206  1.00  0.00     0.060 A 
BRANCH 100 101
ATOM    101  S   UNL     1      22.909  -4.985  -7.421  1.00  0.00     0.124 S 
ATOM    102  O   UNL     1      23.278  -5.502  -6.108  1.00  0.00    -0.237 OA
ATOM    103  O   UNL     1      22.924  -5.954  -8.512  1.00  0.00    -0.237 OA
ATOM    104  O   UNL     1      23.450  -3.670  -7.752  1.00  0.00    -0.744 OA
ENDBRANCH 100 101
ENDBRANCH  68  93
ENDBRANCH  42  43
ENDBRANCH  35  37
ENDBRANCH  34  35
ENDBRANCH  33  34
ENDBRANCH  32  33
ENDBRANCH  31  32
ENDBRANCH   1  31
TORSDOF 23
