REMARK SMILES C[C@@H](Sc1nc(-c2ccc3c(c2)OCO3)ccc1C#N)C(=O)OCCOCCOCCOC(=O)c1ccc(-c2c3nc(c(-c4c(F)cc(S(=O)(=O)[O-])cc4F)c4ccc([nH]4)c(-c4c(F)cc(S(=O)(=O)[O-])cc4F)c4nc(c(-c5c(F)cc(S(=O)(=O)[O-])cc5F)c5ccc2[nH]5)C=C4)C=C3)cc1
REMARK SMILES IDX 27 1 26 2 25 3 24 4 23 5 21 6 22 7 2 8 1 9 3 10 4 11 5 12
REMARK SMILES IDX 18 13 6 14 17 15 16 16 19 17 20 18 7 19 8 20 12 21 9 22
REMARK SMILES IDX 11 23 10 24 13 25 15 26 14 27 28 28 29 29 30 30 31 31 32 32
REMARK SMILES IDX 33 33 34 34 35 35 36 36 100 37 37 38 99 39 38 40 39 41 40 42
REMARK SMILES IDX 93 43 41 44 98 45 92 46 94 47 42 48 97 49 91 50 90 51 43 53
REMARK SMILES IDX 77 54 56 55 76 56 57 57 60 58 75 59 95 60 58 61 59 62 74 64
REMARK SMILES IDX 96 65 61 66 44 67 45 68 54 69 46 70 47 71 53 72 55 73 48 74
REMARK SMILES IDX 49 75 50 76 51 77 52 78 78 79 79 80 88 81 80 82 81 83 87 84
REMARK SMILES IDX 89 85 82 86 83 87 84 88 85 89 86 90 62 91 63 92 72 93 64 94
REMARK SMILES IDX 65 95 71 96 73 97 66 98 67 99 68 100 69 101 70 102
REMARK H PARENT 94 52 60 63
REMARK Flexibility Score: inf
ROOT
ATOM      1  C   UNL     1      -2.242   1.003   1.870  1.00  0.00     0.188 C 
ENDROOT
BRANCH   1   2
ATOM      2  O   UNL     1      -3.485   1.611   1.544  1.00  0.00    -0.376 OA
BRANCH   2   3
ATOM      3  C   UNL     1      -3.974   1.372   0.228  1.00  0.00     0.202 C 
BRANCH   3   4
ATOM      4  C   UNL     1      -3.125   1.905  -0.942  1.00  0.00     0.261 C 
BRANCH   4   5
ATOM      5  O   UNL     1      -1.718   1.574  -0.900  1.00  0.00    -0.462 OA
BRANCH   5   6
ATOM      6  C   UNL     1      -0.860   2.606  -0.635  1.00  0.00     0.319 C 
ATOM      7  O   UNL     1      -1.215   3.772  -0.494  1.00  0.00    -0.251 OA
BRANCH   6   8
ATOM      8  C   UNL     1       0.606   2.172  -0.500  1.00  0.00     0.160 C 
ATOM      9  C   UNL     1       0.812   0.741  -0.009  1.00  0.00     0.032 C 
BRANCH   8  10
ATOM     10  S   UNL     1       1.440   2.450  -2.114  1.00  0.00    -0.090 SA
BRANCH  10  11
ATOM     11  C   UNL     1       3.153   2.427  -1.591  1.00  0.00     0.115 A 
ATOM     12  N   UNL     1       3.685   3.647  -1.317  1.00  0.00    -0.240 NA
ATOM     13  C   UNL     1       3.913   1.255  -1.559  1.00  0.00     0.084 A 
ATOM     14  C   UNL     1       5.002   3.716  -0.999  1.00  0.00     0.072 A 
ATOM     15  C   UNL     1       5.241   1.336  -1.134  1.00  0.00     0.024 A 
ATOM     16  C   UNL     1       5.793   2.579  -0.853  1.00  0.00     0.030 A 
BRANCH  13  17
ATOM     17  C   UNL     1       3.403  -0.012  -1.978  1.00  0.00     0.102 C 
ATOM     18  N   UNL     1       3.015  -1.057  -2.312  1.00  0.00    -0.192 NA
ENDBRANCH  13  17
BRANCH  14  19
ATOM     19  C   UNL     1       5.618   5.048  -1.011  1.00  0.00     0.004 A 
ATOM     20  C   UNL     1       6.538   5.365  -2.048  1.00  0.00     0.014 A 
ATOM     21  C   UNL     1       5.348   6.014  -0.028  1.00  0.00     0.061 A 
ATOM     22  C   UNL     1       7.190   6.599  -2.105  1.00  0.00     0.051 A 
ATOM     23  C   UNL     1       6.019   7.222  -0.101  1.00  0.00     0.166 A 
ATOM     24  C   UNL     1       6.913   7.504  -1.108  1.00  0.00     0.165 A 
ATOM     25  O   UNL     1       5.903   8.252   0.779  1.00  0.00    -0.454 OA
ATOM     26  O   UNL     1       7.467   8.740  -0.990  1.00  0.00    -0.454 OA
ATOM     27  C   UNL     1       6.852   9.191   0.236  1.00  0.00     0.468 C 
ENDBRANCH  14  19
ENDBRANCH  10  11
ENDBRANCH   8  10
ENDBRANCH   6   8
ENDBRANCH   5   6
ENDBRANCH   4   5
ENDBRANCH   3   4
ENDBRANCH   2   3
ENDBRANCH   1   2
BRANCH   1  28
ATOM     28  C   UNL     1      -2.163  -0.500   1.618  1.00  0.00     0.188 C 
BRANCH  28  29
ATOM     29  O   UNL     1      -2.560  -0.975   0.346  1.00  0.00    -0.376 OA
BRANCH  29  30
ATOM     30  C   UNL     1      -2.846  -2.374   0.247  1.00  0.00     0.202 C 
BRANCH  30  31
ATOM     31  C   UNL     1      -3.514  -3.148   1.421  1.00  0.00     0.261 C 
BRANCH  31  32
ATOM     32  O   UNL     1      -3.049  -2.926   2.775  1.00  0.00    -0.460 OA
BRANCH  32  33
ATOM     33  C   UNL     1      -1.728  -3.081   3.035  1.00  0.00     0.338 C 
ATOM     34  O   UNL     1      -0.921  -3.603   2.285  1.00  0.00    -0.246 OA
BRANCH  33  35
ATOM     35  C   UNL     1      -1.345  -2.267   4.239  1.00  0.00     0.060 A 
ATOM     36  C   UNL     1      -0.128  -1.566   4.194  1.00  0.00     0.016 A 
ATOM     37  C   UNL     1      -2.152  -2.143   5.375  1.00  0.00     0.016 A 
ATOM     38  C   UNL     1       0.318  -0.817   5.291  1.00  0.00     0.010 A 
ATOM     39  C   UNL     1      -1.692  -1.408   6.487  1.00  0.00     0.010 A 
ATOM     40  C   UNL     1      -0.429  -0.783   6.473  1.00  0.00    -0.014 A 
BRANCH  40  41
ATOM     41  C   UNL     1       0.211  -0.302   7.737  1.00  0.00     0.031 A 
ATOM     42  C   UNL     1       0.718  -1.333   8.720  1.00  0.00     0.074 A 
ATOM     43  C   UNL     1       0.408   1.006   8.002  1.00  0.00     0.049 A 
ATOM     44  N   UNL     1       1.299  -1.171   9.882  1.00  0.00    -0.248 NA
ATOM     45  C   UNL     1       0.543  -2.743   8.333  1.00  0.00     0.031 C 
ATOM     46  C   UNL     1       0.029   2.114   7.128  1.00  0.00     0.029 A 
ATOM     47  N   UNL     1       0.979   1.622   9.093  1.00  0.00    -0.354 N 
ATOM     48  C   UNL     1       1.541  -2.452  10.370  1.00  0.00     0.074 A 
ATOM     49  C   UNL     1       1.013  -3.379   9.394  1.00  0.00     0.031 C 
ATOM     50  C   UNL     1       0.376   3.273   7.718  1.00  0.00     0.029 A 
ATOM     51  C   UNL     1       0.968   2.997   9.027  1.00  0.00     0.049 A 
ATOM     52  H   UNL     1       1.361   1.124   9.852  1.00  0.00     0.167 HD
ATOM     53  C   UNL     1       2.153  -2.828  11.521  1.00  0.00     0.037 A 
ATOM     54  C   UNL     1       1.371   3.926   9.921  1.00  0.00     0.037 A 
ATOM     55  C   UNL     1       2.680  -1.907  12.496  1.00  0.00     0.049 A 
ATOM     56  C   UNL     1       1.972   3.486  11.236  1.00  0.00     0.074 A 
ATOM     57  C   UNL     1       3.336  -2.194  13.681  1.00  0.00     0.029 A 
ATOM     58  N   UNL     1       2.601  -0.525  12.411  1.00  0.00    -0.354 N 
ATOM     59  N   UNL     1       2.215   2.272  11.672  1.00  0.00    -0.248 NA
ATOM     60  C   UNL     1       2.360   4.546  12.180  1.00  0.00     0.031 C 
ATOM     61  C   UNL     1       3.584  -0.990  14.348  1.00  0.00     0.029 A 
ATOM     62  C   UNL     1       3.162   0.053  13.539  1.00  0.00     0.049 A 
ATOM     63  H   UNL     1       2.204  -0.027  11.660  1.00  0.00     0.167 HD
ATOM     64  C   UNL     1       2.821   2.426  12.918  1.00  0.00     0.074 A 
ATOM     65  C   UNL     1       2.916   3.849  13.161  1.00  0.00     0.031 C 
ATOM     66  C   UNL     1       3.264   1.473  13.778  1.00  0.00     0.037 A 
BRANCH  53  67
ATOM     67  C   UNL     1       2.247  -4.305  11.812  1.00  0.00     0.058 A 
ATOM     68  C   UNL     1       3.052  -5.170  11.052  1.00  0.00     0.135 A 
ATOM     69  C   UNL     1       1.532  -4.860  12.888  1.00  0.00     0.135 A 
ATOM     70  F   UNL     1       3.747  -4.701  10.003  1.00  0.00    -0.206 F 
ATOM     71  C   UNL     1       3.113  -6.534  11.322  1.00  0.00     0.059 A 
ATOM     72  C   UNL     1       1.608  -6.215  13.199  1.00  0.00     0.059 A 
ATOM     73  F   UNL     1       0.748  -4.084  13.652  1.00  0.00    -0.206 F 
ATOM     74  C   UNL     1       2.386  -7.048  12.397  1.00  0.00     0.060 A 
BRANCH  74  75
ATOM     75  S   UNL     1       2.468  -8.821  12.725  1.00  0.00     0.124 S 
ATOM     76  O   UNL     1       1.737  -9.362  11.584  1.00  0.00    -0.237 OA
ATOM     77  O   UNL     1       3.906  -9.069  12.732  1.00  0.00    -0.237 OA
ATOM     78  O   UNL     1       1.804  -8.960  14.018  1.00  0.00    -0.744 OA
ENDBRANCH  74  75
ENDBRANCH  53  67
BRANCH  54  79
ATOM     79  C   UNL     1       1.223   5.379   9.616  1.00  0.00     0.058 A 
ATOM     80  C   UNL     1       2.346   6.205   9.449  1.00  0.00     0.135 A 
ATOM     81  C   UNL     1      -0.043   5.978   9.510  1.00  0.00     0.135 A 
ATOM     82  F   UNL     1       3.580   5.689   9.562  1.00  0.00    -0.206 F 
ATOM     83  C   UNL     1       2.222   7.569   9.200  1.00  0.00     0.059 A 
ATOM     84  C   UNL     1      -0.193   7.334   9.229  1.00  0.00     0.059 A 
ATOM     85  F   UNL     1      -1.152   5.239   9.664  1.00  0.00    -0.206 F 
ATOM     86  C   UNL     1       0.947   8.123   9.084  1.00  0.00     0.060 A 
BRANCH  86  87
ATOM     87  S   UNL     1       0.801   9.884   8.708  1.00  0.00     0.124 S 
ATOM     88  O   UNL     1       1.276  10.492   9.945  1.00  0.00    -0.237 OA
ATOM     89  O   UNL     1       1.681  10.020   7.551  1.00  0.00    -0.237 OA
ATOM     90  O   UNL     1      -0.622  10.052   8.429  1.00  0.00    -0.744 OA
ENDBRANCH  86  87
ENDBRANCH  54  79
BRANCH  66  91
ATOM     91  C   UNL     1       3.950   1.929  15.043  1.00  0.00     0.058 A 
ATOM     92  C   UNL     1       3.261   2.580  16.079  1.00  0.00     0.135 A 
ATOM     93  C   UNL     1       5.319   1.672  15.236  1.00  0.00     0.135 A 
ATOM     94  F   UNL     1       1.953   2.854  15.953  1.00  0.00    -0.206 F 
ATOM     95  C   UNL     1       3.910   2.993  17.240  1.00  0.00     0.059 A 
ATOM     96  C   UNL     1       5.979   2.041  16.404  1.00  0.00     0.059 A 
ATOM     97  F   UNL     1       6.030   1.040  14.288  1.00  0.00    -0.206 F 
ATOM     98  C   UNL     1       5.270   2.718  17.394  1.00  0.00     0.060 A 
BRANCH  98  99
ATOM     99  S   UNL     1       6.095   3.245  18.911  1.00  0.00     0.124 S 
ATOM    100  O   UNL     1       6.126   4.694  18.741  1.00  0.00    -0.237 OA
ATOM    101  O   UNL     1       5.193   2.747  19.945  1.00  0.00    -0.237 OA
ATOM    102  O   UNL     1       7.392   2.579  18.844  1.00  0.00    -0.744 OA
ENDBRANCH  98  99
ENDBRANCH  66  91
ENDBRANCH  40  41
ENDBRANCH  33  35
ENDBRANCH  32  33
ENDBRANCH  31  32
ENDBRANCH  30  31
ENDBRANCH  29  30
ENDBRANCH  28  29
ENDBRANCH   1  28
TORSDOF 24
