REMARK SMILES Cc1cc(C(=O)OCCOCCOCCOC(=O)c2ccc(-c3c4nc(c(-c5c(F)cc(S(=O)(=O)[O-])cc5F)c5ccc([nH]5)c(-c5c(F)cc(S(=O)(=O)[O-])cc5F)c5nc(c(-c6c(F)cc(S(=O)(=O)[O-])cc6F)c6ccc3[nH]6)C=C5)C=C4)cc2)ccc1NS(=O)(=O)c1c(F)cccc1F
REMARK SMILES IDX 11 1 10 2 9 3 8 4 7 5 5 6 6 7 4 8 1 9 2 10 3 11 87 12 86 13
REMARK SMILES IDX 85 14 88 15 89 17 90 18 91 19 92 20 93 21 98 22 94 23 95 24
REMARK SMILES IDX 97 25 99 26 96 27 12 28 13 29 14 30 15 31 16 32 17 33 18 34
REMARK SMILES IDX 19 35 20 36 84 37 21 38 83 39 22 40 23 41 24 42 77 43 25 44
REMARK SMILES IDX 82 45 76 46 78 47 26 48 81 49 75 50 74 51 27 53 61 54 40 55
REMARK SMILES IDX 60 56 41 57 44 58 59 59 79 60 42 61 43 62 58 64 80 65 45 66
REMARK SMILES IDX 28 67 29 68 38 69 30 70 31 71 37 72 39 73 32 74 33 75 34 76
REMARK SMILES IDX 35 77 36 78 62 79 63 80 72 81 64 82 65 83 71 84 73 85 66 86
REMARK SMILES IDX 67 87 68 88 69 89 70 90 46 91 47 92 56 93 48 94 49 95 55 96
REMARK SMILES IDX 57 97 50 98 51 99 52 100 53 101 54 102
REMARK H PARENT 88 16 78 52 44 63
REMARK Flexibility Score: inf
ROOT
ATOM      1  C   UNL     1      -3.391  -5.491  -2.308  1.00  0.00     0.188 C 
ENDROOT
BRANCH   1   2
ATOM      2  O   UNL     1      -4.144  -4.865  -1.273  1.00  0.00    -0.376 OA
BRANCH   2   3
ATOM      3  C   UNL     1      -5.128  -3.827  -1.306  1.00  0.00     0.202 C 
BRANCH   3   4
ATOM      4  C   UNL     1      -5.044  -2.128  -1.304  1.00  0.00     0.261 C 
BRANCH   4   5
ATOM      5  O   UNL     1      -4.176  -0.847  -0.458  1.00  0.00    -0.460 OA
BRANCH   5   6
ATOM      6  C   UNL     1      -3.009  -0.550   0.314  1.00  0.00     0.338 C 
ATOM      7  O   UNL     1      -2.444  -1.189   1.196  1.00  0.00    -0.246 OA
BRANCH   6   8
ATOM      8  C   UNL     1      -2.055   0.558   0.126  1.00  0.00     0.060 A 
ATOM      9  C   UNL     1       1.761   0.630  -0.407  1.00  0.00     0.046 C 
ATOM     10  C   UNL     1       0.351   1.120  -0.166  1.00  0.00    -0.026 A 
ATOM     11  C   UNL     1      -0.739   0.246  -0.333  1.00  0.00     0.021 A 
ATOM     12  C   UNL     1       0.077   2.354   0.414  1.00  0.00     0.052 A 
ATOM     13  C   UNL     1      -1.067   2.496   1.201  1.00  0.00     0.028 A 
ATOM     14  C   UNL     1      -2.137   1.605   1.046  1.00  0.00     0.018 A 
BRANCH  12  15
ATOM     15  N   UNL     1       0.911   3.477   0.102  1.00  0.00    -0.279 N 
ATOM     16  H   UNL     1       1.891   3.408   0.175  1.00  0.00     0.180 HD
BRANCH  15  17
ATOM     17  S   UNL     1       0.175   4.942  -0.400  1.00  0.00     0.267 S 
ATOM     18  O   UNL     1       0.301   5.836   0.732  1.00  0.00    -0.201 OA
ATOM     19  O   UNL     1       0.795   5.293  -1.663  1.00  0.00    -0.201 OA
BRANCH  17  20
ATOM     20  C   UNL     1      -1.533   4.662  -0.725  1.00  0.00     0.158 A 
ATOM     21  C   UNL     1      -2.496   5.339   0.015  1.00  0.00     0.146 A 
ATOM     22  C   UNL     1      -1.936   3.644  -1.584  1.00  0.00     0.146 A 
ATOM     23  F   UNL     1      -2.185   6.380   0.796  1.00  0.00    -0.205 F 
ATOM     24  C   UNL     1      -3.829   4.926  -0.001  1.00  0.00     0.041 A 
ATOM     25  C   UNL     1      -3.268   3.214  -1.597  1.00  0.00     0.041 A 
ATOM     26  F   UNL     1      -1.046   2.969  -2.323  1.00  0.00    -0.205 F 
ATOM     27  C   UNL     1      -4.212   3.837  -0.780  1.00  0.00     0.006 A 
ENDBRANCH  17  20
ENDBRANCH  15  17
ENDBRANCH  12  15
ENDBRANCH   6   8
ENDBRANCH   5   6
ENDBRANCH   4   5
ENDBRANCH   3   4
ENDBRANCH   2   3
ENDBRANCH   1   2
BRANCH   1  28
ATOM     28  C   UNL     1      -3.688  -5.279  -3.774  1.00  0.00     0.188 C 
BRANCH  28  29
ATOM     29  O   UNL     1      -4.074  -3.935  -3.993  1.00  0.00    -0.376 OA
BRANCH  29  30
ATOM     30  C   UNL     1      -4.333  -3.631  -5.352  1.00  0.00     0.202 C 
BRANCH  30  31
ATOM     31  C   UNL     1      -3.067  -3.535  -6.218  1.00  0.00     0.261 C 
BRANCH  31  32
ATOM     32  O   UNL     1      -2.237  -2.410  -5.854  1.00  0.00    -0.460 OA
BRANCH  32  33
ATOM     33  C   UNL     1      -1.021  -2.690  -5.268  1.00  0.00     0.338 C 
ATOM     34  O   UNL     1       0.016  -2.750  -5.911  1.00  0.00    -0.246 OA
BRANCH  33  35
ATOM     35  C   UNL     1      -1.146  -2.661  -3.781  1.00  0.00     0.060 A 
ATOM     36  C   UNL     1      -0.444  -3.344  -2.794  1.00  0.00     0.016 A 
ATOM     37  C   UNL     1      -2.104  -1.852  -3.296  1.00  0.00     0.016 A 
ATOM     38  C   UNL     1      -0.928  -3.472  -1.411  1.00  0.00     0.010 A 
ATOM     39  C   UNL     1      -2.526  -2.022  -1.970  1.00  0.00     0.010 A 
ATOM     40  C   UNL     1      -2.140  -2.938  -0.944  1.00  0.00    -0.014 A 
BRANCH  40  41
ATOM     41  C   UNL     1      -2.934  -3.466   0.522  1.00  0.00     0.031 A 
ATOM     42  C   UNL     1      -4.003  -2.752   1.665  1.00  0.00     0.074 A 
ATOM     43  C   UNL     1      -2.625  -4.695   1.003  1.00  0.00     0.049 A 
ATOM     44  N   UNL     1      -3.715  -2.610   2.956  1.00  0.00    -0.248 NA
ATOM     45  C   UNL     1      -5.295  -2.044   1.448  1.00  0.00     0.031 C 
ATOM     46  C   UNL     1      -3.216  -5.375   2.159  1.00  0.00     0.029 A 
ATOM     47  N   UNL     1      -1.632  -5.573   0.573  1.00  0.00    -0.354 N 
ATOM     48  C   UNL     1      -4.655  -1.748   3.550  1.00  0.00     0.074 A 
ATOM     49  C   UNL     1      -5.474  -1.265   2.506  1.00  0.00     0.031 C 
ATOM     50  C   UNL     1      -2.405  -6.378   2.525  1.00  0.00     0.029 A 
ATOM     51  C   UNL     1      -1.228  -6.322   1.679  1.00  0.00     0.049 A 
ATOM     52  H   UNL     1      -1.281  -5.651  -0.343  1.00  0.00     0.167 HD
ATOM     53  C   UNL     1      -4.920  -1.593   4.880  1.00  0.00     0.037 A 
ATOM     54  C   UNL     1       0.068  -6.300   2.089  1.00  0.00     0.037 A 
ATOM     55  C   UNL     1      -4.261  -2.643   5.599  1.00  0.00     0.049 A 
ATOM     56  C   UNL     1       0.214  -5.774   3.496  1.00  0.00     0.074 A 
ATOM     57  C   UNL     1      -4.641  -3.964   5.772  1.00  0.00     0.029 A 
ATOM     58  N   UNL     1      -2.899  -2.574   5.797  1.00  0.00    -0.354 N 
ATOM     59  N   UNL     1      -0.728  -5.145   4.149  1.00  0.00    -0.248 NA
ATOM     60  C   UNL     1       1.428  -5.933   4.290  1.00  0.00     0.031 C 
ATOM     61  C   UNL     1      -3.458  -4.723   5.932  1.00  0.00     0.029 A 
ATOM     62  C   UNL     1      -2.389  -3.845   5.972  1.00  0.00     0.049 A 
ATOM     63  H   UNL     1      -2.370  -1.744   5.810  1.00  0.00     0.167 HD
ATOM     64  C   UNL     1      -0.256  -4.765   5.377  1.00  0.00     0.074 A 
ATOM     65  C   UNL     1       1.081  -5.320   5.434  1.00  0.00     0.031 C 
ATOM     66  C   UNL     1      -0.979  -4.008   6.252  1.00  0.00     0.037 A 
BRANCH  53  67
ATOM     67  C   UNL     1      -6.123  -0.775   5.356  1.00  0.00     0.058 A 
ATOM     68  C   UNL     1      -7.094  -1.316   6.220  1.00  0.00     0.135 A 
ATOM     69  C   UNL     1      -6.423   0.518   4.860  1.00  0.00     0.135 A 
ATOM     70  F   UNL     1      -6.897  -2.495   6.825  1.00  0.00    -0.206 F 
ATOM     71  C   UNL     1      -8.331  -0.696   6.453  1.00  0.00     0.059 A 
ATOM     72  C   UNL     1      -7.671   1.137   5.040  1.00  0.00     0.059 A 
ATOM     73  F   UNL     1      -5.529   1.179   4.103  1.00  0.00    -0.206 F 
ATOM     74  C   UNL     1      -8.633   0.507   5.822  1.00  0.00     0.060 A 
BRANCH  74  75
ATOM     75  S   UNL     1     -10.312   1.178   5.957  1.00  0.00     0.124 S 
ATOM     76  O   UNL     1     -11.143  -0.009   5.774  1.00  0.00    -0.237 OA
ATOM     77  O   UNL     1     -10.307   1.748   7.300  1.00  0.00    -0.237 OA
ATOM     78  O   UNL     1     -10.379   2.144   4.864  1.00  0.00    -0.744 OA
ENDBRANCH  74  75
ENDBRANCH  53  67
BRANCH  54  79
ATOM     79  C   UNL     1       1.050  -6.235   0.961  1.00  0.00     0.058 A 
ATOM     80  C   UNL     1       1.007  -7.291   0.020  1.00  0.00     0.135 A 
ATOM     81  C   UNL     1       1.733  -5.074   0.570  1.00  0.00     0.135 A 
ATOM     82  F   UNL     1       0.376  -8.437   0.329  1.00  0.00    -0.206 F 
ATOM     83  C   UNL     1       1.481  -7.157  -1.281  1.00  0.00     0.059 A 
ATOM     84  C   UNL     1       2.238  -4.923  -0.737  1.00  0.00     0.059 A 
ATOM     85  F   UNL     1       1.798  -4.019   1.395  1.00  0.00    -0.206 F 
ATOM     86  C   UNL     1       2.058  -5.953  -1.667  1.00  0.00     0.060 A 
BRANCH  86  87
ATOM     87  S   UNL     1       2.380  -5.730  -3.440  1.00  0.00     0.124 S 
ATOM     88  O   UNL     1       3.356  -6.777  -3.713  1.00  0.00    -0.237 OA
ATOM     89  O   UNL     1       1.048  -5.950  -4.005  1.00  0.00    -0.237 OA
ATOM     90  O   UNL     1       2.877  -4.361  -3.514  1.00  0.00    -0.744 OA
ENDBRANCH  86  87
ENDBRANCH  54  79
BRANCH  66  91
ATOM     91  C   UNL     1      -0.445  -3.360   7.501  1.00  0.00     0.058 A 
ATOM     92  C   UNL     1       0.857  -2.852   7.607  1.00  0.00     0.135 A 
ATOM     93  C   UNL     1      -1.316  -3.068   8.581  1.00  0.00     0.135 A 
ATOM     94  F   UNL     1       1.734  -2.968   6.599  1.00  0.00    -0.206 F 
ATOM     95  C   UNL     1       1.294  -2.166   8.738  1.00  0.00     0.059 A 
ATOM     96  C   UNL     1      -0.920  -2.328   9.687  1.00  0.00     0.059 A 
ATOM     97  F   UNL     1      -2.593  -3.482   8.584  1.00  0.00    -0.206 F 
ATOM     98  C   UNL     1       0.399  -1.911   9.773  1.00  0.00     0.060 A 
BRANCH  98  99
ATOM     99  S   UNL     1       0.934  -1.015  11.239  1.00  0.00     0.124 S 
ATOM    100  O   UNL     1       1.165  -2.111  12.176  1.00  0.00    -0.237 OA
ATOM    101  O   UNL     1       2.132  -0.317  10.783  1.00  0.00    -0.237 OA
ATOM    102  O   UNL     1      -0.210  -0.159  11.532  1.00  0.00    -0.744 OA
ENDBRANCH  98  99
ENDBRANCH  66  91
ENDBRANCH  40  41
ENDBRANCH  33  35
ENDBRANCH  32  33
ENDBRANCH  31  32
ENDBRANCH  30  31
ENDBRANCH  29  30
ENDBRANCH  28  29
ENDBRANCH   1  28
TORSDOF 23
