REMARK SMILES O=C(CSc1ccc(NC(=O)c2cccc3ccccc23)cc1)OCCOCCOCCOC(=O)c1ccc(-c2c3nc(c(-c4c(F)cc(S(=O)(=O)[O-])cc4F)c4ccc([nH]4)c(-c4c(F)cc(S(=O)(=O)[O-])cc4F)c4nc(c(-c5c(F)cc(S(=O)(=O)[O-])cc5F)c5ccc2[nH]5)C=C4)C=C3)cc1
REMARK SMILES IDX 28 1 27 2 26 3 25 4 24 5 2 6 1 7 3 8 4 9 5 10 6 11 23 12
REMARK SMILES IDX 7 13 22 14 8 15 9 16 10 17 11 19 12 20 13 21 21 22 14 23
REMARK SMILES IDX 16 24 20 25 15 26 17 27 19 28 18 29 29 30 30 31 31 32 32 33
REMARK SMILES IDX 33 34 34 35 35 36 36 37 37 38 101 39 38 40 100 41 39 42
REMARK SMILES IDX 40 43 41 44 94 45 42 46 99 47 93 48 95 49 43 50 98 51 92 52
REMARK SMILES IDX 91 53 44 55 78 56 57 57 77 58 58 59 61 60 76 61 96 62 59 63
REMARK SMILES IDX 60 64 75 66 97 67 62 68 45 69 46 70 55 71 47 72 48 73 54 74
REMARK SMILES IDX 56 75 49 76 50 77 51 78 52 79 53 80 79 81 80 82 89 83 81 84
REMARK SMILES IDX 82 85 88 86 90 87 83 88 84 89 85 90 86 91 87 92 63 93 64 94
REMARK SMILES IDX 73 95 65 96 66 97 72 98 74 99 67 100 68 101 69 102 70 103
REMARK SMILES IDX 71 104
REMARK H PARENT 9 18 95 54 61 65
REMARK Flexibility Score: inf
ROOT
ATOM      1  C   UNL     1       3.443   1.609   1.414  1.00  0.00     0.188 C 
ENDROOT
BRANCH   1   2
ATOM      2  O   UNL     1       4.644   1.700   0.670  1.00  0.00    -0.376 OA
BRANCH   2   3
ATOM      3  C   UNL     1       5.289   0.503   0.289  1.00  0.00     0.202 C 
BRANCH   3   4
ATOM      4  C   UNL     1       4.800   0.079  -1.090  1.00  0.00     0.261 C 
BRANCH   4   5
ATOM      5  O   UNL     1       3.394  -0.220  -1.235  1.00  0.00    -0.463 OA
BRANCH   5   6
ATOM      6  C   UNL     1       2.572  -0.892  -0.411  1.00  0.00     0.316 C 
ATOM      7  O   UNL     1       1.363  -0.659  -0.474  1.00  0.00    -0.251 OA
BRANCH   6   8
ATOM      8  C   UNL     1       3.105  -1.839   0.646  1.00  0.00     0.197 C 
BRANCH   8   9
ATOM      9  S   UNL     1       4.094  -3.209   0.014  1.00  0.00    -0.114 SA
BRANCH   9  10
ATOM     10  C   UNL     1       2.872  -4.186  -0.844  1.00  0.00     0.008 A 
ATOM     11  C   UNL     1       1.536  -3.816  -1.000  1.00  0.00     0.017 A 
ATOM     12  C   UNL     1       3.311  -5.351  -1.473  1.00  0.00     0.017 A 
ATOM     13  C   UNL     1       0.723  -4.444  -1.933  1.00  0.00     0.027 A 
ATOM     14  C   UNL     1       2.484  -6.009  -2.385  1.00  0.00     0.027 A 
ATOM     15  C   UNL     1       1.240  -5.463  -2.711  1.00  0.00     0.041 A 
BRANCH  15  16
ATOM     16  N   UNL     1       0.633  -5.915  -3.884  1.00  0.00    -0.322 N 
ATOM     17  C   UNL     1      -0.246  -5.305  -4.749  1.00  0.00     0.256 C 
ATOM     18  H   UNL     1       0.876  -6.835  -4.137  1.00  0.00     0.170 HD
ATOM     19  O   UNL     1      -0.619  -5.938  -5.741  1.00  0.00    -0.269 OA
BRANCH  17  20
ATOM     20  C   UNL     1      -0.779  -3.928  -4.587  1.00  0.00     0.048 A 
ATOM     21  C   UNL     1      -2.182  -3.873  -4.513  1.00  0.00     0.014 A 
ATOM     22  C   UNL     1      -0.006  -2.727  -4.644  1.00  0.00    -0.006 A 
ATOM     23  C   UNL     1      -2.845  -2.653  -4.519  1.00  0.00     0.001 A 
ATOM     24  C   UNL     1      -0.711  -1.492  -4.667  1.00  0.00    -0.018 A 
ATOM     25  C   UNL     1       1.411  -2.652  -4.671  1.00  0.00     0.009 A 
ATOM     26  C   UNL     1      -2.113  -1.474  -4.616  1.00  0.00     0.009 A 
ATOM     27  C   UNL     1      -0.018  -0.272  -4.735  1.00  0.00     0.009 A 
ATOM     28  C   UNL     1       2.087  -1.425  -4.679  1.00  0.00     0.001 A 
ATOM     29  C   UNL     1       1.373  -0.236  -4.726  1.00  0.00     0.001 A 
ENDBRANCH  17  20
ENDBRANCH  15  16
ENDBRANCH   9  10
ENDBRANCH   8   9
ENDBRANCH   6   8
ENDBRANCH   5   6
ENDBRANCH   4   5
ENDBRANCH   3   4
ENDBRANCH   2   3
ENDBRANCH   1   2
BRANCH   1  30
ATOM     30  C   UNL     1       2.533   2.815   1.147  1.00  0.00     0.188 C 
BRANCH  30  31
ATOM     31  O   UNL     1       3.105   4.084   0.847  1.00  0.00    -0.376 OA
BRANCH  31  32
ATOM     32  C   UNL     1       4.397   4.408   1.335  1.00  0.00     0.202 C 
BRANCH  32  33
ATOM     33  C   UNL     1       4.564   4.555   2.852  1.00  0.00     0.261 C 
BRANCH  33  34
ATOM     34  O   UNL     1       4.196   3.400   3.633  1.00  0.00    -0.460 OA
BRANCH  34  35
ATOM     35  C   UNL     1       3.028   3.509   4.308  1.00  0.00     0.338 C 
ATOM     36  O   UNL     1       2.281   4.486   4.315  1.00  0.00    -0.246 OA
BRANCH  35  37
ATOM     37  C   UNL     1       2.645   2.242   4.969  1.00  0.00     0.060 A 
ATOM     38  C   UNL     1       1.356   1.745   4.728  1.00  0.00     0.016 A 
ATOM     39  C   UNL     1       3.456   1.635   5.932  1.00  0.00     0.016 A 
ATOM     40  C   UNL     1       0.838   0.709   5.510  1.00  0.00     0.010 A 
ATOM     41  C   UNL     1       2.929   0.601   6.726  1.00  0.00     0.010 A 
ATOM     42  C   UNL     1       1.596   0.178   6.562  1.00  0.00    -0.014 A 
BRANCH  42  43
ATOM     43  C   UNL     1       0.900  -0.597   7.629  1.00  0.00     0.031 A 
ATOM     44  C   UNL     1       0.457   0.138   8.873  1.00  0.00     0.074 A 
ATOM     45  C   UNL     1       0.599  -1.902   7.491  1.00  0.00     0.049 A 
ATOM     46  N   UNL     1      -0.186  -0.309   9.923  1.00  0.00    -0.248 NA
ATOM     47  C   UNL     1       0.783   1.572   8.938  1.00  0.00     0.031 C 
ATOM     48  C   UNL     1       0.922  -2.729   6.331  1.00  0.00     0.029 A 
ATOM     49  N   UNL     1      -0.055  -2.760   8.344  1.00  0.00    -0.354 N 
ATOM     50  C   UNL     1      -0.332   0.783  10.773  1.00  0.00     0.074 A 
ATOM     51  C   UNL     1       0.316   1.906  10.131  1.00  0.00     0.031 C 
ATOM     52  C   UNL     1       0.468  -3.978   6.546  1.00  0.00     0.029 A 
ATOM     53  C   UNL     1      -0.161  -4.045   7.866  1.00  0.00     0.049 A 
ATOM     54  H   UNL     1      -0.415  -2.480   9.216  1.00  0.00     0.167 HD
ATOM     55  C   UNL     1      -0.958   0.855  11.972  1.00  0.00     0.037 A 
ATOM     56  C   UNL     1      -0.697  -5.148   8.429  1.00  0.00     0.037 A 
ATOM     57  C   UNL     1      -1.617  -0.252  12.614  1.00  0.00     0.049 A 
ATOM     58  C   UNL     1      -1.345  -5.058   9.790  1.00  0.00     0.074 A 
ATOM     59  C   UNL     1      -2.296  -0.267  13.820  1.00  0.00     0.029 A 
ATOM     60  N   UNL     1      -1.675  -1.541  12.107  1.00  0.00    -0.354 N 
ATOM     61  N   UNL     1      -1.497  -4.012  10.567  1.00  0.00    -0.248 NA
ATOM     62  C   UNL     1      -1.906  -6.300  10.345  1.00  0.00     0.031 C 
ATOM     63  C   UNL     1      -2.726  -1.576  14.065  1.00  0.00     0.029 A 
ATOM     64  C   UNL     1      -2.361  -2.364  12.986  1.00  0.00     0.049 A 
ATOM     65  H   UNL     1      -1.287  -1.829  11.250  1.00  0.00     0.167 HD
ATOM     66  C   UNL     1      -2.204  -4.462  11.680  1.00  0.00     0.074 A 
ATOM     67  C   UNL     1      -2.452  -5.873  11.475  1.00  0.00     0.031 C 
ATOM     68  C   UNL     1      -2.618  -3.766  12.769  1.00  0.00     0.037 A 
BRANCH  55  69
ATOM     69  C   UNL     1      -0.935   2.179  12.686  1.00  0.00     0.058 A 
ATOM     70  C   UNL     1      -1.694   3.274  12.244  1.00  0.00     0.135 A 
ATOM     71  C   UNL     1      -0.157   2.346  13.843  1.00  0.00     0.135 A 
ATOM     72  F   UNL     1      -2.441   3.174  11.133  1.00  0.00    -0.206 F 
ATOM     73  C   UNL     1      -1.659   4.498  12.905  1.00  0.00     0.059 A 
ATOM     74  C   UNL     1      -0.128   3.552  14.536  1.00  0.00     0.059 A 
ATOM     75  F   UNL     1       0.588   1.332  14.309  1.00  0.00    -0.206 F 
ATOM     76  C   UNL     1      -0.870   4.628  14.049  1.00  0.00     0.060 A 
BRANCH  76  77
ATOM     77  S   UNL     1      -0.828   6.222  14.896  1.00  0.00     0.124 S 
ATOM     78  O   UNL     1      -0.006   7.012  13.985  1.00  0.00    -0.237 OA
ATOM     79  O   UNL     1      -2.240   6.584  14.950  1.00  0.00    -0.237 OA
ATOM     80  O   UNL     1      -0.214   5.908  16.182  1.00  0.00    -0.744 OA
ENDBRANCH  76  77
ENDBRANCH  55  69
BRANCH  56  81
ATOM     81  C   UNL     1      -0.657  -6.450   7.707  1.00  0.00     0.058 A 
ATOM     82  C   UNL     1      -1.827  -7.038   7.204  1.00  0.00     0.135 A 
ATOM     83  C   UNL     1       0.550  -7.143   7.529  1.00  0.00     0.135 A 
ATOM     84  F   UNL     1      -3.009  -6.424   7.365  1.00  0.00    -0.206 F 
ATOM     85  C   UNL     1      -1.806  -8.273   6.562  1.00  0.00     0.059 A 
ATOM     86  C   UNL     1       0.601  -8.367   6.869  1.00  0.00     0.059 A 
ATOM     87  F   UNL     1       1.699  -6.622   7.987  1.00  0.00    -0.206 F 
ATOM     88  C   UNL     1      -0.585  -8.929   6.397  1.00  0.00     0.060 A 
BRANCH  88  89
ATOM     89  S   UNL     1      -0.559 -10.508   5.519  1.00  0.00     0.124 S 
ATOM     90  O   UNL     1      -1.134 -11.407   6.513  1.00  0.00    -0.237 OA
ATOM     91  O   UNL     1      -1.392 -10.224   4.355  1.00  0.00    -0.237 OA
ATOM     92  O   UNL     1       0.859 -10.707   5.232  1.00  0.00    -0.744 OA
ENDBRANCH  88  89
ENDBRANCH  56  81
BRANCH  68  93
ATOM     93  C   UNL     1      -3.432  -4.500  13.802  1.00  0.00     0.058 A 
ATOM     94  C   UNL     1      -2.862  -5.453  14.661  1.00  0.00     0.135 A 
ATOM     95  C   UNL     1      -4.799  -4.214  13.959  1.00  0.00     0.135 A 
ATOM     96  F   UNL     1      -1.561  -5.765  14.555  1.00  0.00    -0.206 F 
ATOM     97  C   UNL     1      -3.626  -6.122  15.614  1.00  0.00     0.059 A 
ATOM     98  C   UNL     1      -5.575  -4.850  14.924  1.00  0.00     0.059 A 
ATOM     99  F   UNL     1      -5.393  -3.300  13.175  1.00  0.00    -0.206 F 
ATOM    100  C   UNL     1      -4.982  -5.816  15.736  1.00  0.00     0.060 A 
BRANCH 100 101
ATOM    101  S   UNL     1      -5.962  -6.682  16.982  1.00  0.00     0.124 S 
ATOM    102  O   UNL     1      -6.140  -7.989  16.359  1.00  0.00    -0.237 OA
ATOM    103  O   UNL     1      -5.085  -6.650  18.149  1.00  0.00    -0.237 OA
ATOM    104  O   UNL     1      -7.169  -5.868  17.091  1.00  0.00    -0.744 OA
ENDBRANCH 100 101
ENDBRANCH  68  93
ENDBRANCH  42  43
ENDBRANCH  35  37
ENDBRANCH  34  35
ENDBRANCH  33  34
ENDBRANCH  32  33
ENDBRANCH  31  32
ENDBRANCH  30  31
ENDBRANCH   1  30
TORSDOF 24
