REMARK SMILES CC/C(=C/C(=O)[C@H](Cc1ccc(Cl)cc1Cl)C(=O)OCCOCCOCCOC(=O)c1ccc(-c2c3nc(c(-c4c(F)cc(S(=O)(=O)[O-])cc4F)c4ccc([nH]4)c(-c4c(F)cc(S(=O)(=O)[O-])cc4F)c4nc(c(-c5c(F)cc(S(=O)(=O)[O-])cc5F)c5ccc2[nH]5)C=C4)C=C3)cc1)N(C)C
REMARK SMILES IDX 23 1 22 2 21 3 20 4 19 5 17 6 18 7 7 8 5 9 6 10 4 11 3 12
REMARK SMILES IDX 2 13 1 14 97 15 98 16 99 17 8 18 9 19 10 20 15 21 11 22
REMARK SMILES IDX 14 23 16 24 12 25 13 26 24 27 25 28 26 29 27 30 28 31 29 32
REMARK SMILES IDX 30 33 31 34 32 35 96 36 33 37 95 38 34 39 35 40 36 41 89 42
REMARK SMILES IDX 37 43 94 44 88 45 90 46 38 47 93 48 87 49 86 50 39 52 73 53
REMARK SMILES IDX 52 54 72 55 53 56 56 57 71 58 91 59 54 60 55 61 70 63 92 64
REMARK SMILES IDX 57 65 40 66 41 67 50 68 42 69 43 70 49 71 51 72 44 73 45 74
REMARK SMILES IDX 46 75 47 76 48 77 74 78 75 79 84 80 76 81 77 82 83 83 85 84
REMARK SMILES IDX 78 85 79 86 80 87 81 88 82 89 58 90 59 91 68 92 60 93 61 94
REMARK SMILES IDX 67 95 69 96 62 97 63 98 64 99 65 100 66 101
REMARK H PARENT 90 51 56 62
REMARK Flexibility Score: inf
ROOT
ATOM      1  C   UNL     1       3.554   4.683   1.493  1.00  0.00     0.188 C 
ENDROOT
BRANCH   1   2
ATOM      2  O   UNL     1       4.079   3.862   0.445  1.00  0.00    -0.376 OA
BRANCH   2   3
ATOM      3  C   UNL     1       3.172   2.886  -0.083  1.00  0.00     0.202 C 
BRANCH   3   4
ATOM      4  C   UNL     1       3.400   1.462   0.432  1.00  0.00     0.261 C 
BRANCH   4   5
ATOM      5  O   UNL     1       2.571   1.197   1.597  1.00  0.00    -0.463 OA
BRANCH   5   6
ATOM      6  C   UNL     1       3.241   1.165   2.773  1.00  0.00     0.317 C 
ATOM      7  O   UNL     1       4.461   1.260   2.787  1.00  0.00    -0.251 OA
BRANCH   6   8
ATOM      8  C   UNL     1       2.372   1.094   4.038  1.00  0.00     0.175 C 
BRANCH   8   9
ATOM      9  C   UNL     1       3.072   0.285   5.151  1.00  0.00     0.171 C 
ATOM     10  O   UNL     1       2.468  -0.554   5.827  1.00  0.00    -0.294 OA
BRANCH   9  11
ATOM     11  C   UNL     1       4.538   0.401   5.388  1.00  0.00     0.069 C 
ATOM     12  C   UNL     1       5.302   1.513   5.423  1.00  0.00     0.016 C 
BRANCH  12  13
ATOM     13  C   UNL     1       6.813   1.274   5.307  1.00  0.00     0.050 C 
ATOM     14  C   UNL     1       7.302   1.225   3.858  1.00  0.00     0.010 C 
ENDBRANCH  12  13
BRANCH  12  15
ATOM     15  N   UNL     1       4.856   2.841   5.509  1.00  0.00    -0.381 N 
ATOM     16  C   UNL     1       5.572   3.952   4.872  1.00  0.00     0.143 C 
ATOM     17  C   UNL     1       3.759   3.267   6.381  1.00  0.00     0.143 C 
ENDBRANCH  12  15
ENDBRANCH   9  11
ENDBRANCH   8   9
BRANCH   8  18
ATOM     18  C   UNL     1       0.908   0.550   3.914  1.00  0.00     0.060 C 
BRANCH  18  19
ATOM     19  C   UNL     1      -0.148   1.113   2.975  1.00  0.00    -0.028 A 
ATOM     20  C   UNL     1      -1.335   0.383   2.780  1.00  0.00     0.007 A 
ATOM     21  C   UNL     1      -0.047   2.310   2.275  1.00  0.00     0.045 A 
ATOM     22  C   UNL     1      -2.232   0.722   1.760  1.00  0.00     0.021 A 
ATOM     23  C   UNL     1      -0.819   2.556   1.139  1.00  0.00     0.041 A 
ATOM     24  Cl  UNL     1       0.785   3.636   2.966  1.00  0.00    -0.084 Cl
ATOM     25  C   UNL     1      -1.909   1.745   0.876  1.00  0.00     0.042 A 
ATOM     26  Cl  UNL     1      -2.900   2.056  -0.494  1.00  0.00    -0.084 Cl
ENDBRANCH  18  19
ENDBRANCH   8  18
ENDBRANCH   6   8
ENDBRANCH   5   6
ENDBRANCH   4   5
ENDBRANCH   3   4
ENDBRANCH   2   3
ENDBRANCH   1   2
BRANCH   1  27
ATOM     27  C   UNL     1       2.547   5.760   1.024  1.00  0.00     0.188 C 
BRANCH  27  28
ATOM     28  O   UNL     1       1.467   5.202   0.269  1.00  0.00    -0.376 OA
BRANCH  28  29
ATOM     29  C   UNL     1       0.788   6.127  -0.579  1.00  0.00     0.202 C 
BRANCH  29  30
ATOM     30  C   UNL     1      -0.579   6.512  -0.019  1.00  0.00     0.261 C 
BRANCH  30  31
ATOM     31  O   UNL     1      -0.394   7.171   1.240  1.00  0.00    -0.460 OA
BRANCH  31  32
ATOM     32  C   UNL     1      -0.976   6.574   2.309  1.00  0.00     0.338 C 
ATOM     33  O   UNL     1      -1.751   5.636   2.290  1.00  0.00    -0.246 OA
BRANCH  32  34
ATOM     34  C   UNL     1      -0.472   7.204   3.555  1.00  0.00     0.060 A 
ATOM     35  C   UNL     1      -0.541   6.472   4.747  1.00  0.00     0.016 A 
ATOM     36  C   UNL     1       0.034   8.509   3.564  1.00  0.00     0.016 A 
ATOM     37  C   UNL     1      -0.149   7.055   5.952  1.00  0.00     0.010 A 
ATOM     38  C   UNL     1       0.427   9.092   4.768  1.00  0.00     0.010 A 
ATOM     39  C   UNL     1       0.298   8.381   5.971  1.00  0.00    -0.014 A 
BRANCH  39  40
ATOM     40  C   UNL     1       0.441   9.102   7.255  1.00  0.00     0.031 A 
ATOM     41  C   UNL     1      -0.691   9.987   7.701  1.00  0.00     0.074 A 
ATOM     42  C   UNL     1       1.557   8.988   7.996  1.00  0.00     0.049 A 
ATOM     43  N   UNL     1      -0.773  10.768   8.745  1.00  0.00    -0.248 NA
ATOM     44  C   UNL     1      -1.888  10.000   6.842  1.00  0.00     0.031 C 
ATOM     45  C   UNL     1       2.711   8.153   7.667  1.00  0.00     0.029 A 
ATOM     46  N   UNL     1       1.903   9.595   9.176  1.00  0.00    -0.354 N 
ATOM     47  C   UNL     1      -2.023  11.370   8.666  1.00  0.00     0.074 A 
ATOM     48  C   UNL     1      -2.652  10.892   7.455  1.00  0.00     0.031 C 
ATOM     49  C   UNL     1       3.648   8.312   8.620  1.00  0.00     0.029 A 
ATOM     50  C   UNL     1       3.167   9.274   9.610  1.00  0.00     0.049 A 
ATOM     51  H   UNL     1       1.303  10.202   9.666  1.00  0.00     0.167 HD
ATOM     52  C   UNL     1      -2.602  12.233   9.534  1.00  0.00     0.037 A 
ATOM     53  C   UNL     1       3.856   9.723  10.677  1.00  0.00     0.037 A 
ATOM     54  C   UNL     1      -1.973  12.702  10.738  1.00  0.00     0.049 A 
ATOM     55  C   UNL     1       3.207  10.714  11.609  1.00  0.00     0.074 A 
ATOM     56  C   UNL     1      -2.480  13.559  11.698  1.00  0.00     0.029 A 
ATOM     57  N   UNL     1      -0.694  12.354  11.145  1.00  0.00    -0.354 N 
ATOM     58  N   UNL     1       2.011  11.250  11.542  1.00  0.00    -0.248 NA
ATOM     59  C   UNL     1       4.000  11.158  12.764  1.00  0.00     0.031 C 
ATOM     60  C   UNL     1      -1.492  13.757  12.669  1.00  0.00     0.029 A 
ATOM     61  C   UNL     1      -0.386  12.992  12.334  1.00  0.00     0.049 A 
ATOM     62  H   UNL     1      -0.093  11.743  10.660  1.00  0.00     0.167 HD
ATOM     63  C   UNL     1       1.899  12.075  12.657  1.00  0.00     0.074 A 
ATOM     64  C   UNL     1       3.146  11.959  13.387  1.00  0.00     0.031 C 
ATOM     65  C   UNL     1       0.861  12.857  13.045  1.00  0.00     0.037 A 
BRANCH  52  66
ATOM     66  C   UNL     1      -3.978  12.730   9.194  1.00  0.00     0.058 A 
ATOM     67  C   UNL     1      -5.105  11.898   9.289  1.00  0.00     0.135 A 
ATOM     68  C   UNL     1      -4.175  14.055   8.772  1.00  0.00     0.135 A 
ATOM     69  F   UNL     1      -4.969  10.616   9.666  1.00  0.00    -0.206 F 
ATOM     70  C   UNL     1      -6.375  12.352   8.948  1.00  0.00     0.059 A 
ATOM     71  C   UNL     1      -5.439  14.537   8.450  1.00  0.00     0.059 A 
ATOM     72  F   UNL     1      -3.130  14.890   8.658  1.00  0.00    -0.206 F 
ATOM     73  C   UNL     1      -6.531  13.673   8.525  1.00  0.00     0.060 A 
BRANCH  73  74
ATOM     74  S   UNL     1      -8.183  14.247   8.078  1.00  0.00     0.124 S 
ATOM     75  O   UNL     1      -8.368  13.611   6.777  1.00  0.00    -0.237 OA
ATOM     76  O   UNL     1      -9.003  13.719   9.163  1.00  0.00    -0.237 OA
ATOM     77  O   UNL     1      -8.042  15.699   8.053  1.00  0.00    -0.744 OA
ENDBRANCH  73  74
ENDBRANCH  52  66
BRANCH  53  78
ATOM     78  C   UNL     1       5.240   9.241  10.925  1.00  0.00     0.058 A 
ATOM     79  C   UNL     1       5.524   8.376  11.992  1.00  0.00     0.135 A 
ATOM     80  C   UNL     1       6.306   9.639  10.104  1.00  0.00     0.135 A 
ATOM     81  F   UNL     1       4.538   7.976  12.810  1.00  0.00    -0.206 F 
ATOM     82  C   UNL     1       6.817   7.932  12.246  1.00  0.00     0.059 A 
ATOM     83  C   UNL     1       7.605   9.192  10.325  1.00  0.00     0.059 A 
ATOM     84  F   UNL     1       6.085  10.457   9.063  1.00  0.00    -0.206 F 
ATOM     85  C   UNL     1       7.853   8.346  11.406  1.00  0.00     0.060 A 
BRANCH  85  86
ATOM     86  S   UNL     1       9.522   7.730  11.716  1.00  0.00     0.124 S 
ATOM     87  O   UNL     1       9.917   8.522  12.874  1.00  0.00    -0.237 OA
ATOM     88  O   UNL     1       9.285   6.311  11.963  1.00  0.00    -0.237 OA
ATOM     89  O   UNL     1      10.224   8.032  10.472  1.00  0.00    -0.744 OA
ENDBRANCH  85  86
ENDBRANCH  53  78
BRANCH  65  90
ATOM     90  C   UNL     1       1.016  13.625  14.327  1.00  0.00     0.058 A 
ATOM     91  C   UNL     1       1.827  14.768  14.406  1.00  0.00     0.135 A 
ATOM     92  C   UNL     1       0.301  13.245  15.474  1.00  0.00     0.135 A 
ATOM     93  F   UNL     1       2.533  15.170  13.338  1.00  0.00    -0.206 F 
ATOM     94  C   UNL     1       1.941  15.495  15.586  1.00  0.00     0.059 A 
ATOM     95  C   UNL     1       0.383  13.971  16.658  1.00  0.00     0.059 A 
ATOM     96  F   UNL     1      -0.498  12.166  15.447  1.00  0.00    -0.206 F 
ATOM     97  C   UNL     1       1.215  15.088  16.707  1.00  0.00     0.060 A 
BRANCH  97  98
ATOM     98  S   UNL     1       1.346  16.057  18.225  1.00  0.00     0.124 S 
ATOM     99  O   UNL     1       2.647  15.632  18.733  1.00  0.00    -0.237 OA
ATOM    100  O   UNL     1       1.276  17.429  17.730  1.00  0.00    -0.237 OA
ATOM    101  O   UNL     1       0.193  15.620  19.006  1.00  0.00    -0.744 OA
ENDBRANCH  97  98
ENDBRANCH  65  90
ENDBRANCH  39  40
ENDBRANCH  32  34
ENDBRANCH  31  32
ENDBRANCH  30  31
ENDBRANCH  29  30
ENDBRANCH  28  29
ENDBRANCH  27  28
ENDBRANCH   1  27
TORSDOF 26
