REMARK SMILES [NH3+][C@@H](Cc1c[nH]c2ccccc12)C(=O)N[C@@H](CS)C(=O)N[C@@H](CO)C(=O)OCCOCCOCCOC(=O)c1ccc(-c2c3nc(c(-c4c(F)cc(S(=O)(=O)[O-])cc4F)c4ccc([nH]4)c(-c4c(F)cc(S(=O)(=O)[O-])cc4F)c4nc(c(-c5c(F)cc(S(=O)(=O)[O-])cc5F)c5ccc2[nH]5)C=C4)C=C3)cc1
REMARK SMILES IDX 30 1 29 2 28 3 27 4 25 5 26 6 22 7 21 8 19 9 20 10 16 12
REMARK SMILES IDX 15 13 13 14 14 15 2 17 1 18 3 22 4 23 5 24 12 25 6 26 7 27
REMARK SMILES IDX 11 28 8 30 10 31 9 32 17 33 18 34 23 36 24 37 31 39 32 40
REMARK SMILES IDX 33 41 34 42 35 43 36 44 37 45 38 46 39 47 40 48 104 49 41 50
REMARK SMILES IDX 103 51 42 52 43 53 44 54 97 55 45 56 102 57 96 58 98 59
REMARK SMILES IDX 46 60 101 61 95 62 94 63 47 65 81 66 60 67 80 68 61 69 64 70
REMARK SMILES IDX 79 71 99 72 62 73 63 74 78 76 100 77 65 78 48 79 49 80 58 81
REMARK SMILES IDX 50 82 51 83 57 84 59 85 52 86 53 87 54 88 55 89 56 90 82 91
REMARK SMILES IDX 83 92 92 93 84 94 85 95 91 96 93 97 86 98 87 99 88 100
REMARK SMILES IDX 89 101 90 102 66 103 67 104 76 105 68 106 69 107 75 108
REMARK SMILES IDX 77 109 70 110 71 111 72 112 73 113 74 114
REMARK H PARENT 21 11 15 16 1 19 1 20 1 21 6 29 18 35 24 38 98 64 64 75
REMARK Flexibility Score: inf
ROOT
ATOM      1  O   UNL     1      -4.571  -5.520  -3.935  1.00  0.00    -0.376 OA
ENDROOT
BRANCH   1   2
ATOM      2  C   UNL     1      -5.920  -5.101  -3.744  1.00  0.00     0.202 C 
BRANCH   2   3
ATOM      3  C   UNL     1      -6.286  -3.867  -4.568  1.00  0.00     0.261 C 
BRANCH   3   4
ATOM      4  O   UNL     1      -5.616  -2.693  -4.079  1.00  0.00    -0.462 OA
BRANCH   4   5
ATOM      5  C   UNL     1      -6.248  -1.990  -3.099  1.00  0.00     0.331 C 
ATOM      6  O   UNL     1      -7.355  -2.266  -2.653  1.00  0.00    -0.250 OA
BRANCH   5   7
ATOM      7  C   UNL     1      -5.431  -0.763  -2.680  1.00  0.00     0.218 C 
BRANCH   7   8
ATOM      8  N   UNL     1      -4.027  -0.824  -3.138  1.00  0.00    -0.339 N 
ATOM      9  C   UNL     1      -3.140   0.137  -2.745  1.00  0.00     0.244 C 
ATOM     10  O   UNL     1      -3.187   1.230  -3.313  1.00  0.00    -0.273 OA
ATOM     11  H   UNL     1      -3.732  -1.556  -3.726  1.00  0.00     0.164 HD
BRANCH   9  12
ATOM     12  C   UNL     1      -2.091  -0.208  -1.655  1.00  0.00     0.181 C 
BRANCH  12  13
ATOM     13  N   UNL     1      -1.976   0.967  -0.798  1.00  0.00    -0.338 N 
ATOM     14  C   UNL     1      -0.896   1.762  -0.563  1.00  0.00     0.279 C 
ATOM     15  O   UNL     1      -1.133   2.922  -0.206  1.00  0.00    -0.268 OA
ATOM     16  H   UNL     1      -2.799   1.221  -0.320  1.00  0.00     0.164 HD
BRANCH  14  17
ATOM     17  C   UNL     1       0.568   1.273  -0.686  1.00  0.00     0.275 C 
BRANCH  17  18
ATOM     18  N   UNL     1       0.756  -0.030  -0.016  1.00  0.00    -0.347 N 
ATOM     19  H   UNL     1       1.728  -0.326  -0.114  1.00  0.00     0.345 HD
ATOM     20  H   UNL     1       0.145  -0.725  -0.445  1.00  0.00     0.345 HD
ATOM     21  H   UNL     1       0.527   0.060   0.974  1.00  0.00     0.345 HD
ENDBRANCH  17  18
BRANCH  17  22
ATOM     22  C   UNL     1       1.217   1.454  -2.079  1.00  0.00     0.113 C 
BRANCH  22  23
ATOM     23  C   UNL     1       1.087   0.327  -3.074  1.00  0.00    -0.016 A 
ATOM     24  C   UNL     1       1.671  -0.927  -3.000  1.00  0.00     0.087 A 
ATOM     25  C   UNL     1       0.373   0.362  -4.320  1.00  0.00     0.003 A 
ATOM     26  N   UNL     1       1.278  -1.662  -4.088  1.00  0.00    -0.361 N 
ATOM     27  C   UNL     1       0.444  -0.914  -4.882  1.00  0.00     0.046 A 
ATOM     28  C   UNL     1      -0.354   1.353  -5.010  1.00  0.00     0.010 A 
ATOM     29  H   UNL     1       1.552  -2.589  -4.272  1.00  0.00     0.166 HD
ATOM     30  C   UNL     1      -0.226  -1.266  -6.059  1.00  0.00     0.026 A 
ATOM     31  C   UNL     1      -1.001   1.028  -6.208  1.00  0.00     0.001 A 
ATOM     32  C   UNL     1      -0.952  -0.269  -6.713  1.00  0.00     0.002 A 
ENDBRANCH  22  23
ENDBRANCH  17  22
ENDBRANCH  14  17
ENDBRANCH  12  13
BRANCH  12  33
ATOM     33  C   UNL     1      -2.227  -1.538  -0.906  1.00  0.00     0.101 C 
BRANCH  33  34
ATOM     34  S   UNL     1      -3.626  -1.707   0.238  1.00  0.00    -0.177 SA
ATOM     35  H   UNL     1      -3.491  -0.814   1.254  1.00  0.00     0.102 HD
ENDBRANCH  33  34
ENDBRANCH  12  33
ENDBRANCH   9  12
ENDBRANCH   7   8
BRANCH   7  36
ATOM     36  C   UNL     1      -6.143   0.491  -3.210  1.00  0.00     0.193 C 
BRANCH  36  37
ATOM     37  O   UNL     1      -5.831   0.706  -4.590  1.00  0.00    -0.394 OA
ATOM     38  H   UNL     1      -4.874   0.834  -4.690  1.00  0.00     0.210 HD
ENDBRANCH  36  37
ENDBRANCH   7  36
ENDBRANCH   5   7
ENDBRANCH   4   5
ENDBRANCH   3   4
ENDBRANCH   2   3
ENDBRANCH   1   2
BRANCH   1  39
ATOM     39  C   UNL     1      -3.584  -4.689  -3.339  1.00  0.00     0.188 C 
BRANCH  39  40
ATOM     40  C   UNL     1      -2.768  -3.837  -4.332  1.00  0.00     0.188 C 
BRANCH  40  41
ATOM     41  O   UNL     1      -2.914  -4.029  -5.730  1.00  0.00    -0.376 OA
BRANCH  41  42
ATOM     42  C   UNL     1      -2.804  -5.351  -6.240  1.00  0.00     0.202 C 
BRANCH  42  43
ATOM     43  C   UNL     1      -1.490  -6.105  -5.997  1.00  0.00     0.261 C 
BRANCH  43  44
ATOM     44  O   UNL     1      -1.157  -6.276  -4.606  1.00  0.00    -0.460 OA
BRANCH  44  45
ATOM     45  C   UNL     1       0.008  -5.711  -4.215  1.00  0.00     0.338 C 
ATOM     46  O   UNL     1       0.805  -5.089  -4.916  1.00  0.00    -0.246 OA
BRANCH  45  47
ATOM     47  C   UNL     1       0.131  -5.715  -2.748  1.00  0.00     0.060 A 
ATOM     48  C   UNL     1       0.146  -4.469  -2.108  1.00  0.00     0.016 A 
ATOM     49  C   UNL     1       0.358  -6.883  -2.021  1.00  0.00     0.016 A 
ATOM     50  C   UNL     1       0.430  -4.376  -0.752  1.00  0.00     0.010 A 
ATOM     51  C   UNL     1       0.651  -6.788  -0.653  1.00  0.00     0.010 A 
ATOM     52  C   UNL     1       0.718  -5.532  -0.021  1.00  0.00    -0.014 A 
BRANCH  52  53
ATOM     53  C   UNL     1       1.245  -5.385   1.357  1.00  0.00     0.031 A 
ATOM     54  C   UNL     1       2.732  -5.439   1.574  1.00  0.00     0.074 A 
ATOM     55  C   UNL     1       0.424  -5.110   2.386  1.00  0.00     0.049 A 
ATOM     56  N   UNL     1       3.409  -5.393   2.690  1.00  0.00    -0.248 NA
ATOM     57  C   UNL     1       3.567  -5.540   0.365  1.00  0.00     0.031 C 
ATOM     58  C   UNL     1      -1.022  -4.918   2.287  1.00  0.00     0.029 A 
ATOM     59  N   UNL     1       0.696  -4.938   3.720  1.00  0.00    -0.354 N 
ATOM     60  C   UNL     1       4.747  -5.479   2.325  1.00  0.00     0.074 A 
ATOM     61  C   UNL     1       4.787  -5.580   0.882  1.00  0.00     0.031 C 
ATOM     62  C   UNL     1      -1.513  -4.665   3.513  1.00  0.00     0.029 A 
ATOM     63  C   UNL     1      -0.424  -4.724   4.487  1.00  0.00     0.049 A 
ATOM     64  H   UNL     1       1.607  -4.965   4.092  1.00  0.00     0.167 HD
ATOM     65  C   UNL     1       5.842  -5.480   3.122  1.00  0.00     0.037 A 
ATOM     66  C   UNL     1      -0.557  -4.627   5.825  1.00  0.00     0.037 A 
ATOM     67  C   UNL     1       5.799  -5.385   4.556  1.00  0.00     0.049 A 
ATOM     68  C   UNL     1       0.666  -4.739   6.700  1.00  0.00     0.074 A 
ATOM     69  C   UNL     1       6.851  -5.418   5.454  1.00  0.00     0.029 A 
ATOM     70  N   UNL     1       4.640  -5.240   5.304  1.00  0.00    -0.354 N 
ATOM     71  N   UNL     1       1.923  -4.876   6.348  1.00  0.00    -0.248 NA
ATOM     72  C   UNL     1       0.451  -4.700   8.154  1.00  0.00     0.031 C 
ATOM     73  C   UNL     1       6.325  -5.332   6.748  1.00  0.00     0.029 A 
ATOM     74  C   UNL     1       4.949  -5.201   6.653  1.00  0.00     0.049 A 
ATOM     75  H   UNL     1       3.731  -5.174   4.931  1.00  0.00     0.167 HD
ATOM     76  C   UNL     1       2.648  -4.917   7.535  1.00  0.00     0.074 A 
ATOM     77  C   UNL     1       1.692  -4.781   8.614  1.00  0.00     0.031 C 
ATOM     78  C   UNL     1       3.985  -5.056   7.715  1.00  0.00     0.037 A 
BRANCH  65  79
ATOM     79  C   UNL     1       7.176  -5.649   2.454  1.00  0.00     0.058 A 
ATOM     80  C   UNL     1       7.782  -4.607   1.736  1.00  0.00     0.135 A 
ATOM     81  C   UNL     1       7.857  -6.873   2.540  1.00  0.00     0.135 A 
ATOM     82  F   UNL     1       7.160  -3.425   1.603  1.00  0.00    -0.206 F 
ATOM     83  C   UNL     1       9.008  -4.783   1.102  1.00  0.00     0.059 A 
ATOM     84  C   UNL     1       9.094  -7.064   1.933  1.00  0.00     0.059 A 
ATOM     85  F   UNL     1       7.315  -7.903   3.209  1.00  0.00    -0.206 F 
ATOM     86  C   UNL     1       9.653  -6.017   1.202  1.00  0.00     0.060 A 
BRANCH  86  87
ATOM     87  S   UNL     1      11.233  -6.240   0.358  1.00  0.00     0.124 S 
ATOM     88  O   UNL     1      10.804  -6.349  -1.033  1.00  0.00    -0.237 OA
ATOM     89  O   UNL     1      11.949  -5.017   0.706  1.00  0.00    -0.237 OA
ATOM     90  O   UNL     1      11.764  -7.464   0.949  1.00  0.00    -0.744 OA
ENDBRANCH  86  87
ENDBRANCH  65  79
BRANCH  66  91
ATOM     91  C   UNL     1      -1.907  -4.467   6.431  1.00  0.00     0.058 A 
ATOM     92  C   UNL     1      -2.276  -3.283   7.085  1.00  0.00     0.135 A 
ATOM     93  C   UNL     1      -2.846  -5.509   6.386  1.00  0.00     0.135 A 
ATOM     94  F   UNL     1      -1.407  -2.264   7.170  1.00  0.00    -0.206 F 
ATOM     95  C   UNL     1      -3.523  -3.142   7.686  1.00  0.00     0.059 A 
ATOM     96  C   UNL     1      -4.108  -5.383   6.957  1.00  0.00     0.059 A 
ATOM     97  F   UNL     1      -2.543  -6.662   5.768  1.00  0.00    -0.206 F 
ATOM     98  C   UNL     1      -4.433  -4.199   7.616  1.00  0.00     0.060 A 
BRANCH  98  99
ATOM     99  S   UNL     1      -6.063  -3.998   8.368  1.00  0.00     0.124 S 
ATOM    100  O   UNL     1      -5.751  -4.140   9.785  1.00  0.00    -0.237 OA
ATOM    101  O   UNL     1      -6.442  -2.659   7.928  1.00  0.00    -0.237 OA
ATOM    102  O   UNL     1      -6.838  -5.086   7.779  1.00  0.00    -0.744 OA
ENDBRANCH  98  99
ENDBRANCH  66  91
BRANCH  78 103
ATOM    103  C   UNL     1       4.503  -5.037   9.127  1.00  0.00     0.058 A 
ATOM    104  C   UNL     1       4.343  -6.136   9.985  1.00  0.00     0.135 A 
ATOM    105  C   UNL     1       5.226  -3.932   9.604  1.00  0.00     0.135 A 
ATOM    106  F   UNL     1       3.656  -7.215   9.579  1.00  0.00    -0.206 F 
ATOM    107  C   UNL     1       4.867  -6.133  11.274  1.00  0.00     0.059 A 
ATOM    108  C   UNL     1       5.779  -3.916  10.880  1.00  0.00     0.059 A 
ATOM    109  F   UNL     1       5.417  -2.860   8.818  1.00  0.00    -0.206 F 
ATOM    110  C   UNL     1       5.586  -5.019  11.712  1.00  0.00     0.060 A 
BRANCH 110 111
ATOM    111  S   UNL     1       6.302  -5.044  13.370  1.00  0.00     0.124 S 
ATOM    112  O   UNL     1       5.126  -4.809  14.201  1.00  0.00    -0.237 OA
ATOM    113  O   UNL     1       6.874  -6.385  13.445  1.00  0.00    -0.237 OA
ATOM    114  O   UNL     1       7.275  -3.956  13.335  1.00  0.00    -0.744 OA
ENDBRANCH 110 111
ENDBRANCH  78 103
ENDBRANCH  52  53
ENDBRANCH  45  47
ENDBRANCH  44  45
ENDBRANCH  43  44
ENDBRANCH  42  43
ENDBRANCH  41  42
ENDBRANCH  40  41
ENDBRANCH  39  40
ENDBRANCH   1  39
TORSDOF 31
