REMARK SMILES O=C(OCCOCCOCCOC(=O)c1ccc(-c2c3nc(c(-c4c(F)cc(S(=O)(=O)[O-])cc4F)c4ccc([nH]4)c(-c4c(F)cc(S(=O)(=O)[O-])cc4F)c4nc(c(-c5c(F)cc(S(=O)(=O)[O-])cc5F)c5ccc2[nH]5)C=C4)C=C3)cc1)C1=Cc2c(cc(Cl)c(Cl)c2Cl)O[C@H]1C(F)(F)F
REMARK SMILES IDX 8 1 7 2 6 3 5 4 4 5 3 6 2 7 1 8 81 9 82 10 93 11 83 12 92 13
REMARK SMILES IDX 84 14 90 15 85 16 88 17 91 18 86 19 89 20 87 21 94 22 95 23
REMARK SMILES IDX 96 24 97 25 9 26 10 27 11 28 12 29 13 30 14 31 15 32 16 33
REMARK SMILES IDX 80 34 17 35 79 36 18 37 19 38 20 39 73 40 21 41 78 42 72 43
REMARK SMILES IDX 74 44 22 45 77 46 71 47 70 48 23 50 57 51 36 52 56 53 37 54
REMARK SMILES IDX 40 55 55 56 75 57 38 58 39 59 54 61 76 62 41 63 24 64 25 65
REMARK SMILES IDX 34 66 26 67 27 68 33 69 35 70 28 71 29 72 30 73 31 74 32 75
REMARK SMILES IDX 58 76 59 77 68 78 60 79 61 80 67 81 69 82 62 83 63 84 64 85
REMARK SMILES IDX 65 86 66 87 42 88 43 89 52 90 44 91 45 92 51 93 53 94 46 95
REMARK SMILES IDX 47 96 48 97 49 98 50 99
REMARK H PARENT 74 49 40 60
REMARK Flexibility Score: inf
ROOT
ATOM      1  C   UNL     1       0.948  -0.562   4.155  1.00  0.00     0.188 C 
ENDROOT
BRANCH   1   2
ATOM      2  C   UNL     1       0.848  -0.425   2.630  1.00  0.00     0.188 C 
BRANCH   2   3
ATOM      3  O   UNL     1       2.105  -0.158   2.019  1.00  0.00    -0.376 OA
BRANCH   3   4
ATOM      4  C   UNL     1       2.204   1.189   1.562  1.00  0.00     0.202 C 
BRANCH   4   5
ATOM      5  C   UNL     1       2.009   1.282   0.045  1.00  0.00     0.261 C 
BRANCH   5   6
ATOM      6  O   UNL     1       1.823  -0.013  -0.573  1.00  0.00    -0.460 OA
BRANCH   6   7
ATOM      7  C   UNL     1       2.681  -0.798  -1.258  1.00  0.00     0.338 C 
ATOM      8  O   UNL     1       2.219  -1.649  -2.010  1.00  0.00    -0.246 OA
BRANCH   7   9
ATOM      9  C   UNL     1       4.154  -0.616  -1.226  1.00  0.00     0.087 C 
ATOM     10  C   UNL     1       4.800   0.122  -0.320  1.00  0.00     0.029 C 
ATOM     11  C   UNL     1       4.936  -1.414  -2.264  1.00  0.00     0.316 C 
ATOM     12  C   UNL     1       6.196   0.491  -0.506  1.00  0.00     0.038 A 
ATOM     13  O   UNL     1       6.348  -1.049  -2.380  1.00  0.00    -0.475 OA
ATOM     14  C   UNL     1       6.901  -0.148  -1.520  1.00  0.00     0.131 A 
ATOM     15  C   UNL     1       6.824   1.523   0.232  1.00  0.00     0.072 A 
ATOM     16  C   UNL     1       8.242   0.163  -1.745  1.00  0.00     0.069 A 
ATOM     17  C   UNL     1       8.165   1.864  -0.018  1.00  0.00     0.079 A 
ATOM     18  Cl  UNL     1       5.909   2.446   1.396  1.00  0.00    -0.082 Cl
ATOM     19  C   UNL     1       8.874   1.159  -0.997  1.00  0.00     0.064 A 
ATOM     20  Cl  UNL     1       8.927   3.166   0.850  1.00  0.00    -0.081 Cl
ATOM     21  Cl  UNL     1      10.531   1.499  -1.363  1.00  0.00    -0.083 Cl
BRANCH  11  22
ATOM     22  C   UNL     1       4.870  -2.945  -2.002  1.00  0.00     0.430 C 
ATOM     23  F   UNL     1       4.881  -3.218  -0.673  1.00  0.00    -0.167 F 
ATOM     24  F   UNL     1       3.784  -3.534  -2.538  1.00  0.00    -0.167 F 
ATOM     25  F   UNL     1       5.948  -3.575  -2.535  1.00  0.00    -0.167 F 
ENDBRANCH  11  22
ENDBRANCH   7   9
ENDBRANCH   6   7
ENDBRANCH   5   6
ENDBRANCH   4   5
ENDBRANCH   3   4
ENDBRANCH   2   3
ENDBRANCH   1   2
BRANCH   1  26
ATOM     26  O   UNL     1       1.801   0.364   4.825  1.00  0.00    -0.376 OA
BRANCH  26  27
ATOM     27  C   UNL     1       3.217   0.168   4.713  1.00  0.00     0.202 C 
BRANCH  27  28
ATOM     28  C   UNL     1       3.788  -1.193   5.122  1.00  0.00     0.261 C 
BRANCH  28  29
ATOM     29  O   UNL     1       3.498  -2.212   4.147  1.00  0.00    -0.460 OA
BRANCH  29  30
ATOM     30  C   UNL     1       2.968  -3.345   4.663  1.00  0.00     0.338 C 
ATOM     31  O   UNL     1       2.710  -3.578   5.831  1.00  0.00    -0.246 OA
BRANCH  30  32
ATOM     32  C   UNL     1       2.689  -4.315   3.598  1.00  0.00     0.060 A 
ATOM     33  C   UNL     1       1.450  -4.295   2.947  1.00  0.00     0.016 A 
ATOM     34  C   UNL     1       3.569  -5.385   3.439  1.00  0.00     0.016 A 
ATOM     35  C   UNL     1       1.058  -5.388   2.177  1.00  0.00     0.010 A 
ATOM     36  C   UNL     1       3.175  -6.478   2.672  1.00  0.00     0.010 A 
ATOM     37  C   UNL     1       1.897  -6.505   2.091  1.00  0.00    -0.014 A 
BRANCH  37  38
ATOM     38  C   UNL     1       1.366  -7.799   1.609  1.00  0.00     0.031 A 
ATOM     39  C   UNL     1       0.840  -8.771   2.628  1.00  0.00     0.074 A 
ATOM     40  C   UNL     1       1.397  -8.109   0.303  1.00  0.00     0.049 A 
ATOM     41  N   UNL     1       0.464 -10.013   2.477  1.00  0.00    -0.248 NA
ATOM     42  C   UNL     1       0.730  -8.274   4.011  1.00  0.00     0.031 C 
ATOM     43  C   UNL     1       1.845  -7.218  -0.765  1.00  0.00     0.029 A 
ATOM     44  N   UNL     1       1.070  -9.275  -0.338  1.00  0.00    -0.354 N 
ATOM     45  C   UNL     1       0.090 -10.451   3.742  1.00  0.00     0.074 A 
ATOM     46  C   UNL     1       0.294  -9.347   4.654  1.00  0.00     0.031 C 
ATOM     47  C   UNL     1       1.796  -7.884  -1.932  1.00  0.00     0.029 A 
ATOM     48  C   UNL     1       1.351  -9.254  -1.682  1.00  0.00     0.049 A 
ATOM     49  H   UNL     1       0.674 -10.051   0.120  1.00  0.00     0.167 HD
ATOM     50  C   UNL     1      -0.375 -11.668   4.109  1.00  0.00     0.037 A 
ATOM     51  C   UNL     1       1.288 -10.243  -2.594  1.00  0.00     0.037 A 
ATOM     52  C   UNL     1      -0.552 -12.760   3.190  1.00  0.00     0.049 A 
ATOM     53  C   UNL     1       0.822 -11.608  -2.157  1.00  0.00     0.074 A 
ATOM     54  C   UNL     1      -1.010 -14.040   3.446  1.00  0.00     0.029 A 
ATOM     55  N   UNL     1      -0.266 -12.699   1.833  1.00  0.00    -0.354 N 
ATOM     56  N   UNL     1       0.467 -12.014  -0.960  1.00  0.00    -0.248 NA
ATOM     57  C   UNL     1       0.748 -12.648  -3.191  1.00  0.00     0.031 C 
ATOM     58  C   UNL     1      -0.965 -14.764   2.249  1.00  0.00     0.029 A 
ATOM     59  C   UNL     1      -0.523 -13.922   1.239  1.00  0.00     0.049 A 
ATOM     60  H   UNL     1       0.070 -11.902   1.362  1.00  0.00     0.167 HD
ATOM     61  C   UNL     1       0.099 -13.348  -1.101  1.00  0.00     0.074 A 
ATOM     62  C   UNL     1       0.276 -13.680  -2.502  1.00  0.00     0.031 C 
ATOM     63  C   UNL     1      -0.349 -14.218  -0.162  1.00  0.00     0.037 A 
BRANCH  50  64
ATOM     64  C   UNL     1      -0.677 -11.881   5.566  1.00  0.00     0.058 A 
ATOM     65  C   UNL     1      -1.787 -11.285   6.187  1.00  0.00     0.135 A 
ATOM     66  C   UNL     1       0.162 -12.681   6.357  1.00  0.00     0.135 A 
ATOM     67  F   UNL     1      -2.611 -10.494   5.482  1.00  0.00    -0.206 F 
ATOM     68  C   UNL     1      -2.035 -11.447   7.547  1.00  0.00     0.059 A 
ATOM     69  C   UNL     1      -0.079 -12.876   7.715  1.00  0.00     0.059 A 
ATOM     70  F   UNL     1       1.240 -13.271   5.817  1.00  0.00    -0.206 F 
ATOM     71  C   UNL     1      -1.170 -12.239   8.304  1.00  0.00     0.060 A 
BRANCH  71  72
ATOM     72  S   UNL     1      -1.489 -12.424  10.072  1.00  0.00     0.124 S 
ATOM     73  O   UNL     1      -1.042 -11.133  10.585  1.00  0.00    -0.237 OA
ATOM     74  O   UNL     1      -2.929 -12.656  10.110  1.00  0.00    -0.237 OA
ATOM     75  O   UNL     1      -0.664 -13.568  10.448  1.00  0.00    -0.744 OA
ENDBRANCH  71  72
ENDBRANCH  50  64
BRANCH  51  76
ATOM     76  C   UNL     1       1.689  -9.973  -3.998  1.00  0.00     0.058 A 
ATOM     77  C   UNL     1       0.733  -9.892  -5.020  1.00  0.00     0.135 A 
ATOM     78  C   UNL     1       3.032  -9.748  -4.339  1.00  0.00     0.135 A 
ATOM     79  F   UNL     1      -0.562 -10.109  -4.746  1.00  0.00    -0.206 F 
ATOM     80  C   UNL     1       1.093  -9.598  -6.332  1.00  0.00     0.059 A 
ATOM     81  C   UNL     1       3.414  -9.431  -5.639  1.00  0.00     0.059 A 
ATOM     82  F   UNL     1       3.985  -9.806  -3.395  1.00  0.00    -0.206 F 
ATOM     83  C   UNL     1       2.436  -9.363  -6.631  1.00  0.00     0.060 A 
BRANCH  83  84
ATOM     84  S   UNL     1       2.883  -8.914  -8.323  1.00  0.00     0.124 S 
ATOM     85  O   UNL     1       2.760 -10.195  -9.009  1.00  0.00    -0.237 OA
ATOM     86  O   UNL     1       1.874  -7.913  -8.654  1.00  0.00    -0.237 OA
ATOM     87  O   UNL     1       4.243  -8.400  -8.186  1.00  0.00    -0.744 OA
ENDBRANCH  83  84
ENDBRANCH  51  76
BRANCH  63  88
ATOM     88  C   UNL     1      -0.724 -15.598  -0.621  1.00  0.00     0.058 A 
ATOM     89  C   UNL     1       0.246 -16.566  -0.920  1.00  0.00     0.135 A 
ATOM     90  C   UNL     1      -2.075 -15.977  -0.683  1.00  0.00     0.135 A 
ATOM     91  F   UNL     1       1.550 -16.250  -0.879  1.00  0.00    -0.206 F 
ATOM     92  C   UNL     1      -0.110 -17.862  -1.277  1.00  0.00     0.059 A 
ATOM     93  C   UNL     1      -2.453 -17.273  -1.017  1.00  0.00     0.059 A 
ATOM     94  F   UNL     1      -3.040 -15.090  -0.395  1.00  0.00    -0.206 F 
ATOM     95  C   UNL     1      -1.463 -18.207  -1.319  1.00  0.00     0.060 A 
BRANCH  95  96
ATOM     96  S   UNL     1      -1.913 -19.906  -1.733  1.00  0.00     0.124 S 
ATOM     97  O   UNL     1      -1.704 -19.921  -3.177  1.00  0.00    -0.237 OA
ATOM     98  O   UNL     1      -0.962 -20.684  -0.946  1.00  0.00    -0.237 OA
ATOM     99  O   UNL     1      -3.304 -20.003  -1.298  1.00  0.00    -0.744 OA
ENDBRANCH  95  96
ENDBRANCH  63  88
ENDBRANCH  37  38
ENDBRANCH  30  32
ENDBRANCH  29  30
ENDBRANCH  28  29
ENDBRANCH  27  28
ENDBRANCH  26  27
ENDBRANCH   1  26
TORSDOF 21
