REMARK SMILES CSc1nc(O)nc(C)c1C(=O)N1C[C@@H](O)C[C@@H]1C(=O)OCCOCCOCCOC(=O)c1ccc(-c2c3nc(c(-c4c(F)cc(S(=O)(=O)[O-])cc4F)c4ccc([nH]4)c(-c4c(F)cc(S(=O)(=O)[O-])cc4F)c4nc(c(-c5c(F)cc(S(=O)(=O)[O-])cc5F)c5ccc2[nH]5)C=C4)C=C3)cc1
REMARK SMILES IDX 25 1 24 2 23 3 22 4 21 5 19 6 20 7 18 8 13 9 14 10 15 11
REMARK SMILES IDX 17 12 11 13 12 14 10 15 3 16 4 17 5 18 8 19 7 20 9 21 2 22
REMARK SMILES IDX 1 23 6 24 16 26 26 28 27 29 28 30 29 31 30 32 31 33 32 34
REMARK SMILES IDX 33 35 34 36 98 37 35 38 97 39 36 40 37 41 38 42 91 43 39 44
REMARK SMILES IDX 96 45 90 46 92 47 40 48 95 49 89 50 88 51 41 53 75 54 54 55
REMARK SMILES IDX 74 56 55 57 58 58 73 59 93 60 56 61 57 62 72 64 94 65 59 66
REMARK SMILES IDX 42 67 43 68 52 69 44 70 45 71 51 72 53 73 46 74 47 75 48 76
REMARK SMILES IDX 49 77 50 78 76 79 77 80 86 81 78 82 79 83 85 84 87 85 80 86
REMARK SMILES IDX 81 87 82 88 83 89 84 90 60 91 61 92 70 93 62 94 63 95 69 96
REMARK SMILES IDX 71 97 64 98 65 99 66 100 67 101 68 102
REMARK H PARENT 6 25 16 27 92 52 58 63
REMARK Flexibility Score: inf
ROOT
ATOM      1  C   UNL     1       2.545  -1.611   4.217  1.00  0.00     0.188 C 
ENDROOT
BRANCH   1   2
ATOM      2  O   UNL     1       3.526  -2.466   4.783  1.00  0.00    -0.376 OA
BRANCH   2   3
ATOM      3  C   UNL     1       3.323  -3.874   4.720  1.00  0.00     0.202 C 
BRANCH   3   4
ATOM      4  C   UNL     1       1.969  -4.410   5.188  1.00  0.00     0.261 C 
BRANCH   4   5
ATOM      5  O   UNL     1       0.905  -4.057   4.277  1.00  0.00    -0.462 OA
BRANCH   5   6
ATOM      6  C   UNL     1      -0.281  -3.787   4.876  1.00  0.00     0.329 C 
ATOM      7  O   UNL     1      -0.490  -3.938   6.078  1.00  0.00    -0.250 OA
BRANCH   6   8
ATOM      8  C   UNL     1      -1.355  -3.196   3.952  1.00  0.00     0.198 C 
ATOM      9  N   UNL     1      -1.263  -2.990   2.484  1.00  0.00    -0.322 N 
ATOM     10  C   UNL     1      -2.281  -1.980   2.223  1.00  0.00     0.152 C 
ATOM     11  C   UNL     1      -1.939  -0.921   3.246  1.00  0.00     0.136 C 
ATOM     12  C   UNL     1      -1.679  -1.769   4.490  1.00  0.00     0.071 C 
BRANCH   9  13
ATOM     13  C   UNL     1      -1.198  -4.065   1.603  1.00  0.00     0.259 C 
ATOM     14  O   UNL     1      -1.932  -5.038   1.752  1.00  0.00    -0.269 OA
BRANCH  13  15
ATOM     15  C   UNL     1      -0.104  -4.089   0.564  1.00  0.00     0.093 A 
ATOM     16  C   UNL     1       0.285  -3.048  -0.289  1.00  0.00     0.116 A 
ATOM     17  N   UNL     1       1.299  -3.163  -1.181  1.00  0.00    -0.188 NA
ATOM     18  C   UNL     1       1.908  -4.331  -1.240  1.00  0.00     0.315 A 
ATOM     19  C   UNL     1       0.603  -5.285   0.361  1.00  0.00     0.058 A 
ATOM     20  N   UNL     1       1.611  -5.419  -0.545  1.00  0.00    -0.200 NA
ATOM     21  C   UNL     1       0.274  -6.573   1.060  1.00  0.00     0.068 C 
BRANCH  16  22
ATOM     22  S   UNL     1      -0.636  -1.549  -0.583  1.00  0.00    -0.109 SA
ATOM     23  C   UNL     1       0.674  -0.325  -0.865  1.00  0.00     0.092 C 
ENDBRANCH  16  22
BRANCH  18  24
ATOM     24  O   UNL     1       2.909  -4.477  -2.144  1.00  0.00    -0.479 OA
ATOM     25  H   UNL     1       3.174  -3.750  -2.672  1.00  0.00     0.297 HD
ENDBRANCH  18  24
ENDBRANCH  13  15
ENDBRANCH   9  13
BRANCH  11  26
ATOM     26  O   UNL     1      -2.939   0.053   3.434  1.00  0.00    -0.391 OA
ATOM     27  H   UNL     1      -3.764  -0.378   3.708  1.00  0.00     0.211 HD
ENDBRANCH  11  26
ENDBRANCH   6   8
ENDBRANCH   5   6
ENDBRANCH   4   5
ENDBRANCH   3   4
ENDBRANCH   2   3
ENDBRANCH   1   2
BRANCH   1  28
ATOM     28  C   UNL     1       2.096  -1.862   2.767  1.00  0.00     0.188 C 
BRANCH  28  29
ATOM     29  O   UNL     1       2.786  -2.800   1.979  1.00  0.00    -0.376 OA
BRANCH  29  30
ATOM     30  C   UNL     1       4.080  -2.515   1.478  1.00  0.00     0.202 C 
BRANCH  30  31
ATOM     31  C   UNL     1       4.726  -1.119   1.416  1.00  0.00     0.261 C 
BRANCH  31  32
ATOM     32  O   UNL     1       4.098  -0.070   2.152  1.00  0.00    -0.460 OA
BRANCH  32  33
ATOM     33  C   UNL     1       3.530   0.913   1.424  1.00  0.00     0.338 C 
ATOM     34  O   UNL     1       3.471   1.001   0.198  1.00  0.00    -0.246 OA
BRANCH  33  35
ATOM     35  C   UNL     1       2.920   1.885   2.336  1.00  0.00     0.060 A 
ATOM     36  C   UNL     1       1.591   1.723   2.752  1.00  0.00     0.016 A 
ATOM     37  C   UNL     1       3.657   3.002   2.725  1.00  0.00     0.016 A 
ATOM     38  C   UNL     1       0.993   2.679   3.567  1.00  0.00     0.010 A 
ATOM     39  C   UNL     1       3.051   3.971   3.523  1.00  0.00     0.010 A 
ATOM     40  C   UNL     1       1.713   3.822   3.929  1.00  0.00    -0.014 A 
BRANCH  40  41
ATOM     41  C   UNL     1       1.029   4.949   4.595  1.00  0.00     0.031 A 
ATOM     42  C   UNL     1       0.490   6.061   3.746  1.00  0.00     0.074 A 
ATOM     43  C   UNL     1       0.907   4.980   5.932  1.00  0.00     0.049 A 
ATOM     44  N   UNL     1      -0.017   7.208   4.111  1.00  0.00    -0.248 NA
ATOM     45  C   UNL     1       0.529   5.850   2.290  1.00  0.00     0.031 C 
ATOM     46  C   UNL     1       1.327   3.917   6.843  1.00  0.00     0.029 A 
ATOM     47  N   UNL     1       0.407   5.955   6.755  1.00  0.00    -0.354 N 
ATOM     48  C   UNL     1      -0.352   7.861   2.932  1.00  0.00     0.074 A 
ATOM     49  C   UNL     1       0.024   6.989   1.839  1.00  0.00     0.031 C 
ATOM     50  C   UNL     1       1.084   4.308   8.106  1.00  0.00     0.029 A 
ATOM     51  C   UNL     1       0.535   5.663   8.090  1.00  0.00     0.049 A 
ATOM     52  H   UNL     1      -0.005   6.784   6.420  1.00  0.00     0.167 HD
ATOM     53  C   UNL     1      -0.919   9.079   2.778  1.00  0.00     0.037 A 
ATOM     54  C   UNL     1       0.274   6.421   9.173  1.00  0.00     0.037 A 
ATOM     55  C   UNL     1      -1.266   9.945   3.873  1.00  0.00     0.049 A 
ATOM     56  C   UNL     1      -0.255   7.818   8.979  1.00  0.00     0.074 A 
ATOM     57  C   UNL     1      -1.828  11.207   3.830  1.00  0.00     0.029 A 
ATOM     58  N   UNL     1      -1.072   9.638   5.213  1.00  0.00    -0.354 N 
ATOM     59  N   UNL     1      -0.545   8.441   7.861  1.00  0.00    -0.248 NA
ATOM     60  C   UNL     1      -0.478   8.619  10.190  1.00  0.00     0.031 C 
ATOM     61  C   UNL     1      -1.933  11.682   5.142  1.00  0.00     0.029 A 
ATOM     62  C   UNL     1      -1.480  10.697   6.006  1.00  0.00     0.049 A 
ATOM     63  H   UNL     1      -0.699   8.791   5.550  1.00  0.00     0.167 HD
ATOM     64  C   UNL     1      -0.999   9.702   8.233  1.00  0.00     0.074 A 
ATOM     65  C   UNL     1      -0.952   9.749   9.681  1.00  0.00     0.031 C 
ATOM     66  C   UNL     1      -1.417  10.726   7.447  1.00  0.00     0.037 A 
BRANCH  53  67
ATOM     67  C   UNL     1      -1.155   9.555   1.373  1.00  0.00     0.058 A 
ATOM     68  C   UNL     1      -2.169   9.009   0.570  1.00  0.00     0.135 A 
ATOM     69  C   UNL     1      -0.355  10.568   0.821  1.00  0.00     0.135 A 
ATOM     70  F   UNL     1      -2.947   8.021   1.042  1.00  0.00    -0.206 F 
ATOM     71  C   UNL     1      -2.363   9.430  -0.742  1.00  0.00     0.059 A 
ATOM     72  C   UNL     1      -0.546  11.021  -0.480  1.00  0.00     0.059 A 
ATOM     73  F   UNL     1       0.633  11.118   1.544  1.00  0.00    -0.206 F 
ATOM     74  C   UNL     1      -1.543  10.435  -1.259  1.00  0.00     0.060 A 
BRANCH  74  75
ATOM     75  S   UNL     1      -1.796  10.959  -2.968  1.00  0.00     0.124 S 
ATOM     76  O   UNL     1      -1.278   9.810  -3.704  1.00  0.00    -0.237 OA
ATOM     77  O   UNL     1      -3.242  11.149  -3.025  1.00  0.00    -0.237 OA
ATOM     78  O   UNL     1      -1.002  12.180  -3.071  1.00  0.00    -0.744 OA
ENDBRANCH  74  75
ENDBRANCH  53  67
BRANCH  54  79
ATOM     79  C   UNL     1       0.527   5.872  10.530  1.00  0.00     0.058 A 
ATOM     80  C   UNL     1      -0.536   5.504  11.366  1.00  0.00     0.135 A 
ATOM     81  C   UNL     1       1.833   5.652  10.995  1.00  0.00     0.135 A 
ATOM     82  F   UNL     1      -1.802   5.709  10.970  1.00  0.00    -0.206 F 
ATOM     83  C   UNL     1      -0.315   4.925  12.611  1.00  0.00     0.059 A 
ATOM     84  C   UNL     1       2.080   5.055  12.227  1.00  0.00     0.059 A 
ATOM     85  F   UNL     1       2.885   5.982  10.228  1.00  0.00    -0.206 F 
ATOM     86  C   UNL     1       0.997   4.692  13.027  1.00  0.00     0.060 A 
BRANCH  86  87
ATOM     87  S   UNL     1       1.266   3.852  14.603  1.00  0.00     0.124 S 
ATOM     88  O   UNL     1       0.866   4.878  15.558  1.00  0.00    -0.237 OA
ATOM     89  O   UNL     1       0.374   2.702  14.490  1.00  0.00    -0.237 OA
ATOM     90  O   UNL     1       2.691   3.535  14.577  1.00  0.00    -0.744 OA
ENDBRANCH  86  87
ENDBRANCH  54  79
BRANCH  66  91
ATOM     91  C   UNL     1      -1.871  11.985   8.131  1.00  0.00     0.058 A 
ATOM     92  C   UNL     1      -0.954  12.889   8.686  1.00  0.00     0.135 A 
ATOM     93  C   UNL     1      -3.232  12.330   8.155  1.00  0.00     0.135 A 
ATOM     94  F   UNL     1       0.358  12.602   8.694  1.00  0.00    -0.206 F 
ATOM     95  C   UNL     1      -1.371  14.090   9.252  1.00  0.00     0.059 A 
ATOM     96  C   UNL     1      -3.670  13.536   8.695  1.00  0.00     0.059 A 
ATOM     97  F   UNL     1      -4.149  11.504   7.628  1.00  0.00    -0.206 F 
ATOM     98  C   UNL     1      -2.731  14.407   9.246  1.00  0.00     0.060 A 
BRANCH  98  99
ATOM     99  S   UNL     1      -3.251  15.992   9.936  1.00  0.00     0.124 S 
ATOM    100  O   UNL     1      -3.076  15.762  11.366  1.00  0.00    -0.237 OA
ATOM    101  O   UNL     1      -2.309  16.923   9.324  1.00  0.00    -0.237 OA
ATOM    102  O   UNL     1      -4.634  16.122   9.486  1.00  0.00    -0.744 OA
ENDBRANCH  98  99
ENDBRANCH  66  91
ENDBRANCH  40  41
ENDBRANCH  33  35
ENDBRANCH  32  33
ENDBRANCH  31  32
ENDBRANCH  30  31
ENDBRANCH  29  30
ENDBRANCH  28  29
ENDBRANCH   1  28
TORSDOF 25
