REMARK SMILES Cc1cc(C(=O)OCCOCCOCCOC(=O)c2ccc(-c3c4nc(c(-c5c(F)cc(S(=O)(=O)[O-])cc5F)c5ccc([nH]5)c(-c5c(F)cc(S(=O)(=O)[O-])cc5F)c5nc(c(-c6c(F)cc(S(=O)(=O)[O-])cc6F)c6ccc3[nH]6)C=C5)C=C4)cc2)c2c(C)nn(-c3ccccc3)c2n1
REMARK SMILES IDX 12 1 11 2 10 3 9 4 8 5 7 6 5 7 6 8 4 9 1 10 2 11 3 12 97 13
REMARK SMILES IDX 96 14 85 15 89 16 86 17 88 18 87 19 90 20 91 21 95 22 92 23
REMARK SMILES IDX 94 24 93 25 13 26 14 27 15 28 16 29 17 30 18 31 19 32 20 33
REMARK SMILES IDX 84 34 21 35 83 36 22 37 23 38 24 39 77 40 25 41 82 42 76 43
REMARK SMILES IDX 78 44 26 45 81 46 75 47 74 48 27 50 61 51 40 52 60 53 41 54
REMARK SMILES IDX 44 55 59 56 79 57 42 58 43 59 58 61 80 62 45 63 28 64 29 65
REMARK SMILES IDX 38 66 30 67 31 68 37 69 39 70 32 71 33 72 34 73 35 74 36 75
REMARK SMILES IDX 62 76 63 77 72 78 64 79 65 80 71 81 73 82 66 83 67 84 68 85
REMARK SMILES IDX 69 86 70 87 46 88 47 89 56 90 48 91 49 92 55 93 57 94 50 95
REMARK SMILES IDX 51 96 52 97 53 98 54 99
REMARK H PARENT 78 49 44 60
REMARK Flexibility Score: inf
ROOT
ATOM      1  C   UNL     1       1.379  -2.252   4.857  1.00  0.00     0.188 C 
ENDROOT
BRANCH   1   2
ATOM      2  C   UNL     1       0.390  -2.168   6.033  1.00  0.00     0.188 C 
BRANCH   2   3
ATOM      3  O   UNL     1      -0.059  -3.416   6.509  1.00  0.00    -0.376 OA
BRANCH   3   4
ATOM      4  C   UNL     1      -1.232  -4.003   5.975  1.00  0.00     0.202 C 
BRANCH   4   5
ATOM      5  C   UNL     1      -1.824  -3.703   4.581  1.00  0.00     0.261 C 
BRANCH   5   6
ATOM      6  O   UNL     1      -1.307  -2.583   3.863  1.00  0.00    -0.460 OA
BRANCH   6   7
ATOM      7  C   UNL     1      -2.031  -1.436   3.882  1.00  0.00     0.339 C 
ATOM      8  O   UNL     1      -3.098  -1.252   4.415  1.00  0.00    -0.246 OA
BRANCH   7   9
ATOM      9  C   UNL     1      -1.238  -0.393   3.204  1.00  0.00     0.074 A 
ATOM     10  C   UNL     1       0.787   0.078   0.032  1.00  0.00     0.067 C 
ATOM     11  C   UNL     1       0.049   0.360   1.310  1.00  0.00     0.041 A 
ATOM     12  C   UNL     1      -0.680  -0.641   1.940  1.00  0.00     0.040 A 
ATOM     13  N   UNL     1       0.206   1.601   1.813  1.00  0.00    -0.233 NA
ATOM     14  C   UNL     1      -0.279   1.773   3.063  1.00  0.00     0.164 A 
ATOM     15  C   UNL     1      -0.956   0.833   3.834  1.00  0.00     0.057 A 
ATOM     16  N   UNL     1      -0.158   2.905   3.848  1.00  0.00    -0.214 N 
ATOM     17  C   UNL     1      -1.089   1.459   5.108  1.00  0.00     0.070 A 
ATOM     18  N   UNL     1      -0.502   2.664   5.137  1.00  0.00    -0.171 NA
ATOM     19  C   UNL     1      -1.678   0.962   6.378  1.00  0.00     0.069 C 
BRANCH  16  20
ATOM     20  C   UNL     1       0.153   4.219   3.434  1.00  0.00     0.067 A 
ATOM     21  C   UNL     1      -0.400   4.715   2.247  1.00  0.00     0.028 A 
ATOM     22  C   UNL     1       0.931   5.041   4.256  1.00  0.00     0.028 A 
ATOM     23  C   UNL     1      -0.200   6.052   1.904  1.00  0.00     0.002 A 
ATOM     24  C   UNL     1       1.177   6.359   3.871  1.00  0.00     0.002 A 
ATOM     25  C   UNL     1       0.596   6.869   2.708  1.00  0.00     0.000 A 
ENDBRANCH  16  20
ENDBRANCH   7   9
ENDBRANCH   6   7
ENDBRANCH   5   6
ENDBRANCH   4   5
ENDBRANCH   3   4
ENDBRANCH   2   3
ENDBRANCH   1   2
BRANCH   1  26
ATOM     26  O   UNL     1       1.539  -3.471   4.151  1.00  0.00    -0.376 OA
BRANCH  26  27
ATOM     27  C   UNL     1       1.910  -4.687   4.784  1.00  0.00     0.202 C 
BRANCH  27  28
ATOM     28  C   UNL     1       2.747  -4.818   6.059  1.00  0.00     0.261 C 
BRANCH  28  29
ATOM     29  O   UNL     1       2.690  -3.740   6.968  1.00  0.00    -0.460 OA
BRANCH  29  30
ATOM     30  C   UNL     1       3.672  -2.841   6.763  1.00  0.00     0.338 C 
ATOM     31  O   UNL     1       4.426  -2.777   5.807  1.00  0.00    -0.246 OA
BRANCH  30  32
ATOM     32  C   UNL     1       3.752  -1.955   7.919  1.00  0.00     0.060 A 
ATOM     33  C   UNL     1       4.409  -0.740   7.725  1.00  0.00     0.016 A 
ATOM     34  C   UNL     1       3.511  -2.496   9.190  1.00  0.00     0.016 A 
ATOM     35  C   UNL     1       5.057  -0.187   8.802  1.00  0.00     0.010 A 
ATOM     36  C   UNL     1       4.178  -1.954  10.259  1.00  0.00     0.010 A 
ATOM     37  C   UNL     1       5.019  -0.869  10.024  1.00  0.00    -0.014 A 
BRANCH  37  38
ATOM     38  C   UNL     1       5.920  -0.415  11.056  1.00  0.00     0.031 A 
ATOM     39  C   UNL     1       5.412   0.742  11.804  1.00  0.00     0.074 A 
ATOM     40  C   UNL     1       7.084  -1.038  11.319  1.00  0.00     0.049 A 
ATOM     41  N   UNL     1       5.806   1.967  11.718  1.00  0.00    -0.248 NA
ATOM     42  C   UNL     1       4.212   0.542  12.630  1.00  0.00     0.031 C 
ATOM     43  C   UNL     1       7.505  -2.363  10.851  1.00  0.00     0.029 A 
ATOM     44  N   UNL     1       8.098  -0.660  12.146  1.00  0.00    -0.354 N 
ATOM     45  C   UNL     1       5.076   2.640  12.686  1.00  0.00     0.074 A 
ATOM     46  C   UNL     1       3.974   1.786  13.045  1.00  0.00     0.031 C 
ATOM     47  C   UNL     1       8.576  -2.765  11.571  1.00  0.00     0.029 A 
ATOM     48  C   UNL     1       9.001  -1.674  12.433  1.00  0.00     0.049 A 
ATOM     49  H   UNL     1       8.184   0.252  12.507  1.00  0.00     0.167 HD
ATOM     50  C   UNL     1       5.622   3.687  13.358  1.00  0.00     0.037 A 
ATOM     51  C   UNL     1       9.987  -1.628  13.360  1.00  0.00     0.037 A 
ATOM     52  C   UNL     1       6.820   4.168  12.724  1.00  0.00     0.049 A 
ATOM     53  C   UNL     1      10.319  -0.201  13.601  1.00  0.00     0.074 A 
ATOM     54  C   UNL     1       7.138   4.998  11.672  1.00  0.00     0.029 A 
ATOM     55  N   UNL     1       7.944   3.449  13.030  1.00  0.00    -0.354 N 
ATOM     56  N   UNL     1      10.844   0.584  12.699  1.00  0.00    -0.248 NA
ATOM     57  C   UNL     1       9.783   0.475  14.780  1.00  0.00     0.031 C 
ATOM     58  C   UNL     1       8.473   4.673  11.285  1.00  0.00     0.029 A 
ATOM     59  C   UNL     1       8.943   3.659  12.114  1.00  0.00     0.049 A 
ATOM     60  H   UNL     1       8.025   2.855  13.810  1.00  0.00     0.167 HD
ATOM     61  C   UNL     1      10.343   1.834  13.001  1.00  0.00     0.074 A 
ATOM     62  C   UNL     1       9.852   1.743  14.367  1.00  0.00     0.031 C 
ATOM     63  C   UNL     1      10.051   2.733  12.021  1.00  0.00     0.037 A 
BRANCH  50  64
ATOM     64  C   UNL     1       5.345   3.963  14.812  1.00  0.00     0.058 A 
ATOM     65  C   UNL     1       5.676   5.216  15.356  1.00  0.00     0.135 A 
ATOM     66  C   UNL     1       5.018   2.952  15.745  1.00  0.00     0.135 A 
ATOM     67  F   UNL     1       6.044   6.230  14.557  1.00  0.00    -0.206 F 
ATOM     68  C   UNL     1       5.696   5.444  16.733  1.00  0.00     0.059 A 
ATOM     69  C   UNL     1       4.969   3.173  17.114  1.00  0.00     0.059 A 
ATOM     70  F   UNL     1       4.827   1.678  15.376  1.00  0.00    -0.206 F 
ATOM     71  C   UNL     1       5.341   4.414  17.603  1.00  0.00     0.060 A 
BRANCH  71  72
ATOM     72  S   UNL     1       5.418   4.687  19.381  1.00  0.00     0.124 S 
ATOM     73  O   UNL     1       6.857   4.750  19.605  1.00  0.00    -0.237 OA
ATOM     74  O   UNL     1       4.691   5.944  19.526  1.00  0.00    -0.237 OA
ATOM     75  O   UNL     1       4.742   3.515  19.929  1.00  0.00    -0.744 OA
ENDBRANCH  71  72
ENDBRANCH  50  64
BRANCH  51  76
ATOM     76  C   UNL     1      10.439  -2.705  14.277  1.00  0.00     0.058 A 
ATOM     77  C   UNL     1      11.596  -2.530  15.058  1.00  0.00     0.135 A 
ATOM     78  C   UNL     1       9.589  -3.765  14.648  1.00  0.00     0.135 A 
ATOM     79  F   UNL     1      12.462  -1.545  14.772  1.00  0.00    -0.206 F 
ATOM     80  C   UNL     1      11.844  -3.293  16.200  1.00  0.00     0.059 A 
ATOM     81  C   UNL     1       9.825  -4.551  15.775  1.00  0.00     0.059 A 
ATOM     82  F   UNL     1       8.447  -4.005  13.988  1.00  0.00    -0.206 F 
ATOM     83  C   UNL     1      10.932  -4.279  16.570  1.00  0.00     0.060 A 
BRANCH  83  84
ATOM     84  S   UNL     1      11.127  -5.099  18.168  1.00  0.00     0.124 S 
ATOM     85  O   UNL     1      12.341  -5.880  17.960  1.00  0.00    -0.237 OA
ATOM     86  O   UNL     1      11.245  -3.965  19.078  1.00  0.00    -0.237 OA
ATOM     87  O   UNL     1       9.898  -5.877  18.301  1.00  0.00    -0.744 OA
ENDBRANCH  83  84
ENDBRANCH  51  76
BRANCH  63  88
ATOM     88  C   UNL     1      10.823   2.645  10.741  1.00  0.00     0.058 A 
ATOM     89  C   UNL     1      10.707   1.609   9.801  1.00  0.00     0.135 A 
ATOM     90  C   UNL     1      11.688   3.706  10.429  1.00  0.00     0.135 A 
ATOM     91  F   UNL     1       9.850   0.595   9.998  1.00  0.00    -0.206 F 
ATOM     92  C   UNL     1      11.444   1.615   8.614  1.00  0.00     0.059 A 
ATOM     93  C   UNL     1      12.410   3.747   9.242  1.00  0.00     0.059 A 
ATOM     94  F   UNL     1      11.813   4.742  11.275  1.00  0.00    -0.206 F 
ATOM     95  C   UNL     1      12.291   2.691   8.342  1.00  0.00     0.060 A 
BRANCH  95  96
ATOM     96  S   UNL     1      13.193   2.733   6.778  1.00  0.00     0.124 S 
ATOM     97  O   UNL     1      14.160   1.654   6.950  1.00  0.00    -0.237 OA
ATOM     98  O   UNL     1      12.137   2.490   5.799  1.00  0.00    -0.237 OA
ATOM     99  O   UNL     1      13.761   4.079   6.746  1.00  0.00    -0.744 OA
ENDBRANCH  95  96
ENDBRANCH  63  88
ENDBRANCH  37  38
ENDBRANCH  30  32
ENDBRANCH  29  30
ENDBRANCH  28  29
ENDBRANCH  27  28
ENDBRANCH  26  27
ENDBRANCH   1  26
TORSDOF 21
