REMARK SMILES O=C(NCc1ccsc1)NC[C@H]1CC[C@@H](C(=O)OCCOCCOCCOC(=O)c2ccc(-c3c4nc(c(-c5c(F)cc(S(=O)(=O)[O-])cc5F)c5ccc([nH]5)c(-c5c(F)cc(S(=O)(=O)[O-])cc5F)c5nc(c(-c6c(F)cc(S(=O)(=O)[O-])cc6F)c6ccc3[nH]6)C=C5)C=C4)cc2)CC1
REMARK SMILES IDX 22 1 21 2 20 3 19 4 18 5 16 6 17 7 15 8 12 9 13 10 97 11
REMARK SMILES IDX 14 12 96 13 11 14 10 15 1 16 2 17 3 18 4 21 5 22 6 23 9 24
REMARK SMILES IDX 7 25 8 26 23 27 24 28 25 29 26 30 27 31 28 32 29 33 30 34
REMARK SMILES IDX 31 35 95 36 32 37 94 38 33 39 34 40 35 41 88 42 36 43 93 44
REMARK SMILES IDX 87 45 89 46 37 47 92 48 86 49 85 50 38 52 72 53 51 54 71 55
REMARK SMILES IDX 52 56 55 57 70 58 90 59 53 60 54 61 69 63 91 64 56 65 39 66
REMARK SMILES IDX 40 67 49 68 41 69 42 70 48 71 50 72 43 73 44 74 45 75 46 76
REMARK SMILES IDX 47 77 73 78 74 79 83 80 75 81 76 82 82 83 84 84 77 85 78 86
REMARK SMILES IDX 79 87 80 88 81 89 57 90 58 91 67 92 59 93 60 94 66 95 68 96
REMARK SMILES IDX 61 97 62 98 63 99 64 100 65 101
REMARK H PARENT 3 19 10 20 89 51 55 62
REMARK Flexibility Score: inf
ROOT
ATOM      1  C   UNL     1      -1.534   1.342   6.689  1.00  0.00     0.188 C 
ENDROOT
BRANCH   1   2
ATOM      2  O   UNL     1      -2.741   1.926   6.222  1.00  0.00    -0.376 OA
BRANCH   2   3
ATOM      3  C   UNL     1      -2.810   2.314   4.856  1.00  0.00     0.202 C 
BRANCH   3   4
ATOM      4  C   UNL     1      -1.703   3.223   4.298  1.00  0.00     0.261 C 
BRANCH   4   5
ATOM      5  O   UNL     1      -0.339   2.761   4.457  1.00  0.00    -0.463 OA
BRANCH   5   6
ATOM      6  C   UNL     1       0.467   3.537   5.229  1.00  0.00     0.309 C 
ATOM      7  O   UNL     1       0.078   4.535   5.829  1.00  0.00    -0.252 OA
BRANCH   6   8
ATOM      8  C   UNL     1       1.951   3.154   5.232  1.00  0.00     0.099 C 
ATOM      9  C   UNL     1       2.828   2.493   2.452  1.00  0.00     0.008 C 
ATOM     10  C   UNL     1       2.450   3.919   2.884  1.00  0.00     0.006 C 
ATOM     11  C   UNL     1       2.224   1.417   3.371  1.00  0.00     0.006 C 
ATOM     12  C   UNL     1       2.699   4.171   4.369  1.00  0.00     0.015 C 
ATOM     13  C   UNL     1       2.427   1.751   4.844  1.00  0.00     0.015 C 
BRANCH   9  14
ATOM     14  C   UNL     1       2.407   2.264   0.993  1.00  0.00     0.121 C 
BRANCH  14  15
ATOM     15  N   UNL     1       3.040   1.084   0.441  1.00  0.00    -0.338 N 
ATOM     16  O   UNL     1       1.114  -0.012  -0.095  1.00  0.00    -0.249 OA
ATOM     17  C   UNL     1       2.340   0.034  -0.054  1.00  0.00     0.315 C 
ATOM     18  N   UNL     1       3.049  -1.010  -0.536  1.00  0.00    -0.334 N 
ATOM     19  H   UNL     1       2.498  -1.764  -0.849  1.00  0.00     0.165 HD
ATOM     20  H   UNL     1       4.024   1.042   0.425  1.00  0.00     0.165 HD
BRANCH  18  21
ATOM     21  C   UNL     1       4.472  -1.219  -0.674  1.00  0.00     0.154 C 
BRANCH  21  22
ATOM     22  C   UNL     1       4.848  -2.458   0.072  1.00  0.00    -0.018 A 
ATOM     23  C   UNL     1       4.483  -3.792  -0.321  1.00  0.00     0.017 A 
ATOM     24  C   UNL     1       5.602  -2.484   1.232  1.00  0.00     0.070 A 
ATOM     25  C   UNL     1       4.963  -4.751   0.542  1.00  0.00     0.065 A 
ATOM     26  S   UNL     1       5.867  -4.068   1.820  1.00  0.00    -0.152 S 
ENDBRANCH  21  22
ENDBRANCH  18  21
ENDBRANCH  14  15
ENDBRANCH   9  14
ENDBRANCH   6   8
ENDBRANCH   5   6
ENDBRANCH   4   5
ENDBRANCH   3   4
ENDBRANCH   2   3
ENDBRANCH   1   2
BRANCH   1  27
ATOM     27  C   UNL     1      -0.865   0.264   5.827  1.00  0.00     0.188 C 
BRANCH  27  28
ATOM     28  O   UNL     1      -1.572  -0.073   4.653  1.00  0.00    -0.376 OA
BRANCH  28  29
ATOM     29  C   UNL     1      -1.521  -1.427   4.236  1.00  0.00     0.202 C 
BRANCH  29  30
ATOM     30  C   UNL     1      -2.419  -2.344   5.083  1.00  0.00     0.261 C 
BRANCH  30  31
ATOM     31  O   UNL     1      -2.114  -2.382   6.492  1.00  0.00    -0.460 OA
BRANCH  31  32
ATOM     32  C   UNL     1      -0.900  -2.869   6.850  1.00  0.00     0.338 C 
ATOM     33  O   UNL     1      -0.083  -3.391   6.108  1.00  0.00    -0.246 OA
BRANCH  32  34
ATOM     34  C   UNL     1      -0.605  -2.399   8.231  1.00  0.00     0.060 A 
ATOM     35  C   UNL     1       0.616  -1.747   8.473  1.00  0.00     0.016 A 
ATOM     36  C   UNL     1      -1.538  -2.531   9.261  1.00  0.00     0.016 A 
ATOM     37  C   UNL     1       0.919  -1.261   9.750  1.00  0.00     0.010 A 
ATOM     38  C   UNL     1      -1.224  -2.063  10.543  1.00  0.00     0.010 A 
ATOM     39  C   UNL     1       0.019  -1.456  10.805  1.00  0.00    -0.014 A 
BRANCH  39  40
ATOM     40  C   UNL     1       0.450  -1.234  12.212  1.00  0.00     0.031 A 
ATOM     41  C   UNL     1       0.895  -2.433  13.009  1.00  0.00     0.074 A 
ATOM     42  C   UNL     1       0.452  -0.016  12.784  1.00  0.00     0.049 A 
ATOM     43  N   UNL     1       1.230  -2.519  14.271  1.00  0.00    -0.248 NA
ATOM     44  C   UNL     1       0.966  -3.711  12.280  1.00  0.00     0.031 C 
ATOM     45  C   UNL     1       0.086   1.234  12.122  1.00  0.00     0.029 A 
ATOM     46  N   UNL     1       0.759   0.364  14.070  1.00  0.00    -0.354 N 
ATOM     47  C   UNL     1       1.532  -3.858  14.491  1.00  0.00     0.074 A 
ATOM     48  C   UNL     1       1.319  -4.552  13.240  1.00  0.00     0.031 C 
ATOM     49  C   UNL     1       0.170   2.240  13.012  1.00  0.00     0.029 A 
ATOM     50  C   UNL     1       0.559   1.702  14.317  1.00  0.00     0.049 A 
ATOM     51  H   UNL     1       1.092  -0.265  14.752  1.00  0.00     0.167 HD
ATOM     52  C   UNL     1       1.954  -4.458  15.629  1.00  0.00     0.037 A 
ATOM     53  C   UNL     1       0.651   2.406  15.466  1.00  0.00     0.037 A 
ATOM     54  C   UNL     1       2.170  -3.769  16.874  1.00  0.00     0.049 A 
ATOM     55  C   UNL     1       1.062   1.707  16.740  1.00  0.00     0.074 A 
ATOM     56  C   UNL     1       2.622  -4.288  18.075  1.00  0.00     0.029 A 
ATOM     57  N   UNL     1       1.941  -2.417  17.085  1.00  0.00    -0.354 N 
ATOM     58  N   UNL     1       1.369   0.445  16.929  1.00  0.00    -0.248 NA
ATOM     59  C   UNL     1       1.143   2.529  17.958  1.00  0.00     0.031 C 
ATOM     60  C   UNL     1       2.609  -3.264  19.027  1.00  0.00     0.029 A 
ATOM     61  C   UNL     1       2.215  -2.091  18.403  1.00  0.00     0.049 A 
ATOM     62  H   UNL     1       1.630  -1.783  16.399  1.00  0.00     0.167 HD
ATOM     63  C   UNL     1       1.706   0.330  18.276  1.00  0.00     0.074 A 
ATOM     64  C   UNL     1       1.577   1.651  18.852  1.00  0.00     0.031 C 
ATOM     65  C   UNL     1       2.092  -0.771  18.970  1.00  0.00     0.037 A 
BRANCH  52  66
ATOM     66  C   UNL     1       2.181  -5.944  15.592  1.00  0.00     0.058 A 
ATOM     67  C   UNL     1       3.259  -6.514  14.897  1.00  0.00     0.135 A 
ATOM     68  C   UNL     1       1.326  -6.808  16.297  1.00  0.00     0.135 A 
ATOM     69  F   UNL     1       4.095  -5.738  14.189  1.00  0.00    -0.206 F 
ATOM     70  C   UNL     1       3.470  -7.889  14.885  1.00  0.00     0.059 A 
ATOM     71  C   UNL     1       1.536  -8.183  16.324  1.00  0.00     0.059 A 
ATOM     72  F   UNL     1       0.276  -6.316  16.974  1.00  0.00    -0.206 F 
ATOM     73  C   UNL     1       2.604  -8.715  15.604  1.00  0.00     0.060 A 
BRANCH  73  74
ATOM     74  S   UNL     1       2.903 -10.495  15.592  1.00  0.00     0.124 S 
ATOM     75  O   UNL     1       2.529 -10.844  14.225  1.00  0.00    -0.237 OA
ATOM     76  O   UNL     1       4.327 -10.573  15.899  1.00  0.00    -0.237 OA
ATOM     77  O   UNL     1       2.012 -10.998  16.634  1.00  0.00    -0.744 OA
ENDBRANCH  73  74
ENDBRANCH  52  66
BRANCH  53  78
ATOM     78  C   UNL     1       0.326   3.861  15.477  1.00  0.00     0.058 A 
ATOM     79  C   UNL     1       1.317   4.828  15.698  1.00  0.00     0.135 A 
ATOM     80  C   UNL     1      -0.989   4.312  15.279  1.00  0.00     0.135 A 
ATOM     81  F   UNL     1       2.587   4.450  15.915  1.00  0.00    -0.206 F 
ATOM     82  C   UNL     1       1.018   6.188  15.732  1.00  0.00     0.059 A 
ATOM     83  C   UNL     1      -1.309   5.667  15.279  1.00  0.00     0.059 A 
ATOM     84  F   UNL     1      -1.977   3.429  15.064  1.00  0.00    -0.206 F 
ATOM     85  C   UNL     1      -0.298   6.597  15.515  1.00  0.00     0.060 A 
BRANCH  85  86
ATOM     86  S   UNL     1      -0.664   8.367  15.503  1.00  0.00     0.124 S 
ATOM     87  O   UNL     1      -0.526   8.706  16.915  1.00  0.00    -0.237 OA
ATOM     88  O   UNL     1       0.374   8.886  14.618  1.00  0.00    -0.237 OA
ATOM     89  O   UNL     1      -2.021   8.426  14.970  1.00  0.00    -0.744 OA
ENDBRANCH  85  86
ENDBRANCH  53  78
BRANCH  65  90
ATOM     90  C   UNL     1       2.450  -0.600  20.424  1.00  0.00     0.058 A 
ATOM     91  C   UNL     1       1.479  -0.349  21.406  1.00  0.00     0.135 A 
ATOM     92  C   UNL     1       3.781  -0.755  20.849  1.00  0.00     0.135 A 
ATOM     93  F   UNL     1       0.192  -0.190  21.058  1.00  0.00    -0.206 F 
ATOM     94  C   UNL     1       1.816  -0.234  22.752  1.00  0.00     0.059 A 
ATOM     95  C   UNL     1       4.137  -0.675  22.192  1.00  0.00     0.059 A 
ATOM     96  F   UNL     1       4.751  -1.010  19.956  1.00  0.00    -0.206 F 
ATOM     97  C   UNL     1       3.148  -0.401  23.136  1.00  0.00     0.060 A 
BRANCH  97  98
ATOM     98  S   UNL     1       3.567  -0.282  24.888  1.00  0.00     0.124 S 
ATOM     99  O   UNL     1       3.430   1.151  25.127  1.00  0.00    -0.237 OA
ATOM    100  O   UNL     1       2.554  -1.128  25.510  1.00  0.00    -0.237 OA
ATOM    101  O   UNL     1       4.931  -0.800  24.949  1.00  0.00    -0.744 OA
ENDBRANCH  97  98
ENDBRANCH  65  90
ENDBRANCH  39  40
ENDBRANCH  32  34
ENDBRANCH  31  32
ENDBRANCH  30  31
ENDBRANCH  29  30
ENDBRANCH  28  29
ENDBRANCH  27  28
ENDBRANCH   1  27
TORSDOF 24
