REMARK SMILES [NH3+][C@](CCC[P@TB4](=O)([O-])[O-])(Cc1ccccc1)C(=O)OCCOCCOCCOC(=O)c1ccc(-c2c3nc(c(-c4c(F)cc(S(=O)(=O)[O-])cc4F)c4ccc([nH]4)c(-c4c(F)cc(S(=O)(=O)[O-])cc4F)c4nc(c(-c5c(F)cc(S(=O)(=O)[O-])cc5F)c5ccc2[nH]5)C=C4)C=C3)cc1
REMARK SMILES IDX 23 1 22 2 21 3 20 4 19 5 17 6 18 7 2 8 1 9 10 13 11 14 12 15
REMARK SMILES IDX 16 16 13 17 15 18 14 19 3 20 4 21 5 22 6 23 7 24 8 25 9 26
REMARK SMILES IDX 24 27 25 28 26 29 27 30 28 31 29 32 30 33 31 34 32 35 96 36
REMARK SMILES IDX 33 37 95 38 34 39 35 40 36 41 89 42 37 43 94 44 88 45 90 46
REMARK SMILES IDX 38 47 93 48 87 49 86 50 39 52 73 53 52 54 72 55 53 56 56 57
REMARK SMILES IDX 71 58 91 59 54 60 55 61 70 63 92 64 57 65 40 66 41 67 50 68
REMARK SMILES IDX 42 69 43 70 49 71 51 72 44 73 45 74 46 75 47 76 48 77 74 78
REMARK SMILES IDX 75 79 84 80 76 81 77 82 83 83 85 84 78 85 79 86 80 87 81 88
REMARK SMILES IDX 82 89 58 90 59 91 68 92 60 93 61 94 67 95 69 96 62 97 63 98
REMARK SMILES IDX 64 99 65 100 66 101
REMARK H PARENT 1 10 1 11 1 12 90 51 56 62
REMARK Flexibility Score: inf
ROOT
ATOM      1  C   UNL     1       1.274   4.239   0.980  1.00  0.00       nan C 
ENDROOT
BRANCH   1   2
ATOM      2  O   UNL     1       2.105   4.747  -0.062  1.00  0.00       nan OA
BRANCH   2   3
ATOM      3  C   UNL     1       1.529   5.372  -1.197  1.00  0.00       nan C 
BRANCH   3   4
ATOM      4  C   UNL     1       1.363   4.439  -2.409  1.00  0.00       nan C 
BRANCH   4   5
ATOM      5  O   UNL     1       0.430   3.341  -2.266  1.00  0.00       nan OA
BRANCH   5   6
ATOM      6  C   UNL     1       0.959   2.229  -1.687  1.00  0.00       nan C 
ATOM      7  O   UNL     1       2.089   2.219  -1.206  1.00  0.00       nan OA
BRANCH   6   8
ATOM      8  C   UNL     1       0.086   0.932  -1.760  1.00  0.00       nan C 
BRANCH   8   9
ATOM      9  N   UNL     1       0.267   0.365  -3.134  1.00  0.00       nan N 
ATOM     10  H   UNL     1      -0.095   1.024  -3.824  1.00  0.00       nan HD
ATOM     11  H   UNL     1      -0.240  -0.517  -3.207  1.00  0.00       nan HD
ATOM     12  H   UNL     1       1.259   0.202  -3.307  1.00  0.00       nan HD
ENDBRANCH   8   9
BRANCH   8  13
ATOM     13  C   UNL     1      -1.469   1.173  -1.617  1.00  0.00       nan C 
BRANCH  13  14
ATOM     14  C   UNL     1      -2.215   1.147  -0.284  1.00  0.00       nan A 
ATOM     15  C   UNL     1      -2.955   2.268   0.122  1.00  0.00       nan A 
ATOM     16  C   UNL     1      -2.344  -0.016   0.495  1.00  0.00       nan A 
ATOM     17  C   UNL     1      -3.717   2.251   1.298  1.00  0.00       nan A 
ATOM     18  C   UNL     1      -3.080  -0.028   1.685  1.00  0.00       nan A 
ATOM     19  C   UNL     1      -3.764   1.109   2.090  1.00  0.00       nan A 
ENDBRANCH  13  14
ENDBRANCH   8  13
BRANCH   8  20
ATOM     20  C   UNL     1       0.633  -0.060  -0.687  1.00  0.00       nan C 
BRANCH  20  21
ATOM     21  C   UNL     1       1.875  -0.911  -0.973  1.00  0.00       nan C 
BRANCH  21  22
ATOM     22  C   UNL     1       3.163  -0.223  -1.374  1.00  0.00       nan C 
BRANCH  22  23
ATOM     23  P   UNL     1       4.092   0.758  -0.140  1.00  0.00       nan P 
ATOM     24  O   UNL     1       4.244  -0.462   0.769  1.00  0.00       nan OA
ATOM     25  O   UNL     1       5.435   0.729  -1.080  1.00  0.00       nan OA
ATOM     26  O   UNL     1       4.970   1.685   1.026  1.00  0.00       nan OA
ENDBRANCH  22  23
ENDBRANCH  21  22
ENDBRANCH  20  21
ENDBRANCH   8  20
ENDBRANCH   6   8
ENDBRANCH   5   6
ENDBRANCH   4   5
ENDBRANCH   3   4
ENDBRANCH   2   3
ENDBRANCH   1   2
BRANCH   1  27
ATOM     27  C   UNL     1      -0.223   4.040   0.734  1.00  0.00       nan C 
BRANCH  27  28
ATOM     28  O   UNL     1      -0.904   5.235   0.368  1.00  0.00       inf OA
BRANCH  28  29
ATOM     29  C   UNL     1      -1.837   5.723   1.324  1.00  0.00     0.202 C 
BRANCH  29  30
ATOM     30  C   UNL     1      -1.166   6.218   2.608  1.00  0.00     0.261 C 
BRANCH  30  31
ATOM     31  O   UNL     1      -0.670   5.140   3.427  1.00  0.00    -0.460 OA
BRANCH  31  32
ATOM     32  C   UNL     1      -1.624   4.367   3.998  1.00  0.00     0.338 C 
ATOM     33  O   UNL     1      -2.828   4.533   3.955  1.00  0.00    -0.246 OA
BRANCH  32  34
ATOM     34  C   UNL     1      -0.972   3.201   4.616  1.00  0.00     0.060 A 
ATOM     35  C   UNL     1      -0.878   2.006   3.899  1.00  0.00     0.016 A 
ATOM     36  C   UNL     1      -0.551   3.268   5.942  1.00  0.00     0.016 A 
ATOM     37  C   UNL     1      -0.419   0.849   4.523  1.00  0.00     0.010 A 
ATOM     38  C   UNL     1      -0.071   2.112   6.562  1.00  0.00     0.010 A 
ATOM     39  C   UNL     1      -0.042   0.887   5.870  1.00  0.00    -0.014 A 
BRANCH  39  40
ATOM     40  C   UNL     1       0.232  -0.376   6.599  1.00  0.00     0.031 A 
ATOM     41  C   UNL     1      -0.773  -0.867   7.606  1.00  0.00     0.074 A 
ATOM     42  C   UNL     1       1.338  -1.100   6.345  1.00  0.00     0.049 A 
ATOM     43  N   UNL     1      -0.683  -1.858   8.454  1.00  0.00    -0.248 NA
ATOM     44  C   UNL     1      -2.051  -0.139   7.665  1.00  0.00     0.031 C 
ATOM     45  C   UNL     1       2.352  -0.777   5.341  1.00  0.00     0.029 A 
ATOM     46  N   UNL     1       1.790  -2.262   6.918  1.00  0.00    -0.354 N 
ATOM     47  C   UNL     1      -1.870  -1.846   9.176  1.00  0.00     0.074 A 
ATOM     48  C   UNL     1      -2.664  -0.748   8.669  1.00  0.00     0.031 C 
ATOM     49  C   UNL     1       3.308  -1.721   5.368  1.00  0.00     0.029 A 
ATOM     50  C   UNL     1       3.002  -2.683   6.425  1.00  0.00     0.049 A 
ATOM     51  H   UNL     1       1.294  -2.747   7.616  1.00  0.00     0.167 HD
ATOM     52  C   UNL     1      -2.262  -2.675  10.173  1.00  0.00     0.037 A 
ATOM     53  C   UNL     1       3.789  -3.708   6.805  1.00  0.00     0.037 A 
ATOM     54  C   UNL     1      -1.486  -3.789  10.650  1.00  0.00     0.049 A 
ATOM     55  C   UNL     1       3.348  -4.598   7.936  1.00  0.00     0.074 A 
ATOM     56  C   UNL     1      -1.791  -4.683  11.662  1.00  0.00     0.029 A 
ATOM     57  N   UNL     1      -0.255  -4.172  10.137  1.00  0.00    -0.354 N 
ATOM     58  N   UNL     1       2.252  -4.539   8.656  1.00  0.00    -0.248 NA
ATOM     59  C   UNL     1       4.255  -5.692   8.312  1.00  0.00     0.031 C 
ATOM     60  C   UNL     1      -0.733  -5.593  11.777  1.00  0.00     0.029 A 
ATOM     61  C   UNL     1       0.213  -5.287  10.811  1.00  0.00     0.049 A 
ATOM     62  H   UNL     1       0.216  -3.718   9.402  1.00  0.00     0.167 HD
ATOM     63  C   UNL     1       2.329  -5.597   9.555  1.00  0.00     0.074 A 
ATOM     64  C   UNL     1       3.573  -6.288   9.280  1.00  0.00     0.031 C 
ATOM     65  C   UNL     1       1.451  -5.965  10.521  1.00  0.00     0.037 A 
BRANCH  52  66
ATOM     66  C   UNL     1      -3.576  -2.382  10.838  1.00  0.00     0.058 A 
ATOM     67  C   UNL     1      -4.803  -2.649  10.211  1.00  0.00     0.135 A 
ATOM     68  C   UNL     1      -3.606  -1.836  12.132  1.00  0.00     0.135 A 
ATOM     69  F   UNL     1      -4.830  -3.147   8.965  1.00  0.00    -0.206 F 
ATOM     70  C   UNL     1      -6.014  -2.364  10.834  1.00  0.00     0.059 A 
ATOM     71  C   UNL     1      -4.804  -1.565  12.783  1.00  0.00     0.059 A 
ATOM     72  F   UNL     1      -2.460  -1.556  12.773  1.00  0.00    -0.206 F 
ATOM     73  C   UNL     1      -6.004  -1.819  12.120  1.00  0.00     0.060 A 
BRANCH  73  74
ATOM     74  S   UNL     1      -7.581  -1.453  12.920  1.00  0.00     0.124 S 
ATOM     75  O   UNL     1      -7.979  -0.230  12.231  1.00  0.00    -0.237 OA
ATOM     76  O   UNL     1      -8.373  -2.640  12.611  1.00  0.00    -0.237 OA
ATOM     77  O   UNL     1      -7.219  -1.294  14.325  1.00  0.00    -0.744 OA
ENDBRANCH  73  74
ENDBRANCH  52  66
BRANCH  53  78
ATOM     78  C   UNL     1       5.091  -3.932   6.125  1.00  0.00     0.058 A 
ATOM     79  C   UNL     1       5.285  -5.031   5.276  1.00  0.00     0.135 A 
ATOM     80  C   UNL     1       6.165  -3.047   6.308  1.00  0.00     0.135 A 
ATOM     81  F   UNL     1       4.292  -5.913   5.083  1.00  0.00    -0.206 F 
ATOM     82  C   UNL     1       6.501  -5.250   4.636  1.00  0.00     0.059 A 
ATOM     83  C   UNL     1       7.382  -3.232   5.660  1.00  0.00     0.059 A 
ATOM     84  F   UNL     1       6.027  -1.977   7.106  1.00  0.00    -0.206 F 
ATOM     85  C   UNL     1       7.543  -4.342   4.832  1.00  0.00     0.060 A 
BRANCH  85  86
ATOM     86  S   UNL     1       9.100  -4.596   3.952  1.00  0.00     0.124 S 
ATOM     87  O   UNL     1       9.721  -5.645   4.752  1.00  0.00    -0.237 OA
ATOM     88  O   UNL     1       8.645  -4.993   2.622  1.00  0.00    -0.237 OA
ATOM     89  O   UNL     1       9.738  -3.285   4.020  1.00  0.00    -0.744 OA
ENDBRANCH  85  86
ENDBRANCH  53  78
BRANCH  65  90
ATOM     90  C   UNL     1       1.787  -7.192  11.321  1.00  0.00     0.058 A 
ATOM     91  C   UNL     1       2.786  -7.179  12.308  1.00  0.00     0.135 A 
ATOM     92  C   UNL     1       1.089  -8.391  11.108  1.00  0.00     0.135 A 
ATOM     93  F   UNL     1       3.484  -6.058  12.548  1.00  0.00    -0.206 F 
ATOM     94  C   UNL     1       3.106  -8.325  13.030  1.00  0.00     0.059 A 
ATOM     95  C   UNL     1       1.377  -9.542  11.835  1.00  0.00     0.059 A 
ATOM     96  F   UNL     1       0.115  -8.452  10.186  1.00  0.00    -0.206 F 
ATOM     97  C   UNL     1       2.401  -9.504  12.781  1.00  0.00     0.060 A 
BRANCH  97  98
ATOM     98  S   UNL     1       2.823 -10.987  13.719  1.00  0.00     0.124 S 
ATOM     99  O   UNL     1       4.027 -11.437  13.029  1.00  0.00    -0.237 OA
ATOM    100  O   UNL     1       3.023 -10.464  15.067  1.00  0.00    -0.237 OA
ATOM    101  O   UNL     1       1.648 -11.838  13.553  1.00  0.00    -0.744 OA
ENDBRANCH  97  98
ENDBRANCH  65  90
ENDBRANCH  39  40
ENDBRANCH  32  34
ENDBRANCH  31  32
ENDBRANCH  30  31
ENDBRANCH  29  30
ENDBRANCH  28  29
ENDBRANCH  27  28
ENDBRANCH   1  27
TORSDOF 27
