REMARK SMILES O=C(OCCOCCOCCOC(=O)c1cc(-c2ccc(F)c(C(F)(F)F)c2)cnc1O)c1ccc(-c2c3nc(c(-c4c(F)cc(S(=O)(=O)[O-])cc4F)c4ccc([nH]4)c(-c4c(F)cc(S(=O)(=O)[O-])cc4F)c4nc(c(-c5c(F)cc(S(=O)(=O)[O-])cc5F)c5ccc2[nH]5)C=C4)C=C3)cc1
REMARK SMILES IDX 7 1 6 2 5 3 4 4 3 5 2 6 1 7 33 8 34 9 98 10 35 11 97 12
REMARK SMILES IDX 36 13 37 14 38 15 91 16 39 17 96 18 90 19 92 20 40 21 95 22
REMARK SMILES IDX 89 23 88 24 41 26 75 27 54 28 74 29 55 30 58 31 73 32 93 33
REMARK SMILES IDX 56 34 57 35 72 37 94 38 59 39 42 40 43 41 52 42 44 43 45 44
REMARK SMILES IDX 51 45 53 46 46 47 47 48 48 49 49 50 50 51 76 52 77 53 86 54
REMARK SMILES IDX 78 55 79 56 85 57 87 58 80 59 81 60 82 61 83 62 84 63 60 64
REMARK SMILES IDX 61 65 70 66 62 67 63 68 69 69 71 70 64 71 65 72 66 73 67 74
REMARK SMILES IDX 68 75 8 76 9 77 10 78 11 79 12 80 13 81 14 82 15 83 16 84
REMARK SMILES IDX 31 85 17 86 30 87 29 88 32 89 18 91 19 92 28 93 20 94 23 95
REMARK SMILES IDX 21 96 22 97 24 98 25 99 26 100 27 101
REMARK H PARENT 92 25 58 36 32 90
REMARK Flexibility Score: inf
ROOT
ATOM      1  C   UNL     1       2.664  -1.910   0.792  1.00  0.00     0.188 C 
ENDROOT
BRANCH   1   2
ATOM      2  O   UNL     1       3.900  -1.462   0.218  1.00  0.00    -0.376 OA
BRANCH   2   3
ATOM      3  C   UNL     1       4.858  -1.034   1.188  1.00  0.00     0.202 C 
BRANCH   3   4
ATOM      4  C   UNL     1       4.820   0.470   1.465  1.00  0.00     0.261 C 
BRANCH   4   5
ATOM      5  O   UNL     1       3.485   0.990   1.424  1.00  0.00    -0.460 OA
BRANCH   5   6
ATOM      6  C   UNL     1       2.793   1.448   0.352  1.00  0.00     0.338 C 
ATOM      7  O   UNL     1       1.620   1.777   0.538  1.00  0.00    -0.246 OA
BRANCH   6   8
ATOM      8  C   UNL     1       3.344   1.606  -1.039  1.00  0.00     0.060 A 
ATOM      9  C   UNL     1       2.595   2.422  -1.905  1.00  0.00     0.016 A 
ATOM     10  C   UNL     1       4.487   0.999  -1.570  1.00  0.00     0.016 A 
ATOM     11  C   UNL     1       2.979   2.632  -3.235  1.00  0.00     0.010 A 
ATOM     12  C   UNL     1       4.903   1.243  -2.885  1.00  0.00     0.010 A 
ATOM     13  C   UNL     1       4.150   2.055  -3.732  1.00  0.00    -0.014 A 
BRANCH  13  14
ATOM     14  C   UNL     1       4.649   2.386  -5.085  1.00  0.00     0.031 A 
ATOM     15  C   UNL     1       4.654   1.382  -6.198  1.00  0.00     0.074 A 
ATOM     16  C   UNL     1       5.172   3.608  -5.286  1.00  0.00     0.049 A 
ATOM     17  N   UNL     1       4.960   1.555  -7.459  1.00  0.00    -0.248 NA
ATOM     18  C   UNL     1       4.280   0.006  -5.851  1.00  0.00     0.031 C 
ATOM     19  C   UNL     1       5.288   4.652  -4.267  1.00  0.00     0.029 A 
ATOM     20  N   UNL     1       5.722   4.168  -6.407  1.00  0.00    -0.354 N 
ATOM     21  C   UNL     1       4.732   0.330  -8.071  1.00  0.00     0.074 A 
ATOM     22  C   UNL     1       4.393  -0.601  -7.025  1.00  0.00     0.031 C 
ATOM     23  C   UNL     1       5.879   5.726  -4.810  1.00  0.00     0.029 A 
ATOM     24  C   UNL     1       6.192   5.440  -6.207  1.00  0.00     0.049 A 
ATOM     25  H   UNL     1       5.775   3.702  -7.273  1.00  0.00     0.167 HD
ATOM     26  C   UNL     1       4.762   0.014  -9.387  1.00  0.00     0.037 A 
ATOM     27  C   UNL     1       6.811   6.282  -7.053  1.00  0.00     0.037 A 
ATOM     28  C   UNL     1       5.242   0.905 -10.408  1.00  0.00     0.049 A 
ATOM     29  C   UNL     1       7.014   5.868  -8.479  1.00  0.00     0.074 A 
ATOM     30  C   UNL     1       5.333   0.698 -11.772  1.00  0.00     0.029 A 
ATOM     31  N   UNL     1       5.770   2.162 -10.156  1.00  0.00    -0.354 N 
ATOM     32  N   UNL     1       6.652   4.754  -9.070  1.00  0.00    -0.248 NA
ATOM     33  C   UNL     1       7.701   6.824  -9.354  1.00  0.00     0.031 C 
ATOM     34  C   UNL     1       5.971   1.811 -12.337  1.00  0.00     0.029 A 
ATOM     35  C   UNL     1       6.241   2.724 -11.329  1.00  0.00     0.049 A 
ATOM     36  H   UNL     1       5.805   2.592  -9.271  1.00  0.00     0.167 HD
ATOM     37  C   UNL     1       7.048   4.882 -10.395  1.00  0.00     0.074 A 
ATOM     38  C   UNL     1       7.679   6.183 -10.515  1.00  0.00     0.031 C 
ATOM     39  C   UNL     1       6.893   4.007 -11.420  1.00  0.00     0.037 A 
BRANCH  26  40
ATOM     40  C   UNL     1       4.233  -1.338  -9.783  1.00  0.00     0.058 A 
ATOM     41  C   UNL     1       2.848  -1.578  -9.823  1.00  0.00     0.135 A 
ATOM     42  C   UNL     1       5.086  -2.390 -10.144  1.00  0.00     0.135 A 
ATOM     43  F   UNL     1       1.984  -0.606  -9.487  1.00  0.00    -0.206 F 
ATOM     44  C   UNL     1       2.329  -2.817 -10.193  1.00  0.00     0.059 A 
ATOM     45  C   UNL     1       4.588  -3.635 -10.532  1.00  0.00     0.059 A 
ATOM     46  F   UNL     1       6.417  -2.217 -10.122  1.00  0.00    -0.206 F 
ATOM     47  C   UNL     1       3.208  -3.842 -10.543  1.00  0.00     0.060 A 
BRANCH  47  48
ATOM     48  S   UNL     1       2.521  -5.431 -11.070  1.00  0.00     0.124 S 
ATOM     49  O   UNL     1       2.077  -6.011  -9.807  1.00  0.00    -0.237 OA
ATOM     50  O   UNL     1       1.458  -5.026 -11.986  1.00  0.00    -0.237 OA
ATOM     51  O   UNL     1       3.657  -6.100 -11.699  1.00  0.00    -0.744 OA
ENDBRANCH  47  48
ENDBRANCH  26  40
BRANCH  27  52
ATOM     52  C   UNL     1       7.226   7.612  -6.548  1.00  0.00     0.058 A 
ATOM     53  C   UNL     1       6.460   8.751  -6.827  1.00  0.00     0.135 A 
ATOM     54  C   UNL     1       8.313   7.745  -5.670  1.00  0.00     0.135 A 
ATOM     55  F   UNL     1       5.412   8.666  -7.660  1.00  0.00    -0.206 F 
ATOM     56  C   UNL     1       6.740   9.975  -6.232  1.00  0.00     0.059 A 
ATOM     57  C   UNL     1       8.604   8.955  -5.051  1.00  0.00     0.059 A 
ATOM     58  F   UNL     1       9.060   6.674  -5.358  1.00  0.00    -0.206 F 
ATOM     59  C   UNL     1       7.805  10.063  -5.332  1.00  0.00     0.060 A 
BRANCH  59  60
ATOM     60  S   UNL     1       8.076  11.624  -4.466  1.00  0.00     0.124 S 
ATOM     61  O   UNL     1       8.632  12.457  -5.526  1.00  0.00    -0.237 OA
ATOM     62  O   UNL     1       6.727  11.966  -4.024  1.00  0.00    -0.237 OA
ATOM     63  O   UNL     1       9.001  11.259  -3.397  1.00  0.00    -0.744 OA
ENDBRANCH  59  60
ENDBRANCH  27  52
BRANCH  39  64
ATOM     64  C   UNL     1       7.428   4.426 -12.757  1.00  0.00     0.058 A 
ATOM     65  C   UNL     1       8.803   4.395 -13.031  1.00  0.00     0.135 A 
ATOM     66  C   UNL     1       6.558   4.832 -13.780  1.00  0.00     0.135 A 
ATOM     67  F   UNL     1       9.674   4.021 -12.081  1.00  0.00    -0.206 F 
ATOM     68  C   UNL     1       9.301   4.776 -14.272  1.00  0.00     0.059 A 
ATOM     69  C   UNL     1       7.032   5.198 -15.034  1.00  0.00     0.059 A 
ATOM     70  F   UNL     1       5.233   4.870 -13.566  1.00  0.00    -0.206 F 
ATOM     71  C   UNL     1       8.408   5.179 -15.266  1.00  0.00     0.060 A 
BRANCH  71  72
ATOM     72  S   UNL     1       9.063   5.656 -16.879  1.00  0.00     0.124 S 
ATOM     73  O   UNL     1       9.570   6.996 -16.603  1.00  0.00    -0.237 OA
ATOM     74  O   UNL     1      10.076   4.633 -17.123  1.00  0.00    -0.237 OA
ATOM     75  O   UNL     1       7.895   5.592 -17.751  1.00  0.00    -0.744 OA
ENDBRANCH  71  72
ENDBRANCH  39  64
ENDBRANCH  13  14
ENDBRANCH   6   8
ENDBRANCH   5   6
ENDBRANCH   4   5
ENDBRANCH   3   4
ENDBRANCH   2   3
ENDBRANCH   1   2
BRANCH   1  76
ATOM     76  C   UNL     1       2.116  -3.096  -0.003  1.00  0.00     0.188 C 
BRANCH  76  77
ATOM     77  O   UNL     1       2.835  -4.317   0.189  1.00  0.00    -0.376 OA
BRANCH  77  78
ATOM     78  C   UNL     1       4.146  -4.387  -0.362  1.00  0.00     0.202 C 
BRANCH  78  79
ATOM     79  C   UNL     1       4.245  -4.707  -1.858  1.00  0.00     0.261 C 
BRANCH  79  80
ATOM     80  O   UNL     1       3.665  -3.731  -2.743  1.00  0.00    -0.459 OA
BRANCH  80  81
ATOM     81  C   UNL     1       2.410  -4.026  -3.168  1.00  0.00     0.343 C 
ATOM     82  O   UNL     1       1.689  -4.923  -2.773  1.00  0.00    -0.246 OA
BRANCH  81  83
ATOM     83  C   UNL     1       2.028  -3.119  -4.248  1.00  0.00     0.122 A 
ATOM     84  C   UNL     1       1.036  -2.145  -4.048  1.00  0.00     0.031 A 
ATOM     85  C   UNL     1       2.526  -3.325  -5.522  1.00  0.00     0.225 A 
ATOM     86  C   UNL     1       0.555  -1.416  -5.144  1.00  0.00     0.001 A 
ATOM     87  N   UNL     1       2.071  -2.652  -6.589  1.00  0.00    -0.221 NA
ATOM     88  C   UNL     1       1.104  -1.730  -6.388  1.00  0.00     0.124 A 
BRANCH  85  89
ATOM     89  O   UNL     1       3.544  -4.178  -5.823  1.00  0.00    -0.493 OA
ATOM     90  H   UNL     1       3.935  -4.697  -5.148  1.00  0.00     0.295 HD
ENDBRANCH  85  89
BRANCH  86  91
ATOM     91  C   UNL     1      -0.523  -0.425  -5.052  1.00  0.00    -0.016 A 
ATOM     92  C   UNL     1      -1.765  -0.700  -5.649  1.00  0.00     0.012 A 
ATOM     93  C   UNL     1      -0.331   0.839  -4.463  1.00  0.00     0.025 A 
ATOM     94  C   UNL     1      -2.779   0.257  -5.675  1.00  0.00     0.040 A 
ATOM     95  C   UNL     1      -1.350   1.814  -4.491  1.00  0.00     0.092 A 
ATOM     96  C   UNL     1      -2.560   1.502  -5.104  1.00  0.00     0.135 A 
ATOM     97  F   UNL     1      -3.538   2.416  -5.159  1.00  0.00    -0.206 F 
BRANCH  95  98
ATOM     98  C   UNL     1      -1.177   3.194  -3.931  1.00  0.00     0.419 C 
ATOM     99  F   UNL     1      -1.141   4.156  -4.893  1.00  0.00    -0.166 F 
ATOM    100  F   UNL     1      -2.175   3.551  -3.074  1.00  0.00    -0.166 F 
ATOM    101  F   UNL     1      -0.025   3.345  -3.220  1.00  0.00    -0.166 F 
ENDBRANCH  95  98
ENDBRANCH  86  91
ENDBRANCH  81  83
ENDBRANCH  80  81
ENDBRANCH  79  80
ENDBRANCH  78  79
ENDBRANCH  77  78
ENDBRANCH  76  77
ENDBRANCH   1  76
TORSDOF 23
