REMARK SMILES CCOc1cc(F)ccc1NC(=O)CC1(C(=O)OCCOCCOCCOC(=O)c2ccc(-c3c4nc(c(-c5c(F)cc(S(=O)(=O)[O-])cc5F)c5ccc([nH]5)c(-c5c(F)cc(S(=O)(=O)[O-])cc5F)c5nc(c(-c6c(F)cc(S(=O)(=O)[O-])cc6F)c6ccc3[nH]6)C=C5)C=C4)cc2)CCCCC1
REMARK SMILES IDX 22 1 21 2 20 3 19 4 18 5 16 6 17 7 15 8 96 9 100 10 97 11
REMARK SMILES IDX 99 12 98 13 14 14 12 15 11 16 13 18 10 19 4 20 5 21 6 22
REMARK SMILES IDX 9 23 7 24 8 25 3 26 2 27 1 28 23 29 24 30 25 31 26 32 27 33
REMARK SMILES IDX 28 34 29 35 30 36 31 37 95 38 32 39 94 40 33 41 34 42 35 43
REMARK SMILES IDX 88 44 36 45 93 46 87 47 89 48 37 49 92 50 86 51 85 52 38 54
REMARK SMILES IDX 72 55 51 56 71 57 52 58 55 59 70 60 90 61 53 62 54 63 69 65
REMARK SMILES IDX 91 66 56 67 39 68 40 69 49 70 41 71 42 72 48 73 50 74 43 75
REMARK SMILES IDX 44 76 45 77 46 78 47 79 73 80 74 81 83 82 75 83 76 84 82 85
REMARK SMILES IDX 84 86 77 87 78 88 79 89 80 90 81 91 57 92 58 93 67 94 59 95
REMARK SMILES IDX 60 96 66 97 68 98 61 99 62 100 63 101 64 102 65 103
REMARK H PARENT 11 17 89 53 55 64
REMARK Flexibility Score: inf
ROOT
ATOM      1  C   UNL     1       8.161   5.872  -0.245  1.00  0.00     0.188 C 
ENDROOT
BRANCH   1   2
ATOM      2  O   UNL     1       9.339   6.147   0.502  1.00  0.00    -0.376 OA
BRANCH   2   3
ATOM      3  C   UNL     1       9.479   5.596   1.806  1.00  0.00     0.202 C 
BRANCH   3   4
ATOM      4  C   UNL     1       8.466   6.063   2.853  1.00  0.00     0.261 C 
BRANCH   4   5
ATOM      5  O   UNL     1       7.188   5.389   2.767  1.00  0.00    -0.463 OA
BRANCH   5   6
ATOM      6  C   UNL     1       6.094   6.184   2.624  1.00  0.00     0.312 C 
ATOM      7  O   UNL     1       6.161   7.395   2.447  1.00  0.00    -0.252 OA
BRANCH   6   8
ATOM      8  C   UNL     1       4.740   5.441   2.752  1.00  0.00     0.077 C 
ATOM      9  C   UNL     1       4.152   5.874   4.118  1.00  0.00     0.019 C 
ATOM     10  C   UNL     1       4.818   3.897   2.681  1.00  0.00     0.019 C 
ATOM     11  C   UNL     1       4.815   5.170   5.305  1.00  0.00     0.001 C 
ATOM     12  C   UNL     1       5.364   3.176   3.908  1.00  0.00     0.001 C 
ATOM     13  C   UNL     1       4.693   3.658   5.180  1.00  0.00     0.000 C 
BRANCH   8  14
ATOM     14  C   UNL     1       3.870   6.007   1.575  1.00  0.00     0.119 C 
BRANCH  14  15
ATOM     15  C   UNL     1       2.422   5.540   1.474  1.00  0.00     0.225 C 
ATOM     16  N   UNL     1       1.985   4.445   0.789  1.00  0.00    -0.323 N 
ATOM     17  H   UNL     1       1.006   4.353   0.838  1.00  0.00     0.170 HD
ATOM     18  O   UNL     1       1.553   6.183   2.080  1.00  0.00    -0.275 OA
BRANCH  16  19
ATOM     19  C   UNL     1       2.568   3.411   0.031  1.00  0.00     0.084 A 
ATOM     20  C   UNL     1       1.755   2.325  -0.359  1.00  0.00     0.145 A 
ATOM     21  C   UNL     1       2.263   1.266  -1.120  1.00  0.00     0.087 A 
ATOM     22  C   UNL     1       3.610   1.224  -1.406  1.00  0.00     0.127 A 
ATOM     23  C   UNL     1       3.902   3.368  -0.340  1.00  0.00     0.033 A 
ATOM     24  F   UNL     1       4.128   0.175  -2.054  1.00  0.00    -0.207 F 
ATOM     25  C   UNL     1       4.426   2.265  -1.020  1.00  0.00     0.041 A 
BRANCH  20  26
ATOM     26  O   UNL     1       0.419   2.313  -0.037  1.00  0.00    -0.492 OA
BRANCH  26  27
ATOM     27  C   UNL     1       0.120   1.395   1.029  1.00  0.00     0.226 C 
ATOM     28  C   UNL     1       0.005  -0.056   0.575  1.00  0.00     0.049 C 
ENDBRANCH  26  27
ENDBRANCH  20  26
ENDBRANCH  16  19
ENDBRANCH  14  15
ENDBRANCH   8  14
ENDBRANCH   6   8
ENDBRANCH   5   6
ENDBRANCH   4   5
ENDBRANCH   3   4
ENDBRANCH   2   3
ENDBRANCH   1   2
BRANCH   1  29
ATOM     29  C   UNL     1       7.576   4.462  -0.154  1.00  0.00     0.188 C 
BRANCH  29  30
ATOM     30  O   UNL     1       8.567   3.464   0.043  1.00  0.00    -0.376 OA
BRANCH  30  31
ATOM     31  C   UNL     1       8.440   2.308  -0.772  1.00  0.00     0.202 C 
BRANCH  31  32
ATOM     32  C   UNL     1       9.003   2.558  -2.172  1.00  0.00     0.261 C 
BRANCH  32  33
ATOM     33  O   UNL     1       8.278   3.569  -2.901  1.00  0.00    -0.460 OA
BRANCH  33  34
ATOM     34  C   UNL     1       7.145   3.171  -3.515  1.00  0.00     0.338 C 
ATOM     35  O   UNL     1       6.683   2.034  -3.534  1.00  0.00    -0.246 OA
BRANCH  34  36
ATOM     36  C   UNL     1       6.446   4.362  -4.023  1.00  0.00     0.060 A 
ATOM     37  C   UNL     1       5.420   4.926  -3.259  1.00  0.00     0.016 A 
ATOM     38  C   UNL     1       6.784   4.920  -5.252  1.00  0.00     0.016 A 
ATOM     39  C   UNL     1       4.727   6.048  -3.701  1.00  0.00     0.010 A 
ATOM     40  C   UNL     1       6.093   6.051  -5.699  1.00  0.00     0.010 A 
ATOM     41  C   UNL     1       5.062   6.622  -4.928  1.00  0.00    -0.014 A 
BRANCH  41  42
ATOM     42  C   UNL     1       4.304   7.786  -5.439  1.00  0.00     0.031 A 
ATOM     43  C   UNL     1       3.359   7.591  -6.586  1.00  0.00     0.074 A 
ATOM     44  C   UNL     1       4.470   9.005  -4.891  1.00  0.00     0.049 A 
ATOM     45  N   UNL     1       2.799   8.486  -7.352  1.00  0.00    -0.248 NA
ATOM     46  C   UNL     1       2.996   6.201  -6.912  1.00  0.00     0.031 C 
ATOM     47  C   UNL     1       5.281   9.298  -3.707  1.00  0.00     0.029 A 
ATOM     48  N   UNL     1       3.984  10.231  -5.274  1.00  0.00    -0.354 N 
ATOM     49  C   UNL     1       2.052   7.772  -8.280  1.00  0.00     0.074 A 
ATOM     50  C   UNL     1       2.216   6.368  -7.973  1.00  0.00     0.031 C 
ATOM     51  C   UNL     1       5.261  10.622  -3.480  1.00  0.00     0.029 A 
ATOM     52  C   UNL     1       4.502  11.276  -4.543  1.00  0.00     0.049 A 
ATOM     53  H   UNL     1       3.330  10.350  -6.000  1.00  0.00     0.167 HD
ATOM     54  C   UNL     1       1.309   8.257  -9.300  1.00  0.00     0.037 A 
ATOM     55  C   UNL     1       4.434  12.607  -4.751  1.00  0.00     0.037 A 
ATOM     56  C   UNL     1       1.131   9.659  -9.565  1.00  0.00     0.049 A 
ATOM     57  C   UNL     1       3.686  13.120  -5.953  1.00  0.00     0.074 A 
ATOM     58  C   UNL     1       0.381  10.254 -10.563  1.00  0.00     0.029 A 
ATOM     59  N   UNL     1       1.707  10.683  -8.829  1.00  0.00    -0.354 N 
ATOM     60  N   UNL     1       3.015  12.441  -6.855  1.00  0.00    -0.248 NA
ATOM     61  C   UNL     1       3.707  14.571  -6.188  1.00  0.00     0.031 C 
ATOM     62  C   UNL     1       0.542  11.638 -10.461  1.00  0.00     0.029 A 
ATOM     63  C   UNL     1       1.357  11.907  -9.372  1.00  0.00     0.049 A 
ATOM     64  H   UNL     1       2.280  10.559  -8.038  1.00  0.00     0.167 HD
ATOM     65  C   UNL     1       2.534  13.382  -7.759  1.00  0.00     0.074 A 
ATOM     66  C   UNL     1       2.971  14.679  -7.288  1.00  0.00     0.031 C 
ATOM     67  C   UNL     1       1.802  13.187  -8.883  1.00  0.00     0.037 A 
BRANCH  54  68
ATOM     68  C   UNL     1       0.655   7.283 -10.234  1.00  0.00     0.058 A 
ATOM     69  C   UNL     1       1.154   7.121 -11.537  1.00  0.00     0.135 A 
ATOM     70  C   UNL     1      -0.519   6.599  -9.889  1.00  0.00     0.135 A 
ATOM     71  F   UNL     1       2.283   7.742 -11.911  1.00  0.00    -0.206 F 
ATOM     72  C   UNL     1       0.489   6.344 -12.478  1.00  0.00     0.059 A 
ATOM     73  C   UNL     1      -1.192   5.800 -10.810  1.00  0.00     0.059 A 
ATOM     74  F   UNL     1      -1.020   6.700  -8.647  1.00  0.00    -0.206 F 
ATOM     75  C   UNL     1      -0.691   5.697 -12.108  1.00  0.00     0.060 A 
BRANCH  75  76
ATOM     76  S   UNL     1      -1.555   4.713 -13.351  1.00  0.00     0.124 S 
ATOM     77  O   UNL     1      -2.038   5.742 -14.266  1.00  0.00    -0.237 OA
ATOM     78  O   UNL     1      -0.487   3.858 -13.861  1.00  0.00    -0.237 OA
ATOM     79  O   UNL     1      -2.585   4.023 -12.580  1.00  0.00    -0.744 OA
ENDBRANCH  75  76
ENDBRANCH  54  68
BRANCH  55  80
ATOM     80  C   UNL     1       5.173  13.539  -3.856  1.00  0.00     0.058 A 
ATOM     81  C   UNL     1       6.577  13.560  -3.833  1.00  0.00     0.135 A 
ATOM     82  C   UNL     1       4.495  14.427  -3.007  1.00  0.00     0.135 A 
ATOM     83  F   UNL     1       7.276  12.734  -4.627  1.00  0.00    -0.206 F 
ATOM     84  C   UNL     1       7.282  14.406  -2.985  1.00  0.00     0.059 A 
ATOM     85  C   UNL     1       5.180  15.304  -2.169  1.00  0.00     0.059 A 
ATOM     86  F   UNL     1       3.154  14.462  -3.009  1.00  0.00    -0.206 F 
ATOM     87  C   UNL     1       6.574  15.274  -2.155  1.00  0.00     0.060 A 
BRANCH  87  88
ATOM     88  S   UNL     1       7.509  16.381  -1.076  1.00  0.00     0.124 S 
ATOM     89  O   UNL     1       8.016  15.452  -0.072  1.00  0.00    -0.237 OA
ATOM     90  O   UNL     1       8.505  16.933  -1.990  1.00  0.00    -0.237 OA
ATOM     91  O   UNL     1       6.501  17.327  -0.608  1.00  0.00    -0.744 OA
ENDBRANCH  87  88
ENDBRANCH  55  80
BRANCH  67  92
ATOM     92  C   UNL     1       1.418  14.392  -9.692  1.00  0.00     0.058 A 
ATOM     93  C   UNL     1       0.088  14.841  -9.717  1.00  0.00     0.135 A 
ATOM     94  C   UNL     1       2.342  15.017 -10.544  1.00  0.00     0.135 A 
ATOM     95  F   UNL     1      -0.833  14.271  -8.924  1.00  0.00    -0.206 F 
ATOM     96  C   UNL     1      -0.322  15.843 -10.589  1.00  0.00     0.059 A 
ATOM     97  C   UNL     1       1.958  16.037 -11.408  1.00  0.00     0.059 A 
ATOM     98  F   UNL     1       3.627  14.630 -10.545  1.00  0.00    -0.206 F 
ATOM     99  C   UNL     1       0.619  16.426 -11.441  1.00  0.00     0.060 A 
BRANCH  99 100
ATOM    100  S   UNL     1       0.059  17.695 -12.596  1.00  0.00     0.124 S 
ATOM    101  O   UNL     1      -0.748  16.916 -13.529  1.00  0.00    -0.237 OA
ATOM    102  O   UNL     1      -0.678  18.602 -11.723  1.00  0.00    -0.237 OA
ATOM    103  O   UNL     1       1.304  18.232 -13.139  1.00  0.00    -0.744 OA
ENDBRANCH  99 100
ENDBRANCH  67  92
ENDBRANCH  41  42
ENDBRANCH  34  36
ENDBRANCH  33  34
ENDBRANCH  32  33
ENDBRANCH  31  32
ENDBRANCH  30  31
ENDBRANCH  29  30
ENDBRANCH   1  29
TORSDOF 25
