REMARK SMILES CC(C)(C)OC(=O)N1CCN(c2nc3ccccc3s2)[C@H](C(=O)OCCOCCOCCOC(=O)c2ccc(-c3c4nc(c(-c5c(F)cc(S(=O)(=O)[O-])cc5F)c5ccc([nH]5)c(-c5c(F)cc(S(=O)(=O)[O-])cc5F)c5nc(c(-c6c(F)cc(S(=O)(=O)[O-])cc6F)c6ccc3[nH]6)C=C5)C=C4)cc2)C1
REMARK SMILES IDX 28 1 27 2 26 3 25 4 24 5 22 6 23 7 21 8 8 9 9 10 102 11
REMARK SMILES IDX 10 12 11 13 6 14 7 15 5 16 2 17 1 18 3 19 4 20 12 21 13 22
REMARK SMILES IDX 20 23 14 24 19 25 15 26 18 27 16 28 17 29 29 30 30 31 31 32
REMARK SMILES IDX 32 33 33 34 34 35 35 36 36 37 37 38 101 39 38 40 100 41
REMARK SMILES IDX 39 42 40 43 41 44 94 45 42 46 99 47 93 48 95 49 43 50 98 51
REMARK SMILES IDX 92 52 91 53 44 55 78 56 57 57 77 58 58 59 61 60 76 61 96 62
REMARK SMILES IDX 59 63 60 64 75 66 97 67 62 68 45 69 46 70 55 71 47 72 48 73
REMARK SMILES IDX 54 74 56 75 49 76 50 77 51 78 52 79 53 80 79 81 80 82 89 83
REMARK SMILES IDX 81 84 82 85 88 86 90 87 83 88 84 89 85 90 86 91 87 92 63 93
REMARK SMILES IDX 64 94 73 95 65 96 66 97 72 98 74 99 67 100 68 101 69 102
REMARK SMILES IDX 70 103 71 104
REMARK H PARENT 95 54 61 65
REMARK Flexibility Score: inf
ROOT
ATOM      1  C   UNL     1       5.461   4.951   4.098  1.00  0.00     0.188 C 
ENDROOT
BRANCH   1   2
ATOM      2  O   UNL     1       6.431   4.658   5.097  1.00  0.00    -0.376 OA
BRANCH   2   3
ATOM      3  C   UNL     1       6.744   3.302   5.372  1.00  0.00     0.202 C 
BRANCH   3   4
ATOM      4  C   UNL     1       5.601   2.320   5.685  1.00  0.00     0.261 C 
BRANCH   4   5
ATOM      5  O   UNL     1       4.345   2.585   5.021  1.00  0.00    -0.462 OA
BRANCH   5   6
ATOM      6  C   UNL     1       3.257   2.744   5.830  1.00  0.00     0.330 C 
ATOM      7  O   UNL     1       3.295   2.542   7.039  1.00  0.00    -0.250 OA
BRANCH   6   8
ATOM      8  C   UNL     1       1.959   3.143   5.075  1.00  0.00     0.214 C 
ATOM      9  N   UNL     1       0.812   3.735   2.896  1.00  0.00    -0.304 N 
ATOM     10  C   UNL     1       0.102   4.853   3.532  1.00  0.00     0.144 C 
ATOM     11  C   UNL     1       2.078   3.330   3.543  1.00  0.00     0.160 C 
ATOM     12  C   UNL     1      -0.031   4.652   5.052  1.00  0.00     0.141 C 
ATOM     13  N   UNL     1       1.281   4.346   5.611  1.00  0.00    -0.331 N 
BRANCH   9  14
ATOM     14  C   UNL     1       0.410   3.318   1.645  1.00  0.00     0.410 C 
ATOM     15  O   UNL     1      -0.431   3.920   0.978  1.00  0.00    -0.224 OA
BRANCH  14  16
ATOM     16  O   UNL     1       0.983   2.148   1.266  1.00  0.00    -0.444 OA
BRANCH  16  17
ATOM     17  C   UNL     1       0.523   1.459   0.069  1.00  0.00     0.106 C 
ATOM     18  C   UNL     1       1.143   0.056   0.159  1.00  0.00     0.056 C 
ATOM     19  C   UNL     1       1.046   2.153  -1.193  1.00  0.00     0.056 C 
ATOM     20  C   UNL     1      -1.005   1.291   0.026  1.00  0.00     0.056 C 
ENDBRANCH  16  17
ENDBRANCH  14  16
ENDBRANCH   9  14
BRANCH  13  21
ATOM     21  C   UNL     1       1.761   5.098   6.627  1.00  0.00     0.187 A 
ATOM     22  N   UNL     1       1.318   5.028   7.856  1.00  0.00    -0.220 NA
ATOM     23  S   UNL     1       2.935   6.325   6.347  1.00  0.00    -0.097 S 
ATOM     24  C   UNL     1       2.029   5.897   8.670  1.00  0.00     0.084 A 
ATOM     25  C   UNL     1       2.981   6.684   8.021  1.00  0.00     0.056 A 
ATOM     26  C   UNL     1       1.869   6.047  10.061  1.00  0.00     0.030 A 
ATOM     27  C   UNL     1       3.790   7.603   8.709  1.00  0.00     0.021 A 
ATOM     28  C   UNL     1       2.661   6.965  10.758  1.00  0.00     0.002 A 
ATOM     29  C   UNL     1       3.613   7.729  10.089  1.00  0.00     0.002 A 
ENDBRANCH  13  21
ENDBRANCH   6   8
ENDBRANCH   5   6
ENDBRANCH   4   5
ENDBRANCH   3   4
ENDBRANCH   2   3
ENDBRANCH   1   2
BRANCH   1  30
ATOM     30  C   UNL     1       5.427   4.123   2.799  1.00  0.00     0.188 C 
BRANCH  30  31
ATOM     31  O   UNL     1       6.543   3.277   2.669  1.00  0.00    -0.376 OA
BRANCH  31  32
ATOM     32  C   UNL     1       7.386   3.481   1.562  1.00  0.00     0.202 C 
BRANCH  32  33
ATOM     33  C   UNL     1       8.012   4.869   1.337  1.00  0.00     0.261 C 
BRANCH  33  34
ATOM     34  O   UNL     1       7.282   6.020   1.798  1.00  0.00    -0.460 OA
BRANCH  34  35
ATOM     35  C   UNL     1       6.401   6.580   0.933  1.00  0.00     0.338 C 
ATOM     36  O   UNL     1       6.112   6.162  -0.174  1.00  0.00    -0.246 OA
BRANCH  35  37
ATOM     37  C   UNL     1       5.696   7.695   1.611  1.00  0.00     0.060 A 
ATOM     38  C   UNL     1       4.316   7.595   1.848  1.00  0.00     0.016 A 
ATOM     39  C   UNL     1       6.384   8.854   1.975  1.00  0.00     0.016 A 
ATOM     40  C   UNL     1       3.619   8.663   2.427  1.00  0.00     0.010 A 
ATOM     41  C   UNL     1       5.680   9.929   2.534  1.00  0.00     0.010 A 
ATOM     42  C   UNL     1       4.289   9.855   2.738  1.00  0.00    -0.014 A 
BRANCH  42  43
ATOM     43  C   UNL     1       3.531  11.083   3.110  1.00  0.00     0.031 A 
ATOM     44  C   UNL     1       3.307  12.137   2.056  1.00  0.00     0.074 A 
ATOM     45  C   UNL     1       3.058  11.279   4.355  1.00  0.00     0.049 A 
ATOM     46  N   UNL     1       2.784  13.331   2.170  1.00  0.00    -0.248 NA
ATOM     47  C   UNL     1       3.739  11.798   0.691  1.00  0.00     0.031 C 
ATOM     48  C   UNL     1       3.162  10.327   5.458  1.00  0.00     0.029 A 
ATOM     49  N   UNL     1       2.408  12.359   4.906  1.00  0.00    -0.354 N 
ATOM     50  C   UNL     1       2.840  13.893   0.898  1.00  0.00     0.074 A 
ATOM     51  C   UNL     1       3.470  12.917   0.035  1.00  0.00     0.031 C 
ATOM     52  C   UNL     1       2.608  10.869   6.557  1.00  0.00     0.029 A 
ATOM     53  C   UNL     1       2.154  12.226   6.252  1.00  0.00     0.049 A 
ATOM     54  H   UNL     1       2.149  13.154   4.385  1.00  0.00     0.167 HD
ATOM     55  C   UNL     1       2.403  15.107   0.486  1.00  0.00     0.037 A 
ATOM     56  C   UNL     1       1.647  13.106   7.141  1.00  0.00     0.037 A 
ATOM     57  C   UNL     1       1.775  16.077   1.346  1.00  0.00     0.049 A 
ATOM     58  C   UNL     1       1.238  14.484   6.676  1.00  0.00     0.074 A 
ATOM     59  C   UNL     1       1.284  17.328   1.014  1.00  0.00     0.029 A 
ATOM     60  N   UNL     1       1.557  15.913   2.706  1.00  0.00    -0.354 N 
ATOM     61  N   UNL     1       1.285  14.998   5.469  1.00  0.00    -0.248 NA
ATOM     62  C   UNL     1       0.707  15.403   7.694  1.00  0.00     0.031 C 
ATOM     63  C   UNL     1       0.826  17.944   2.183  1.00  0.00     0.029 A 
ATOM     64  C   UNL     1       0.966  17.050   3.232  1.00  0.00     0.049 A 
ATOM     65  H   UNL     1       1.789  15.107   3.221  1.00  0.00     0.167 HD
ATOM     66  C   UNL     1       0.759  16.283   5.578  1.00  0.00     0.074 A 
ATOM     67  C   UNL     1       0.392  16.466   6.966  1.00  0.00     0.031 C 
ATOM     68  C   UNL     1       0.591  17.224   4.614  1.00  0.00     0.037 A 
BRANCH  55  69
ATOM     69  C   UNL     1       2.618  15.474  -0.959  1.00  0.00     0.058 A 
ATOM     70  C   UNL     1       1.903  14.856  -1.997  1.00  0.00     0.135 A 
ATOM     71  C   UNL     1       3.525  16.490  -1.305  1.00  0.00     0.135 A 
ATOM     72  F   UNL     1       1.037  13.867  -1.727  1.00  0.00    -0.206 F 
ATOM     73  C   UNL     1       2.098  15.213  -3.328  1.00  0.00     0.059 A 
ATOM     74  C   UNL     1       3.712  16.886  -2.626  1.00  0.00     0.059 A 
ATOM     75  F   UNL     1       4.237  17.114  -0.353  1.00  0.00    -0.206 F 
ATOM     76  C   UNL     1       3.003  16.232  -3.632  1.00  0.00     0.060 A 
BRANCH  76  77
ATOM     77  S   UNL     1       3.237  16.689  -5.363  1.00  0.00     0.124 S 
ATOM     78  O   UNL     1       3.944  15.521  -5.880  1.00  0.00    -0.237 OA
ATOM     79  O   UNL     1       1.864  16.855  -5.828  1.00  0.00    -0.237 OA
ATOM     80  O   UNL     1       4.024  17.915  -5.289  1.00  0.00    -0.744 OA
ENDBRANCH  76  77
ENDBRANCH  55  69
BRANCH  56  81
ATOM     81  C   UNL     1       1.518  12.727   8.577  1.00  0.00     0.058 A 
ATOM     82  C   UNL     1       0.261  12.590   9.185  1.00  0.00     0.135 A 
ATOM     83  C   UNL     1       2.653  12.512   9.377  1.00  0.00     0.135 A 
ATOM     84  F   UNL     1      -0.855  12.806   8.473  1.00  0.00    -0.206 F 
ATOM     85  C   UNL     1       0.132  12.267  10.534  1.00  0.00     0.059 A 
ATOM     86  C   UNL     1       2.549  12.158  10.719  1.00  0.00     0.059 A 
ATOM     87  F   UNL     1       3.881  12.628   8.849  1.00  0.00    -0.206 F 
ATOM     88  C   UNL     1       1.283  12.047  11.291  1.00  0.00     0.060 A 
BRANCH  88  89
ATOM     89  S   UNL     1       1.107  11.581  13.027  1.00  0.00     0.124 S 
ATOM     90  O   UNL     1       0.656  12.832  13.625  1.00  0.00    -0.237 OA
ATOM     91  O   UNL     1       0.116  10.511  12.959  1.00  0.00    -0.237 OA
ATOM     92  O   UNL     1       2.453  11.152  13.397  1.00  0.00    -0.744 OA
ENDBRANCH  88  89
ENDBRANCH  56  81
BRANCH  68  93
ATOM     93  C   UNL     1      -0.062  18.525   5.004  1.00  0.00     0.058 A 
ATOM     94  C   UNL     1       0.590  19.479   5.802  1.00  0.00     0.135 A 
ATOM     95  C   UNL     1      -1.341  18.849   4.518  1.00  0.00     0.135 A 
ATOM     96  F   UNL     1       1.811  19.223   6.298  1.00  0.00    -0.206 F 
ATOM     97  C   UNL     1      -0.011  20.693   6.125  1.00  0.00     0.059 A 
ATOM     98  C   UNL     1      -1.947  20.070   4.801  1.00  0.00     0.059 A 
ATOM     99  F   UNL     1      -2.008  17.982   3.739  1.00  0.00    -0.206 F 
ATOM    100  C   UNL     1      -1.278  20.982   5.616  1.00  0.00     0.060 A 
BRANCH 100 101
ATOM    101  S   UNL     1      -2.030  22.575   6.014  1.00  0.00     0.124 S 
ATOM    102  O   UNL     1      -2.359  22.401   7.425  1.00  0.00    -0.237 OA
ATOM    103  O   UNL     1      -0.948  23.511   5.726  1.00  0.00    -0.237 OA
ATOM    104  O   UNL     1      -3.174  22.648   5.109  1.00  0.00    -0.744 OA
ENDBRANCH 100 101
ENDBRANCH  68  93
ENDBRANCH  42  43
ENDBRANCH  35  37
ENDBRANCH  34  35
ENDBRANCH  33  34
ENDBRANCH  32  33
ENDBRANCH  31  32
ENDBRANCH  30  31
ENDBRANCH   1  30
TORSDOF 24
