REMARK SMILES C#CC[NH2+]CC(=O)N1CC[NH+]([C@@H](C)C(=O)OCCOCCOCCOC(=O)c2ccc(-c3c4nc(c(-c5c(F)cc(S(=O)(=O)[O-])cc5F)c5ccc([nH]5)c(-c5c(F)cc(S(=O)(=O)[O-])cc5F)c5nc(c(-c6c(F)cc(S(=O)(=O)[O-])cc6F)c6ccc3[nH]6)C=C5)C=C4)cc2)CC1
REMARK SMILES IDX 20 1 19 2 18 3 17 4 16 5 14 6 15 7 12 8 13 9 11 10 6 11 7 12
REMARK SMILES IDX 8 13 9 14 95 15 10 16 94 17 5 19 4 20 3 23 2 24 1 25 21 26
REMARK SMILES IDX 22 27 23 28 24 29 25 30 26 31 27 32 28 33 29 34 93 35 30 36
REMARK SMILES IDX 92 37 31 38 32 39 33 40 86 41 34 42 91 43 85 44 87 45 35 46
REMARK SMILES IDX 90 47 84 48 83 49 36 51 70 52 49 53 69 54 50 55 53 56 68 57
REMARK SMILES IDX 88 58 51 59 52 60 67 62 89 63 54 64 37 65 38 66 47 67 39 68
REMARK SMILES IDX 40 69 46 70 48 71 41 72 42 73 43 74 44 75 45 76 71 77 72 78
REMARK SMILES IDX 81 79 73 80 74 81 80 82 82 83 75 84 76 85 77 86 78 87 79 88
REMARK SMILES IDX 55 89 56 90 65 91 57 92 58 93 64 94 66 95 59 96 60 97 61 98
REMARK SMILES IDX 62 99 63 100
REMARK H PARENT 11 18 4 21 4 22 87 50 53 61
REMARK Flexibility Score: inf
ROOT
ATOM      1  C   UNL     1      -4.598  -6.301  -3.834  1.00  0.00     0.188 C 
ENDROOT
BRANCH   1   2
ATOM      2  O   UNL     1      -5.599  -7.271  -4.073  1.00  0.00    -0.376 OA
BRANCH   2   3
ATOM      3  C   UNL     1      -6.560  -7.603  -3.083  1.00  0.00     0.202 C 
BRANCH   3   4
ATOM      4  C   UNL     1      -6.372  -7.367  -1.582  1.00  0.00     0.261 C 
BRANCH   4   5
ATOM      5  O   UNL     1      -5.499  -6.291  -1.262  1.00  0.00    -0.459 OA
BRANCH   5   6
ATOM      6  C   UNL     1      -4.585  -6.558  -0.295  1.00  0.00     0.364 C 
ATOM      7  O   UNL     1      -4.563  -7.601   0.353  1.00  0.00    -0.245 OA
BRANCH   6   8
ATOM      8  C   UNL     1      -3.501  -5.486  -0.176  1.00  0.00     0.292 C 
ATOM      9  C   UNL     1      -2.805  -5.651   1.184  1.00  0.00     0.088 C 
BRANCH   8  10
ATOM     10  N   UNL     1      -3.850  -4.102  -0.587  1.00  0.00    -0.321 N 
ATOM     11  C   UNL     1      -4.198  -0.372   1.529  1.00  0.00     0.278 C 
ATOM     12  O   UNL     1      -4.375  -0.247   2.738  1.00  0.00    -0.268 OA
ATOM     13  N   UNL     1      -4.174  -1.616   0.910  1.00  0.00    -0.327 N 
ATOM     14  C   UNL     1      -5.396  -2.370   0.670  1.00  0.00     0.181 C 
ATOM     15  C   UNL     1      -3.061  -2.535   1.103  1.00  0.00     0.181 C 
ATOM     16  C   UNL     1      -5.195  -3.500  -0.396  1.00  0.00     0.284 C 
ATOM     17  C   UNL     1      -2.781  -3.150  -0.278  1.00  0.00     0.284 C 
ATOM     18  H   UNL     1      -3.947  -4.302  -1.583  1.00  0.00     0.348 HD
BRANCH  11  19
ATOM     19  C   UNL     1      -3.933   0.849   0.591  1.00  0.00     0.362 C 
BRANCH  19  20
ATOM     20  N   UNL     1      -2.490   1.221   0.445  1.00  0.00    -0.328 N 
ATOM     21  H   UNL     1      -2.398   1.996  -0.211  1.00  0.00     0.347 HD
ATOM     22  H   UNL     1      -2.107   1.510   1.346  1.00  0.00     0.347 HD
BRANCH  20  23
ATOM     23  C   UNL     1      -1.775   0.067  -0.056  1.00  0.00     0.352 C 
BRANCH  23  24
ATOM     24  C   UNL     1      -0.255   0.067  -0.056  1.00  0.00    -0.047 C 
ATOM     25  C   UNL     1       1.049   0.067  -0.056  1.00  0.00     0.010 C 
ENDBRANCH  23  24
ENDBRANCH  20  23
ENDBRANCH  19  20
ENDBRANCH  11  19
ENDBRANCH   8  10
ENDBRANCH   6   8
ENDBRANCH   5   6
ENDBRANCH   4   5
ENDBRANCH   3   4
ENDBRANCH   2   3
ENDBRANCH   1   2
BRANCH   1  26
ATOM     26  C   UNL     1      -4.979  -4.808  -3.807  1.00  0.00     0.188 C 
BRANCH  26  27
ATOM     27  O   UNL     1      -6.327  -4.404  -3.671  1.00  0.00    -0.376 OA
BRANCH  27  28
ATOM     28  C   UNL     1      -7.249  -4.696  -4.710  1.00  0.00     0.202 C 
BRANCH  28  29
ATOM     29  C   UNL     1      -6.889  -4.680  -6.205  1.00  0.00     0.261 C 
BRANCH  29  30
ATOM     30  O   UNL     1      -5.595  -5.185  -6.555  1.00  0.00    -0.460 OA
BRANCH  30  31
ATOM     31  C   UNL     1      -4.738  -4.252  -7.046  1.00  0.00     0.338 C 
ATOM     32  O   UNL     1      -4.966  -3.072  -7.239  1.00  0.00    -0.246 OA
BRANCH  31  33
ATOM     33  C   UNL     1      -3.383  -4.828  -7.132  1.00  0.00     0.060 A 
ATOM     34  C   UNL     1      -2.364  -4.243  -6.365  1.00  0.00     0.016 A 
ATOM     35  C   UNL     1      -3.105  -5.889  -7.994  1.00  0.00     0.016 A 
ATOM     36  C   UNL     1      -1.053  -4.704  -6.477  1.00  0.00     0.010 A 
ATOM     37  C   UNL     1      -1.785  -6.330  -8.125  1.00  0.00     0.010 A 
ATOM     38  C   UNL     1      -0.751  -5.722  -7.389  1.00  0.00    -0.014 A 
BRANCH  38  39
ATOM     39  C   UNL     1       0.662  -6.028  -7.717  1.00  0.00     0.031 A 
ATOM     40  C   UNL     1       1.275  -5.366  -8.921  1.00  0.00     0.074 A 
ATOM     41  C   UNL     1       1.386  -6.879  -6.969  1.00  0.00     0.049 A 
ATOM     42  N   UNL     1       2.444  -5.563  -9.472  1.00  0.00    -0.248 NA
ATOM     43  C   UNL     1       0.454  -4.346  -9.595  1.00  0.00     0.031 C 
ATOM     44  C   UNL     1       0.918  -7.548  -5.756  1.00  0.00     0.029 A 
ATOM     45  N   UNL     1       2.667  -7.343  -7.138  1.00  0.00    -0.354 N 
ATOM     46  C   UNL     1       2.500  -4.697 -10.556  1.00  0.00     0.074 A 
ATOM     47  C   UNL     1       1.238  -3.991 -10.603  1.00  0.00     0.031 C 
ATOM     48  C   UNL     1       1.889  -8.365  -5.309  1.00  0.00     0.029 A 
ATOM     49  C   UNL     1       3.030  -8.301  -6.221  1.00  0.00     0.049 A 
ATOM     50  H   UNL     1       3.267  -7.021  -7.849  1.00  0.00     0.167 HD
ATOM     51  C   UNL     1       3.514  -4.502 -11.432  1.00  0.00     0.037 A 
ATOM     52  C   UNL     1       4.141  -9.062  -6.152  1.00  0.00     0.037 A 
ATOM     53  C   UNL     1       4.762  -5.217 -11.392  1.00  0.00     0.049 A 
ATOM     54  C   UNL     1       5.228  -8.884  -7.183  1.00  0.00     0.074 A 
ATOM     55  C   UNL     1       5.847  -5.104 -12.244  1.00  0.00     0.029 A 
ATOM     56  N   UNL     1       5.091  -6.181 -10.451  1.00  0.00    -0.354 N 
ATOM     57  N   UNL     1       5.270  -8.062  -8.205  1.00  0.00    -0.248 NA
ATOM     58  C   UNL     1       6.418  -9.738  -7.052  1.00  0.00     0.031 C 
ATOM     59  C   UNL     1       6.817  -6.026 -11.841  1.00  0.00     0.029 A 
ATOM     60  C   UNL     1       6.357  -6.680 -10.709  1.00  0.00     0.049 A 
ATOM     61  H   UNL     1       4.511  -6.469  -9.710  1.00  0.00     0.167 HD
ATOM     62  C   UNL     1       6.499  -8.281  -8.821  1.00  0.00     0.074 A 
ATOM     63  C   UNL     1       7.175  -9.305  -8.051  1.00  0.00     0.031 C 
ATOM     64  C   UNL     1       7.022  -7.690  -9.924  1.00  0.00     0.037 A 
BRANCH  51  65
ATOM     65  C   UNL     1       3.306  -3.487 -12.519  1.00  0.00     0.058 A 
ATOM     66  C   UNL     1       3.312  -2.110 -12.246  1.00  0.00     0.135 A 
ATOM     67  C   UNL     1       3.130  -3.892 -13.851  1.00  0.00     0.135 A 
ATOM     68  F   UNL     1       3.453  -1.671 -10.986  1.00  0.00    -0.206 F 
ATOM     69  C   UNL     1       3.133  -1.169 -13.255  1.00  0.00     0.059 A 
ATOM     70  C   UNL     1       2.974  -2.968 -14.880  1.00  0.00     0.059 A 
ATOM     71  F   UNL     1       3.110  -5.197 -14.164  1.00  0.00    -0.206 F 
ATOM     72  C   UNL     1       2.966  -1.609 -14.570  1.00  0.00     0.060 A 
BRANCH  72  73
ATOM     73  S   UNL     1       2.750  -0.375 -15.870  1.00  0.00     0.124 S 
ATOM     74  O   UNL     1       1.390   0.088 -15.608  1.00  0.00    -0.237 OA
ATOM     75  O   UNL     1       3.812   0.580 -15.573  1.00  0.00    -0.237 OA
ATOM     76  O   UNL     1       2.925  -1.142 -17.099  1.00  0.00    -0.744 OA
ENDBRANCH  72  73
ENDBRANCH  51  65
BRANCH  52  77
ATOM     77  C   UNL     1       4.272 -10.095  -5.089  1.00  0.00     0.058 A 
ATOM     78  C   UNL     1       5.215  -9.965  -4.059  1.00  0.00     0.135 A 
ATOM     79  C   UNL     1       3.472 -11.249  -5.099  1.00  0.00     0.135 A 
ATOM     80  F   UNL     1       6.012  -8.887  -4.012  1.00  0.00    -0.206 F 
ATOM     81  C   UNL     1       5.376 -10.950  -3.089  1.00  0.00     0.059 A 
ATOM     82  C   UNL     1       3.596 -12.235  -4.126  1.00  0.00     0.059 A 
ATOM     83  F   UNL     1       2.548 -11.418  -6.058  1.00  0.00    -0.206 F 
ATOM     84  C   UNL     1       4.562 -12.083  -3.132  1.00  0.00     0.060 A 
BRANCH  84  85
ATOM     85  S   UNL     1       4.755 -13.342  -1.851  1.00  0.00     0.124 S 
ATOM     86  O   UNL     1       5.994 -13.991  -2.264  1.00  0.00    -0.237 OA
ATOM     87  O   UNL     1       4.830 -12.535  -0.637  1.00  0.00    -0.237 OA
ATOM     88  O   UNL     1       3.544 -14.145  -1.987  1.00  0.00    -0.744 OA
ENDBRANCH  84  85
ENDBRANCH  52  77
BRANCH  64  89
ATOM     89  C   UNL     1       8.407  -8.099 -10.346  1.00  0.00     0.058 A 
ATOM     90  C   UNL     1       8.658  -9.336 -10.957  1.00  0.00     0.135 A 
ATOM     91  C   UNL     1       9.486  -7.212 -10.193  1.00  0.00     0.135 A 
ATOM     92  F   UNL     1       7.663 -10.222 -11.123  1.00  0.00    -0.206 F 
ATOM     93  C   UNL     1       9.934  -9.690 -11.384  1.00  0.00     0.059 A 
ATOM     94  C   UNL     1      10.764  -7.534 -10.636  1.00  0.00     0.059 A 
ATOM     95  F   UNL     1       9.297  -6.010  -9.625  1.00  0.00    -0.206 F 
ATOM     96  C   UNL     1      10.982  -8.781 -11.220  1.00  0.00     0.060 A 
BRANCH  96  97
ATOM     97  S   UNL     1      12.626  -9.235 -11.813  1.00  0.00     0.124 S 
ATOM     98  O   UNL     1      13.050 -10.192 -10.796  1.00  0.00    -0.237 OA
ATOM     99  O   UNL     1      12.341  -9.795 -13.130  1.00  0.00    -0.237 OA
ATOM    100  O   UNL     1      13.347  -7.966 -11.821  1.00  0.00    -0.744 OA
ENDBRANCH  96  97
ENDBRANCH  64  89
ENDBRANCH  38  39
ENDBRANCH  31  33
ENDBRANCH  30  31
ENDBRANCH  29  30
ENDBRANCH  28  29
ENDBRANCH  27  28
ENDBRANCH  26  27
ENDBRANCH   1  26
TORSDOF 25
