REMARK SMILES CC1=C(CC(=O)OCCOCCOCCOC(=O)c2ccc(-c3c4nc(c(-c5c(F)cc(S(=O)(=O)[O-])cc5F)c5ccc([nH]5)c(-c5c(F)cc(S(=O)(=O)[O-])cc5F)c5nc(c(-c6c(F)cc(S(=O)(=O)[O-])cc6F)c6ccc3[nH]6)C=C5)C=C4)cc2)c2cc(F)ccc2/C1=C\c1cccc(OCc2ccccc2)c1
REMARK SMILES IDX 11 1 10 2 9 3 8 4 7 5 5 6 6 7 4 8 3 9 1 10 2 11 92 12 85 13
REMARK SMILES IDX 91 14 93 15 86 16 90 17 87 18 89 19 88 20 94 21 95 22 107 23
REMARK SMILES IDX 96 24 98 25 97 26 99 27 100 28 101 29 102 30 106 31 103 32
REMARK SMILES IDX 105 33 104 34 12 35 13 36 14 37 15 38 16 39 17 40 18 41
REMARK SMILES IDX 19 42 20 43 84 44 21 45 83 46 22 47 23 48 24 49 77 50 25 51
REMARK SMILES IDX 82 52 76 53 78 54 26 55 81 56 75 57 74 58 27 60 61 61 40 62
REMARK SMILES IDX 60 63 41 64 44 65 59 66 79 67 42 68 43 69 58 71 80 72 45 73
REMARK SMILES IDX 28 74 29 75 38 76 30 77 31 78 37 79 39 80 32 81 33 82 34 83
REMARK SMILES IDX 35 84 36 85 62 86 63 87 72 88 64 89 65 90 71 91 73 92 66 93
REMARK SMILES IDX 67 94 68 95 69 96 70 97 46 98 47 99 56 100 48 101 49 102
REMARK SMILES IDX 55 103 57 104 50 105 51 106 52 107 53 108 54 109
REMARK H PARENT 78 59 44 70
REMARK Flexibility Score: inf
ROOT
ATOM      1  C   UNL     1       3.423  -5.231   1.335  1.00  0.00     0.188 C 
ENDROOT
BRANCH   1   2
ATOM      2  O   UNL     1       4.784  -5.143   0.914  1.00  0.00    -0.376 OA
BRANCH   2   3
ATOM      3  C   UNL     1       5.360  -3.845   0.810  1.00  0.00     0.202 C 
BRANCH   3   4
ATOM      4  C   UNL     1       4.755  -2.967  -0.288  1.00  0.00     0.261 C 
BRANCH   4   5
ATOM      5  O   UNL     1       3.372  -2.673  -0.007  1.00  0.00    -0.463 OA
BRANCH   5   6
ATOM      6  C   UNL     1       2.608  -2.356  -1.084  1.00  0.00     0.310 C 
ATOM      7  O   UNL     1       3.058  -2.143  -2.204  1.00  0.00    -0.252 OA
BRANCH   6   8
ATOM      8  C   UNL     1       1.108  -2.435  -0.795  1.00  0.00     0.159 C 
BRANCH   8   9
ATOM      9  C   UNL     1       0.592  -1.883   0.502  1.00  0.00    -0.025 C 
ATOM     10  C   UNL     1       1.314   0.541   0.315  1.00  0.00     0.045 C 
ATOM     11  C   UNL     1       0.695  -0.628   1.005  1.00  0.00    -0.039 C 
ATOM     12  C   UNL     1      -0.001  -0.551   2.304  1.00  0.00    -0.014 C 
ATOM     13  C   UNL     1      -0.247  -2.659   1.437  1.00  0.00    -0.011 A 
ATOM     14  C   UNL     1      -0.521  -1.899   2.588  1.00  0.00    -0.010 A 
ATOM     15  C   UNL     1      -0.217   0.569   3.021  1.00  0.00     0.017 C 
ATOM     16  C   UNL     1      -0.793  -3.926   1.307  1.00  0.00     0.048 A 
ATOM     17  C   UNL     1      -1.195  -2.453   3.672  1.00  0.00     0.012 A 
ATOM     18  C   UNL     1      -1.544  -4.439   2.366  1.00  0.00     0.123 A 
ATOM     19  C   UNL     1      -1.707  -3.741   3.558  1.00  0.00     0.040 A 
ATOM     20  F   UNL     1      -2.097  -5.652   2.248  1.00  0.00    -0.207 F 
BRANCH  15  21
ATOM     21  C   UNL     1      -1.049   0.656   4.230  1.00  0.00    -0.021 A 
ATOM     22  C   UNL     1      -0.458   0.588   5.494  1.00  0.00     0.008 A 
ATOM     23  C   UNL     1      -2.450   0.723   4.121  1.00  0.00     0.054 A 
ATOM     24  C   UNL     1      -1.259   0.555   6.636  1.00  0.00     0.004 A 
ATOM     25  C   UNL     1      -3.254   0.718   5.262  1.00  0.00     0.120 A 
ATOM     26  C   UNL     1      -2.649   0.616   6.517  1.00  0.00     0.046 A 
BRANCH  25  27
ATOM     27  O   UNL     1      -4.621   0.788   5.298  1.00  0.00    -0.489 OA
BRANCH  27  28
ATOM     28  C   UNL     1      -5.330   1.099   4.093  1.00  0.00     0.265 C 
BRANCH  28  29
ATOM     29  C   UNL     1      -5.160   2.545   3.684  1.00  0.00    -0.011 A 
ATOM     30  C   UNL     1      -5.490   3.578   4.573  1.00  0.00     0.007 A 
ATOM     31  C   UNL     1      -4.639   2.874   2.425  1.00  0.00     0.007 A 
ATOM     32  C   UNL     1      -5.269   4.911   4.222  1.00  0.00     0.000 A 
ATOM     33  C   UNL     1      -4.406   4.205   2.081  1.00  0.00     0.000 A 
ATOM     34  C   UNL     1      -4.717   5.223   2.981  1.00  0.00     0.000 A 
ENDBRANCH  28  29
ENDBRANCH  27  28
ENDBRANCH  25  27
ENDBRANCH  15  21
ENDBRANCH   8   9
ENDBRANCH   6   8
ENDBRANCH   5   6
ENDBRANCH   4   5
ENDBRANCH   3   4
ENDBRANCH   2   3
ENDBRANCH   1   2
BRANCH   1  35
ATOM     35  C   UNL     1       2.963  -4.299   2.467  1.00  0.00     0.188 C 
BRANCH  35  36
ATOM     36  O   UNL     1       3.954  -4.171   3.483  1.00  0.00    -0.376 OA
BRANCH  36  37
ATOM     37  C   UNL     1       3.454  -4.390   4.796  1.00  0.00     0.202 C 
BRANCH  37  38
ATOM     38  C   UNL     1       3.593  -5.865   5.172  1.00  0.00     0.261 C 
BRANCH  38  39
ATOM     39  O   UNL     1       2.885  -6.753   4.289  1.00  0.00    -0.460 OA
BRANCH  39  40
ATOM     40  C   UNL     1       1.550  -6.840   4.477  1.00  0.00     0.338 C 
ATOM     41  O   UNL     1       0.879  -6.228   5.285  1.00  0.00    -0.246 OA
BRANCH  40  42
ATOM     42  C   UNL     1       1.014  -7.754   3.452  1.00  0.00     0.060 A 
ATOM     43  C   UNL     1       1.021  -9.131   3.650  1.00  0.00     0.016 A 
ATOM     44  C   UNL     1       0.467  -7.218   2.287  1.00  0.00     0.016 A 
ATOM     45  C   UNL     1       0.469  -9.966   2.671  1.00  0.00     0.010 A 
ATOM     46  C   UNL     1      -0.129  -8.044   1.335  1.00  0.00     0.010 A 
ATOM     47  C   UNL     1      -0.127  -9.430   1.512  1.00  0.00    -0.014 A 
BRANCH  47  48
ATOM     48  C   UNL     1      -0.791 -10.316   0.519  1.00  0.00     0.031 A 
ATOM     49  C   UNL     1      -0.232 -10.493  -0.867  1.00  0.00     0.074 A 
ATOM     50  C   UNL     1      -1.928 -10.949   0.867  1.00  0.00     0.049 A 
ATOM     51  N   UNL     1      -0.631 -11.296  -1.821  1.00  0.00    -0.248 NA
ATOM     52  C   UNL     1       0.909  -9.642  -1.242  1.00  0.00     0.031 C 
ATOM     53  C   UNL     1      -2.624 -10.786   2.146  1.00  0.00     0.029 A 
ATOM     54  N   UNL     1      -2.692 -11.863   0.187  1.00  0.00    -0.354 N 
ATOM     55  C   UNL     1       0.215 -11.064  -2.898  1.00  0.00     0.074 A 
ATOM     56  C   UNL     1       1.107  -9.993  -2.505  1.00  0.00     0.031 C 
ATOM     57  C   UNL     1      -3.682 -11.612   2.178  1.00  0.00     0.029 A 
ATOM     58  C   UNL     1      -3.748 -12.350   0.920  1.00  0.00     0.049 A 
ATOM     59  H   UNL     1      -2.503 -12.142  -0.738  1.00  0.00     0.167 HD
ATOM     60  C   UNL     1       0.268 -11.705  -4.092  1.00  0.00     0.037 A 
ATOM     61  C   UNL     1      -4.651 -13.305   0.625  1.00  0.00     0.037 A 
ATOM     62  C   UNL     1      -0.621 -12.773  -4.477  1.00  0.00     0.049 A 
ATOM     63  C   UNL     1      -4.558 -14.022  -0.692  1.00  0.00     0.074 A 
ATOM     64  C   UNL     1      -0.615 -13.525  -5.639  1.00  0.00     0.029 A 
ATOM     65  N   UNL     1      -1.677 -13.241  -3.708  1.00  0.00    -0.354 N 
ATOM     66  N   UNL     1      -3.698 -13.847  -1.667  1.00  0.00    -0.248 NA
ATOM     67  C   UNL     1      -5.550 -15.076  -0.943  1.00  0.00     0.031 C 
ATOM     68  C   UNL     1      -1.686 -14.426  -5.586  1.00  0.00     0.029 A 
ATOM     69  C   UNL     1      -2.338 -14.260  -4.375  1.00  0.00     0.049 A 
ATOM     70  H   UNL     1      -1.921 -12.898  -2.818  1.00  0.00     0.167 HD
ATOM     71  C   UNL     1      -4.041 -14.773  -2.645  1.00  0.00     0.074 A 
ATOM     72  C   UNL     1      -5.169 -15.524  -2.131  1.00  0.00     0.031 C 
ATOM     73  C   UNL     1      -3.475 -14.981  -3.861  1.00  0.00     0.037 A 
BRANCH  60  74
ATOM     74  C   UNL     1       1.346 -11.289  -5.057  1.00  0.00     0.058 A 
ATOM     75  C   UNL     1       2.696 -11.588  -4.811  1.00  0.00     0.135 A 
ATOM     76  C   UNL     1       1.032 -10.625  -6.254  1.00  0.00     0.135 A 
ATOM     77  F   UNL     1       3.055 -12.212  -3.678  1.00  0.00    -0.206 F 
ATOM     78  C   UNL     1       3.700 -11.217  -5.701  1.00  0.00     0.059 A 
ATOM     79  C   UNL     1       2.018 -10.267  -7.171  1.00  0.00     0.059 A 
ATOM     80  F   UNL     1      -0.242 -10.317  -6.543  1.00  0.00    -0.206 F 
ATOM     81  C   UNL     1       3.351 -10.555  -6.879  1.00  0.00     0.060 A 
BRANCH  81  82
ATOM     82  S   UNL     1       4.667 -10.088  -8.024  1.00  0.00     0.124 S 
ATOM     83  O   UNL     1       5.301  -8.987  -7.305  1.00  0.00    -0.237 OA
ATOM     84  O   UNL     1       5.449 -11.316  -8.119  1.00  0.00    -0.237 OA
ATOM     85  O   UNL     1       3.946  -9.712  -9.236  1.00  0.00    -0.744 OA
ENDBRANCH  81  82
ENDBRANCH  60  74
BRANCH  61  86
ATOM     86  C   UNL     1      -5.676 -13.682   1.633  1.00  0.00     0.058 A 
ATOM     87  C   UNL     1      -5.569 -14.887   2.343  1.00  0.00     0.135 A 
ATOM     88  C   UNL     1      -6.750 -12.834   1.938  1.00  0.00     0.135 A 
ATOM     89  F   UNL     1      -4.561 -15.733   2.081  1.00  0.00    -0.206 F 
ATOM     90  C   UNL     1      -6.494 -15.242   3.318  1.00  0.00     0.059 A 
ATOM     91  C   UNL     1      -7.677 -13.157   2.924  1.00  0.00     0.059 A 
ATOM     92  F   UNL     1      -6.886 -11.664   1.295  1.00  0.00    -0.206 F 
ATOM     93  C   UNL     1      -7.542 -14.365   3.607  1.00  0.00     0.060 A 
BRANCH  93  94
ATOM     94  S   UNL     1      -8.694 -14.804   4.928  1.00  0.00     0.124 S 
ATOM     95  O   UNL     1      -9.454 -15.884   4.310  1.00  0.00    -0.237 OA
ATOM     96  O   UNL     1      -7.789 -15.195   6.005  1.00  0.00    -0.237 OA
ATOM     97  O   UNL     1      -9.430 -13.564   5.157  1.00  0.00    -0.744 OA
ENDBRANCH  93  94
ENDBRANCH  61  86
BRANCH  73  98
ATOM     98  C   UNL     1      -4.082 -16.058  -4.717  1.00  0.00     0.058 A 
ATOM     99  C   UNL     1      -5.328 -15.881  -5.339  1.00  0.00     0.135 A 
ATOM    100  C   UNL     1      -3.411 -17.273  -4.925  1.00  0.00     0.135 A 
ATOM    101  F   UNL     1      -6.012 -14.739  -5.168  1.00  0.00    -0.206 F 
ATOM    102  C   UNL     1      -5.905 -16.887  -6.107  1.00  0.00     0.059 A 
ATOM    103  C   UNL     1      -3.959 -18.284  -5.710  1.00  0.00     0.059 A 
ATOM    104  F   UNL     1      -2.211 -17.489  -4.362  1.00  0.00    -0.206 F 
ATOM    105  C   UNL     1      -5.215 -18.087  -6.282  1.00  0.00     0.060 A 
BRANCH 105 106
ATOM    106  S   UNL     1      -5.978 -19.387  -7.277  1.00  0.00     0.124 S 
ATOM    107  O   UNL     1      -6.995 -19.897  -6.363  1.00  0.00    -0.237 OA
ATOM    108  O   UNL     1      -6.477 -18.647  -8.431  1.00  0.00    -0.237 OA
ATOM    109  O   UNL     1      -4.870 -20.296  -7.554  1.00  0.00    -0.744 OA
ENDBRANCH 105 106
ENDBRANCH  73  98
ENDBRANCH  47  48
ENDBRANCH  40  42
ENDBRANCH  39  40
ENDBRANCH  38  39
ENDBRANCH  37  38
ENDBRANCH  36  37
ENDBRANCH  35  36
ENDBRANCH   1  35
TORSDOF 25
