REMARK SMILES CC[C@H](NC(=O)N1CC[C@H]2CC[C@@H](C1)[N@@H+]2C)C(=O)OCCOCCOCCOC(=O)c1ccc(-c2c3nc(c(-c4c(F)cc(S(=O)(=O)[O-])cc4F)c4ccc([nH]4)c(-c4c(F)cc(S(=O)(=O)[O-])cc4F)c4nc(c(-c5c(F)cc(S(=O)(=O)[O-])cc5F)c5ccc2[nH]5)C=C4)C=C3)cc1
REMARK SMILES IDX 23 1 22 2 21 3 20 4 19 5 17 6 18 7 3 8 2 9 1 10 4 11 5 12
REMARK SMILES IDX 6 14 7 15 8 16 9 17 14 19 13 20 12 21 15 22 11 23 10 24
REMARK SMILES IDX 16 25 24 28 25 29 26 30 27 31 28 32 29 33 30 34 31 35 32 36
REMARK SMILES IDX 96 37 33 38 95 39 34 40 35 41 36 42 89 43 37 44 94 45 88 46
REMARK SMILES IDX 90 47 38 48 93 49 87 50 86 51 39 53 73 54 52 55 72 56 53 57
REMARK SMILES IDX 56 58 71 59 91 60 54 61 55 62 70 64 92 65 57 66 40 67 41 68
REMARK SMILES IDX 50 69 42 70 43 71 49 72 51 73 44 74 45 75 46 76 47 77 48 78
REMARK SMILES IDX 74 79 75 80 84 81 76 82 77 83 83 84 85 85 78 86 79 87 80 88
REMARK SMILES IDX 81 89 82 90 58 91 59 92 68 93 60 94 61 95 67 96 69 97 62 98
REMARK SMILES IDX 63 99 64 100 65 101 66 102
REMARK H PARENT 4 13 15 26 90 52 56 63
REMARK Flexibility Score: 90.00
ROOT
ATOM      1  C   UNL     1       0.788  -0.452  -4.001  1.00  0.00     0.188 C 
ENDROOT
BRANCH   1   2
ATOM      2  O   UNL     1       0.808   0.225  -5.894  1.00  0.00    -0.376 OA
BRANCH   2   3
ATOM      3  C   UNL     1      -0.718  -0.427  -6.876  1.00  0.00     0.202 C 
BRANCH   3   4
ATOM      4  C   UNL     1      -1.715  -1.738  -5.879  1.00  0.00     0.261 C 
BRANCH   4   5
ATOM      5  O   UNL     1      -1.344  -1.855  -4.221  1.00  0.00    -0.462 OA
BRANCH   5   6
ATOM      6  C   UNL     1      -0.709  -2.653  -3.256  1.00  0.00     0.328 C 
ATOM      7  O   UNL     1      -0.753  -3.879  -3.334  1.00  0.00    -0.250 OA
BRANCH   6   8
ATOM      8  C   UNL     1       0.349  -1.836  -1.980  1.00  0.00     0.193 C 
BRANCH   8   9
ATOM      9  C   UNL     1       0.054  -2.587  -0.640  1.00  0.00     0.033 C 
ATOM     10  C   UNL     1      -0.238  -1.786   0.614  1.00  0.00     0.007 C 
ENDBRANCH   8   9
BRANCH   8  11
ATOM     11  N   UNL     1       0.913  -0.186  -1.668  1.00  0.00    -0.324 N 
ATOM     12  C   UNL     1       1.060   1.231  -2.315  1.00  0.00     0.318 C 
ATOM     13  H   UNL     1       1.264  -0.146  -0.749  1.00  0.00     0.166 HD
ATOM     14  O   UNL     1       1.592   2.133  -1.666  1.00  0.00    -0.249 OA
BRANCH  12  15
ATOM     15  N   UNL     1       0.641   1.414  -3.964  1.00  0.00    -0.319 N 
BRANCH  15  16
ATOM     16  C   UNL     1      -0.579   0.265  -4.987  1.00  0.00     0.128 C 
BRANCH  16  17
ATOM     17  C   UNL     1       0.543  -1.484  -5.698  1.00  0.00     0.086 CG0
ATOM     18  G   UNL     1       2.266  -1.059  -6.461  1.00  0.00     0.000 G0
ENDBRANCH  16  17
ENDBRANCH  15  16
BRANCH  15  19
ATOM     19  C   UNL     1       2.024   1.785  -4.548  1.00  0.00     0.186 C 
BRANCH  19  20
ATOM     20  C   UNL     1       2.853   1.191  -5.760  1.00  0.00     0.204 C 
ATOM     21  C   UNL     1       2.333   1.385  -7.204  1.00  0.00     0.073 C 
ATOM     22  N   UNL     1       3.275  -0.261  -5.630  1.00  0.00    -0.331 N 
ATOM     23  C   UNL     1       2.215  -0.077  -7.748  1.00  0.00     0.071 C 
ATOM     24  C   UNL     1       2.266  -1.059  -6.461  1.00  0.00     0.186 CG0
ATOM     25  C   UNL     1       4.621  -0.320  -6.240  1.00  0.00     0.333 C 
ATOM     26  H   UNL     1       3.299  -0.624  -4.677  1.00  0.00     0.348 HD
ATOM     27  G   UNL     1       0.543  -1.484  -5.698  1.00  0.00     0.000 G0
ENDBRANCH  19  20
ENDBRANCH  15  19
ENDBRANCH  12  15
ENDBRANCH   8  11
ENDBRANCH   6   8
ENDBRANCH   5   6
ENDBRANCH   4   5
ENDBRANCH   3   4
ENDBRANCH   2   3
ENDBRANCH   1   2
BRANCH   1  28
ATOM     28  C   UNL     1      -0.894   0.206  -2.969  1.00  0.00     0.188 C 
BRANCH  28  29
ATOM     29  O   UNL     1      -1.309   1.773  -2.812  1.00  0.00    -0.376 OA
BRANCH  29  30
ATOM     30  C   UNL     1      -1.726   2.666  -3.903  1.00  0.00     0.202 C 
BRANCH  30  31
ATOM     31  C   UNL     1      -0.935   4.027  -4.370  1.00  0.00     0.261 C 
BRANCH  31  32
ATOM     32  O   UNL     1       0.500   4.037  -4.636  1.00  0.00    -0.460 OA
BRANCH  32  33
ATOM     33  C   UNL     1       1.318   5.142  -4.493  1.00  0.00     0.338 C 
ATOM     34  O   UNL     1       0.914   6.281  -4.322  1.00  0.00    -0.246 OA
BRANCH  33  35
ATOM     35  C   UNL     1       2.830   4.787  -4.498  1.00  0.00     0.060 A 
ATOM     36  C   UNL     1       3.421   4.284  -3.322  1.00  0.00     0.016 A 
ATOM     37  C   UNL     1       3.637   4.762  -5.653  1.00  0.00     0.016 A 
ATOM     38  C   UNL     1       4.727   3.698  -3.303  1.00  0.00     0.010 A 
ATOM     39  C   UNL     1       4.967   4.212  -5.620  1.00  0.00     0.010 A 
ATOM     40  C   UNL     1       5.534   3.642  -4.449  1.00  0.00    -0.014 A 
BRANCH  40  41
ATOM     41  C   UNL     1       7.028   3.320  -4.373  1.00  0.00     0.031 A 
ATOM     42  C   UNL     1       7.937   4.505  -4.143  1.00  0.00     0.074 A 
ATOM     43  C   UNL     1       7.646   2.108  -4.433  1.00  0.00     0.049 A 
ATOM     44  N   UNL     1       9.243   4.573  -4.106  1.00  0.00    -0.248 NA
ATOM     45  C   UNL     1       7.259   5.779  -3.857  1.00  0.00     0.031 C 
ATOM     46  C   UNL     1       7.003   0.805  -4.365  1.00  0.00     0.029 A 
ATOM     47  N   UNL     1       8.985   1.765  -4.597  1.00  0.00    -0.354 N 
ATOM     48  C   UNL     1       9.537   5.881  -3.743  1.00  0.00     0.074 A 
ATOM     49  C   UNL     1       8.280   6.587  -3.643  1.00  0.00     0.031 C 
ATOM     50  C   UNL     1       7.883  -0.168  -4.685  1.00  0.00     0.029 A 
ATOM     51  C   UNL     1       9.204   0.423  -4.875  1.00  0.00     0.049 A 
ATOM     52  H   UNL     1       9.716   2.420  -4.523  1.00  0.00     0.167 HD
ATOM     53  C   UNL     1      10.736   6.449  -3.479  1.00  0.00     0.037 A 
ATOM     54  C   UNL     1      10.323  -0.264  -5.218  1.00  0.00     0.037 A 
ATOM     55  C   UNL     1      12.002   5.785  -3.613  1.00  0.00     0.049 A 
ATOM     56  C   UNL     1      11.661   0.440  -5.150  1.00  0.00     0.074 A 
ATOM     57  C   UNL     1      13.268   6.308  -3.423  1.00  0.00     0.029 A 
ATOM     58  N   UNL     1      12.167   4.462  -3.991  1.00  0.00    -0.354 N 
ATOM     59  N   UNL     1      11.915   1.681  -4.807  1.00  0.00    -0.248 NA
ATOM     60  C   UNL     1      12.869  -0.351  -5.447  1.00  0.00     0.031 C 
ATOM     61  C   UNL     1      14.202   5.320  -3.749  1.00  0.00     0.029 A 
ATOM     62  C   UNL     1      13.517   4.161  -4.077  1.00  0.00     0.049 A 
ATOM     63  H   UNL     1      11.434   3.829  -4.172  1.00  0.00     0.167 HD
ATOM     64  C   UNL     1      13.301   1.797  -4.778  1.00  0.00     0.074 A 
ATOM     65  C   UNL     1      13.838   0.507  -5.155  1.00  0.00     0.031 C 
ATOM     66  C   UNL     1      14.055   2.873  -4.442  1.00  0.00     0.037 A 
BRANCH  53  67
ATOM     67  C   UNL     1      10.708   7.892  -3.065  1.00  0.00     0.058 A 
ATOM     68  C   UNL     1      10.210   8.290  -1.812  1.00  0.00     0.135 A 
ATOM     69  C   UNL     1      11.127   8.891  -3.955  1.00  0.00     0.135 A 
ATOM     70  F   UNL     1       9.763   7.372  -0.939  1.00  0.00    -0.206 F 
ATOM     71  C   UNL     1      10.088   9.632  -1.475  1.00  0.00     0.059 A 
ATOM     72  C   UNL     1      11.045  10.239  -3.625  1.00  0.00     0.059 A 
ATOM     73  F   UNL     1      11.598   8.562  -5.168  1.00  0.00    -0.206 F 
ATOM     74  C   UNL     1      10.505  10.600  -2.391  1.00  0.00     0.060 A 
BRANCH  74  75
ATOM     75  S   UNL     1      10.322  12.339  -1.949  1.00  0.00     0.124 S 
ATOM     76  O   UNL     1       8.876  12.512  -2.034  1.00  0.00    -0.237 OA
ATOM     77  O   UNL     1      10.888  12.379  -0.605  1.00  0.00    -0.237 OA
ATOM     78  O   UNL     1      11.097  13.033  -2.973  1.00  0.00    -0.744 OA
ENDBRANCH  74  75
ENDBRANCH  53  67
BRANCH  54  79
ATOM     79  C   UNL     1      10.274  -1.710  -5.634  1.00  0.00     0.058 A 
ATOM     80  C   UNL     1      10.822  -2.735  -4.843  1.00  0.00     0.135 A 
ATOM     81  C   UNL     1       9.753  -2.087  -6.885  1.00  0.00     0.135 A 
ATOM     82  F   UNL     1      11.373  -2.441  -3.656  1.00  0.00    -0.206 F 
ATOM     83  C   UNL     1      10.864  -4.065  -5.273  1.00  0.00     0.059 A 
ATOM     84  C   UNL     1       9.766  -3.412  -7.329  1.00  0.00     0.059 A 
ATOM     85  F   UNL     1       9.235  -1.157  -7.702  1.00  0.00    -0.206 F 
ATOM     86  C   UNL     1      10.329  -4.396  -6.518  1.00  0.00     0.060 A 
BRANCH  86  87
ATOM     87  S   UNL     1      10.350  -6.130  -7.045  1.00  0.00     0.124 S 
ATOM     88  O   UNL     1      11.774  -6.364  -7.254  1.00  0.00    -0.237 OA
ATOM     89  O   UNL     1       9.755  -6.804  -5.895  1.00  0.00    -0.237 OA
ATOM     90  O   UNL     1       9.529  -6.126  -8.253  1.00  0.00    -0.744 OA
ENDBRANCH  86  87
ENDBRANCH  54  79
BRANCH  66  91
ATOM     91  C   UNL     1      15.551   2.715  -4.419  1.00  0.00     0.058 A 
ATOM     92  C   UNL     1      16.304   2.588  -5.596  1.00  0.00     0.135 A 
ATOM     93  C   UNL     1      16.250   2.783  -3.200  1.00  0.00     0.135 A 
ATOM     94  F   UNL     1      15.690   2.516  -6.787  1.00  0.00    -0.206 F 
ATOM     95  C   UNL     1      17.694   2.519  -5.566  1.00  0.00     0.059 A 
ATOM     96  C   UNL     1      17.640   2.747  -3.149  1.00  0.00     0.059 A 
ATOM     97  F   UNL     1      15.581   2.915  -2.043  1.00  0.00    -0.206 F 
ATOM     98  C   UNL     1      18.353   2.607  -4.338  1.00  0.00     0.060 A 
BRANCH  98  99
ATOM     99  S   UNL     1      20.158   2.572  -4.320  1.00  0.00     0.124 S 
ATOM    100  O   UNL     1      20.429   1.173  -4.631  1.00  0.00    -0.237 OA
ATOM    101  O   UNL     1      20.499   3.531  -5.366  1.00  0.00    -0.237 OA
ATOM    102  O   UNL     1      20.495   2.990  -2.962  1.00  0.00    -0.744 OA
ENDBRANCH  98  99
ENDBRANCH  66  91
ENDBRANCH  40  41
ENDBRANCH  33  35
ENDBRANCH  32  33
ENDBRANCH  31  32
ENDBRANCH  30  31
ENDBRANCH  29  30
ENDBRANCH  28  29
ENDBRANCH   1  28
TORSDOF 23
