REMARK SMILES CC(=O)Nc1cnc(N2CC=C(c3ccccc3C)CC2)c(C(=O)OCCOCCOCCOC(=O)c2ccc(-c3c4nc(c(-c5c(F)cc(S(=O)(=O)[O-])cc5F)c5ccc([nH]5)c(-c5c(F)cc(S(=O)(=O)[O-])cc5F)c5nc(c(-c6c(F)cc(S(=O)(=O)[O-])cc6F)c6ccc3[nH]6)C=C5)C=C4)cc2)c1
REMARK SMILES IDX 30 1 29 2 28 3 27 4 26 5 25 6 23 7 24 8 22 9 5 10 6 11
REMARK SMILES IDX 103 12 7 13 8 14 4 15 1 16 2 17 3 18 9 20 10 21 21 22 11 23
REMARK SMILES IDX 20 24 12 25 13 26 14 27 18 28 15 29 17 30 19 31 16 32 31 33
REMARK SMILES IDX 32 34 33 35 34 36 35 37 36 38 37 39 38 40 102 41 39 42
REMARK SMILES IDX 101 43 40 44 41 45 42 46 95 47 43 48 100 49 94 50 96 51
REMARK SMILES IDX 44 52 99 53 93 54 92 55 45 57 79 58 58 59 78 60 59 61 62 62
REMARK SMILES IDX 77 63 97 64 60 65 61 66 76 68 98 69 63 70 46 71 47 72 56 73
REMARK SMILES IDX 48 74 49 75 55 76 57 77 50 78 51 79 52 80 53 81 54 82 80 83
REMARK SMILES IDX 81 84 90 85 82 86 83 87 89 88 91 89 84 90 85 91 86 92 87 93
REMARK SMILES IDX 88 94 64 95 65 96 74 97 66 98 67 99 73 100 75 101 68 102
REMARK SMILES IDX 69 103 70 104 71 105 72 106
REMARK H PARENT 4 19 96 56 62 67
REMARK Flexibility Score: inf
ROOT
ATOM      1  C   UNL     1       8.499   2.770   1.023  1.00  0.00     0.188 C 
ENDROOT
BRANCH   1   2
ATOM      2  C   UNL     1       7.468   1.644   0.887  1.00  0.00     0.188 C 
BRANCH   2   3
ATOM      3  O   UNL     1       6.806   1.463  -0.375  1.00  0.00    -0.376 OA
BRANCH   3   4
ATOM      4  C   UNL     1       6.033   0.224  -0.440  1.00  0.00     0.202 C 
BRANCH   4   5
ATOM      5  C   UNL     1       4.424   0.235  -0.120  1.00  0.00     0.261 C 
BRANCH   5   6
ATOM      6  O   UNL     1       3.593  -0.477   1.119  1.00  0.00    -0.460 OA
BRANCH   6   7
ATOM      7  C   UNL     1       3.334  -1.461   2.091  1.00  0.00     0.342 C 
ATOM      8  O   UNL     1       3.849  -2.540   2.329  1.00  0.00    -0.246 OA
BRANCH   7   9
ATOM      9  C   UNL     1       2.301  -1.041   3.056  1.00  0.00     0.104 A 
ATOM     10  C   UNL     1       0.362   0.394   3.169  1.00  0.00     0.060 A 
ATOM     11  C   UNL     1       0.268   0.019   4.496  1.00  0.00     0.139 A 
ATOM     12  C   UNL     1       1.405  -0.149   2.472  1.00  0.00     0.047 A 
ATOM     13  N   UNL     1       1.097  -0.871   5.112  1.00  0.00    -0.236 NA
ATOM     14  C   UNL     1       2.126  -1.434   4.413  1.00  0.00     0.143 A 
BRANCH  10  15
ATOM     15  N   UNL     1      -0.464   1.360   2.576  1.00  0.00    -0.325 N 
ATOM     16  C   UNL     1      -0.359   0.619   0.170  1.00  0.00     0.114 C 
ATOM     17  C   UNL     1      -0.657   1.647   1.245  1.00  0.00     0.221 C 
ATOM     18  O   UNL     1      -1.125   2.748   0.944  1.00  0.00    -0.275 OA
ATOM     19  H   UNL     1      -0.981   1.914   3.205  1.00  0.00     0.169 HD
ENDBRANCH  10  15
BRANCH  14  20
ATOM     20  N   UNL     1       2.959  -2.206   5.204  1.00  0.00    -0.352 N 
ATOM     21  C   UNL     1       2.818  -3.657   5.350  1.00  0.00     0.146 C 
ATOM     22  C   UNL     1       4.038  -1.551   5.923  1.00  0.00     0.123 C 
ATOM     23  C   UNL     1       3.462  -4.201   6.639  1.00  0.00    -0.002 C 
ATOM     24  C   UNL     1       4.118  -1.983   7.398  1.00  0.00     0.057 C 
ATOM     25  C   UNL     1       4.087  -3.480   7.600  1.00  0.00    -0.041 C 
BRANCH  25  26
ATOM     26  C   UNL     1       4.824  -4.070   8.789  1.00  0.00    -0.020 A 
ATOM     27  C   UNL     1       5.536  -5.280   8.617  1.00  0.00     0.008 A 
ATOM     28  C   UNL     1       4.955  -3.448  10.062  1.00  0.00    -0.044 A 
ATOM     29  C   UNL     1       6.367  -5.823   9.614  1.00  0.00     0.001 A 
ATOM     30  C   UNL     1       5.814  -3.996  11.049  1.00  0.00     0.004 A 
ATOM     31  C   UNL     1       4.239  -2.184  10.456  1.00  0.00     0.045 C 
ATOM     32  C   UNL     1       6.518  -5.171  10.828  1.00  0.00     0.000 A 
ENDBRANCH  25  26
ENDBRANCH  14  20
ENDBRANCH   7   9
ENDBRANCH   6   7
ENDBRANCH   5   6
ENDBRANCH   4   5
ENDBRANCH   3   4
ENDBRANCH   2   3
ENDBRANCH   1   2
BRANCH   1  33
ATOM     33  O   UNL     1       9.873   2.452   1.249  1.00  0.00    -0.376 OA
BRANCH  33  34
ATOM     34  C   UNL     1      10.262   1.318   2.016  1.00  0.00     0.202 C 
BRANCH  34  35
ATOM     35  C   UNL     1       9.820   1.093   3.484  1.00  0.00     0.261 C 
BRANCH  35  36
ATOM     36  O   UNL     1       8.830   1.998   4.001  1.00  0.00    -0.460 OA
BRANCH  36  37
ATOM     37  C   UNL     1       7.917   1.535   4.920  1.00  0.00     0.338 C 
ATOM     38  O   UNL     1       7.483   2.233   5.833  1.00  0.00    -0.246 OA
BRANCH  37  39
ATOM     39  C   UNL     1       7.117   0.430   4.356  1.00  0.00     0.060 A 
ATOM     40  C   UNL     1       7.343  -0.920   4.473  1.00  0.00     0.016 A 
ATOM     41  C   UNL     1       6.127   0.783   3.507  1.00  0.00     0.016 A 
ATOM     42  C   UNL     1       6.815  -1.845   3.527  1.00  0.00     0.010 A 
ATOM     43  C   UNL     1       5.792  -0.140   2.498  1.00  0.00     0.010 A 
ATOM     44  C   UNL     1       6.235  -1.472   2.325  1.00  0.00    -0.014 A 
BRANCH  44  45
ATOM     45  C   UNL     1       6.131  -2.526   1.064  1.00  0.00     0.031 A 
ATOM     46  C   UNL     1       5.052  -2.657  -0.128  1.00  0.00     0.074 A 
ATOM     47  C   UNL     1       7.026  -3.545   0.982  1.00  0.00     0.049 A 
ATOM     48  N   UNL     1       3.799  -3.048  -0.139  1.00  0.00    -0.248 NA
ATOM     49  C   UNL     1       5.475  -2.353  -1.524  1.00  0.00     0.031 C 
ATOM     50  C   UNL     1       6.946  -4.696   0.077  1.00  0.00     0.029 A 
ATOM     51  N   UNL     1       8.016  -3.936   1.879  1.00  0.00    -0.354 N 
ATOM     52  C   UNL     1       3.286  -2.949  -1.437  1.00  0.00     0.074 A 
ATOM     53  C   UNL     1       4.331  -2.321  -2.217  1.00  0.00     0.031 C 
ATOM     54  C   UNL     1       7.478  -5.750   0.719  1.00  0.00     0.029 A 
ATOM     55  C   UNL     1       7.862  -5.311   2.051  1.00  0.00     0.049 A 
ATOM     56  H   UNL     1       8.689  -3.358   2.306  1.00  0.00     0.167 HD
ATOM     57  C   UNL     1       2.476  -3.866  -2.062  1.00  0.00     0.037 A 
ATOM     58  C   UNL     1       7.460  -5.864   3.235  1.00  0.00     0.037 A 
ATOM     59  C   UNL     1       2.876  -5.186  -1.629  1.00  0.00     0.049 A 
ATOM     60  C   UNL     1       6.099  -6.554   3.094  1.00  0.00     0.074 A 
ATOM     61  C   UNL     1       3.916  -5.983  -2.081  1.00  0.00     0.029 A 
ATOM     62  N   UNL     1       2.521  -5.657  -0.380  1.00  0.00    -0.354 N 
ATOM     63  N   UNL     1       5.298  -6.418   2.064  1.00  0.00    -0.248 NA
ATOM     64  C   UNL     1       5.548  -7.477   4.084  1.00  0.00     0.031 C 
ATOM     65  C   UNL     1       4.287  -6.848  -1.029  1.00  0.00     0.029 A 
ATOM     66  C   UNL     1       3.411  -6.641   0.019  1.00  0.00     0.049 A 
ATOM     67  H   UNL     1       1.752  -5.341   0.147  1.00  0.00     0.167 HD
ATOM     68  C   UNL     1       4.194  -7.226   2.212  1.00  0.00     0.074 A 
ATOM     69  C   UNL     1       4.407  -7.876   3.491  1.00  0.00     0.031 C 
ATOM     70  C   UNL     1       3.203  -7.334   1.274  1.00  0.00     0.037 A 
BRANCH  57  71
ATOM     71  C   UNL     1       1.909  -3.516  -3.437  1.00  0.00     0.058 A 
ATOM     72  C   UNL     1       2.205  -4.211  -4.626  1.00  0.00     0.135 A 
ATOM     73  C   UNL     1       1.090  -2.373  -3.595  1.00  0.00     0.135 A 
ATOM     74  F   UNL     1       2.936  -5.332  -4.613  1.00  0.00    -0.206 F 
ATOM     75  C   UNL     1       1.813  -3.747  -5.891  1.00  0.00     0.059 A 
ATOM     76  C   UNL     1       0.679  -1.894  -4.851  1.00  0.00     0.059 A 
ATOM     77  F   UNL     1       0.702  -1.671  -2.516  1.00  0.00    -0.206 F 
ATOM     78  C   UNL     1       1.073  -2.574  -5.999  1.00  0.00     0.060 A 
BRANCH  78  79
ATOM     79  S   UNL     1       0.736  -1.906  -7.651  1.00  0.00     0.124 S 
ATOM     80  O   UNL     1       2.057  -1.941  -8.272  1.00  0.00    -0.237 OA
ATOM     81  O   UNL     1      -0.236  -2.857  -8.178  1.00  0.00    -0.237 OA
ATOM     82  O   UNL     1       0.222  -0.567  -7.377  1.00  0.00    -0.744 OA
ENDBRANCH  78  79
ENDBRANCH  57  71
BRANCH  58  83
ATOM     83  C   UNL     1       8.097  -5.273   4.466  1.00  0.00     0.058 A 
ATOM     84  C   UNL     1       9.505  -5.156   4.472  1.00  0.00     0.135 A 
ATOM     85  C   UNL     1       7.425  -4.555   5.463  1.00  0.00     0.135 A 
ATOM     86  F   UNL     1      10.236  -5.874   3.606  1.00  0.00    -0.206 F 
ATOM     87  C   UNL     1      10.181  -4.217   5.250  1.00  0.00     0.059 A 
ATOM     88  C   UNL     1       8.090  -3.627   6.296  1.00  0.00     0.059 A 
ATOM     89  F   UNL     1       6.089  -4.591   5.506  1.00  0.00    -0.206 F 
ATOM     90  C   UNL     1       9.459  -3.406   6.118  1.00  0.00     0.060 A 
BRANCH  90  91
ATOM     91  S   UNL     1      10.291  -1.895   6.727  1.00  0.00     0.124 S 
ATOM     92  O   UNL     1      11.133  -2.413   7.795  1.00  0.00    -0.237 OA
ATOM     93  O   UNL     1      10.984  -1.438   5.522  1.00  0.00    -0.237 OA
ATOM     94  O   UNL     1       9.188  -1.037   7.141  1.00  0.00    -0.744 OA
ENDBRANCH  90  91
ENDBRANCH  58  83
BRANCH  70  95
ATOM     95  C   UNL     1       1.941  -8.165   1.361  1.00  0.00     0.058 A 
ATOM     96  C   UNL     1       1.180  -8.315   2.527  1.00  0.00     0.135 A 
ATOM     97  C   UNL     1       1.362  -8.693   0.174  1.00  0.00     0.135 A 
ATOM     98  F   UNL     1       1.593  -7.792   3.690  1.00  0.00    -0.206 F 
ATOM     99  C   UNL     1      -0.057  -8.967   2.525  1.00  0.00     0.059 A 
ATOM    100  C   UNL     1       0.108  -9.289   0.139  1.00  0.00     0.059 A 
ATOM    101  F   UNL     1       2.001  -8.628  -1.006  1.00  0.00    -0.206 F 
ATOM    102  C   UNL     1      -0.588  -9.444   1.327  1.00  0.00     0.060 A 
BRANCH 102 103
ATOM    103  S   UNL     1      -2.207 -10.236   1.290  1.00  0.00     0.124 S 
ATOM    104  O   UNL     1      -1.839 -11.647   1.348  1.00  0.00    -0.237 OA
ATOM    105  O   UNL     1      -2.860  -9.705   2.483  1.00  0.00    -0.237 OA
ATOM    106  O   UNL     1      -2.768  -9.780   0.022  1.00  0.00    -0.744 OA
ENDBRANCH 102 103
ENDBRANCH  70  95
ENDBRANCH  44  45
ENDBRANCH  37  39
ENDBRANCH  36  37
ENDBRANCH  35  36
ENDBRANCH  34  35
ENDBRANCH  33  34
ENDBRANCH   1  33
TORSDOF 23
