REMARK SMILES CC/C=C/C/C=C/C/C=C/C/C=C/CCSCCCC(=O)OCCOCCOCCOC(=O)c1ccc(-c2c3nc(c(-c4c(F)cc(S(=O)(=O)[O-])cc4F)c4ccc([nH]4)c(-c4c(F)cc(S(=O)(=O)[O-])cc4F)c4nc(c(-c5c(F)cc(S(=O)(=O)[O-])cc5F)c5ccc2[nH]5)C=C4)C=C3)cc1
REMARK SMILES IDX 20 1 21 2 19 3 18 4 17 5 16 6 15 7 14 8 13 9 12 10 11 11
REMARK SMILES IDX 10 12 9 13 8 14 7 15 6 16 5 17 4 18 3 19 2 20 1 21 22 22
REMARK SMILES IDX 23 23 24 24 25 25 26 26 27 27 28 28 29 29 30 30 31 31 32 32
REMARK SMILES IDX 33 33 34 34 35 35 99 36 36 37 98 38 37 39 38 40 39 41 92 42
REMARK SMILES IDX 40 43 97 44 91 45 93 46 41 47 96 48 90 49 89 50 42 52 76 53
REMARK SMILES IDX 55 54 75 55 56 56 59 57 74 58 94 59 57 60 58 61 73 63 95 64
REMARK SMILES IDX 60 65 43 66 44 67 53 68 45 69 46 70 52 71 54 72 47 73 48 74
REMARK SMILES IDX 49 75 50 76 51 77 77 78 78 79 87 80 79 81 80 82 86 83 88 84
REMARK SMILES IDX 81 85 82 86 83 87 84 88 85 89 61 90 62 91 71 92 63 93 64 94
REMARK SMILES IDX 70 95 72 96 65 97 66 98 67 99 68 100 69 101
REMARK H PARENT 93 51 59 62
REMARK Flexibility Score: inf
ROOT
ATOM      1  C   UNL     1      -4.863   3.011  10.155  1.00  0.00     0.305 C 
ATOM      2  O   UNL     1      -4.129   2.295   9.502  1.00  0.00    -0.252 OA
ENDROOT
BRANCH   1   3
ATOM      3  C   UNL     1      -4.426   3.534  11.507  1.00  0.00     0.123 C 
BRANCH   3   4
ATOM      4  C   UNL     1      -5.462   4.231  12.380  1.00  0.00     0.023 C 
BRANCH   4   5
ATOM      5  C   UNL     1      -6.948   3.879  12.275  1.00  0.00     0.070 C 
BRANCH   5   6
ATOM      6  S   UNL     1      -7.702   2.210  12.457  1.00  0.00    -0.162 SA
BRANCH   6   7
ATOM      7  C   UNL     1      -6.362   0.965  12.391  1.00  0.00     0.073 C 
BRANCH   7   8
ATOM      8  C   UNL     1      -6.616  -0.184  11.387  1.00  0.00     0.038 C 
BRANCH   8   9
ATOM      9  C   UNL     1      -6.230   0.063   9.947  1.00  0.00    -0.030 C 
ATOM     10  C   UNL     1      -5.138  -0.411   9.311  1.00  0.00    -0.027 C 
BRANCH  10  11
ATOM     11  C   UNL     1      -4.767  -0.143   7.856  1.00  0.00     0.054 C 
BRANCH  11  12
ATOM     12  C   UNL     1      -3.368   0.412   7.687  1.00  0.00    -0.027 C 
ATOM     13  C   UNL     1      -2.966   1.348   6.799  1.00  0.00    -0.027 C 
BRANCH  13  14
ATOM     14  C   UNL     1      -1.574   1.938   6.755  1.00  0.00     0.054 C 
BRANCH  14  15
ATOM     15  C   UNL     1      -0.589   0.900   6.321  1.00  0.00    -0.027 C 
ATOM     16  C   UNL     1       0.138   0.947   5.194  1.00  0.00    -0.027 C 
BRANCH  16  17
ATOM     17  C   UNL     1       0.908  -0.240   4.687  1.00  0.00     0.054 C 
BRANCH  17  18
ATOM     18  C   UNL     1       0.357  -0.646   3.348  1.00  0.00    -0.027 C 
ATOM     19  C   UNL     1       1.108  -0.841   2.254  1.00  0.00    -0.031 C 
BRANCH  19  20
ATOM     20  C   UNL     1       0.543  -1.167   0.904  1.00  0.00     0.023 C 
ATOM     21  C   UNL     1       0.963  -0.119  -0.116  1.00  0.00     0.008 C 
ENDBRANCH  19  20
ENDBRANCH  17  18
ENDBRANCH  16  17
ENDBRANCH  14  15
ENDBRANCH  13  14
ENDBRANCH  11  12
ENDBRANCH  10  11
ENDBRANCH   8   9
ENDBRANCH   7   8
ENDBRANCH   6   7
ENDBRANCH   5   6
ENDBRANCH   4   5
ENDBRANCH   3   4
ENDBRANCH   1   3
BRANCH   1  22
ATOM     22  O   UNL     1      -6.031   3.530   9.741  1.00  0.00    -0.463 OA
BRANCH  22  23
ATOM     23  C   UNL     1      -6.757   3.322   8.505  1.00  0.00     0.261 C 
BRANCH  23  24
ATOM     24  C   UNL     1      -6.058   3.337   7.148  1.00  0.00     0.202 C 
BRANCH  24  25
ATOM     25  O   UNL     1      -5.337   4.493   6.771  1.00  0.00    -0.376 OA
BRANCH  25  26
ATOM     26  C   UNL     1      -4.341   4.903   7.685  1.00  0.00     0.188 C 
BRANCH  26  27
ATOM     27  C   UNL     1      -4.852   5.903   8.745  1.00  0.00     0.188 C 
BRANCH  27  28
ATOM     28  O   UNL     1      -6.152   6.461   8.631  1.00  0.00    -0.376 OA
BRANCH  28  29
ATOM     29  C   UNL     1      -6.592   6.890   7.351  1.00  0.00     0.202 C 
BRANCH  29  30
ATOM     30  C   UNL     1      -5.704   7.820   6.501  1.00  0.00     0.261 C 
BRANCH  30  31
ATOM     31  O   UNL     1      -4.302   7.496   6.430  1.00  0.00    -0.460 OA
BRANCH  31  32
ATOM     32  C   UNL     1      -3.476   8.218   7.232  1.00  0.00     0.338 C 
ATOM     33  O   UNL     1      -3.802   9.145   7.961  1.00  0.00    -0.246 OA
BRANCH  32  34
ATOM     34  C   UNL     1      -2.142   7.567   7.307  1.00  0.00     0.060 A 
ATOM     35  C   UNL     1      -1.643   7.176   8.564  1.00  0.00     0.016 A 
ATOM     36  C   UNL     1      -1.380   7.352   6.160  1.00  0.00     0.016 A 
ATOM     37  C   UNL     1      -0.373   6.613   8.684  1.00  0.00     0.010 A 
ATOM     38  C   UNL     1      -0.085   6.837   6.286  1.00  0.00     0.010 A 
ATOM     39  C   UNL     1       0.439   6.511   7.552  1.00  0.00    -0.014 A 
BRANCH  39  40
ATOM     40  C   UNL     1       1.907   6.369   7.721  1.00  0.00     0.031 A 
ATOM     41  C   UNL     1       2.725   7.633   7.740  1.00  0.00     0.074 A 
ATOM     42  C   UNL     1       2.503   5.174   7.871  1.00  0.00     0.049 A 
ATOM     43  N   UNL     1       4.022   7.786   7.746  1.00  0.00    -0.248 NA
ATOM     44  C   UNL     1       1.970   8.899   7.749  1.00  0.00     0.031 C 
ATOM     45  C   UNL     1       1.817   3.888   7.945  1.00  0.00     0.029 A 
ATOM     46  N   UNL     1       3.835   4.853   7.965  1.00  0.00    -0.354 N 
ATOM     47  C   UNL     1       4.238   9.159   7.753  1.00  0.00     0.074 A 
ATOM     48  C   UNL     1       2.941   9.797   7.716  1.00  0.00     0.031 C 
ATOM     49  C   UNL     1       2.735   2.909   8.031  1.00  0.00     0.029 A 
ATOM     50  C   UNL     1       4.073   3.499   7.986  1.00  0.00     0.049 A 
ATOM     51  H   UNL     1       4.551   5.527   8.012  1.00  0.00     0.167 HD
ATOM     52  C   UNL     1       5.412   9.831   7.798  1.00  0.00     0.037 A 
ATOM     53  C   UNL     1       5.237   2.819   7.939  1.00  0.00     0.037 A 
ATOM     54  C   UNL     1       6.699   9.190   7.823  1.00  0.00     0.049 A 
ATOM     55  C   UNL     1       6.538   3.582   7.897  1.00  0.00     0.074 A 
ATOM     56  C   UNL     1       7.951   9.777   7.849  1.00  0.00     0.029 A 
ATOM     57  N   UNL     1       6.899   7.817   7.825  1.00  0.00    -0.354 N 
ATOM     58  N   UNL     1       6.734   4.880   7.883  1.00  0.00    -0.248 NA
ATOM     59  C   UNL     1       7.777   2.791   7.872  1.00  0.00     0.031 C 
ATOM     60  C   UNL     1       8.910   8.760   7.819  1.00  0.00     0.029 A 
ATOM     61  C   UNL     1       8.255   7.538   7.836  1.00  0.00     0.049 A 
ATOM     62  H   UNL     1       6.183   7.142   7.818  1.00  0.00     0.167 HD
ATOM     63  C   UNL     1       8.114   5.060   7.879  1.00  0.00     0.074 A 
ATOM     64  C   UNL     1       8.705   3.738   7.899  1.00  0.00     0.031 C 
ATOM     65  C   UNL     1       8.828   6.214   7.864  1.00  0.00     0.037 A 
BRANCH  52  66
ATOM     66  C   UNL     1       5.353  11.333   7.800  1.00  0.00     0.058 A 
ATOM     67  C   UNL     1       4.894  12.051   8.916  1.00  0.00     0.135 A 
ATOM     68  C   UNL     1       5.790  12.066   6.684  1.00  0.00     0.135 A 
ATOM     69  F   UNL     1       4.439  11.400   9.998  1.00  0.00    -0.206 F 
ATOM     70  C   UNL     1       4.856  13.441   8.921  1.00  0.00     0.059 A 
ATOM     71  C   UNL     1       5.788  13.457   6.678  1.00  0.00     0.059 A 
ATOM     72  F   UNL     1       6.228  11.429   5.587  1.00  0.00    -0.206 F 
ATOM     73  C   UNL     1       5.311  14.136   7.798  1.00  0.00     0.060 A 
BRANCH  73  74
ATOM     74  S   UNL     1       5.279  15.940   7.833  1.00  0.00     0.124 S 
ATOM     75  O   UNL     1       3.846  16.209   7.763  1.00  0.00    -0.237 OA
ATOM     76  O   UNL     1       5.918  16.236   9.111  1.00  0.00    -0.237 OA
ATOM     77  O   UNL     1       6.046  16.317   6.650  1.00  0.00    -0.744 OA
ENDBRANCH  73  74
ENDBRANCH  52  66
BRANCH  53  78
ATOM     78  C   UNL     1       5.222   1.331   7.910  1.00  0.00     0.058 A 
ATOM     79  C   UNL     1       5.676   0.577   9.002  1.00  0.00     0.135 A 
ATOM     80  C   UNL     1       4.736   0.632   6.793  1.00  0.00     0.135 A 
ATOM     81  F   UNL     1       6.166   1.196  10.087  1.00  0.00    -0.206 F 
ATOM     82  C   UNL     1       5.652  -0.815   8.989  1.00  0.00     0.059 A 
ATOM     83  C   UNL     1       4.677  -0.758   6.766  1.00  0.00     0.059 A 
ATOM     84  F   UNL     1       4.288   1.304   5.721  1.00  0.00    -0.206 F 
ATOM     85  C   UNL     1       5.141  -1.473   7.869  1.00  0.00     0.060 A 
BRANCH  85  86
ATOM     86  S   UNL     1       5.048  -3.277   7.894  1.00  0.00     0.124 S 
ATOM     87  O   UNL     1       6.455  -3.647   7.798  1.00  0.00    -0.237 OA
ATOM     88  O   UNL     1       4.407  -3.530   9.181  1.00  0.00    -0.237 OA
ATOM     89  O   UNL     1       4.231  -3.587   6.725  1.00  0.00    -0.744 OA
ENDBRANCH  85  86
ENDBRANCH  53  78
BRANCH  65  90
ATOM     90  C   UNL     1      10.329   6.112   7.912  1.00  0.00     0.058 A 
ATOM     91  C   UNL     1      11.079   5.666   6.813  1.00  0.00     0.135 A 
ATOM     92  C   UNL     1      11.031   6.532   9.055  1.00  0.00     0.135 A 
ATOM     93  F   UNL     1      10.460   5.251   5.696  1.00  0.00    -0.206 F 
ATOM     94  C   UNL     1      12.469   5.618   6.852  1.00  0.00     0.059 A 
ATOM     95  C   UNL     1      12.421   6.522   9.106  1.00  0.00     0.059 A 
ATOM     96  F   UNL     1      10.365   6.981  10.131  1.00  0.00    -0.206 F 
ATOM     97  C   UNL     1      13.132   6.051   8.003  1.00  0.00     0.060 A 
BRANCH  97  98
ATOM     98  S   UNL     1      14.937   6.014   8.027  1.00  0.00     0.124 S 
ATOM     99  O   UNL     1      15.200   4.582   8.122  1.00  0.00    -0.237 OA
ATOM    100  O   UNL     1      15.278   6.639   6.753  1.00  0.00    -0.237 OA
ATOM    101  O   UNL     1      15.278   6.795   9.213  1.00  0.00    -0.744 OA
ENDBRANCH  97  98
ENDBRANCH  65  90
ENDBRANCH  39  40
ENDBRANCH  32  34
ENDBRANCH  31  32
ENDBRANCH  30  31
ENDBRANCH  29  30
ENDBRANCH  28  29
ENDBRANCH  27  28
ENDBRANCH  26  27
ENDBRANCH  25  26
ENDBRANCH  24  25
ENDBRANCH  23  24
ENDBRANCH  22  23
ENDBRANCH   1  22
TORSDOF 33
