REMARK SMILES C[C@@H](Sc1nc2ccccc2c(=O)n1N)C(=O)OCCOCCOCCOC(=O)c1ccc(-c2c3nc(c(-c4c(F)cc(S(=O)(=O)[O-])cc4F)c4ccc([nH]4)c(-c4c(F)cc(S(=O)(=O)[O-])cc4F)c4nc(c(-c5c(F)cc(S(=O)(=O)[O-])cc5F)c5ccc2[nH]5)C=C4)C=C3)cc1
REMARK SMILES IDX 22 1 21 2 20 3 19 4 18 5 16 6 17 7 2 8 1 9 3 10 4 11 5 12
REMARK SMILES IDX 14 13 6 14 12 15 7 16 11 17 13 18 8 19 10 20 9 21 15 22
REMARK SMILES IDX 23 25 24 26 25 27 26 28 27 29 28 30 29 31 30 32 31 33 95 34
REMARK SMILES IDX 32 35 94 36 33 37 34 38 35 39 88 40 36 41 93 42 87 43 89 44
REMARK SMILES IDX 37 45 92 46 86 47 85 48 38 50 72 51 51 52 71 53 52 54 55 55
REMARK SMILES IDX 70 56 90 57 53 58 54 59 69 61 91 62 56 63 39 64 40 65 49 66
REMARK SMILES IDX 41 67 42 68 48 69 50 70 43 71 44 72 45 73 46 74 47 75 73 76
REMARK SMILES IDX 74 77 83 78 75 79 76 80 82 81 84 82 77 83 78 84 79 85 80 86
REMARK SMILES IDX 81 87 57 88 58 89 67 90 59 91 60 92 66 93 68 94 61 95 62 96
REMARK SMILES IDX 63 97 64 98 65 99
REMARK H PARENT 15 23 15 24 89 49 55 60
REMARK Flexibility Score: inf
ROOT
ATOM      1  C   UNL     1      -2.382   1.194   1.588  1.00  0.00     0.188 C 
ENDROOT
BRANCH   1   2
ATOM      2  O   UNL     1      -3.709   1.445   1.145  1.00  0.00    -0.376 OA
BRANCH   2   3
ATOM      3  C   UNL     1      -4.102   1.041  -0.161  1.00  0.00     0.202 C 
BRANCH   3   4
ATOM      4  C   UNL     1      -3.254   1.454  -1.377  1.00  0.00     0.261 C 
BRANCH   4   5
ATOM      5  O   UNL     1      -1.849   1.135  -1.306  1.00  0.00    -0.462 OA
BRANCH   5   6
ATOM      6  C   UNL     1      -0.998   2.193  -1.238  1.00  0.00     0.319 C 
ATOM      7  O   UNL     1      -1.376   3.362  -1.219  1.00  0.00    -0.251 OA
BRANCH   6   8
ATOM      8  C   UNL     1       0.489   1.808  -1.127  1.00  0.00     0.161 C 
ATOM      9  C   UNL     1       0.864   0.323  -1.134  1.00  0.00     0.032 C 
BRANCH   8  10
ATOM     10  S   UNL     1       1.335   2.713  -2.473  1.00  0.00    -0.071 SA
BRANCH  10  11
ATOM     11  C   UNL     1       3.010   2.405  -2.096  1.00  0.00     0.191 A 
ATOM     12  N   UNL     1       3.652   1.668  -2.942  1.00  0.00    -0.222 NA
ATOM     13  N   UNL     1       3.592   3.009  -0.987  1.00  0.00    -0.202 N 
ATOM     14  C   UNL     1       5.028   1.503  -2.761  1.00  0.00     0.079 A 
ATOM     15  C   UNL     1       4.970   2.941  -0.768  1.00  0.00     0.280 A 
ATOM     16  C   UNL     1       5.726   0.715  -3.677  1.00  0.00     0.029 A 
ATOM     17  C   UNL     1       5.737   2.150  -1.748  1.00  0.00     0.068 A 
ATOM     18  O   UNL     1       5.541   3.506   0.163  1.00  0.00    -0.267 OA
ATOM     19  C   UNL     1       7.116   0.609  -3.608  1.00  0.00     0.002 A 
ATOM     20  C   UNL     1       7.130   2.056  -1.673  1.00  0.00     0.016 A 
ATOM     21  C   UNL     1       7.819   1.292  -2.615  1.00  0.00     0.001 A 
BRANCH  13  22
ATOM     22  N   UNL     1       2.819   3.719  -0.012  1.00  0.00    -0.334 N 
ATOM     23  H   UNL     1       1.844   3.796  -0.118  1.00  0.00     0.178 HD
ATOM     24  H   UNL     1       3.264   4.129   0.765  1.00  0.00     0.178 HD
ENDBRANCH  13  22
ENDBRANCH  10  11
ENDBRANCH   8  10
ENDBRANCH   6   8
ENDBRANCH   5   6
ENDBRANCH   4   5
ENDBRANCH   3   4
ENDBRANCH   2   3
ENDBRANCH   1   2
BRANCH   1  25
ATOM     25  C   UNL     1      -1.714  -0.151   1.260  1.00  0.00     0.188 C 
BRANCH  25  26
ATOM     26  O   UNL     1      -2.480  -1.014   0.448  1.00  0.00    -0.376 OA
BRANCH  26  27
ATOM     27  C   UNL     1      -2.855  -2.270   0.989  1.00  0.00     0.202 C 
BRANCH  27  28
ATOM     28  C   UNL     1      -3.644  -2.295   2.312  1.00  0.00     0.261 C 
BRANCH  28  29
ATOM     29  O   UNL     1      -3.142  -1.468   3.376  1.00  0.00    -0.460 OA
BRANCH  29  30
ATOM     30  C   UNL     1      -2.009  -1.885   3.984  1.00  0.00     0.338 C 
ATOM     31  O   UNL     1      -1.384  -2.907   3.733  1.00  0.00    -0.246 OA
BRANCH  30  32
ATOM     32  C   UNL     1      -1.499  -0.779   4.827  1.00  0.00     0.060 A 
ATOM     33  C   UNL     1      -0.211  -0.283   4.578  1.00  0.00     0.016 A 
ATOM     34  C   UNL     1      -2.272  -0.239   5.857  1.00  0.00     0.016 A 
ATOM     35  C   UNL     1       0.331   0.710   5.396  1.00  0.00     0.010 A 
ATOM     36  C   UNL     1      -1.720   0.741   6.690  1.00  0.00     0.010 A 
ATOM     37  C   UNL     1      -0.397   1.182   6.495  1.00  0.00    -0.014 A 
BRANCH  37  38
ATOM     38  C   UNL     1       0.316   1.924   7.568  1.00  0.00     0.031 A 
ATOM     39  C   UNL     1       0.764   1.149   8.782  1.00  0.00     0.074 A 
ATOM     40  C   UNL     1       0.614   3.231   7.457  1.00  0.00     0.049 A 
ATOM     41  N   UNL     1       1.402   1.561   9.847  1.00  0.00    -0.248 NA
ATOM     42  C   UNL     1       0.445  -0.289   8.794  1.00  0.00     0.031 C 
ATOM     43  C   UNL     1       0.282   4.084   6.318  1.00  0.00     0.029 A 
ATOM     44  N   UNL     1       1.271   4.070   8.324  1.00  0.00    -0.354 N 
ATOM     45  C   UNL     1       1.546   0.441  10.658  1.00  0.00     0.074 A 
ATOM     46  C   UNL     1       0.900  -0.660   9.980  1.00  0.00     0.031 C 
ATOM     47  C   UNL     1       0.735   5.328   6.558  1.00  0.00     0.029 A 
ATOM     48  C   UNL     1       1.365   5.367   7.877  1.00  0.00     0.049 A 
ATOM     49  H   UNL     1       1.641   3.771   9.186  1.00  0.00     0.167 HD
ATOM     50  C   UNL     1       2.169   0.334  11.856  1.00  0.00     0.037 A 
ATOM     51  C   UNL     1       1.888   6.460   8.472  1.00  0.00     0.037 A 
ATOM     52  C   UNL     1       2.818   1.430  12.526  1.00  0.00     0.049 A 
ATOM     53  C   UNL     1       2.525   6.329   9.835  1.00  0.00     0.074 A 
ATOM     54  C   UNL     1       3.499   1.418  13.731  1.00  0.00     0.029 A 
ATOM     55  N   UNL     1       2.862   2.734  12.056  1.00  0.00    -0.354 N 
ATOM     56  N   UNL     1       2.676   5.259  10.580  1.00  0.00    -0.248 NA
ATOM     57  C   UNL     1       3.071   7.556  10.433  1.00  0.00     0.031 C 
ATOM     58  C   UNL     1       3.899   2.726  14.020  1.00  0.00     0.029 A 
ATOM     59  C   UNL     1       3.533   3.541  12.960  1.00  0.00     0.049 A 
ATOM     60  H   UNL     1       2.473   3.041  11.205  1.00  0.00     0.167 HD
ATOM     61  C   UNL     1       3.373   5.677  11.712  1.00  0.00     0.074 A 
ATOM     62  C   UNL     1       3.617   7.094  11.550  1.00  0.00     0.031 C 
ATOM     63  C   UNL     1       3.782   4.951  12.784  1.00  0.00     0.037 A 
BRANCH  50  64
ATOM     64  C   UNL     1       2.143  -1.008  12.537  1.00  0.00     0.058 A 
ATOM     65  C   UNL     1       2.862  -2.110  12.046  1.00  0.00     0.135 A 
ATOM     66  C   UNL     1       1.403  -1.186  13.718  1.00  0.00     0.135 A 
ATOM     67  F   UNL     1       3.570  -2.005  10.910  1.00  0.00    -0.206 F 
ATOM     68  C   UNL     1       2.823  -3.347  12.683  1.00  0.00     0.059 A 
ATOM     69  C   UNL     1       1.377  -2.404  14.390  1.00  0.00     0.059 A 
ATOM     70  F   UNL     1       0.693  -0.168  14.231  1.00  0.00    -0.206 F 
ATOM     71  C   UNL     1       2.078  -3.483  13.856  1.00  0.00     0.060 A 
BRANCH  71  72
ATOM     72  S   UNL     1       2.042  -5.092  14.673  1.00  0.00     0.124 S 
ATOM     73  O   UNL     1       1.226  -5.871  13.746  1.00  0.00    -0.237 OA
ATOM     74  O   UNL     1       3.457  -5.447  14.723  1.00  0.00    -0.237 OA
ATOM     75  O   UNL     1       1.424  -4.805  15.963  1.00  0.00    -0.744 OA
ENDBRANCH  71  72
ENDBRANCH  50  64
BRANCH  51  76
ATOM     76  C   UNL     1       1.843   7.781   7.785  1.00  0.00     0.058 A 
ATOM     77  C   UNL     1       3.016   8.409   7.340  1.00  0.00     0.135 A 
ATOM     78  C   UNL     1       0.627   8.452   7.577  1.00  0.00     0.135 A 
ATOM     79  F   UNL     1       4.206   7.817   7.529  1.00  0.00    -0.206 F 
ATOM     80  C   UNL     1       2.990   9.660   6.731  1.00  0.00     0.059 A 
ATOM     81  C   UNL     1       0.572   9.690   6.944  1.00  0.00     0.059 A 
ATOM     82  F   UNL     1      -0.526   7.895   7.979  1.00  0.00    -0.206 F 
ATOM     83  C   UNL     1       1.761  10.291   6.533  1.00  0.00     0.060 A 
BRANCH  83  84
ATOM     84  S   UNL     1       1.736  11.893   5.699  1.00  0.00     0.124 S 
ATOM     85  O   UNL     1       2.320  12.763   6.713  1.00  0.00    -0.237 OA
ATOM     86  O   UNL     1       2.563  11.637   4.524  1.00  0.00    -0.237 OA
ATOM     87  O   UNL     1       0.319  12.107   5.424  1.00  0.00    -0.744 OA
ENDBRANCH  83  84
ENDBRANCH  51  76
BRANCH  63  88
ATOM     88  C   UNL     1       4.593   5.657  13.840  1.00  0.00     0.058 A 
ATOM     89  C   UNL     1       4.035   6.623  14.693  1.00  0.00     0.135 A 
ATOM     90  C   UNL     1       5.948   5.333  14.023  1.00  0.00     0.135 A 
ATOM     91  F   UNL     1       2.745   6.973  14.565  1.00  0.00    -0.206 F 
ATOM     92  C   UNL     1       4.800   7.272  15.658  1.00  0.00     0.059 A 
ATOM     93  C   UNL     1       6.723   5.942  15.005  1.00  0.00     0.059 A 
ATOM     94  F   UNL     1       6.532   4.404  13.249  1.00  0.00    -0.206 F 
ATOM     95  C   UNL     1       6.145   6.926  15.805  1.00  0.00     0.060 A 
BRANCH  95  96
ATOM     96  S   UNL     1       7.126   7.771  17.063  1.00  0.00     0.124 S 
ATOM     97  O   UNL     1       7.292   9.092  16.468  1.00  0.00    -0.237 OA
ATOM     98  O   UNL     1       6.255   7.707  18.233  1.00  0.00    -0.237 OA
ATOM     99  O   UNL     1       8.339   6.964  17.148  1.00  0.00    -0.744 OA
ENDBRANCH  95  96
ENDBRANCH  63  88
ENDBRANCH  37  38
ENDBRANCH  30  32
ENDBRANCH  29  30
ENDBRANCH  28  29
ENDBRANCH  27  28
ENDBRANCH  26  27
ENDBRANCH  25  26
ENDBRANCH   1  25
TORSDOF 23
