REMARK SMILES CC(=O)Nc1cccc(-c2ccc(F)c(C(=O)OCCOCCOCCOC(=O)c3ccc(-c4c5nc(c(-c6c(F)cc(S(=O)(=O)[O-])cc6F)c6ccc([nH]6)c(-c6c(F)cc(S(=O)(=O)[O-])cc6F)c6nc(c(-c7c(F)cc(S(=O)(=O)[O-])cc7F)c7ccc4[nH]7)C=C6)C=C5)cc3)c2)c1
REMARK SMILES IDX 23 1 22 2 21 3 20 4 19 5 18 6 16 7 17 8 15 9 10 10 11 11
REMARK SMILES IDX 96 12 12 13 13 14 14 15 9 16 5 17 6 18 97 19 7 20 8 21 4 22
REMARK SMILES IDX 1 23 2 24 3 25 24 27 25 28 26 29 27 30 28 31 29 32 30 33
REMARK SMILES IDX 31 34 95 35 32 36 94 37 33 38 34 39 35 40 88 41 36 42 93 43
REMARK SMILES IDX 87 44 89 45 37 46 92 47 86 48 85 49 38 51 72 52 51 53 71 54
REMARK SMILES IDX 52 55 55 56 70 57 90 58 53 59 54 60 69 62 91 63 56 64 39 65
REMARK SMILES IDX 40 66 49 67 41 68 42 69 48 70 50 71 43 72 44 73 45 74 46 75
REMARK SMILES IDX 47 76 73 77 74 78 83 79 75 80 76 81 82 82 84 83 77 84 78 85
REMARK SMILES IDX 79 86 80 87 81 88 57 89 58 90 67 91 59 92 60 93 66 94 68 95
REMARK SMILES IDX 61 96 62 97 63 98 64 99 65 100
REMARK H PARENT 4 26 89 50 55 61
REMARK Flexibility Score: inf
ROOT
ATOM      1  C   UNL     1       8.866  -2.123   2.325  1.00  0.00     0.188 C 
ENDROOT
BRANCH   1   2
ATOM      2  C   UNL     1       9.877  -1.294   1.503  1.00  0.00     0.188 C 
BRANCH   2   3
ATOM      3  O   UNL     1      10.500  -0.168   2.079  1.00  0.00    -0.376 OA
BRANCH   3   4
ATOM      4  C   UNL     1       9.790   1.016   2.392  1.00  0.00     0.202 C 
BRANCH   4   5
ATOM      5  C   UNL     1       8.462   1.438   1.746  1.00  0.00     0.261 C 
BRANCH   5   6
ATOM      6  O   UNL     1       7.610   0.371   1.335  1.00  0.00    -0.460 OA
BRANCH   6   7
ATOM      7  C   UNL     1       7.286   0.354   0.016  1.00  0.00     0.341 C 
ATOM      8  O   UNL     1       7.572   1.185  -0.827  1.00  0.00    -0.246 OA
BRANCH   7   9
ATOM      9  C   UNL     1       6.566  -0.894  -0.262  1.00  0.00     0.096 A 
ATOM     10  C   UNL     1       4.760  -2.452   0.256  1.00  0.00    -0.017 A 
ATOM     11  C   UNL     1       5.236  -3.290  -0.768  1.00  0.00     0.012 A 
ATOM     12  C   UNL     1       5.457  -1.257   0.510  1.00  0.00     0.027 A 
ATOM     13  C   UNL     1       6.357  -2.934  -1.526  1.00  0.00     0.041 A 
ATOM     14  C   UNL     1       7.011  -1.733  -1.275  1.00  0.00     0.137 A 
ATOM     15  F   UNL     1       8.105  -1.432  -1.987  1.00  0.00    -0.206 F 
BRANCH  10  16
ATOM     16  C   UNL     1       3.539  -2.769   1.017  1.00  0.00    -0.016 A 
ATOM     17  C   UNL     1       1.394  -2.005   1.928  1.00  0.00     0.041 A 
ATOM     18  C   UNL     1       1.219  -3.251   2.532  1.00  0.00     0.026 A 
ATOM     19  C   UNL     1       2.559  -1.774   1.198  1.00  0.00     0.034 A 
ATOM     20  C   UNL     1       2.163  -4.264   2.349  1.00  0.00     0.003 A 
ATOM     21  C   UNL     1       3.313  -4.027   1.590  1.00  0.00     0.009 A 
BRANCH  17  22
ATOM     22  N   UNL     1       0.414  -1.022   2.144  1.00  0.00    -0.326 N 
ATOM     23  C   UNL     1       0.621   0.326   0.052  1.00  0.00     0.114 C 
ATOM     24  C   UNL     1       0.106   0.115   1.452  1.00  0.00     0.221 C 
ATOM     25  O   UNL     1      -0.656   0.936   1.968  1.00  0.00    -0.275 OA
ATOM     26  H   UNL     1      -0.150  -1.181   2.935  1.00  0.00     0.169 HD
ENDBRANCH  17  22
ENDBRANCH  10  16
ENDBRANCH   7   9
ENDBRANCH   6   7
ENDBRANCH   5   6
ENDBRANCH   4   5
ENDBRANCH   3   4
ENDBRANCH   2   3
ENDBRANCH   1   2
BRANCH   1  27
ATOM     27  O   UNL     1       8.663  -1.864   3.704  1.00  0.00    -0.376 OA
BRANCH  27  28
ATOM     28  C   UNL     1       9.796  -1.780   4.557  1.00  0.00     0.202 C 
BRANCH  28  29
ATOM     29  C   UNL     1      10.739  -2.982   4.654  1.00  0.00     0.261 C 
BRANCH  29  30
ATOM     30  O   UNL     1      11.338  -3.340   3.399  1.00  0.00    -0.460 OA
BRANCH  30  31
ATOM     31  C   UNL     1      11.054  -4.589   2.955  1.00  0.00     0.338 C 
ATOM     32  O   UNL     1      10.378  -5.437   3.511  1.00  0.00    -0.246 OA
BRANCH  31  33
ATOM     33  C   UNL     1      11.542  -4.734   1.571  1.00  0.00     0.060 A 
ATOM     34  C   UNL     1      10.610  -5.032   0.567  1.00  0.00     0.016 A 
ATOM     35  C   UNL     1      12.899  -4.614   1.270  1.00  0.00     0.016 A 
ATOM     36  C   UNL     1      11.038  -5.222  -0.747  1.00  0.00     0.010 A 
ATOM     37  C   UNL     1      13.328  -4.830  -0.042  1.00  0.00     0.010 A 
ATOM     38  C   UNL     1      12.403  -5.152  -1.051  1.00  0.00    -0.014 A 
BRANCH  38  39
ATOM     39  C   UNL     1      12.890  -5.543  -2.395  1.00  0.00     0.031 A 
ATOM     40  C   UNL     1      13.356  -6.954  -2.615  1.00  0.00     0.074 A 
ATOM     41  C   UNL     1      12.935  -4.648  -3.397  1.00  0.00     0.049 A 
ATOM     42  N   UNL     1      13.898  -7.492  -3.675  1.00  0.00    -0.248 NA
ATOM     43  C   UNL     1      13.187  -7.883  -1.485  1.00  0.00     0.031 C 
ATOM     44  C   UNL     1      12.465  -3.266  -3.320  1.00  0.00     0.029 A 
ATOM     45  N   UNL     1      13.415  -4.770  -4.677  1.00  0.00    -0.354 N 
ATOM     46  C   UNL     1      14.146  -8.818  -3.341  1.00  0.00     0.074 A 
ATOM     47  C   UNL     1      13.707  -8.999  -1.974  1.00  0.00     0.031 C 
ATOM     48  C   UNL     1      12.697  -2.661  -4.498  1.00  0.00     0.029 A 
ATOM     49  C   UNL     1      13.363  -3.601  -5.398  1.00  0.00     0.049 A 
ATOM     50  H   UNL     1      13.764  -5.615  -5.044  1.00  0.00     0.167 HD
ATOM     51  C   UNL     1      14.692  -9.793  -4.105  1.00  0.00     0.037 A 
ATOM     52  C   UNL     1      13.828  -3.319  -6.631  1.00  0.00     0.037 A 
ATOM     53  C   UNL     1      15.136  -9.605  -5.460  1.00  0.00     0.049 A 
ATOM     54  C   UNL     1      14.523  -4.395  -7.425  1.00  0.00     0.074 A 
ATOM     55  C   UNL     1      15.672 -10.539  -6.328  1.00  0.00     0.029 A 
ATOM     56  N   UNL     1      15.115  -8.395  -6.138  1.00  0.00    -0.354 N 
ATOM     57  N   UNL     1      14.723  -5.653  -7.112  1.00  0.00    -0.248 NA
ATOM     58  C   UNL     1      15.066  -4.010  -8.736  1.00  0.00     0.031 C 
ATOM     59  C   UNL     1      16.021  -9.883  -7.514  1.00  0.00     0.029 A 
ATOM     60  C   UNL     1      15.661  -8.549  -7.401  1.00  0.00     0.049 A 
ATOM     61  H   UNL     1      14.763  -7.550  -5.774  1.00  0.00     0.167 HD
ATOM     62  C   UNL     1      15.389  -6.215  -8.196  1.00  0.00     0.074 A 
ATOM     63  C   UNL     1      15.557  -5.161  -9.175  1.00  0.00     0.031 C 
ATOM     64  C   UNL     1      15.818  -7.491  -8.367  1.00  0.00     0.037 A 
BRANCH  51  65
ATOM     65  C   UNL     1      14.874 -11.143  -3.471  1.00  0.00     0.058 A 
ATOM     66  C   UNL     1      13.787 -11.995  -3.221  1.00  0.00     0.135 A 
ATOM     67  C   UNL     1      16.156 -11.591  -3.115  1.00  0.00     0.135 A 
ATOM     68  F   UNL     1      12.539 -11.606  -3.525  1.00  0.00    -0.206 F 
ATOM     69  C   UNL     1      13.962 -13.232  -2.610  1.00  0.00     0.059 A 
ATOM     70  C   UNL     1      16.357 -12.835  -2.524  1.00  0.00     0.059 A 
ATOM     71  F   UNL     1      17.228 -10.813  -3.330  1.00  0.00    -0.206 F 
ATOM     72  C   UNL     1      15.250 -13.641  -2.260  1.00  0.00     0.060 A 
BRANCH  72  73
ATOM     73  S   UNL     1      15.460 -15.240  -1.450  1.00  0.00     0.124 S 
ATOM     74  O   UNL     1      14.980 -14.948  -0.102  1.00  0.00    -0.237 OA
ATOM     75  O   UNL     1      14.607 -16.112  -2.250  1.00  0.00    -0.237 OA
ATOM     76  O   UNL     1      16.893 -15.493  -1.564  1.00  0.00    -0.744 OA
ENDBRANCH  72  73
ENDBRANCH  51  65
BRANCH  52  77
ATOM     77  C   UNL     1      13.667  -1.951  -7.191  1.00  0.00     0.058 A 
ATOM     78  C   UNL     1      12.780  -1.708  -8.249  1.00  0.00     0.135 A 
ATOM     79  C   UNL     1      14.397  -0.864  -6.685  1.00  0.00     0.135 A 
ATOM     80  F   UNL     1      12.072  -2.718  -8.776  1.00  0.00    -0.206 F 
ATOM     81  C   UNL     1      12.626  -0.436  -8.792  1.00  0.00     0.059 A 
ATOM     82  C   UNL     1      14.244   0.421  -7.197  1.00  0.00     0.059 A 
ATOM     83  F   UNL     1      15.257  -1.045  -5.670  1.00  0.00    -0.206 F 
ATOM     84  C   UNL     1      13.362   0.623  -8.258  1.00  0.00     0.060 A 
BRANCH  84  85
ATOM     85  S   UNL     1      13.121   2.277  -8.941  1.00  0.00     0.124 S 
ATOM     86  O   UNL     1      13.824   2.173 -10.215  1.00  0.00    -0.237 OA
ATOM     87  O   UNL     1      11.666   2.368  -9.021  1.00  0.00    -0.237 OA
ATOM     88  O   UNL     1      13.743   3.145  -7.946  1.00  0.00    -0.744 OA
ENDBRANCH  84  85
ENDBRANCH  52  77
BRANCH  64  89
ATOM     89  C   UNL     1      16.485  -7.833  -9.671  1.00  0.00     0.058 A 
ATOM     90  C   UNL     1      17.801  -7.436  -9.951  1.00  0.00     0.135 A 
ATOM     91  C   UNL     1      15.824  -8.631 -10.619  1.00  0.00     0.135 A 
ATOM     92  F   UNL     1      18.474  -6.667  -9.081  1.00  0.00    -0.206 F 
ATOM     93  C   UNL     1      18.437  -7.810 -11.131  1.00  0.00     0.059 A 
ATOM     94  C   UNL     1      16.448  -9.036 -11.795  1.00  0.00     0.059 A 
ATOM     95  F   UNL     1      14.567  -9.045 -10.396  1.00  0.00    -0.206 F 
ATOM     96  C   UNL     1      17.753  -8.614 -12.046  1.00  0.00     0.060 A 
BRANCH  96  97
ATOM     97  S   UNL     1      18.607  -9.139 -13.548  1.00  0.00     0.124 S 
ATOM     98  O   UNL     1      18.578  -7.918 -14.345  1.00  0.00    -0.237 OA
ATOM     99  O   UNL     1      19.917  -9.536 -13.042  1.00  0.00    -0.237 OA
ATOM    100  O   UNL     1      17.777 -10.233 -14.044  1.00  0.00    -0.744 OA
ENDBRANCH  96  97
ENDBRANCH  64  89
ENDBRANCH  38  39
ENDBRANCH  31  33
ENDBRANCH  30  31
ENDBRANCH  29  30
ENDBRANCH  28  29
ENDBRANCH  27  28
ENDBRANCH   1  27
TORSDOF 22
