REMARK SMILES NS(=O)(=O)c1ccc(N2N=C(C(=O)OCCOCCOCCOC(=O)c3ccc(-c4c5nc(c(-c6c(F)cc(S(=O)(=O)[O-])cc6F)c6ccc([nH]6)c(-c6c(F)cc(S(=O)(=O)[O-])cc6F)c6nc(c(-c7c(F)cc(S(=O)(=O)[O-])cc7F)c7ccc4[nH]7)C=C6)C=C5)cc3)C[C@H]2c2ccco2)cc1
REMARK SMILES IDX 18 1 17 2 16 3 15 4 14 5 12 6 13 7 11 8 9 9 10 10 93 11
REMARK SMILES IDX 92 12 8 13 5 14 6 15 100 16 7 17 99 18 2 19 3 20 4 21 1 22
REMARK SMILES IDX 94 25 95 26 98 27 96 28 97 29 19 30 20 31 21 32 22 33 23 34
REMARK SMILES IDX 24 35 25 36 26 37 27 38 91 39 28 40 90 41 29 42 30 43 31 44
REMARK SMILES IDX 84 45 32 46 89 47 83 48 85 49 33 50 88 51 82 52 81 53 34 55
REMARK SMILES IDX 68 56 47 57 67 58 48 59 51 60 66 61 86 62 49 63 50 64 65 66
REMARK SMILES IDX 87 67 52 68 35 69 36 70 45 71 37 72 38 73 44 74 46 75 39 76
REMARK SMILES IDX 40 77 41 78 42 79 43 80 69 81 70 82 79 83 71 84 72 85 78 86
REMARK SMILES IDX 80 87 73 88 74 89 75 90 76 91 77 92 53 93 54 94 63 95 55 96
REMARK SMILES IDX 56 97 62 98 64 99 57 100 58 101 59 102 60 103 61 104
REMARK H PARENT 1 23 1 24 85 54 51 65
REMARK Flexibility Score: inf
ROOT
ATOM      1  C   UNL     1       0.182 -10.211  -1.975  1.00  0.00     0.188 C 
ENDROOT
BRANCH   1   2
ATOM      2  O   UNL     1       0.313 -11.170  -3.024  1.00  0.00    -0.376 OA
BRANCH   2   3
ATOM      3  C   UNL     1       1.510 -11.938  -3.124  1.00  0.00     0.202 C 
BRANCH   3   4
ATOM      4  C   UNL     1       2.849 -11.191  -3.120  1.00  0.00     0.261 C 
BRANCH   4   5
ATOM      5  O   UNL     1       3.015 -10.378  -1.949  1.00  0.00    -0.459 OA
BRANCH   5   6
ATOM      6  C   UNL     1       3.575  -9.170  -2.162  1.00  0.00     0.354 C 
ATOM      7  O   UNL     1       4.164  -8.783  -3.152  1.00  0.00    -0.245 OA
BRANCH   6   8
ATOM      8  C   UNL     1       3.291  -8.283  -0.978  1.00  0.00     0.148 C 
ATOM      9  N   UNL     1       2.561  -6.681   0.200  1.00  0.00    -0.254 N 
ATOM     10  N   UNL     1       2.547  -7.221  -1.056  1.00  0.00    -0.169 NA
ATOM     11  C   UNL     1       3.617  -7.271   1.046  1.00  0.00     0.180 C 
ATOM     12  C   UNL     1       3.783  -8.648   0.386  1.00  0.00     0.101 C 
BRANCH   9  13
ATOM     13  C   UNL     1       2.060  -5.396   0.385  1.00  0.00     0.060 A 
ATOM     14  C   UNL     1       1.063  -2.819   0.910  1.00  0.00     0.082 A 
ATOM     15  C   UNL     1       0.247  -3.932   1.117  1.00  0.00     0.024 A 
ATOM     16  C   UNL     1       2.348  -2.974   0.390  1.00  0.00     0.024 A 
ATOM     17  C   UNL     1       0.752  -5.213   0.859  1.00  0.00     0.029 A 
ATOM     18  C   UNL     1       2.827  -4.256   0.111  1.00  0.00     0.029 A 
BRANCH  14  19
ATOM     19  S   UNL     1       0.484  -1.202   1.330  1.00  0.00     0.238 S 
ATOM     20  O   UNL     1       1.284  -0.719   2.432  1.00  0.00    -0.207 OA
ATOM     21  O   UNL     1      -0.959  -1.204   1.361  1.00  0.00    -0.207 OA
BRANCH  19  22
ATOM     22  N   UNL     1       0.913  -0.275  -0.001  1.00  0.00    -0.225 NA
ATOM     23  H   UNL     1       0.617   0.690   0.147  1.00  0.00     0.137 HD
ATOM     24  H   UNL     1       0.457  -0.646  -0.835  1.00  0.00     0.137 HD
ENDBRANCH  19  22
ENDBRANCH  14  19
ENDBRANCH   9  13
BRANCH  11  25
ATOM     25  C   UNL     1       4.934  -6.547   1.129  1.00  0.00     0.128 A 
ATOM     26  C   UNL     1       5.377  -5.477   1.884  1.00  0.00     0.048 A 
ATOM     27  O   UNL     1       5.950  -6.982   0.322  1.00  0.00    -0.467 OA
ATOM     28  C   UNL     1       6.719  -5.238   1.500  1.00  0.00     0.042 A 
ATOM     29  C   UNL     1       7.022  -6.188   0.555  1.00  0.00     0.195 A 
ENDBRANCH  11  25
ENDBRANCH   6   8
ENDBRANCH   5   6
ENDBRANCH   4   5
ENDBRANCH   3   4
ENDBRANCH   2   3
ENDBRANCH   1   2
BRANCH   1  30
ATOM     30  C   UNL     1       0.492 -10.652  -0.530  1.00  0.00     0.188 C 
BRANCH  30  31
ATOM     31  O   UNL     1       0.887 -12.005  -0.416  1.00  0.00    -0.376 OA
BRANCH  31  32
ATOM     32  C   UNL     1      -0.036 -12.913   0.165  1.00  0.00     0.202 C 
BRANCH  32  33
ATOM     33  C   UNL     1      -1.477 -13.002  -0.371  1.00  0.00     0.261 C 
BRANCH  33  34
ATOM     34  O   UNL     1      -2.146 -11.766  -0.657  1.00  0.00    -0.460 OA
BRANCH  34  35
ATOM     35  C   UNL     1      -2.639 -11.064   0.389  1.00  0.00     0.338 C 
ATOM     36  O   UNL     1      -2.543 -11.346   1.569  1.00  0.00    -0.246 OA
BRANCH  35  37
ATOM     37  C   UNL     1      -3.156  -9.784  -0.146  1.00  0.00     0.060 A 
ATOM     38  C   UNL     1      -2.552  -8.585   0.252  1.00  0.00     0.016 A 
ATOM     39  C   UNL     1      -4.213  -9.774  -1.059  1.00  0.00     0.016 A 
ATOM     40  C   UNL     1      -3.016  -7.368  -0.256  1.00  0.00     0.010 A 
ATOM     41  C   UNL     1      -4.689  -8.555  -1.550  1.00  0.00     0.010 A 
ATOM     42  C   UNL     1      -4.107  -7.344  -1.136  1.00  0.00    -0.014 A 
BRANCH  42  43
ATOM     43  C   UNL     1      -4.731  -6.053  -1.518  1.00  0.00     0.031 A 
ATOM     44  C   UNL     1      -5.947  -5.588  -0.765  1.00  0.00     0.074 A 
ATOM     45  C   UNL     1      -4.228  -5.306  -2.518  1.00  0.00     0.049 A 
ATOM     46  N   UNL     1      -6.691  -4.531  -0.959  1.00  0.00    -0.248 NA
ATOM     47  C   UNL     1      -6.383  -6.434   0.358  1.00  0.00     0.031 C 
ATOM     48  C   UNL     1      -3.036  -5.631  -3.300  1.00  0.00     0.029 A 
ATOM     49  N   UNL     1      -4.670  -4.122  -3.055  1.00  0.00    -0.354 N 
ATOM     50  C   UNL     1      -7.682  -4.582   0.014  1.00  0.00     0.074 A 
ATOM     51  C   UNL     1      -7.463  -5.791   0.778  1.00  0.00     0.031 C 
ATOM     52  C   UNL     1      -2.852  -4.677  -4.229  1.00  0.00     0.029 A 
ATOM     53  C   UNL     1      -3.927  -3.691  -4.128  1.00  0.00     0.049 A 
ATOM     54  H   UNL     1      -5.447  -3.629  -2.704  1.00  0.00     0.167 HD
ATOM     55  C   UNL     1      -8.680  -3.699   0.253  1.00  0.00     0.037 A 
ATOM     56  C   UNL     1      -4.108  -2.636  -4.947  1.00  0.00     0.037 A 
ATOM     57  C   UNL     1      -8.899  -2.501  -0.515  1.00  0.00     0.049 A 
ATOM     58  C   UNL     1      -5.271  -1.706  -4.710  1.00  0.00     0.074 A 
ATOM     59  C   UNL     1      -9.871  -1.532  -0.340  1.00  0.00     0.029 A 
ATOM     60  N   UNL     1      -8.143  -2.114  -1.612  1.00  0.00    -0.354 N 
ATOM     61  N   UNL     1      -6.186  -1.750  -3.769  1.00  0.00    -0.248 NA
ATOM     62  C   UNL     1      -5.428  -0.582  -5.645  1.00  0.00     0.031 C 
ATOM     63  C   UNL     1      -9.733  -0.584  -1.360  1.00  0.00     0.029 A 
ATOM     64  C   UNL     1      -8.645  -0.937  -2.142  1.00  0.00     0.049 A 
ATOM     65  H   UNL     1      -7.364  -2.604  -1.962  1.00  0.00     0.167 HD
ATOM     66  C   UNL     1      -7.011  -0.650  -3.987  1.00  0.00     0.074 A 
ATOM     67  C   UNL     1      -6.481   0.047  -5.140  1.00  0.00     0.031 C 
ATOM     68  C   UNL     1      -8.107  -0.253  -3.293  1.00  0.00     0.037 A 
BRANCH  55  69
ATOM     69  C   UNL     1      -9.628  -4.013   1.376  1.00  0.00     0.058 A 
ATOM     70  C   UNL     1      -9.239  -3.908   2.721  1.00  0.00     0.135 A 
ATOM     71  C   UNL     1     -10.948  -4.404   1.105  1.00  0.00     0.135 A 
ATOM     72  F   UNL     1      -7.982  -3.558   3.037  1.00  0.00    -0.206 F 
ATOM     73  C   UNL     1     -10.118  -4.207   3.757  1.00  0.00     0.059 A 
ATOM     74  C   UNL     1     -11.852  -4.683   2.125  1.00  0.00     0.059 A 
ATOM     75  F   UNL     1     -11.371  -4.524  -0.164  1.00  0.00    -0.206 F 
ATOM     76  C   UNL     1     -11.423  -4.596   3.449  1.00  0.00     0.060 A 
BRANCH  76  77
ATOM     77  S   UNL     1     -12.552  -4.985   4.803  1.00  0.00     0.124 S 
ATOM     78  O   UNL     1     -12.038  -6.276   5.249  1.00  0.00    -0.237 OA
ATOM     79  O   UNL     1     -12.339  -3.868   5.718  1.00  0.00    -0.237 OA
ATOM     80  O   UNL     1     -13.860  -5.020   4.156  1.00  0.00    -0.744 OA
ENDBRANCH  76  77
ENDBRANCH  55  69
BRANCH  56  81
ATOM     81  C   UNL     1      -3.176  -2.409  -6.083  1.00  0.00     0.058 A 
ATOM     82  C   UNL     1      -2.281  -1.329  -6.084  1.00  0.00     0.135 A 
ATOM     83  C   UNL     1      -3.164  -3.267  -7.194  1.00  0.00     0.135 A 
ATOM     84  F   UNL     1      -2.265  -0.470  -5.053  1.00  0.00    -0.206 F 
ATOM     85  C   UNL     1      -1.416  -1.100  -7.150  1.00  0.00     0.059 A 
ATOM     86  C   UNL     1      -2.291  -3.074  -8.261  1.00  0.00     0.059 A 
ATOM     87  F   UNL     1      -3.998  -4.318  -7.241  1.00  0.00    -0.206 F 
ATOM     88  C   UNL     1      -1.426  -1.980  -8.233  1.00  0.00     0.060 A 
BRANCH  88  89
ATOM     89  S   UNL     1      -0.267  -1.700  -9.590  1.00  0.00     0.124 S 
ATOM     90  O   UNL     1      -0.871  -0.554 -10.260  1.00  0.00    -0.237 OA
ATOM     91  O   UNL     1       0.981  -1.438  -8.880  1.00  0.00    -0.237 OA
ATOM     92  O   UNL     1      -0.307  -2.957 -10.331  1.00  0.00    -0.744 OA
ENDBRANCH  88  89
ENDBRANCH  56  81
BRANCH  68  93
ATOM     93  C   UNL     1      -8.798   1.005  -3.744  1.00  0.00     0.058 A 
ATOM     94  C   UNL     1      -9.579   1.039  -4.910  1.00  0.00     0.135 A 
ATOM     95  C   UNL     1      -8.725   2.175  -2.971  1.00  0.00     0.135 A 
ATOM     96  F   UNL     1      -9.678  -0.051  -5.689  1.00  0.00    -0.206 F 
ATOM     97  C   UNL     1     -10.246   2.194  -5.305  1.00  0.00     0.059 A 
ATOM     98  C   UNL     1      -9.405   3.334  -3.333  1.00  0.00     0.059 A 
ATOM     99  F   UNL     1      -8.002   2.194  -1.840  1.00  0.00    -0.206 F 
ATOM    100  C   UNL     1     -10.154   3.337  -4.509  1.00  0.00     0.060 A 
BRANCH 100 101
ATOM    101  S   UNL     1     -11.051   4.821  -5.013  1.00  0.00     0.124 S 
ATOM    102  O   UNL     1     -10.230   5.299  -6.120  1.00  0.00    -0.237 OA
ATOM    103  O   UNL     1     -12.360   4.287  -5.379  1.00  0.00    -0.237 OA
ATOM    104  O   UNL     1     -11.035   5.653  -3.814  1.00  0.00    -0.744 OA
ENDBRANCH 100 101
ENDBRANCH  68  93
ENDBRANCH  42  43
ENDBRANCH  35  37
ENDBRANCH  34  35
ENDBRANCH  33  34
ENDBRANCH  32  33
ENDBRANCH  31  32
ENDBRANCH  30  31
ENDBRANCH   1  30
TORSDOF 24
