REMARK SMILES O=C(OCCOCCOCCOC(=O)[C@@H](F)Oc1ccc(F)c(Cl)c1)c1ccc(-c2c3nc(c(-c4c(F)cc(S(=O)(=O)[O-])cc4F)c4ccc([nH]4)c(-c4c(F)cc(S(=O)(=O)[O-])cc4F)c4nc(c(-c5c(F)cc(S(=O)(=O)[O-])cc5F)c5ccc2[nH]5)C=C4)C=C3)cc1
REMARK SMILES IDX 7 1 6 2 5 3 4 4 3 5 2 6 1 7 26 8 27 9 91 10 28 11 90 12
REMARK SMILES IDX 29 13 30 14 31 15 84 16 32 17 89 18 83 19 85 20 33 21 88 22
REMARK SMILES IDX 82 23 81 24 34 26 68 27 47 28 67 29 48 30 51 31 66 32 86 33
REMARK SMILES IDX 49 34 50 35 65 37 87 38 52 39 35 40 36 41 45 42 37 43 38 44
REMARK SMILES IDX 44 45 46 46 39 47 40 48 41 49 42 50 43 51 69 52 70 53 79 54
REMARK SMILES IDX 71 55 72 56 78 57 80 58 73 59 74 60 75 61 76 62 77 63 53 64
REMARK SMILES IDX 54 65 63 66 55 67 56 68 62 69 64 70 57 71 58 72 59 73 60 74
REMARK SMILES IDX 61 75 8 76 9 77 10 78 11 79 12 80 13 81 14 82 15 83 16 84
REMARK SMILES IDX 17 85 18 86 19 87 25 88 20 89 23 90 21 91 24 92 22 93
REMARK H PARENT 85 25 51 36
REMARK Flexibility Score: inf
ROOT
ATOM      1  C   UNL     1       2.422  -0.094   1.825  1.00  0.00     0.188 C 
ENDROOT
BRANCH   1   2
ATOM      2  O   UNL     1       3.766  -0.509   1.567  1.00  0.00    -0.376 OA
BRANCH   2   3
ATOM      3  C   UNL     1       4.687   0.549   1.274  1.00  0.00     0.202 C 
BRANCH   3   4
ATOM      4  C   UNL     1       4.407   1.429   0.038  1.00  0.00     0.261 C 
BRANCH   4   5
ATOM      5  O   UNL     1       3.038   1.442  -0.398  1.00  0.00    -0.460 OA
BRANCH   5   6
ATOM      6  C   UNL     1       2.465   0.710  -1.386  1.00  0.00     0.338 C 
ATOM      7  O   UNL     1       1.320   0.989  -1.736  1.00  0.00    -0.246 OA
BRANCH   6   8
ATOM      8  C   UNL     1       3.143  -0.444  -2.047  1.00  0.00     0.060 A 
ATOM      9  C   UNL     1       4.133  -1.223  -1.451  1.00  0.00     0.016 A 
ATOM     10  C   UNL     1       2.675  -0.834  -3.312  1.00  0.00     0.016 A 
ATOM     11  C   UNL     1       4.715  -2.297  -2.107  1.00  0.00     0.010 A 
ATOM     12  C   UNL     1       3.213  -1.950  -3.961  1.00  0.00     0.010 A 
ATOM     13  C   UNL     1       4.253  -2.670  -3.363  1.00  0.00    -0.014 A 
BRANCH  13  14
ATOM     14  C   UNL     1       4.927  -3.788  -4.045  1.00  0.00     0.031 A 
ATOM     15  C   UNL     1       5.848  -3.468  -5.178  1.00  0.00     0.074 A 
ATOM     16  C   UNL     1       4.755  -5.041  -3.582  1.00  0.00     0.049 A 
ATOM     17  N   UNL     1       6.502  -4.282  -5.957  1.00  0.00    -0.248 NA
ATOM     18  C   UNL     1       6.064  -2.040  -5.478  1.00  0.00     0.031 C 
ATOM     19  C   UNL     1       3.921  -5.394  -2.431  1.00  0.00     0.029 A 
ATOM     20  N   UNL     1       5.265  -6.242  -3.998  1.00  0.00    -0.354 N 
ATOM     21  C   UNL     1       7.152  -3.472  -6.879  1.00  0.00     0.074 A 
ATOM     22  C   UNL     1       6.846  -2.101  -6.547  1.00  0.00     0.031 C 
ATOM     23  C   UNL     1       3.990  -6.718  -2.225  1.00  0.00     0.029 A 
ATOM     24  C   UNL     1       4.817  -7.320  -3.264  1.00  0.00     0.049 A 
ATOM     25  H   UNL     1       5.894  -6.328  -4.750  1.00  0.00     0.167 HD
ATOM     26  C   UNL     1       7.910  -3.863  -7.925  1.00  0.00     0.037 A 
ATOM     27  C   UNL     1       5.028  -8.641  -3.448  1.00  0.00     0.037 A 
ATOM     28  C   UNL     1       8.202  -5.243  -8.203  1.00  0.00     0.049 A 
ATOM     29  C   UNL     1       5.881  -9.032  -4.632  1.00  0.00     0.074 A 
ATOM     30  C   UNL     1       8.952  -5.773  -9.235  1.00  0.00     0.029 A 
ATOM     31  N   UNL     1       7.746  -6.311  -7.441  1.00  0.00    -0.354 N 
ATOM     32  N   UNL     1       6.522  -8.255  -5.478  1.00  0.00    -0.248 NA
ATOM     33  C   UNL     1       6.023 -10.465  -4.911  1.00  0.00     0.031 C 
ATOM     34  C   UNL     1       8.898  -7.166  -9.130  1.00  0.00     0.029 A 
ATOM     35  C   UNL     1       8.161  -7.502  -8.004  1.00  0.00     0.049 A 
ATOM     36  H   UNL     1       7.207  -6.230  -6.621  1.00  0.00     0.167 HD
ATOM     37  C   UNL     1       7.139  -9.106  -6.385  1.00  0.00     0.074 A 
ATOM     38  C   UNL     1       6.848 -10.457  -5.947  1.00  0.00     0.031 C 
ATOM     39  C   UNL     1       7.851  -8.817  -7.502  1.00  0.00     0.037 A 
BRANCH  26  40
ATOM     40  C   UNL     1       8.390  -2.811  -8.879  1.00  0.00     0.058 A 
ATOM     41  C   UNL     1       9.434  -1.929  -8.567  1.00  0.00     0.135 A 
ATOM     42  C   UNL     1       7.805  -2.711 -10.153  1.00  0.00     0.135 A 
ATOM     43  F   UNL     1      10.002  -1.956  -7.351  1.00  0.00    -0.206 F 
ATOM     44  C   UNL     1       9.885  -0.986  -9.486  1.00  0.00     0.059 A 
ATOM     45  C   UNL     1       8.253  -1.791 -11.094  1.00  0.00     0.059 A 
ATOM     46  F   UNL     1       6.785  -3.515 -10.492  1.00  0.00    -0.206 F 
ATOM     47  C   UNL     1       9.294  -0.931 -10.751  1.00  0.00     0.060 A 
BRANCH  47  48
ATOM     48  S   UNL     1       9.923   0.265 -11.947  1.00  0.00     0.124 S 
ATOM     49  O   UNL     1       9.454   1.524 -11.377  1.00  0.00    -0.237 OA
ATOM     50  O   UNL     1      11.363   0.038 -11.883  1.00  0.00    -0.237 OA
ATOM     51  O   UNL     1       9.283  -0.134 -13.197  1.00  0.00    -0.744 OA
ENDBRANCH  47  48
ENDBRANCH  26  40
BRANCH  27  52
ATOM     52  C   UNL     1       4.410  -9.670  -2.551  1.00  0.00     0.058 A 
ATOM     53  C   UNL     1       5.192 -10.631  -1.889  1.00  0.00     0.135 A 
ATOM     54  C   UNL     1       3.021  -9.742  -2.346  1.00  0.00     0.135 A 
ATOM     55  F   UNL     1       6.517 -10.671  -2.092  1.00  0.00    -0.206 F 
ATOM     56  C   UNL     1       4.637 -11.597  -1.052  1.00  0.00     0.059 A 
ATOM     57  C   UNL     1       2.441 -10.681  -1.496  1.00  0.00     0.059 A 
ATOM     58  F   UNL     1       2.200  -8.882  -2.970  1.00  0.00    -0.206 F 
ATOM     59  C   UNL     1       3.258 -11.611  -0.858  1.00  0.00     0.060 A 
BRANCH  59  60
ATOM     60  S   UNL     1       2.547 -12.867   0.227  1.00  0.00     0.124 S 
ATOM     61  O   UNL     1       2.805 -14.089  -0.527  1.00  0.00    -0.237 OA
ATOM     62  O   UNL     1       3.328 -12.691   1.447  1.00  0.00    -0.237 OA
ATOM     63  O   UNL     1       1.145 -12.472   0.324  1.00  0.00    -0.744 OA
ENDBRANCH  59  60
ENDBRANCH  27  52
BRANCH  39  64
ATOM     64  C   UNL     1       8.339  -9.982  -8.311  1.00  0.00     0.058 A 
ATOM     65  C   UNL     1       7.451 -10.744  -9.085  1.00  0.00     0.135 A 
ATOM     66  C   UNL     1       9.707 -10.285  -8.375  1.00  0.00     0.135 A 
ATOM     67  F   UNL     1       6.132 -10.495  -9.047  1.00  0.00    -0.206 F 
ATOM     68  C   UNL     1       7.903 -11.782  -9.888  1.00  0.00     0.059 A 
ATOM     69  C   UNL     1      10.184 -11.298  -9.197  1.00  0.00     0.059 A 
ATOM     70  F   UNL     1      10.593  -9.574  -7.660  1.00  0.00    -0.206 F 
ATOM     71  C   UNL     1       9.273 -12.045  -9.944  1.00  0.00     0.060 A 
BRANCH  71  72
ATOM     72  S   UNL     1       9.851 -13.350 -11.046  1.00  0.00     0.124 S 
ATOM     73  O   UNL     1       9.424 -14.548 -10.331  1.00  0.00    -0.237 OA
ATOM     74  O   UNL     1       9.129 -13.056 -12.280  1.00  0.00    -0.237 OA
ATOM     75  O   UNL     1      11.293 -13.133 -11.103  1.00  0.00    -0.744 OA
ENDBRANCH  71  72
ENDBRANCH  39  64
ENDBRANCH  13  14
ENDBRANCH   6   8
ENDBRANCH   5   6
ENDBRANCH   4   5
ENDBRANCH   3   4
ENDBRANCH   2   3
ENDBRANCH   1   2
BRANCH   1  76
ATOM     76  C   UNL     1       1.695  -0.985   2.836  1.00  0.00     0.188 C 
BRANCH  76  77
ATOM     77  O   UNL     1       2.154  -0.912   4.187  1.00  0.00    -0.376 OA
BRANCH  77  78
ATOM     78  C   UNL     1       3.545  -1.122   4.399  1.00  0.00     0.202 C 
BRANCH  78  79
ATOM     79  C   UNL     1       4.073  -2.536   4.156  1.00  0.00     0.261 C 
BRANCH  79  80
ATOM     80  O   UNL     1       3.623  -3.136   2.936  1.00  0.00    -0.458 OA
BRANCH  80  81
ATOM     81  C   UNL     1       2.941  -4.320   3.044  1.00  0.00     0.381 C 
ATOM     82  O   UNL     1       2.520  -4.783   4.100  1.00  0.00    -0.244 OA
BRANCH  81  83
ATOM     83  C   UNL     1       2.862  -5.028   1.682  1.00  0.00     0.461 C 
ATOM     84  F   UNL     1       3.320  -4.259   0.645  1.00  0.00    -0.189 F 
BRANCH  83  85
ATOM     85  O   UNL     1       3.492  -6.303   1.603  1.00  0.00    -0.451 OA
BRANCH  85  86
ATOM     86  C   UNL     1       4.858  -6.348   1.540  1.00  0.00     0.125 A 
ATOM     87  C   UNL     1       5.728  -5.376   2.038  1.00  0.00     0.050 A 
ATOM     88  C   UNL     1       5.401  -7.501   0.963  1.00  0.00     0.070 A 
ATOM     89  C   UNL     1       7.110  -5.517   1.928  1.00  0.00     0.044 A 
ATOM     90  C   UNL     1       6.788  -7.641   0.849  1.00  0.00     0.080 A 
ATOM     91  C   UNL     1       7.633  -6.644   1.321  1.00  0.00     0.142 A 
ATOM     92  Cl  UNL     1       7.470  -9.058   0.167  1.00  0.00    -0.081 Cl
ATOM     93  F   UNL     1       8.965  -6.757   1.225  1.00  0.00    -0.205 F 
ENDBRANCH  85  86
ENDBRANCH  83  85
ENDBRANCH  81  83
ENDBRANCH  80  81
ENDBRANCH  79  80
ENDBRANCH  78  79
ENDBRANCH  77  78
ENDBRANCH  76  77
ENDBRANCH   1  76
TORSDOF 22
