REMARK SMILES O=C(OCCOCCOCCOC(=O)[C@H]1C=C[C@H](NS(=O)(=O)c2ccc(F)c(F)c2F)C1)c1ccc(-c2c3nc(c(-c4c(F)cc(S(=O)(=O)[O-])cc4F)c4ccc([nH]4)c(-c4c(F)cc(S(=O)(=O)[O-])cc4F)c4nc(c(-c5c(F)cc(S(=O)(=O)[O-])cc5F)c5ccc2[nH]5)C=C4)C=C3)cc1
REMARK SMILES IDX 7 1 6 2 5 3 4 4 3 5 2 6 1 7 33 8 34 9 98 10 35 11 97 12
REMARK SMILES IDX 36 13 37 14 38 15 91 16 39 17 96 18 90 19 92 20 40 21 95 22
REMARK SMILES IDX 89 23 88 24 41 26 75 27 54 28 74 29 55 30 58 31 73 32 93 33
REMARK SMILES IDX 56 34 57 35 72 37 94 38 59 39 42 40 43 41 52 42 44 43 45 44
REMARK SMILES IDX 51 45 53 46 46 47 47 48 48 49 49 50 50 51 76 52 77 53 86 54
REMARK SMILES IDX 78 55 79 56 85 57 87 58 80 59 81 60 82 61 83 62 84 63 60 64
REMARK SMILES IDX 61 65 70 66 62 67 63 68 69 69 71 70 64 71 65 72 66 73 67 74
REMARK SMILES IDX 68 75 8 76 9 77 10 78 11 79 12 80 13 81 14 82 15 83 16 84
REMARK SMILES IDX 32 85 17 86 18 87 19 88 20 90 21 91 22 92 23 93 24 94 30 95
REMARK SMILES IDX 25 96 28 97 31 98 26 99 29 100 27 101
REMARK H PARENT 92 25 58 36 19 89
REMARK Flexibility Score: inf
ROOT
ATOM      1  C   UNL     1       2.545   1.062  -1.405  1.00  0.00     0.188 C 
ENDROOT
BRANCH   1   2
ATOM      2  O   UNL     1       3.925   1.149  -1.043  1.00  0.00    -0.376 OA
BRANCH   2   3
ATOM      3  C   UNL     1       4.693  -0.009  -1.398  1.00  0.00     0.202 C 
BRANCH   3   4
ATOM      4  C   UNL     1       4.311  -1.347  -0.717  1.00  0.00     0.261 C 
BRANCH   4   5
ATOM      5  O   UNL     1       2.957  -1.429  -0.220  1.00  0.00    -0.460 OA
BRANCH   5   6
ATOM      6  C   UNL     1       2.443  -1.103   0.998  1.00  0.00     0.338 C 
ATOM      7  O   UNL     1       1.276  -1.406   1.239  1.00  0.00    -0.246 OA
BRANCH   6   8
ATOM      8  C   UNL     1       3.211  -0.355   2.040  1.00  0.00     0.060 A 
ATOM      9  C   UNL     1       4.458   0.202   1.808  1.00  0.00     0.016 A 
ATOM     10  C   UNL     1       2.656  -0.178   3.319  1.00  0.00     0.016 A 
ATOM     11  C   UNL     1       5.200   0.798   2.798  1.00  0.00     0.010 A 
ATOM     12  C   UNL     1       3.366   0.511   4.319  1.00  0.00     0.010 A 
ATOM     13  C   UNL     1       4.664   0.976   4.060  1.00  0.00    -0.014 A 
BRANCH  13  14
ATOM     14  C   UNL     1       5.609   1.438   5.096  1.00  0.00     0.031 A 
ATOM     15  C   UNL     1       6.050   0.425   6.104  1.00  0.00     0.074 A 
ATOM     16  C   UNL     1       6.265   2.611   4.961  1.00  0.00     0.049 A 
ATOM     17  N   UNL     1       6.801   0.580   7.154  1.00  0.00    -0.248 NA
ATOM     18  C   UNL     1       5.646  -0.973   5.852  1.00  0.00     0.031 C 
ATOM     19  C   UNL     1       6.154   3.508   3.808  1.00  0.00     0.029 A 
ATOM     20  N   UNL     1       7.169   3.255   5.768  1.00  0.00    -0.354 N 
ATOM     21  C   UNL     1       6.995  -0.698   7.661  1.00  0.00     0.074 A 
ATOM     22  C   UNL     1       6.223  -1.612   6.857  1.00  0.00     0.031 C 
ATOM     23  C   UNL     1       6.897   4.604   4.009  1.00  0.00     0.029 A 
ATOM     24  C   UNL     1       7.428   4.549   5.357  1.00  0.00     0.049 A 
ATOM     25  H   UNL     1       7.588   2.840   6.556  1.00  0.00     0.167 HD
ATOM     26  C   UNL     1       7.797  -1.061   8.684  1.00  0.00     0.037 A 
ATOM     27  C   UNL     1       7.904   5.599   6.059  1.00  0.00     0.037 A 
ATOM     28  C   UNL     1       8.524  -0.095   9.458  1.00  0.00     0.049 A 
ATOM     29  C   UNL     1       8.367   5.265   7.465  1.00  0.00     0.074 A 
ATOM     30  C   UNL     1       9.331  -0.288  10.559  1.00  0.00     0.029 A 
ATOM     31  N   UNL     1       8.502   1.272   9.202  1.00  0.00    -0.354 N 
ATOM     32  N   UNL     1       8.480   4.076   8.021  1.00  0.00    -0.248 NA
ATOM     33  C   UNL     1       8.754   6.368   8.346  1.00  0.00     0.031 C 
ATOM     34  C   UNL     1       9.747   0.973  11.006  1.00  0.00     0.029 A 
ATOM     35  C   UNL     1       9.256   1.944  10.142  1.00  0.00     0.049 A 
ATOM     36  H   UNL     1       8.018   1.699   8.458  1.00  0.00     0.167 HD
ATOM     37  C   UNL     1       9.040   4.283   9.273  1.00  0.00     0.074 A 
ATOM     38  C   UNL     1       9.194   5.718   9.415  1.00  0.00     0.031 C 
ATOM     39  C   UNL     1       9.434   3.375  10.203  1.00  0.00     0.037 A 
BRANCH  26  40
ATOM     40  C   UNL     1       7.871  -2.523   9.012  1.00  0.00     0.058 A 
ATOM     41  C   UNL     1       8.494  -3.444   8.151  1.00  0.00     0.135 A 
ATOM     42  C   UNL     1       7.261  -3.024  10.171  1.00  0.00     0.135 A 
ATOM     43  F   UNL     1       9.062  -3.026   7.008  1.00  0.00    -0.206 F 
ATOM     44  C   UNL     1       8.481  -4.811   8.413  1.00  0.00     0.059 A 
ATOM     45  C   UNL     1       7.258  -4.384  10.466  1.00  0.00     0.059 A 
ATOM     46  F   UNL     1       6.635  -2.192  11.018  1.00  0.00    -0.206 F 
ATOM     47  C   UNL     1       7.856  -5.272   9.572  1.00  0.00     0.060 A 
BRANCH  47  48
ATOM     48  S   UNL     1       7.827  -7.049   9.888  1.00  0.00     0.124 S 
ATOM     49  O   UNL     1       6.888  -7.512   8.870  1.00  0.00    -0.237 OA
ATOM     50  O   UNL     1       9.222  -7.424   9.679  1.00  0.00    -0.237 OA
ATOM     51  O   UNL     1       7.356  -7.143  11.266  1.00  0.00    -0.744 OA
ENDBRANCH  47  48
ENDBRANCH  26  40
BRANCH  27  52
ATOM     52  C   UNL     1       7.769   7.018   5.560  1.00  0.00     0.058 A 
ATOM     53  C   UNL     1       8.793   7.972   5.665  1.00  0.00     0.135 A 
ATOM     54  C   UNL     1       6.535   7.503   5.078  1.00  0.00     0.135 A 
ATOM     55  F   UNL     1      10.022   7.596   6.047  1.00  0.00    -0.206 F 
ATOM     56  C   UNL     1       8.565   9.337   5.445  1.00  0.00     0.059 A 
ATOM     57  C   UNL     1       6.292   8.844   4.815  1.00  0.00     0.059 A 
ATOM     58  F   UNL     1       5.500   6.679   4.873  1.00  0.00    -0.206 F 
ATOM     59  C   UNL     1       7.301   9.764   5.043  1.00  0.00     0.060 A 
BRANCH  59  60
ATOM     60  S   UNL     1       6.908  11.523   4.933  1.00  0.00     0.124 S 
ATOM     61  O   UNL     1       7.644  12.081   6.061  1.00  0.00    -0.237 OA
ATOM     62  O   UNL     1       7.413  11.852   3.606  1.00  0.00    -0.237 OA
ATOM     63  O   UNL     1       5.453  11.537   5.074  1.00  0.00    -0.744 OA
ENDBRANCH  59  60
ENDBRANCH  27  52
BRANCH  39  64
ATOM     64  C   UNL     1      10.255   3.902  11.340  1.00  0.00     0.058 A 
ATOM     65  C   UNL     1       9.705   4.601  12.421  1.00  0.00     0.135 A 
ATOM     66  C   UNL     1      11.637   3.650  11.343  1.00  0.00     0.135 A 
ATOM     67  F   UNL     1       8.392   4.879  12.451  1.00  0.00    -0.206 F 
ATOM     68  C   UNL     1      10.506   5.055  13.462  1.00  0.00     0.059 A 
ATOM     69  C   UNL     1      12.449   4.062  12.388  1.00  0.00     0.059 A 
ATOM     70  F   UNL     1      12.205   2.975  10.330  1.00  0.00    -0.206 F 
ATOM     71  C   UNL     1      11.877   4.777  13.437  1.00  0.00     0.060 A 
BRANCH  71  72
ATOM     72  S   UNL     1      12.907   5.349  14.801  1.00  0.00     0.124 S 
ATOM     73  O   UNL     1      12.963   6.784  14.543  1.00  0.00    -0.237 OA
ATOM     74  O   UNL     1      12.132   4.943  15.968  1.00  0.00    -0.237 OA
ATOM     75  O   UNL     1      14.161   4.627  14.606  1.00  0.00    -0.744 OA
ENDBRANCH  71  72
ENDBRANCH  39  64
ENDBRANCH  13  14
ENDBRANCH   6   8
ENDBRANCH   5   6
ENDBRANCH   4   5
ENDBRANCH   3   4
ENDBRANCH   2   3
ENDBRANCH   1   2
BRANCH   1  76
ATOM     76  C   UNL     1       1.978   2.293  -2.112  1.00  0.00     0.188 C 
BRANCH  76  77
ATOM     77  O   UNL     1       2.577   2.678  -3.345  1.00  0.00    -0.376 OA
BRANCH  77  78
ATOM     78  C   UNL     1       3.981   2.904  -3.347  1.00  0.00     0.202 C 
BRANCH  78  79
ATOM     79  C   UNL     1       4.543   4.066  -2.511  1.00  0.00     0.261 C 
BRANCH  79  80
ATOM     80  O   UNL     1       4.022   4.169  -1.175  1.00  0.00    -0.463 OA
BRANCH  80  81
ATOM     81  C   UNL     1       3.203   5.235  -0.937  1.00  0.00     0.312 C 
ATOM     82  O   UNL     1       2.907   6.079  -1.778  1.00  0.00    -0.252 OA
BRANCH  81  83
ATOM     83  C   UNL     1       2.563   5.197   0.455  1.00  0.00     0.123 C 
ATOM     84  C   UNL     1       3.349   4.541   1.539  1.00  0.00    -0.015 C 
ATOM     85  C   UNL     1       2.338   6.621   1.000  1.00  0.00     0.043 C 
ATOM     86  C   UNL     1       3.487   5.331   2.609  1.00  0.00    -0.011 C 
ATOM     87  C   UNL     1       2.890   6.673   2.437  1.00  0.00     0.093 C 
BRANCH  87  88
ATOM     88  N   UNL     1       1.815   7.005   3.357  1.00  0.00    -0.204 NA
ATOM     89  H   UNL     1       0.977   7.025   2.774  1.00  0.00     0.142 HD
BRANCH  88  90
ATOM     90  S   UNL     1       1.344   6.201   4.736  1.00  0.00     0.244 S 
ATOM     91  O   UNL     1       0.231   6.987   5.250  1.00  0.00    -0.207 OA
ATOM     92  O   UNL     1       1.156   4.810   4.427  1.00  0.00    -0.207 OA
BRANCH  90  93
ATOM     93  C   UNL     1       2.663   6.426   5.887  1.00  0.00     0.121 A 
ATOM     94  C   UNL     1       2.894   7.708   6.417  1.00  0.00     0.028 A 
ATOM     95  C   UNL     1       3.397   5.338   6.350  1.00  0.00     0.181 A 
ATOM     96  C   UNL     1       3.888   7.894   7.383  1.00  0.00     0.044 A 
ATOM     97  C   UNL     1       4.379   5.529   7.319  1.00  0.00     0.195 A 
ATOM     98  F   UNL     1       3.201   4.103   5.870  1.00  0.00    -0.202 F 
ATOM     99  C   UNL     1       4.628   6.801   7.824  1.00  0.00     0.161 A 
ATOM    100  F   UNL     1       5.100   4.487   7.754  1.00  0.00    -0.200 F 
ATOM    101  F   UNL     1       5.605   6.993   8.720  1.00  0.00    -0.204 F 
ENDBRANCH  90  93
ENDBRANCH  88  90
ENDBRANCH  87  88
ENDBRANCH  81  83
ENDBRANCH  80  81
ENDBRANCH  79  80
ENDBRANCH  78  79
ENDBRANCH  77  78
ENDBRANCH  76  77
ENDBRANCH   1  76
TORSDOF 23
