REMARK SMILES O=C(Cc1ccc(S(=O)(=O)C[C@H]2CCCO2)cc1)OCCOCCOCCOC(=O)c1ccc(-c2c3nc(c(-c4c(F)cc(S(=O)(=O)[O-])cc4F)c4ccc([nH]4)c(-c4c(F)cc(S(=O)(=O)[O-])cc4F)c4nc(c(-c5c(F)cc(S(=O)(=O)[O-])cc5F)c5ccc2[nH]5)C=C4)C=C3)cc1
REMARK SMILES IDX 23 1 22 2 21 3 20 4 19 5 2 6 1 7 3 8 4 9 5 10 18 11 6 12
REMARK SMILES IDX 17 13 7 14 8 15 9 16 10 17 11 18 12 19 13 20 16 21 14 22
REMARK SMILES IDX 15 23 24 24 25 25 26 26 27 27 28 28 29 29 30 30 31 31 32 32
REMARK SMILES IDX 96 33 33 34 95 35 34 36 35 37 36 38 89 39 37 40 94 41 88 42
REMARK SMILES IDX 90 43 38 44 93 45 87 46 86 47 39 49 73 50 52 51 72 52 53 53
REMARK SMILES IDX 56 54 71 55 91 56 54 57 55 58 70 60 92 61 57 62 40 63 41 64
REMARK SMILES IDX 50 65 42 66 43 67 49 68 51 69 44 70 45 71 46 72 47 73 48 74
REMARK SMILES IDX 74 75 75 76 84 77 76 78 77 79 83 80 85 81 78 82 79 83 80 84
REMARK SMILES IDX 81 85 82 86 58 87 59 88 68 89 60 90 61 91 67 92 69 93 62 94
REMARK SMILES IDX 63 95 64 96 65 97 66 98
REMARK H PARENT 90 48 56 59
REMARK Flexibility Score: inf
ROOT
ATOM      1  C   UNL     1       7.358  -7.306  -1.175  1.00  0.00     0.188 C 
ENDROOT
BRANCH   1   2
ATOM      2  O   UNL     1       7.049  -5.923  -1.181  1.00  0.00    -0.376 OA
BRANCH   2   3
ATOM      3  C   UNL     1       7.802  -5.118  -0.294  1.00  0.00     0.202 C 
BRANCH   3   4
ATOM      4  C   UNL     1       9.152  -4.755  -0.900  1.00  0.00     0.261 C 
BRANCH   4   5
ATOM      5  O   UNL     1      10.031  -5.866  -1.193  1.00  0.00    -0.463 OA
BRANCH   5   6
ATOM      6  C   UNL     1      10.671  -6.700  -0.347  1.00  0.00     0.310 C 
ATOM      7  O   UNL     1      11.487  -7.499  -0.806  1.00  0.00    -0.252 OA
BRANCH   6   8
ATOM      8  C   UNL     1      10.302  -6.751   1.114  1.00  0.00     0.158 C 
BRANCH   8   9
ATOM      9  C   UNL     1      10.401  -5.478   1.909  1.00  0.00    -0.037 A 
ATOM     10  C   UNL     1      11.433  -4.558   1.693  1.00  0.00     0.005 A 
ATOM     11  C   UNL     1       9.481  -5.249   2.943  1.00  0.00     0.005 A 
ATOM     12  C   UNL     1      11.510  -3.400   2.464  1.00  0.00     0.020 A 
ATOM     13  C   UNL     1       9.567  -4.103   3.730  1.00  0.00     0.020 A 
ATOM     14  C   UNL     1      10.578  -3.176   3.483  1.00  0.00     0.067 A 
BRANCH  14  15
ATOM     15  S   UNL     1      10.774  -1.702   4.455  1.00  0.00     0.180 S 
ATOM     16  O   UNL     1      11.905  -1.965   5.328  1.00  0.00    -0.224 OA
ATOM     17  O   UNL     1      10.838  -0.586   3.529  1.00  0.00    -0.224 OA
BRANCH  15  18
ATOM     18  C   UNL     1       9.363  -1.508   5.502  1.00  0.00     0.174 C 
BRANCH  18  19
ATOM     19  C   UNL     1       8.043  -1.113   4.849  1.00  0.00     0.133 C 
ATOM     20  C   UNL     1       7.746   0.379   4.819  1.00  0.00     0.035 C 
ATOM     21  O   UNL     1       7.903  -1.596   3.511  1.00  0.00    -0.377 OA
ATOM     22  C   UNL     1       8.027   0.782   3.397  1.00  0.00     0.031 C 
ATOM     23  C   UNL     1       7.735  -0.482   2.619  1.00  0.00     0.160 C 
ENDBRANCH  18  19
ENDBRANCH  15  18
ENDBRANCH  14  15
ENDBRANCH   8   9
ENDBRANCH   6   8
ENDBRANCH   5   6
ENDBRANCH   4   5
ENDBRANCH   3   4
ENDBRANCH   2   3
ENDBRANCH   1   2
BRANCH   1  24
ATOM     24  C   UNL     1       7.603  -7.873  -2.582  1.00  0.00     0.188 C 
BRANCH  24  25
ATOM     25  O   UNL     1       6.993  -7.278  -3.721  1.00  0.00    -0.376 OA
BRANCH  25  26
ATOM     26  C   UNL     1       5.750  -6.606  -3.593  1.00  0.00     0.202 C 
BRANCH  26  27
ATOM     27  C   UNL     1       4.523  -7.449  -3.229  1.00  0.00     0.261 C 
BRANCH  27  28
ATOM     28  O   UNL     1       4.616  -8.145  -1.972  1.00  0.00    -0.460 OA
BRANCH  28  29
ATOM     29  C   UNL     1       4.733  -9.494  -2.067  1.00  0.00     0.338 C 
ATOM     30  O   UNL     1       4.745 -10.155  -3.091  1.00  0.00    -0.246 OA
BRANCH  29  31
ATOM     31  C   UNL     1       4.995 -10.102  -0.742  1.00  0.00     0.060 A 
ATOM     32  C   UNL     1       6.139 -10.900  -0.609  1.00  0.00     0.016 A 
ATOM     33  C   UNL     1       4.085 -10.004   0.314  1.00  0.00     0.016 A 
ATOM     34  C   UNL     1       6.344 -11.651   0.550  1.00  0.00     0.010 A 
ATOM     35  C   UNL     1       4.286 -10.771   1.474  1.00  0.00     0.010 A 
ATOM     36  C   UNL     1       5.393 -11.634   1.580  1.00  0.00    -0.014 A 
BRANCH  36  37
ATOM     37  C   UNL     1       5.481 -12.659   2.657  1.00  0.00     0.031 A 
ATOM     38  C   UNL     1       4.647 -13.912   2.546  1.00  0.00     0.074 A 
ATOM     39  C   UNL     1       6.344 -12.527   3.683  1.00  0.00     0.049 A 
ATOM     40  N   UNL     1       4.603 -14.954   3.337  1.00  0.00    -0.248 NA
ATOM     41  C   UNL     1       3.745 -14.000   1.386  1.00  0.00     0.031 C 
ATOM     42  C   UNL     1       7.228 -11.384   3.902  1.00  0.00     0.029 A 
ATOM     43  N   UNL     1       6.617 -13.370   4.734  1.00  0.00    -0.354 N 
ATOM     44  C   UNL     1       3.684 -15.828   2.764  1.00  0.00     0.074 A 
ATOM     45  C   UNL     1       3.159 -15.172   1.586  1.00  0.00     0.031 C 
ATOM     46  C   UNL     1       7.938 -11.592   5.026  1.00  0.00     0.029 A 
ATOM     47  C   UNL     1       7.550 -12.875   5.613  1.00  0.00     0.049 A 
ATOM     48  H   UNL     1       6.184 -14.246   4.846  1.00  0.00     0.167 HD
ATOM     49  C   UNL     1       3.322 -17.071   3.167  1.00  0.00     0.037 A 
ATOM     50  C   UNL     1       8.031 -13.390   6.763  1.00  0.00     0.037 A 
ATOM     51  C   UNL     1       3.831 -17.728   4.344  1.00  0.00     0.049 A 
ATOM     52  C   UNL     1       7.575 -14.752   7.222  1.00  0.00     0.074 A 
ATOM     53  C   UNL     1       3.517 -18.985   4.833  1.00  0.00     0.029 A 
ATOM     54  N   UNL     1       4.758 -17.183   5.219  1.00  0.00    -0.354 N 
ATOM     55  N   UNL     1       6.720 -15.572   6.657  1.00  0.00    -0.248 NA
ATOM     56  C   UNL     1       8.162 -15.266   8.469  1.00  0.00     0.031 C 
ATOM     57  C   UNL     1       4.223 -19.183   6.024  1.00  0.00     0.029 A 
ATOM     58  C   UNL     1       5.015 -18.071   6.252  1.00  0.00     0.049 A 
ATOM     59  H   UNL     1       5.173 -16.296   5.121  1.00  0.00     0.167 HD
ATOM     60  C   UNL     1       6.684 -16.704   7.467  1.00  0.00     0.074 A 
ATOM     61  C   UNL     1       7.618 -16.473   8.549  1.00  0.00     0.031 C 
ATOM     62  C   UNL     1       5.943 -17.832   7.329  1.00  0.00     0.037 A 
BRANCH  49  63
ATOM     63  C   UNL     1       2.316 -17.806   2.324  1.00  0.00     0.058 A 
ATOM     64  C   UNL     1       2.655 -18.326   1.064  1.00  0.00     0.135 A 
ATOM     65  C   UNL     1       1.012 -18.028   2.795  1.00  0.00     0.135 A 
ATOM     66  F   UNL     1       3.882 -18.128   0.559  1.00  0.00    -0.206 F 
ATOM     67  C   UNL     1       1.730 -19.021   0.291  1.00  0.00     0.059 A 
ATOM     68  C   UNL     1       0.078 -18.742   2.050  1.00  0.00     0.059 A 
ATOM     69  F   UNL     1       0.635 -17.551   3.991  1.00  0.00    -0.206 F 
ATOM     70  C   UNL     1       0.443 -19.224   0.793  1.00  0.00     0.060 A 
BRANCH  70  71
ATOM     71  S   UNL     1      -0.743 -20.137  -0.217  1.00  0.00     0.124 S 
ATOM     72  O   UNL     1      -1.049 -19.161  -1.258  1.00  0.00    -0.237 OA
ATOM     73  O   UNL     1       0.036 -21.295  -0.643  1.00  0.00    -0.237 OA
ATOM     74  O   UNL     1      -1.831 -20.424   0.712  1.00  0.00    -0.744 OA
ENDBRANCH  70  71
ENDBRANCH  49  63
BRANCH  50  75
ATOM     75  C   UNL     1       8.995 -12.605   7.583  1.00  0.00     0.058 A 
ATOM     76  C   UNL     1      10.332 -13.004   7.726  1.00  0.00     0.135 A 
ATOM     77  C   UNL     1       8.582 -11.448   8.262  1.00  0.00     0.135 A 
ATOM     78  F   UNL     1      10.771 -14.112   7.110  1.00  0.00    -0.206 F 
ATOM     79  C   UNL     1      11.222 -12.295   8.528  1.00  0.00     0.059 A 
ATOM     80  C   UNL     1       9.459 -10.708   9.047  1.00  0.00     0.059 A 
ATOM     81  F   UNL     1       7.316 -11.017   8.150  1.00  0.00    -0.206 F 
ATOM     82  C   UNL     1      10.775 -11.147   9.184  1.00  0.00     0.060 A 
BRANCH  82  83
ATOM     83  S   UNL     1      11.944 -10.204  10.188  1.00  0.00     0.124 S 
ATOM     84  O   UNL     1      12.057 -11.044  11.374  1.00  0.00    -0.237 OA
ATOM     85  O   UNL     1      13.120 -10.155   9.324  1.00  0.00    -0.237 OA
ATOM     86  O   UNL     1      11.263  -8.927  10.379  1.00  0.00    -0.744 OA
ENDBRANCH  82  83
ENDBRANCH  50  75
BRANCH  62  87
ATOM     87  C   UNL     1       6.130 -18.914   8.361  1.00  0.00     0.058 A 
ATOM     88  C   UNL     1       5.666 -18.768   9.678  1.00  0.00     0.135 A 
ATOM     89  C   UNL     1       6.768 -20.119   8.024  1.00  0.00     0.135 A 
ATOM     90  F   UNL     1       5.048 -17.637  10.055  1.00  0.00    -0.206 F 
ATOM     91  C   UNL     1       5.867 -19.758  10.635  1.00  0.00     0.059 A 
ATOM     92  C   UNL     1       6.955 -21.135   8.958  1.00  0.00     0.059 A 
ATOM     93  F   UNL     1       7.218 -20.320   6.776  1.00  0.00    -0.206 F 
ATOM     94  C   UNL     1       6.519 -20.936  10.267  1.00  0.00     0.060 A 
BRANCH  94  95
ATOM     95  S   UNL     1       6.782 -22.210  11.519  1.00  0.00     0.124 S 
ATOM     96  O   UNL     1       7.880 -21.640  12.292  1.00  0.00    -0.237 OA
ATOM     97  O   UNL     1       5.489 -22.259  12.196  1.00  0.00    -0.237 OA
ATOM     98  O   UNL     1       7.115 -23.395  10.734  1.00  0.00    -0.744 OA
ENDBRANCH  94  95
ENDBRANCH  62  87
ENDBRANCH  36  37
ENDBRANCH  29  31
ENDBRANCH  28  29
ENDBRANCH  27  28
ENDBRANCH  26  27
ENDBRANCH  25  26
ENDBRANCH  24  25
ENDBRANCH   1  24
TORSDOF 24
