REMARK SMILES O=C1CCCC2=C1[C@H](c1ccc([N+](=O)[O-])cc1)CC(=O)N2c1ccccc1C(=O)OCCOCCOCCOC(=O)c1ccc(-c2c3nc(c(-c4c(F)cc(S(=O)(=O)[O-])cc4F)c4ccc([nH]4)c(-c4c(F)cc(S(=O)(=O)[O-])cc4F)c4nc(c(-c5c(F)cc(S(=O)(=O)[O-])cc5F)c5ccc2[nH]5)C=C4)C=C3)cc1
REMARK SMILES IDX 34 1 33 2 32 3 31 4 30 5 28 6 29 7 27 8 22 9 23 10 24 11
REMARK SMILES IDX 26 12 25 13 21 14 1 15 2 16 3 17 7 18 4 19 6 20 8 21 5 22
REMARK SMILES IDX 18 23 19 24 20 25 9 26 10 27 17 28 11 29 16 30 12 31 13 32
REMARK SMILES IDX 14 33 15 34 35 35 36 36 37 37 38 38 39 39 40 40 41 41 42 42
REMARK SMILES IDX 43 43 107 44 44 45 106 46 45 47 46 48 47 49 100 50 48 51
REMARK SMILES IDX 105 52 99 53 101 54 49 55 104 56 98 57 97 58 50 60 84 61
REMARK SMILES IDX 63 62 83 63 64 64 67 65 82 66 102 67 65 68 66 69 81 71
REMARK SMILES IDX 103 72 68 73 51 74 52 75 61 76 53 77 54 78 60 79 62 80 55 81
REMARK SMILES IDX 56 82 57 83 58 84 59 85 85 86 86 87 95 88 87 89 88 90 94 91
REMARK SMILES IDX 96 92 89 93 90 94 91 95 92 96 93 97 69 98 70 99 79 100
REMARK SMILES IDX 71 101 72 102 78 103 80 104 73 105 74 106 75 107 76 108
REMARK SMILES IDX 77 109
REMARK H PARENT 101 59 67 70
REMARK Flexibility Score: inf
ROOT
ATOM      1  C   UNL     1       7.648  -1.458   3.196  1.00  0.00     0.188 C 
ENDROOT
BRANCH   1   2
ATOM      2  O   UNL     1       6.723  -0.622   3.882  1.00  0.00    -0.376 OA
BRANCH   2   3
ATOM      3  C   UNL     1       6.456   0.631   3.267  1.00  0.00     0.202 C 
BRANCH   3   4
ATOM      4  C   UNL     1       5.475   0.516   2.104  1.00  0.00     0.261 C 
BRANCH   4   5
ATOM      5  O   UNL     1       5.927  -0.354   1.059  1.00  0.00    -0.460 OA
BRANCH   5   6
ATOM      6  C   UNL     1       6.947   0.084   0.293  1.00  0.00     0.340 C 
ATOM      7  O   UNL     1       7.529   1.148   0.432  1.00  0.00    -0.246 OA
BRANCH   6   8
ATOM      8  C   UNL     1       7.299  -0.924  -0.742  1.00  0.00     0.084 A 
ATOM      9  C   UNL     1       6.403  -1.842  -1.341  1.00  0.00     0.063 A 
ATOM     10  C   UNL     1       6.951  -2.789  -2.237  1.00  0.00     0.027 A 
ATOM     11  C   UNL     1       8.318  -2.836  -2.525  1.00  0.00     0.002 A 
ATOM     12  C   UNL     1       8.676  -0.976  -1.050  1.00  0.00     0.018 A 
ATOM     13  C   UNL     1       9.182  -1.929  -1.930  1.00  0.00     0.001 A 
BRANCH   9  14
ATOM     14  N   UNL     1       4.969  -1.915  -1.093  1.00  0.00    -0.284 N 
ATOM     15  O   UNL     1       0.742   0.191  -0.744  1.00  0.00    -0.294 OA
ATOM     16  C   UNL     1       1.964   0.287  -0.683  1.00  0.00     0.161 C 
ATOM     17  C   UNL     1       2.657   1.618  -0.644  1.00  0.00     0.081 C 
ATOM     18  C   UNL     1       2.840  -0.919  -0.633  1.00  0.00     0.023 C 
ATOM     19  C   UNL     1       3.582   1.646  -1.838  1.00  0.00     0.015 C 
ATOM     20  C   UNL     1       4.098  -0.802  -1.121  1.00  0.00     0.033 C 
ATOM     21  C   UNL     1       2.211  -2.218  -0.183  1.00  0.00     0.064 C 
ATOM     22  C   UNL     1       4.584   0.489  -1.785  1.00  0.00     0.055 C 
ATOM     23  C   UNL     1       2.959  -3.350  -0.881  1.00  0.00     0.114 C 
ATOM     24  C   UNL     1       4.461  -3.206  -0.786  1.00  0.00     0.232 C 
ATOM     25  O   UNL     1       5.144  -4.211  -0.577  1.00  0.00    -0.274 OA
BRANCH  21  26
ATOM     26  C   UNL     1       1.977  -2.365   1.331  1.00  0.00    -0.039 A 
ATOM     27  C   UNL     1       2.394  -3.490   2.064  1.00  0.00     0.011 A 
ATOM     28  C   UNL     1       1.190  -1.414   2.015  1.00  0.00     0.011 A 
ATOM     29  C   UNL     1       2.033  -3.660   3.410  1.00  0.00     0.086 A 
ATOM     30  C   UNL     1       0.868  -1.547   3.371  1.00  0.00     0.086 A 
ATOM     31  C   UNL     1       1.296  -2.674   4.067  1.00  0.00     0.269 A 
BRANCH  31  32
ATOM     32  N   UNL     1       0.976  -2.816   5.492  1.00  0.00     0.062 N 
ATOM     33  O   UNL     1       1.476  -3.770   6.105  1.00  0.00    -0.258 OA
ATOM     34  O   UNL     1       0.227  -1.969   6.003  1.00  0.00    -0.258 OA
ENDBRANCH  31  32
ENDBRANCH  21  26
ENDBRANCH   9  14
ENDBRANCH   6   8
ENDBRANCH   5   6
ENDBRANCH   4   5
ENDBRANCH   3   4
ENDBRANCH   2   3
ENDBRANCH   1   2
BRANCH   1  35
ATOM     35  C   UNL     1       7.024  -2.704   2.531  1.00  0.00     0.188 C 
BRANCH  35  36
ATOM     36  O   UNL     1       5.773  -3.217   2.972  1.00  0.00    -0.376 OA
BRANCH  36  37
ATOM     37  C   UNL     1       5.436  -3.146   4.346  1.00  0.00     0.202 C 
BRANCH  37  38
ATOM     38  C   UNL     1       6.254  -3.959   5.346  1.00  0.00     0.261 C 
BRANCH  38  39
ATOM     39  O   UNL     1       7.662  -3.731   5.264  1.00  0.00    -0.460 OA
BRANCH  39  40
ATOM     40  C   UNL     1       8.373  -4.726   4.678  1.00  0.00     0.338 C 
ATOM     41  O   UNL     1       7.956  -5.797   4.275  1.00  0.00    -0.246 OA
BRANCH  40  42
ATOM     42  C   UNL     1       9.739  -4.233   4.420  1.00  0.00     0.060 A 
ATOM     43  C   UNL     1      10.272  -4.402   3.135  1.00  0.00     0.016 A 
ATOM     44  C   UNL     1      10.483  -3.609   5.425  1.00  0.00     0.016 A 
ATOM     45  C   UNL     1      11.566  -3.974   2.857  1.00  0.00     0.010 A 
ATOM     46  C   UNL     1      11.790  -3.204   5.153  1.00  0.00     0.010 A 
ATOM     47  C   UNL     1      12.344  -3.416   3.879  1.00  0.00    -0.014 A 
BRANCH  47  48
ATOM     48  C   UNL     1      13.802  -3.268   3.685  1.00  0.00     0.031 A 
ATOM     49  C   UNL     1      14.682  -4.415   4.095  1.00  0.00     0.074 A 
ATOM     50  C   UNL     1      14.328  -2.147   3.164  1.00  0.00     0.049 A 
ATOM     51  N   UNL     1      15.984  -4.512   4.071  1.00  0.00    -0.248 NA
ATOM     52  C   UNL     1      13.996  -5.616   4.605  1.00  0.00     0.031 C 
ATOM     53  C   UNL     1      13.566  -0.989   2.699  1.00  0.00     0.029 A 
ATOM     54  N   UNL     1      15.636  -1.798   2.949  1.00  0.00    -0.354 N 
ATOM     55  C   UNL     1      16.274  -5.777   4.569  1.00  0.00     0.074 A 
ATOM     56  C   UNL     1      15.016  -6.404   4.906  1.00  0.00     0.031 C 
ATOM     57  C   UNL     1      14.425  -0.050   2.263  1.00  0.00     0.029 A 
ATOM     58  C   UNL     1      15.794  -0.530   2.445  1.00  0.00     0.049 A 
ATOM     59  H   UNL     1      16.392  -2.401   3.138  1.00  0.00     0.167 HD
ATOM     60  C   UNL     1      17.483  -6.363   4.729  1.00  0.00     0.037 A 
ATOM     61  C   UNL     1      16.919   0.163   2.181  1.00  0.00     0.037 A 
ATOM     62  C   UNL     1      18.730  -5.728   4.401  1.00  0.00     0.049 A 
ATOM     63  C   UNL     1      18.257  -0.485   2.434  1.00  0.00     0.074 A 
ATOM     64  C   UNL     1      20.010  -6.240   4.502  1.00  0.00     0.029 A 
ATOM     65  N   UNL     1      18.851  -4.432   3.922  1.00  0.00    -0.354 N 
ATOM     66  N   UNL     1      18.519  -1.694   2.872  1.00  0.00    -0.248 NA
ATOM     67  C   UNL     1      19.451   0.327   2.160  1.00  0.00     0.031 C 
ATOM     68  C   UNL     1      20.910  -5.237   4.126  1.00  0.00     0.029 A 
ATOM     69  C   UNL     1      20.187  -4.116   3.747  1.00  0.00     0.049 A 
ATOM     70  H   UNL     1      18.098  -3.826   3.734  1.00  0.00     0.167 HD
ATOM     71  C   UNL     1      19.907  -1.799   2.896  1.00  0.00     0.074 A 
ATOM     72  C   UNL     1      20.427  -0.531   2.426  1.00  0.00     0.031 C 
ATOM     73  C   UNL     1      20.681  -2.849   3.268  1.00  0.00     0.037 A 
BRANCH  60  74
ATOM     74  C   UNL     1      17.505  -7.743   5.320  1.00  0.00     0.058 A 
ATOM     75  C   UNL     1      17.081  -8.866   4.591  1.00  0.00     0.135 A 
ATOM     76  C   UNL     1      17.954  -7.945   6.634  1.00  0.00     0.135 A 
ATOM     77  F   UNL     1      16.619  -8.724   3.338  1.00  0.00    -0.206 F 
ATOM     78  C   UNL     1      17.075 -10.137   5.155  1.00  0.00     0.059 A 
ATOM     79  C   UNL     1      17.980  -9.211   7.210  1.00  0.00     0.059 A 
ATOM     80  F   UNL     1      18.362  -6.903   7.376  1.00  0.00    -0.206 F 
ATOM     81  C   UNL     1      17.523 -10.299   6.468  1.00  0.00     0.060 A 
BRANCH  81  82
ATOM     82  S   UNL     1      17.503 -11.952   7.191  1.00  0.00     0.124 S 
ATOM     83  O   UNL     1      16.078 -12.138   7.451  1.00  0.00    -0.237 OA
ATOM     84  O   UNL     1      18.063 -12.770   6.120  1.00  0.00    -0.237 OA
ATOM     85  O   UNL     1      18.345 -11.815   8.375  1.00  0.00    -0.744 OA
ENDBRANCH  81  82
ENDBRANCH  60  74
BRANCH  61  86
ATOM     86  C   UNL     1      16.835   1.548   1.648  1.00  0.00     0.058 A 
ATOM     87  C   UNL     1      17.207   1.835   0.327  1.00  0.00     0.135 A 
ATOM     88  C   UNL     1      16.387   2.612   2.446  1.00  0.00     0.135 A 
ATOM     89  F   UNL     1      17.653   0.853  -0.472  1.00  0.00    -0.206 F 
ATOM     90  C   UNL     1      17.148   3.128  -0.183  1.00  0.00     0.059 A 
ATOM     91  C   UNL     1      16.299   3.910   1.953  1.00  0.00     0.059 A 
ATOM     92  F   UNL     1      16.012   2.389   3.716  1.00  0.00    -0.206 F 
ATOM     93  C   UNL     1      16.690   4.160   0.638  1.00  0.00     0.060 A 
BRANCH  93  94
ATOM     94  S   UNL     1      16.568   5.825  -0.050  1.00  0.00     0.124 S 
ATOM     95  O   UNL     1      17.970   6.224  -0.104  1.00  0.00    -0.237 OA
ATOM     96  O   UNL     1      15.924   5.579  -1.337  1.00  0.00    -0.237 OA
ATOM     97  O   UNL     1      15.746   6.532   0.927  1.00  0.00    -0.744 OA
ENDBRANCH  93  94
ENDBRANCH  61  86
BRANCH  73  98
ATOM     98  C   UNL     1      22.171  -2.690   3.146  1.00  0.00     0.058 A 
ATOM     99  C   UNL     1      22.906  -1.910   4.050  1.00  0.00     0.135 A 
ATOM    100  C   UNL     1      22.877  -3.380   2.147  1.00  0.00     0.135 A 
ATOM    101  F   UNL     1      22.278  -1.226   5.020  1.00  0.00    -0.206 F 
ATOM    102  C   UNL     1      24.290  -1.804   3.958  1.00  0.00     0.059 A 
ATOM    103  C   UNL     1      24.262  -3.309   2.051  1.00  0.00     0.059 A 
ATOM    104  F   UNL     1      22.220  -4.149   1.264  1.00  0.00    -0.206 F 
ATOM    105  C   UNL     1      24.960  -2.509   2.955  1.00  0.00     0.060 A 
BRANCH 105 106
ATOM    106  S   UNL     1      26.759  -2.395   2.867  1.00  0.00     0.124 S 
ATOM    107  O   UNL     1      26.941  -1.072   2.280  1.00  0.00    -0.237 OA
ATOM    108  O   UNL     1      27.151  -2.527   4.267  1.00  0.00    -0.237 OA
ATOM    109  O   UNL     1      27.128  -3.519   2.012  1.00  0.00    -0.744 OA
ENDBRANCH 105 106
ENDBRANCH  73  98
ENDBRANCH  47  48
ENDBRANCH  40  42
ENDBRANCH  39  40
ENDBRANCH  38  39
ENDBRANCH  37  38
ENDBRANCH  36  37
ENDBRANCH  35  36
ENDBRANCH   1  35
TORSDOF 23
