REMARK SMILES Cc1cc2c(c(C)c1Br)C=C(C(=O)OCCOCCOCCOC(=O)c1ccc(-c3c4nc(c(-c5c(F)cc(S(=O)(=O)[O-])cc5F)c5ccc([nH]5)c(-c5c(F)cc(S(=O)(=O)[O-])cc5F)c5nc(c(-c6c(F)cc(S(=O)(=O)[O-])cc6F)c6ccc3[nH]6)C=C5)C=C4)cc1)[C@@H](C(F)(F)F)O2
REMARK SMILES IDX 19 1 18 2 17 3 16 4 15 5 14 6 12 7 13 8 11 9 1 10 2 11 3 12
REMARK SMILES IDX 8 13 4 14 6 15 9 16 5 17 97 18 7 19 10 20 92 21 93 22 94 23
REMARK SMILES IDX 95 24 96 25 20 26 21 27 22 28 23 29 24 30 25 31 26 32 27 33
REMARK SMILES IDX 91 34 28 35 90 36 29 37 30 38 31 39 84 40 32 41 89 42 83 43
REMARK SMILES IDX 85 44 33 45 88 46 82 47 81 48 34 50 68 51 47 52 67 53 48 54
REMARK SMILES IDX 51 55 66 56 86 57 49 58 50 59 65 61 87 62 52 63 35 64 36 65
REMARK SMILES IDX 45 66 37 67 38 68 44 69 46 70 39 71 40 72 41 73 42 74 43 75
REMARK SMILES IDX 69 76 70 77 79 78 71 79 72 80 78 81 80 82 73 83 74 84 75 85
REMARK SMILES IDX 76 86 77 87 53 88 54 89 63 90 55 91 56 92 62 93 64 94 57 95
REMARK SMILES IDX 58 96 59 97 60 98 61 99
REMARK H PARENT 85 49 51 60
REMARK Flexibility Score: inf
ROOT
ATOM      1  C   UNL     1       0.952  -7.780   3.296  1.00  0.00     0.188 C 
ENDROOT
BRANCH   1   2
ATOM      2  C   UNL     1      -0.478  -8.302   3.561  1.00  0.00     0.188 C 
BRANCH   2   3
ATOM      3  O   UNL     1      -0.571  -9.707   3.510  1.00  0.00    -0.376 OA
BRANCH   3   4
ATOM      4  C   UNL     1      -1.097 -10.349   2.365  1.00  0.00     0.202 C 
BRANCH   4   5
ATOM      5  C   UNL     1      -0.830  -9.877   0.924  1.00  0.00     0.261 C 
BRANCH   5   6
ATOM      6  O   UNL     1      -0.353  -8.540   0.750  1.00  0.00    -0.460 OA
BRANCH   6   7
ATOM      7  C   UNL     1      -1.270  -7.611   0.401  1.00  0.00     0.338 C 
ATOM      8  O   UNL     1      -2.467  -7.789   0.249  1.00  0.00    -0.246 OA
BRANCH   7   9
ATOM      9  C   UNL     1      -0.606  -6.293   0.334  1.00  0.00     0.087 C 
ATOM     10  C   UNL     1       1.081  -0.057   0.026  1.00  0.00     0.046 C 
ATOM     11  C   UNL     1       0.505  -1.389   0.431  1.00  0.00    -0.033 A 
ATOM     12  C   UNL     1       1.115  -2.541  -0.081  1.00  0.00     0.051 A 
ATOM     13  C   UNL     1      -0.653  -1.529   1.224  1.00  0.00     0.024 A 
ATOM     14  C   UNL     1       0.568  -3.803   0.141  1.00  0.00     0.128 A 
ATOM     15  C   UNL     1      -1.191  -2.810   1.508  1.00  0.00    -0.026 A 
ATOM     16  Br  UNL     1      -1.521   0.054   1.861  1.00  0.00    -0.050 Br
ATOM     17  C   UNL     1      -0.599  -3.947   0.899  1.00  0.00     0.021 A 
ATOM     18  O   UNL     1       1.252  -4.831  -0.441  1.00  0.00    -0.475 OA
ATOM     19  C   UNL     1      -2.383  -2.998   2.421  1.00  0.00     0.046 C 
ATOM     20  C   UNL     1      -1.201  -5.279   0.974  1.00  0.00     0.027 C 
ATOM     21  C   UNL     1       0.692  -6.167  -0.411  1.00  0.00     0.316 C 
BRANCH  21  22
ATOM     22  C   UNL     1       0.597  -6.677  -1.857  1.00  0.00     0.430 C 
ATOM     23  F   UNL     1       1.777  -6.527  -2.509  1.00  0.00    -0.167 F 
ATOM     24  F   UNL     1       0.297  -7.997  -1.909  1.00  0.00    -0.167 F 
ATOM     25  F   UNL     1      -0.344  -6.020  -2.571  1.00  0.00    -0.167 F 
ENDBRANCH  21  22
ENDBRANCH   7   9
ENDBRANCH   6   7
ENDBRANCH   5   6
ENDBRANCH   4   5
ENDBRANCH   3   4
ENDBRANCH   2   3
ENDBRANCH   1   2
BRANCH   1  26
ATOM     26  O   UNL     1       2.011  -8.707   3.079  1.00  0.00    -0.376 OA
BRANCH  26  27
ATOM     27  C   UNL     1       2.170  -9.796   3.984  1.00  0.00     0.202 C 
BRANCH  27  28
ATOM     28  C   UNL     1       2.304  -9.514   5.488  1.00  0.00     0.261 C 
BRANCH  28  29
ATOM     29  O   UNL     1       1.255  -8.706   6.046  1.00  0.00    -0.460 OA
BRANCH  29  30
ATOM     30  C   UNL     1       1.644  -7.495   6.520  1.00  0.00     0.338 C 
ATOM     31  O   UNL     1       2.775  -7.042   6.548  1.00  0.00    -0.246 OA
BRANCH  30  32
ATOM     32  C   UNL     1       0.449  -6.689   6.839  1.00  0.00     0.060 A 
ATOM     33  C   UNL     1       0.245  -5.496   6.131  1.00  0.00     0.016 A 
ATOM     34  C   UNL     1      -0.438  -7.077   7.844  1.00  0.00     0.016 A 
ATOM     35  C   UNL     1      -0.847  -4.684   6.431  1.00  0.00     0.010 A 
ATOM     36  C   UNL     1      -1.517  -6.246   8.163  1.00  0.00     0.010 A 
ATOM     37  C   UNL     1      -1.716  -5.038   7.471  1.00  0.00    -0.014 A 
BRANCH  37  38
ATOM     38  C   UNL     1      -2.737  -4.068   7.931  1.00  0.00     0.031 A 
ATOM     39  C   UNL     1      -2.387  -3.130   9.053  1.00  0.00     0.074 A 
ATOM     40  C   UNL     1      -3.941  -3.995   7.335  1.00  0.00     0.049 A 
ATOM     41  N   UNL     1      -3.122  -2.211   9.622  1.00  0.00    -0.248 NA
ATOM     42  C   UNL     1      -1.025  -3.240   9.602  1.00  0.00     0.031 C 
ATOM     43  C   UNL     1      -4.377  -4.816   6.205  1.00  0.00     0.029 A 
ATOM     44  N   UNL     1      -5.020  -3.188   7.600  1.00  0.00    -0.354 N 
ATOM     45  C   UNL     1      -2.309  -1.620  10.581  1.00  0.00     0.074 A 
ATOM     46  C   UNL     1      -1.037  -2.309  10.545  1.00  0.00     0.031 C 
ATOM     47  C   UNL     1      -5.635  -4.471   5.876  1.00  0.00     0.029 A 
ATOM     48  C   UNL     1      -6.103  -3.427   6.787  1.00  0.00     0.049 A 
ATOM     49  H   UNL     1      -5.018  -2.503   8.306  1.00  0.00     0.167 HD
ATOM     50  C   UNL     1      -2.592  -0.586  11.408  1.00  0.00     0.037 A 
ATOM     51  C   UNL     1      -7.333  -2.875   6.791  1.00  0.00     0.037 A 
ATOM     52  C   UNL     1      -3.863   0.084  11.457  1.00  0.00     0.049 A 
ATOM     53  C   UNL     1      -7.659  -1.798   7.796  1.00  0.00     0.074 A 
ATOM     54  C   UNL     1      -4.253   1.128  12.278  1.00  0.00     0.029 A 
ATOM     55  N   UNL     1      -4.953  -0.225  10.657  1.00  0.00    -0.354 N 
ATOM     56  N   UNL     1      -6.880  -1.248   8.697  1.00  0.00    -0.248 NA
ATOM     57  C   UNL     1      -9.032  -1.269   7.788  1.00  0.00     0.031 C 
ATOM     58  C   UNL     1      -5.591   1.423  12.003  1.00  0.00     0.029 A 
ATOM     59  C   UNL     1      -6.021   0.596  10.977  1.00  0.00     0.049 A 
ATOM     60  H   UNL     1      -4.965  -0.924   9.964  1.00  0.00     0.167 HD
ATOM     61  C   UNL     1      -7.657  -0.288   9.338  1.00  0.00     0.074 A 
ATOM     62  C   UNL     1      -8.967  -0.330   8.723  1.00  0.00     0.031 C 
ATOM     63  C   UNL     1      -7.314   0.555  10.343  1.00  0.00     0.037 A 
BRANCH  50  64
ATOM     64  C   UNL     1      -1.507  -0.117  12.334  1.00  0.00     0.058 A 
ATOM     65  C   UNL     1      -0.413   0.623  11.859  1.00  0.00     0.135 A 
ATOM     66  C   UNL     1      -1.589  -0.358  13.715  1.00  0.00     0.135 A 
ATOM     67  F   UNL     1      -0.277   0.862  10.545  1.00  0.00    -0.206 F 
ATOM     68  C   UNL     1       0.568   1.102  12.721  1.00  0.00     0.059 A 
ATOM     69  C   UNL     1      -0.631   0.131  14.598  1.00  0.00     0.059 A 
ATOM     70  F   UNL     1      -2.612  -1.066  14.217  1.00  0.00    -0.206 F 
ATOM     71  C   UNL     1       0.447   0.854  14.090  1.00  0.00     0.060 A 
BRANCH  71  72
ATOM     72  S   UNL     1       1.717   1.506  15.195  1.00  0.00     0.124 S 
ATOM     73  O   UNL     1       2.861   0.667  14.852  1.00  0.00    -0.237 OA
ATOM     74  O   UNL     1       1.806   2.901  14.776  1.00  0.00    -0.237 OA
ATOM     75  O   UNL     1       1.157   1.288  16.525  1.00  0.00    -0.744 OA
ENDBRANCH  71  72
ENDBRANCH  50  64
BRANCH  51  76
ATOM     76  C   UNL     1      -8.356  -3.324   5.809  1.00  0.00     0.058 A 
ATOM     77  C   UNL     1      -8.784  -2.478   4.775  1.00  0.00     0.135 A 
ATOM     78  C   UNL     1      -8.936  -4.599   5.891  1.00  0.00     0.135 A 
ATOM     79  F   UNL     1      -8.268  -1.244   4.663  1.00  0.00    -0.206 F 
ATOM     80  C   UNL     1      -9.759  -2.873   3.865  1.00  0.00     0.059 A 
ATOM     81  C   UNL     1      -9.896  -5.027   4.979  1.00  0.00     0.059 A 
ATOM     82  F   UNL     1      -8.557  -5.449   6.858  1.00  0.00    -0.206 F 
ATOM     83  C   UNL     1     -10.308  -4.152   3.974  1.00  0.00     0.060 A 
BRANCH  83  84
ATOM     84  S   UNL     1     -11.545  -4.668   2.764  1.00  0.00     0.124 S 
ATOM     85  O   UNL     1     -12.694  -3.861   3.156  1.00  0.00    -0.237 OA
ATOM     86  O   UNL     1     -10.908  -4.303   1.502  1.00  0.00    -0.237 OA
ATOM     87  O   UNL     1     -11.670  -6.103   3.002  1.00  0.00    -0.744 OA
ENDBRANCH  83  84
ENDBRANCH  51  76
BRANCH  63  88
ATOM     88  C   UNL     1      -8.348   1.534  10.829  1.00  0.00     0.058 A 
ATOM     89  C   UNL     1      -9.413   1.133  11.648  1.00  0.00     0.135 A 
ATOM     90  C   UNL     1      -8.206   2.906  10.559  1.00  0.00     0.135 A 
ATOM     91  F   UNL     1      -9.596  -0.167  11.931  1.00  0.00    -0.206 F 
ATOM     92  C   UNL     1     -10.305   2.058  12.182  1.00  0.00     0.059 A 
ATOM     93  C   UNL     1      -9.072   3.850  11.102  1.00  0.00     0.059 A 
ATOM     94  F   UNL     1      -7.197   3.342   9.790  1.00  0.00    -0.206 F 
ATOM     95  C   UNL     1     -10.121   3.415  11.911  1.00  0.00     0.060 A 
BRANCH  95  96
ATOM     96  S   UNL     1     -11.244   4.608  12.671  1.00  0.00     0.124 S 
ATOM     97  O   UNL     1     -12.475   4.373  11.922  1.00  0.00    -0.237 OA
ATOM     98  O   UNL     1     -11.259   4.176  14.066  1.00  0.00    -0.237 OA
ATOM     99  O   UNL     1     -10.596   5.892  12.425  1.00  0.00    -0.744 OA
ENDBRANCH  95  96
ENDBRANCH  63  88
ENDBRANCH  37  38
ENDBRANCH  30  32
ENDBRANCH  29  30
ENDBRANCH  28  29
ENDBRANCH  27  28
ENDBRANCH  26  27
ENDBRANCH   1  26
TORSDOF 21
