REMARK SMILES C/C(=N\Nc1nc(-c2ccc(Cl)cc2)cs1)c1nnn(-c2ccc(C(=O)OCCOCCOCCOC(=O)c3ccc(-c4c5nc(c(-c6c(F)cc(S(=O)(=O)[O-])cc6F)c6ccc([nH]6)c(-c6c(F)cc(S(=O)(=O)[O-])cc6F)c6nc(c(-c7c(F)cc(S(=O)(=O)[O-])cc7F)c7ccc4[nH]7)C=C6)C=C5)cc3)cc2)c1C
REMARK SMILES IDX 31 1 30 2 29 3 28 4 27 5 25 6 26 7 24 8 21 9 22 10 106 11
REMARK SMILES IDX 23 12 105 13 20 14 17 15 18 16 107 17 19 18 108 19 2 20 1 21
REMARK SMILES IDX 3 22 4 23 5 25 6 26 16 27 7 28 15 29 8 30 9 31 14 32 10 33
REMARK SMILES IDX 13 34 11 35 12 36 32 37 33 38 34 39 35 40 36 41 37 42 38 43
REMARK SMILES IDX 39 44 40 45 104 46 41 47 103 48 42 49 43 50 44 51 97 52
REMARK SMILES IDX 45 53 102 54 96 55 98 56 46 57 101 58 95 59 94 60 47 62
REMARK SMILES IDX 81 63 60 64 80 65 61 66 64 67 79 68 99 69 62 70 63 71 78 73
REMARK SMILES IDX 100 74 65 75 48 76 49 77 58 78 50 79 51 80 57 81 59 82 52 83
REMARK SMILES IDX 53 84 54 85 55 86 56 87 82 88 83 89 92 90 84 91 85 92 91 93
REMARK SMILES IDX 93 94 86 95 87 96 88 97 89 98 90 99 66 100 67 101 76 102
REMARK SMILES IDX 68 103 69 104 75 105 77 106 70 107 71 108 72 109 73 110
REMARK SMILES IDX 74 111
REMARK H PARENT 4 24 98 61 64 72
REMARK Flexibility Score: inf
ROOT
ATOM      1  C   UNL     1       7.265  -8.728   2.121  1.00  0.00     0.188 C 
ENDROOT
BRANCH   1   2
ATOM      2  O   UNL     1       8.590  -9.098   1.756  1.00  0.00    -0.376 OA
BRANCH   2   3
ATOM      3  C   UNL     1       9.646  -8.151   1.860  1.00  0.00     0.202 C 
BRANCH   3   4
ATOM      4  C   UNL     1       9.508  -6.787   1.162  1.00  0.00     0.261 C 
BRANCH   4   5
ATOM      5  O   UNL     1       8.309  -6.071   1.495  1.00  0.00    -0.460 OA
BRANCH   5   6
ATOM      6  C   UNL     1       7.426  -5.886   0.486  1.00  0.00     0.338 C 
ATOM      7  O   UNL     1       7.596  -6.135  -0.695  1.00  0.00    -0.246 OA
BRANCH   6   8
ATOM      8  C   UNL     1       6.120  -5.444   1.030  1.00  0.00     0.060 A 
ATOM      9  C   UNL     1       3.631  -4.490   1.813  1.00  0.00     0.067 A 
ATOM     10  C   UNL     1       3.700  -5.464   0.813  1.00  0.00     0.029 A 
ATOM     11  C   UNL     1       4.779  -4.106   2.522  1.00  0.00     0.029 A 
ATOM     12  C   UNL     1       4.954  -5.920   0.408  1.00  0.00     0.018 A 
ATOM     13  C   UNL     1       6.028  -4.582   2.128  1.00  0.00     0.018 A 
BRANCH   9  14
ATOM     14  N   UNL     1       2.464  -3.696   1.898  1.00  0.00    -0.217 N 
ATOM     15  C   UNL     1       1.092  -2.059   1.453  1.00  0.00     0.132 A 
ATOM     16  N   UNL     1       0.366  -3.208   1.576  1.00  0.00    -0.128 NA
ATOM     17  C   UNL     1       2.431  -2.327   1.681  1.00  0.00     0.071 A 
ATOM     18  N   UNL     1       1.217  -4.209   1.779  1.00  0.00    -0.061 NA
ATOM     19  C   UNL     1       3.625  -1.466   1.474  1.00  0.00     0.069 C 
BRANCH  15  20
ATOM     20  C   UNL     1       0.586  -0.812   0.901  1.00  0.00     0.087 C 
ATOM     21  C   UNL     1       1.117  -0.483  -0.473  1.00  0.00     0.071 C 
ATOM     22  N   UNL     1      -0.156  -0.099   1.698  1.00  0.00    -0.176 NA
BRANCH  22  23
ATOM     23  N   UNL     1      -0.557   1.190   1.448  1.00  0.00    -0.252 N 
ATOM     24  H   UNL     1      -0.947   1.649   2.227  1.00  0.00     0.193 HD
BRANCH  23  25
ATOM     25  C   UNL     1      -0.515   1.947   0.323  1.00  0.00     0.203 A 
ATOM     26  N   UNL     1      -0.687   1.527  -0.907  1.00  0.00    -0.219 NA
ATOM     27  S   UNL     1      -0.145   3.635   0.432  1.00  0.00    -0.103 S 
ATOM     28  C   UNL     1      -0.240   2.465  -1.812  1.00  0.00     0.084 A 
ATOM     29  C   UNL     1       0.100   3.684  -1.268  1.00  0.00     0.097 A 
BRANCH  28  30
ATOM     30  C   UNL     1      -0.093   2.100  -3.208  1.00  0.00     0.001 A 
ATOM     31  C   UNL     1      -1.155   1.468  -3.868  1.00  0.00     0.012 A 
ATOM     32  C   UNL     1       1.132   2.259  -3.870  1.00  0.00     0.012 A 
ATOM     33  C   UNL     1      -1.004   1.020  -5.182  1.00  0.00     0.021 A 
ATOM     34  C   UNL     1       1.287   1.799  -5.181  1.00  0.00     0.021 A 
ATOM     35  C   UNL     1       0.217   1.186  -5.832  1.00  0.00     0.041 A 
ATOM     36  Cl  UNL     1       0.411   0.615  -7.444  1.00  0.00    -0.084 Cl
ENDBRANCH  28  30
ENDBRANCH  23  25
ENDBRANCH  22  23
ENDBRANCH  15  20
ENDBRANCH   9  14
ENDBRANCH   6   8
ENDBRANCH   5   6
ENDBRANCH   4   5
ENDBRANCH   3   4
ENDBRANCH   2   3
ENDBRANCH   1   2
BRANCH   1  37
ATOM     37  C   UNL     1       6.998  -7.895   3.395  1.00  0.00     0.188 C 
BRANCH  37  38
ATOM     38  O   UNL     1       8.153  -7.327   3.993  1.00  0.00    -0.376 OA
BRANCH  38  39
ATOM     39  C   UNL     1       8.458  -7.745   5.318  1.00  0.00     0.202 C 
BRANCH  39  40
ATOM     40  C   UNL     1       8.858  -9.208   5.508  1.00  0.00     0.261 C 
BRANCH  40  41
ATOM     41  O   UNL     1       8.041 -10.150   4.828  1.00  0.00    -0.460 OA
BRANCH  41  42
ATOM     42  C   UNL     1       6.816 -10.355   5.356  1.00  0.00     0.338 C 
ATOM     43  O   UNL     1       6.256  -9.667   6.189  1.00  0.00    -0.246 OA
BRANCH  42  44
ATOM     44  C   UNL     1       6.279 -11.600   4.790  1.00  0.00     0.060 A 
ATOM     45  C   UNL     1       4.927 -11.878   5.000  1.00  0.00     0.016 A 
ATOM     46  C   UNL     1       7.169 -12.568   4.298  1.00  0.00     0.016 A 
ATOM     47  C   UNL     1       4.508 -13.190   4.911  1.00  0.00     0.010 A 
ATOM     48  C   UNL     1       6.755 -13.877   4.229  1.00  0.00     0.010 A 
ATOM     49  C   UNL     1       5.454 -14.179   4.625  1.00  0.00    -0.014 A 
BRANCH  49  50
ATOM     50  C   UNL     1       5.080 -15.557   4.865  1.00  0.00     0.031 A 
ATOM     51  C   UNL     1       4.346 -16.230   3.777  1.00  0.00     0.074 A 
ATOM     52  C   UNL     1       5.490 -16.200   5.974  1.00  0.00     0.049 A 
ATOM     53  N   UNL     1       3.147 -16.708   3.804  1.00  0.00    -0.248 NA
ATOM     54  C   UNL     1       5.003 -16.303   2.464  1.00  0.00     0.031 C 
ATOM     55  C   UNL     1       6.483 -15.746   6.953  1.00  0.00     0.029 A 
ATOM     56  N   UNL     1       5.191 -17.460   6.393  1.00  0.00    -0.354 N 
ATOM     57  C   UNL     1       2.971 -17.330   2.575  1.00  0.00     0.074 A 
ATOM     58  C   UNL     1       4.069 -16.917   1.739  1.00  0.00     0.031 C 
ATOM     59  C   UNL     1       6.860 -16.795   7.716  1.00  0.00     0.029 A 
ATOM     60  C   UNL     1       6.059 -17.953   7.355  1.00  0.00     0.049 A 
ATOM     61  H   UNL     1       4.428 -17.974   6.044  1.00  0.00     0.167 HD
ATOM     62  C   UNL     1       2.066 -18.328   2.397  1.00  0.00     0.037 A 
ATOM     63  C   UNL     1       6.173 -19.246   7.745  1.00  0.00     0.037 A 
ATOM     64  C   UNL     1       1.088 -18.375   3.451  1.00  0.00     0.049 A 
ATOM     65  C   UNL     1       4.923 -19.948   7.351  1.00  0.00     0.074 A 
ATOM     66  C   UNL     1       0.165 -17.481   3.957  1.00  0.00     0.029 A 
ATOM     67  N   UNL     1       1.194 -19.375   4.387  1.00  0.00    -0.354 N 
ATOM     68  N   UNL     1       3.752 -19.735   7.886  1.00  0.00    -0.248 NA
ATOM     69  C   UNL     1       4.898 -20.636   6.067  1.00  0.00     0.031 C 
ATOM     70  C   UNL     1       0.102 -17.753   5.354  1.00  0.00     0.029 A 
ATOM     71  C   UNL     1       0.975 -18.809   5.618  1.00  0.00     0.049 A 
ATOM     72  H   UNL     1       1.391 -20.323   4.208  1.00  0.00     0.167 HD
ATOM     73  C   UNL     1       2.848 -19.882   6.844  1.00  0.00     0.074 A 
ATOM     74  C   UNL     1       3.595 -20.551   5.786  1.00  0.00     0.031 C 
ATOM     75  C   UNL     1       1.663 -19.202   6.829  1.00  0.00     0.037 A 
BRANCH  62  76
ATOM     76  C   UNL     1       2.284 -19.466   1.439  1.00  0.00     0.058 A 
ATOM     77  C   UNL     1       1.200 -20.272   1.048  1.00  0.00     0.135 A 
ATOM     78  C   UNL     1       3.569 -19.950   1.104  1.00  0.00     0.135 A 
ATOM     79  F   UNL     1      -0.059 -19.913   1.346  1.00  0.00    -0.206 F 
ATOM     80  C   UNL     1       1.382 -21.498   0.409  1.00  0.00     0.059 A 
ATOM     81  C   UNL     1       3.771 -21.138   0.415  1.00  0.00     0.059 A 
ATOM     82  F   UNL     1       4.688 -19.341   1.520  1.00  0.00    -0.206 F 
ATOM     83  C   UNL     1       2.674 -21.928   0.112  1.00  0.00     0.060 A 
BRANCH  83  84
ATOM     84  S   UNL     1       2.927 -23.563  -0.598  1.00  0.00     0.124 S 
ATOM     85  O   UNL     1       2.716 -24.415   0.567  1.00  0.00    -0.237 OA
ATOM     86  O   UNL     1       1.895 -23.616  -1.627  1.00  0.00    -0.237 OA
ATOM     87  O   UNL     1       4.298 -23.500  -1.097  1.00  0.00    -0.744 OA
ENDBRANCH  83  84
ENDBRANCH  62  76
BRANCH  63  88
ATOM     88  C   UNL     1       7.410 -19.967   8.143  1.00  0.00     0.058 A 
ATOM     89  C   UNL     1       7.346 -21.232   8.751  1.00  0.00     0.135 A 
ATOM     90  C   UNL     1       8.685 -19.554   7.702  1.00  0.00     0.135 A 
ATOM     91  F   UNL     1       6.170 -21.719   9.175  1.00  0.00    -0.206 F 
ATOM     92  C   UNL     1       8.469 -22.057   8.874  1.00  0.00     0.059 A 
ATOM     93  C   UNL     1       9.821 -20.348   7.834  1.00  0.00     0.059 A 
ATOM     94  F   UNL     1       8.856 -18.401   7.040  1.00  0.00    -0.206 F 
ATOM     95  C   UNL     1       9.701 -21.611   8.396  1.00  0.00     0.060 A 
BRANCH  95  96
ATOM     96  S   UNL     1      11.115 -22.736   8.392  1.00  0.00     0.124 S 
ATOM     97  O   UNL     1      11.419 -22.844   9.814  1.00  0.00    -0.237 OA
ATOM     98  O   UNL     1      10.556 -23.930   7.766  1.00  0.00    -0.237 OA
ATOM     99  O   UNL     1      12.110 -22.026   7.593  1.00  0.00    -0.744 OA
ENDBRANCH  95  96
ENDBRANCH  63  88
BRANCH  75 100
ATOM    100  C   UNL     1       1.182 -18.586   8.116  1.00  0.00     0.058 A 
ATOM    101  C   UNL     1       1.854 -17.558   8.800  1.00  0.00     0.135 A 
ATOM    102  C   UNL     1      -0.083 -18.956   8.600  1.00  0.00     0.135 A 
ATOM    103  F   UNL     1       3.014 -17.068   8.339  1.00  0.00    -0.206 F 
ATOM    104  C   UNL     1       1.316 -16.961   9.941  1.00  0.00     0.059 A 
ATOM    105  C   UNL     1      -0.654 -18.352   9.717  1.00  0.00     0.059 A 
ATOM    106  F   UNL     1      -0.805 -19.886   7.952  1.00  0.00    -0.206 F 
ATOM    107  C   UNL     1       0.060 -17.365  10.393  1.00  0.00     0.060 A 
BRANCH 107 108
ATOM    108  S   UNL     1      -0.671 -16.532  11.820  1.00  0.00     0.124 S 
ATOM    109  O   UNL     1       0.083 -17.107  12.929  1.00  0.00    -0.237 OA
ATOM    110  O   UNL     1      -0.408 -15.123  11.539  1.00  0.00    -0.237 OA
ATOM    111  O   UNL     1      -2.079 -16.917  11.755  1.00  0.00    -0.744 OA
ENDBRANCH 107 108
ENDBRANCH  75 100
ENDBRANCH  49  50
ENDBRANCH  42  44
ENDBRANCH  41  42
ENDBRANCH  40  41
ENDBRANCH  39  40
ENDBRANCH  38  39
ENDBRANCH  37  38
ENDBRANCH   1  37
TORSDOF 25
