REMARK SMILES N#Cc1ccc(/C=C/C(=O)N[C@H]2C=C[C@H](C(=O)OCCOCCOCCOC(=O)c3ccc(-c4c5nc(c(-c6c(F)cc(S(=O)(=O)[O-])cc6F)c6ccc([nH]6)c(-c6c(F)cc(S(=O)(=O)[O-])cc6F)c6nc(c(-c7c(F)cc(S(=O)(=O)[O-])cc7F)c7ccc4[nH]7)C=C6)C=C5)cc3)C2)cc1
REMARK SMILES IDX 22 1 21 2 20 3 19 4 18 5 16 6 17 7 15 8 12 9 13 10 96 11
REMARK SMILES IDX 14 12 11 13 9 14 10 15 8 17 7 18 6 19 3 20 4 21 98 22 5 23
REMARK SMILES IDX 97 24 2 25 1 26 23 27 24 28 25 29 26 30 27 31 28 32 29 33
REMARK SMILES IDX 30 34 31 35 95 36 32 37 94 38 33 39 34 40 35 41 88 42 36 43
REMARK SMILES IDX 93 44 87 45 89 46 37 47 92 48 86 49 85 50 38 52 72 53 51 54
REMARK SMILES IDX 71 55 52 56 55 57 70 58 90 59 53 60 54 61 69 63 91 64 56 65
REMARK SMILES IDX 39 66 40 67 49 68 41 69 42 70 48 71 50 72 43 73 44 74 45 75
REMARK SMILES IDX 46 76 47 77 73 78 74 79 83 80 75 81 76 82 82 83 84 84 77 85
REMARK SMILES IDX 78 86 79 87 80 88 81 89 57 90 58 91 67 92 59 93 60 94 66 95
REMARK SMILES IDX 68 96 61 97 62 98 63 99 64 100 65 101
REMARK H PARENT 11 16 89 51 55 62
REMARK Flexibility Score: inf
ROOT
ATOM      1  C   UNL     1       2.376  -2.395   2.999  1.00  0.00     0.188 C 
ENDROOT
BRANCH   1   2
ATOM      2  O   UNL     1       1.065  -2.887   2.848  1.00  0.00    -0.376 OA
BRANCH   2   3
ATOM      3  C   UNL     1       0.855  -4.094   2.131  1.00  0.00     0.202 C 
BRANCH   3   4
ATOM      4  C   UNL     1       1.928  -4.821   1.286  1.00  0.00     0.261 C 
BRANCH   4   5
ATOM      5  O   UNL     1       3.302  -4.649   1.672  1.00  0.00    -0.463 OA
BRANCH   5   6
ATOM      6  C   UNL     1       4.162  -4.176   0.720  1.00  0.00     0.312 C 
ATOM      7  O   UNL     1       3.841  -3.943  -0.438  1.00  0.00    -0.252 OA
BRANCH   6   8
ATOM      8  C   UNL     1       5.529  -3.822   1.334  1.00  0.00     0.124 C 
ATOM      9  C   UNL     1       6.131  -1.833   0.119  1.00  0.00     0.106 C 
ATOM     10  C   UNL     1       7.097  -2.927  -0.192  1.00  0.00    -0.006 C 
ATOM     11  C   UNL     1       5.660  -2.303   1.498  1.00  0.00     0.048 C 
ATOM     12  C   UNL     1       6.707  -4.059   0.422  1.00  0.00    -0.014 C 
BRANCH   9  13
ATOM     13  N   UNL     1       6.684  -0.518   0.167  1.00  0.00    -0.346 N 
ATOM     14  C   UNL     1       6.051   0.683   0.029  1.00  0.00     0.244 C 
ATOM     15  O   UNL     1       6.729   1.703   0.154  1.00  0.00    -0.270 OA
ATOM     16  H   UNL     1       7.655  -0.470   0.320  1.00  0.00     0.164 HD
BRANCH  14  17
ATOM     17  C   UNL     1       4.586   0.840  -0.270  1.00  0.00     0.072 C 
ATOM     18  C   UNL     1       3.580  -0.035  -0.121  1.00  0.00     0.014 C 
BRANCH  18  19
ATOM     19  C   UNL     1       2.120   0.118  -0.279  1.00  0.00    -0.025 A 
ATOM     20  C   UNL     1      -0.704   0.168  -0.173  1.00  0.00     0.052 A 
ATOM     21  C   UNL     1       0.026   1.357  -0.158  1.00  0.00     0.020 A 
ATOM     22  C   UNL     1      -0.029  -1.046  -0.286  1.00  0.00     0.020 A 
ATOM     23  C   UNL     1       1.428   1.328  -0.220  1.00  0.00     0.009 A 
ATOM     24  C   UNL     1       1.366  -1.066  -0.342  1.00  0.00     0.009 A 
BRANCH  20  25
ATOM     25  C   UNL     1      -2.134   0.174  -0.058  1.00  0.00     0.099 C 
ATOM     26  N   UNL     1      -3.287   0.136   0.049  1.00  0.00    -0.192 NA
ENDBRANCH  20  25
ENDBRANCH  18  19
ENDBRANCH  14  17
ENDBRANCH   9  13
ENDBRANCH   6   8
ENDBRANCH   5   6
ENDBRANCH   4   5
ENDBRANCH   3   4
ENDBRANCH   2   3
ENDBRANCH   1   2
BRANCH   1  27
ATOM     27  C   UNL     1       3.278  -3.096   4.035  1.00  0.00     0.188 C 
BRANCH  27  28
ATOM     28  O   UNL     1       2.867  -4.331   4.571  1.00  0.00    -0.376 OA
BRANCH  28  29
ATOM     29  C   UNL     1       1.721  -4.375   5.404  1.00  0.00     0.202 C 
BRANCH  29  30
ATOM     30  C   UNL     1       1.134  -3.170   6.176  1.00  0.00     0.261 C 
BRANCH  30  31
ATOM     31  O   UNL     1       1.427  -1.843   5.718  1.00  0.00    -0.460 OA
BRANCH  31  32
ATOM     32  C   UNL     1       2.380  -1.175   6.418  1.00  0.00     0.338 C 
ATOM     33  O   UNL     1       3.020  -1.597   7.365  1.00  0.00    -0.246 OA
BRANCH  32  34
ATOM     34  C   UNL     1       2.685   0.103   5.736  1.00  0.00     0.060 A 
ATOM     35  C   UNL     1       3.923   0.265   5.094  1.00  0.00     0.016 A 
ATOM     36  C   UNL     1       1.778   1.160   5.788  1.00  0.00     0.016 A 
ATOM     37  C   UNL     1       4.265   1.491   4.520  1.00  0.00     0.010 A 
ATOM     38  C   UNL     1       2.135   2.396   5.238  1.00  0.00     0.010 A 
ATOM     39  C   UNL     1       3.391   2.580   4.628  1.00  0.00    -0.014 A 
BRANCH  39  40
ATOM     40  C   UNL     1       3.839   3.946   4.250  1.00  0.00     0.031 A 
ATOM     41  C   UNL     1       4.254   4.900   5.330  1.00  0.00     0.074 A 
ATOM     42  C   UNL     1       3.870   4.349   2.968  1.00  0.00     0.049 A 
ATOM     43  N   UNL     1       4.598   6.156   5.232  1.00  0.00    -0.248 NA
ATOM     44  C   UNL     1       4.268   4.372   6.702  1.00  0.00     0.031 C 
ATOM     45  C   UNL     1       3.525   3.507   1.833  1.00  0.00     0.029 A 
ATOM     46  N   UNL     1       4.198   5.558   2.400  1.00  0.00    -0.354 N 
ATOM     47  C   UNL     1       4.850   6.579   6.529  1.00  0.00     0.074 A 
ATOM     48  C   UNL     1       4.588   5.452   7.399  1.00  0.00     0.031 C 
ATOM     49  C   UNL     1       3.666   4.221   0.705  1.00  0.00     0.029 A 
ATOM     50  C   UNL     1       4.070   5.578   1.031  1.00  0.00     0.049 A 
ATOM     51  H   UNL     1       4.496   6.336   2.925  1.00  0.00     0.167 HD
ATOM     52  C   UNL     1       5.263   7.797   6.951  1.00  0.00     0.037 A 
ATOM     53  C   UNL     1       4.237   6.567   0.130  1.00  0.00     0.037 A 
ATOM     54  C   UNL     1       5.509   8.915   6.074  1.00  0.00     0.049 A 
ATOM     55  C   UNL     1       4.635   7.927   0.628  1.00  0.00     0.074 A 
ATOM     56  C   UNL     1       5.938  10.187   6.408  1.00  0.00     0.029 A 
ATOM     57  N   UNL     1       5.338   8.903   4.696  1.00  0.00    -0.354 N 
ATOM     58  N   UNL     1       4.882   8.310   1.858  1.00  0.00    -0.248 NA
ATOM     59  C   UNL     1       4.769   8.993  -0.374  1.00  0.00     0.031 C 
ATOM     60  C   UNL     1       5.958  10.963   5.245  1.00  0.00     0.029 A 
ATOM     61  C   UNL     1       5.619  10.156   4.172  1.00  0.00     0.049 A 
ATOM     62  H   UNL     1       5.057   8.121   4.169  1.00  0.00     0.167 HD
ATOM     63  C   UNL     1       5.230   9.652   1.774  1.00  0.00     0.074 A 
ATOM     64  C   UNL     1       5.177  10.010   0.372  1.00  0.00     0.031 C 
ATOM     65  C   UNL     1       5.563  10.507   2.773  1.00  0.00     0.037 A 
BRANCH  52  66
ATOM     66  C   UNL     1       5.430   7.993   8.433  1.00  0.00     0.058 A 
ATOM     67  C   UNL     1       6.438   7.341   9.162  1.00  0.00     0.135 A 
ATOM     68  C   UNL     1       4.572   8.857   9.133  1.00  0.00     0.135 A 
ATOM     69  F   UNL     1       7.273   6.487   8.549  1.00  0.00    -0.206 F 
ATOM     70  C   UNL     1       6.566   7.511  10.536  1.00  0.00     0.059 A 
ATOM     71  C   UNL     1       4.706   9.071  10.501  1.00  0.00     0.059 A 
ATOM     72  F   UNL     1       3.588   9.502   8.488  1.00  0.00    -0.206 F 
ATOM     73  C   UNL     1       5.696   8.380  11.196  1.00  0.00     0.060 A 
BRANCH  73  74
ATOM     74  S   UNL     1       5.877   8.586  12.979  1.00  0.00     0.124 S 
ATOM     75  O   UNL     1       5.433   7.285  13.470  1.00  0.00    -0.237 OA
ATOM     76  O   UNL     1       7.303   8.862  13.116  1.00  0.00    -0.237 OA
ATOM     77  O   UNL     1       4.992   9.706  13.285  1.00  0.00    -0.744 OA
ENDBRANCH  73  74
ENDBRANCH  52  66
BRANCH  53  78
ATOM     78  C   UNL     1       4.029   6.315  -1.328  1.00  0.00     0.058 A 
ATOM     79  C   UNL     1       5.095   6.403  -2.238  1.00  0.00     0.135 A 
ATOM     80  C   UNL     1       2.765   5.984  -1.845  1.00  0.00     0.135 A 
ATOM     81  F   UNL     1       6.322   6.730  -1.804  1.00  0.00    -0.206 F 
ATOM     82  C   UNL     1       4.915   6.190  -3.602  1.00  0.00     0.059 A 
ATOM     83  C   UNL     1       2.567   5.733  -3.200  1.00  0.00     0.059 A 
ATOM     84  F   UNL     1       1.710   5.867  -1.023  1.00  0.00    -0.206 F 
ATOM     85  C   UNL     1       3.646   5.850  -4.074  1.00  0.00     0.060 A 
BRANCH  85  86
ATOM     86  S   UNL     1       3.432   5.536  -5.840  1.00  0.00     0.124 S 
ATOM     87  O   UNL     1       3.604   6.871  -6.401  1.00  0.00    -0.237 OA
ATOM     88  O   UNL     1       4.503   4.584  -6.113  1.00  0.00    -0.237 OA
ATOM     89  O   UNL     1       2.081   4.988  -5.921  1.00  0.00    -0.744 OA
ENDBRANCH  85  86
ENDBRANCH  53  78
BRANCH  65  90
ATOM     90  C   UNL     1       5.938  11.911   2.382  1.00  0.00     0.058 A 
ATOM     91  C   UNL     1       4.994  12.823   1.885  1.00  0.00     0.135 A 
ATOM     92  C   UNL     1       7.257  12.362   2.551  1.00  0.00     0.135 A 
ATOM     93  F   UNL     1       3.720  12.443   1.693  1.00  0.00    -0.206 F 
ATOM     94  C   UNL     1       5.350  14.124   1.544  1.00  0.00     0.059 A 
ATOM     95  C   UNL     1       7.627  13.669   2.252  1.00  0.00     0.059 A 
ATOM     96  F   UNL     1       8.200  11.534   3.028  1.00  0.00    -0.206 F 
ATOM     97  C   UNL     1       6.668  14.539   1.738  1.00  0.00     0.060 A 
BRANCH  97  98
ATOM     98  S   UNL     1       7.105  16.242   1.330  1.00  0.00     0.124 S 
ATOM     99  O   UNL     1       7.027  16.227  -0.127  1.00  0.00    -0.237 OA
ATOM    100  O   UNL     1       6.062  17.001   2.013  1.00  0.00    -0.237 OA
ATOM    101  O   UNL     1       8.447  16.393   1.885  1.00  0.00    -0.744 OA
ENDBRANCH  97  98
ENDBRANCH  65  90
ENDBRANCH  39  40
ENDBRANCH  32  34
ENDBRANCH  31  32
ENDBRANCH  30  31
ENDBRANCH  29  30
ENDBRANCH  28  29
ENDBRANCH  27  28
ENDBRANCH   1  27
TORSDOF 24
