REMARK SMILES COc1c(C(=O)OCCOCCOCCOC(=O)c2ccc(-c3c4nc(c(-c5c(F)cc(S(=O)(=O)[O-])cc5F)c5ccc([nH]5)c(-c5c(F)cc(S(=O)(=O)[O-])cc5F)c5nc(c(-c6c(F)cc(S(=O)(=O)[O-])cc6F)c6ccc3[nH]6)C=C5)C=C4)cc2)cccc1-c1cc(C)ccc1C
REMARK SMILES IDX 12 1 11 2 10 3 9 4 8 5 7 6 5 7 6 8 4 9 3 10 88 11 85 12
REMARK SMILES IDX 87 13 86 14 2 15 1 16 89 17 90 18 95 19 91 20 94 21 96 22
REMARK SMILES IDX 92 23 93 24 13 25 14 26 15 27 16 28 17 29 18 30 19 31 20 32
REMARK SMILES IDX 84 33 21 34 83 35 22 36 23 37 24 38 77 39 25 40 82 41 76 42
REMARK SMILES IDX 78 43 26 44 81 45 75 46 74 47 27 49 61 50 40 51 60 52 41 53
REMARK SMILES IDX 44 54 59 55 79 56 42 57 43 58 58 60 80 61 45 62 28 63 29 64
REMARK SMILES IDX 38 65 30 66 31 67 37 68 39 69 32 70 33 71 34 72 35 73 36 74
REMARK SMILES IDX 62 75 63 76 72 77 64 78 65 79 71 80 73 81 66 82 67 83 68 84
REMARK SMILES IDX 69 85 70 86 46 87 47 88 56 89 48 90 49 91 55 92 57 93 50 94
REMARK SMILES IDX 51 95 52 96 53 97 54 98
REMARK H PARENT 78 48 44 59
REMARK Flexibility Score: inf
ROOT
ATOM      1  C   UNL     1      -2.062  -0.833  -2.705  1.00  0.00     0.188 C 
ENDROOT
BRANCH   1   2
ATOM      2  C   UNL     1      -3.131  -1.946  -2.689  1.00  0.00     0.188 C 
BRANCH   2   3
ATOM      3  O   UNL     1      -4.367  -1.727  -2.038  1.00  0.00    -0.376 OA
BRANCH   3   4
ATOM      4  C   UNL     1      -4.405  -1.526  -0.632  1.00  0.00     0.202 C 
BRANCH   4   5
ATOM      5  C   UNL     1      -3.442  -2.243   0.321  1.00  0.00     0.261 C 
BRANCH   5   6
ATOM      6  O   UNL     1      -2.071  -2.164  -0.084  1.00  0.00    -0.460 OA
BRANCH   6   7
ATOM      7  C   UNL     1      -1.415  -3.349  -0.137  1.00  0.00     0.342 C 
ATOM      8  O   UNL     1      -1.848  -4.438   0.211  1.00  0.00    -0.246 OA
BRANCH   7   9
ATOM      9  C   UNL     1      -0.158  -3.211  -0.899  1.00  0.00     0.102 A 
ATOM     10  C   UNL     1       0.833  -2.275  -0.569  1.00  0.00     0.141 A 
ATOM     11  C   UNL     1       2.084  -2.318  -1.230  1.00  0.00     0.025 A 
ATOM     12  C   UNL     1       0.014  -4.075  -1.990  1.00  0.00     0.019 A 
ATOM     13  C   UNL     1       2.211  -3.165  -2.353  1.00  0.00     0.012 A 
ATOM     14  C   UNL     1       1.179  -4.018  -2.746  1.00  0.00     0.002 A 
BRANCH  10  15
ATOM     15  O   UNL     1       0.580  -1.409   0.468  1.00  0.00    -0.495 OA
ATOM     16  C   UNL     1       0.657  -0.038   0.063  1.00  0.00     0.278 C 
ENDBRANCH  10  15
BRANCH  11  17
ATOM     17  C   UNL     1       3.290  -1.623  -0.719  1.00  0.00    -0.011 A 
ATOM     18  C   UNL     1       4.045  -0.797  -1.580  1.00  0.00     0.012 A 
ATOM     19  C   UNL     1       3.755  -1.803   0.608  1.00  0.00    -0.043 A 
ATOM     20  C   UNL     1       5.209  -0.144  -1.146  1.00  0.00    -0.050 A 
ATOM     21  C   UNL     1       4.885  -1.098   1.050  1.00  0.00     0.004 A 
ATOM     22  C   UNL     1       3.078  -2.710   1.606  1.00  0.00     0.045 C 
ATOM     23  C   UNL     1       6.022   0.672  -2.107  1.00  0.00     0.044 C 
ATOM     24  C   UNL     1       5.608  -0.283   0.183  1.00  0.00     0.004 A 
ENDBRANCH  11  17
ENDBRANCH   7   9
ENDBRANCH   6   7
ENDBRANCH   5   6
ENDBRANCH   4   5
ENDBRANCH   3   4
ENDBRANCH   2   3
ENDBRANCH   1   2
BRANCH   1  25
ATOM     25  O   UNL     1      -2.254   0.369  -1.992  1.00  0.00    -0.376 OA
BRANCH  25  26
ATOM     26  C   UNL     1      -3.316   1.239  -2.341  1.00  0.00     0.202 C 
BRANCH  26  27
ATOM     27  C   UNL     1      -3.855   1.415  -3.770  1.00  0.00     0.261 C 
BRANCH  27  28
ATOM     28  O   UNL     1      -3.837   0.268  -4.624  1.00  0.00    -0.460 OA
BRANCH  28  29
ATOM     29  C   UNL     1      -2.930   0.309  -5.628  1.00  0.00     0.338 C 
ATOM     30  O   UNL     1      -2.125   1.208  -5.862  1.00  0.00    -0.246 OA
BRANCH  29  31
ATOM     31  C   UNL     1      -2.906  -0.989  -6.321  1.00  0.00     0.060 A 
ATOM     32  C   UNL     1      -1.750  -1.778  -6.243  1.00  0.00     0.016 A 
ATOM     33  C   UNL     1      -4.001  -1.407  -7.077  1.00  0.00     0.016 A 
ATOM     34  C   UNL     1      -1.680  -2.987  -6.935  1.00  0.00     0.010 A 
ATOM     35  C   UNL     1      -3.919  -2.607  -7.790  1.00  0.00     0.010 A 
ATOM     36  C   UNL     1      -2.751  -3.390  -7.742  1.00  0.00    -0.014 A 
BRANCH  36  37
ATOM     37  C   UNL     1      -2.599  -4.546  -8.660  1.00  0.00     0.031 A 
ATOM     38  C   UNL     1      -2.269  -4.277 -10.104  1.00  0.00     0.074 A 
ATOM     39  C   UNL     1      -2.765  -5.808  -8.224  1.00  0.00     0.049 A 
ATOM     40  N   UNL     1      -2.190  -5.114 -11.104  1.00  0.00    -0.248 NA
ATOM     41  C   UNL     1      -1.996  -2.876 -10.469  1.00  0.00     0.031 C 
ATOM     42  C   UNL     1      -3.048  -6.197  -6.843  1.00  0.00     0.029 A 
ATOM     43  N   UNL     1      -2.740  -6.998  -8.909  1.00  0.00    -0.354 N 
ATOM     44  C   UNL     1      -1.882  -4.343 -12.219  1.00  0.00     0.074 A 
ATOM     45  C   UNL     1      -1.795  -2.970 -11.776  1.00  0.00     0.031 C 
ATOM     46  C   UNL     1      -3.197  -7.532  -6.787  1.00  0.00     0.029 A 
ATOM     47  C   UNL     1      -3.058  -8.088  -8.132  1.00  0.00     0.049 A 
ATOM     48  H   UNL     1      -2.515  -7.065  -9.865  1.00  0.00     0.167 HD
ATOM     49  C   UNL     1      -1.693  -4.747 -13.497  1.00  0.00     0.037 A 
ATOM     50  C   UNL     1      -3.251  -9.378  -8.477  1.00  0.00     0.037 A 
ATOM     51  C   UNL     1      -1.764  -6.118 -13.930  1.00  0.00     0.049 A 
ATOM     52  C   UNL     1      -3.091  -9.788  -9.923  1.00  0.00     0.074 A 
ATOM     53  C   UNL     1      -1.538  -6.629 -15.196  1.00  0.00     0.029 A 
ATOM     54  N   UNL     1      -2.096  -7.191 -13.118  1.00  0.00    -0.354 N 
ATOM     55  N   UNL     1      -2.754  -9.056 -10.958  1.00  0.00    -0.248 NA
ATOM     56  C   UNL     1      -3.341 -11.201 -10.247  1.00  0.00     0.031 C 
ATOM     57  C   UNL     1      -1.791  -8.003 -15.164  1.00  0.00     0.029 A 
ATOM     58  C   UNL     1      -2.114  -8.358 -13.864  1.00  0.00     0.049 A 
ATOM     59  H   UNL     1      -2.290  -7.133 -12.155  1.00  0.00     0.167 HD
ATOM     60  C   UNL     1      -2.715  -9.927 -12.045  1.00  0.00     0.074 A 
ATOM     61  C   UNL     1      -3.052 -11.241 -11.540  1.00  0.00     0.031 C 
ATOM     62  C   UNL     1      -2.428  -9.664 -13.344  1.00  0.00     0.037 A 
BRANCH  49  63
ATOM     63  C   UNL     1      -1.416  -3.701 -14.539  1.00  0.00     0.058 A 
ATOM     64  C   UNL     1      -0.173  -3.059 -14.634  1.00  0.00     0.135 A 
ATOM     65  C   UNL     1      -2.382  -3.412 -15.518  1.00  0.00     0.135 A 
ATOM     66  F   UNL     1       0.777  -3.284 -13.713  1.00  0.00    -0.206 F 
ATOM     67  C   UNL     1       0.105  -2.168 -15.666  1.00  0.00     0.059 A 
ATOM     68  C   UNL     1      -2.117  -2.543 -16.571  1.00  0.00     0.059 A 
ATOM     69  F   UNL     1      -3.591  -3.994 -15.466  1.00  0.00    -0.206 F 
ATOM     70  C   UNL     1      -0.870  -1.926 -16.637  1.00  0.00     0.060 A 
BRANCH  70  71
ATOM     71  S   UNL     1      -0.469  -0.817 -18.003  1.00  0.00     0.124 S 
ATOM     72  O   UNL     1      -0.438   0.478 -17.329  1.00  0.00    -0.237 OA
ATOM     73  O   UNL     1       0.823  -1.329 -18.450  1.00  0.00    -0.237 OA
ATOM     74  O   UNL     1      -1.574  -1.011 -18.936  1.00  0.00    -0.744 OA
ENDBRANCH  70  71
ENDBRANCH  49  63
BRANCH  50  75
ATOM     75  C   UNL     1      -3.658 -10.385  -7.458  1.00  0.00     0.058 A 
ATOM     76  C   UNL     1      -2.817 -11.456  -7.118  1.00  0.00     0.135 A 
ATOM     77  C   UNL     1      -4.924 -10.335  -6.853  1.00  0.00     0.135 A 
ATOM     78  F   UNL     1      -1.601 -11.557  -7.676  1.00  0.00    -0.206 F 
ATOM     79  C   UNL     1      -3.231 -12.463  -6.250  1.00  0.00     0.059 A 
ATOM     80  C   UNL     1      -5.348 -11.312  -5.957  1.00  0.00     0.059 A 
ATOM     81  F   UNL     1      -5.766  -9.328  -7.134  1.00  0.00    -0.206 F 
ATOM     82  C   UNL     1      -4.502 -12.385  -5.680  1.00  0.00     0.060 A 
BRANCH  82  83
ATOM     83  S   UNL     1      -5.035 -13.700  -4.563  1.00  0.00     0.124 S 
ATOM     84  O   UNL     1      -5.288 -14.791  -5.497  1.00  0.00    -0.237 OA
ATOM     85  O   UNL     1      -3.871 -13.858  -3.697  1.00  0.00    -0.237 OA
ATOM     86  O   UNL     1      -6.216 -13.134  -3.919  1.00  0.00    -0.744 OA
ENDBRANCH  82  83
ENDBRANCH  50  75
BRANCH  62  87
ATOM     87  C   UNL     1      -2.406 -10.822 -14.306  1.00  0.00     0.058 A 
ATOM     88  C   UNL     1      -3.583 -11.465 -14.721  1.00  0.00     0.135 A 
ATOM     89  C   UNL     1      -1.192 -11.255 -14.866  1.00  0.00     0.135 A 
ATOM     90  F   UNL     1      -4.770 -11.094 -14.216  1.00  0.00    -0.206 F 
ATOM     91  C   UNL     1      -3.554 -12.513 -15.637  1.00  0.00     0.059 A 
ATOM     92  C   UNL     1      -1.143 -12.279 -15.806  1.00  0.00     0.059 A 
ATOM     93  F   UNL     1      -0.038 -10.666 -14.514  1.00  0.00    -0.206 F 
ATOM     94  C   UNL     1      -2.329 -12.911 -16.176  1.00  0.00     0.060 A 
BRANCH  94  95
ATOM     95  S   UNL     1      -2.310 -14.250 -17.387  1.00  0.00     0.124 S 
ATOM     96  O   UNL     1      -2.565 -15.413 -16.544  1.00  0.00    -0.237 OA
ATOM     97  O   UNL     1      -3.393 -13.871 -18.289  1.00  0.00    -0.237 OA
ATOM     98  O   UNL     1      -0.969 -14.171 -17.959  1.00  0.00    -0.744 OA
ENDBRANCH  94  95
ENDBRANCH  62  87
ENDBRANCH  36  37
ENDBRANCH  29  31
ENDBRANCH  28  29
ENDBRANCH  27  28
ENDBRANCH  26  27
ENDBRANCH  25  26
ENDBRANCH   1  25
TORSDOF 22
