REMARK SMILES CC1(C)[C@@H](C(=O)NCCc2ccc(S(N)(=O)=O)cc2)[C@@H]1C(=O)OCCOCCOCCOC(=O)c1ccc(-c2c3nc(c(-c4c(F)cc(S(=O)(=O)[O-])cc4F)c4ccc([nH]4)c(-c4c(F)cc(S(=O)(=O)[O-])cc4F)c4nc(c(-c5c(F)cc(S(=O)(=O)[O-])cc5F)c5ccc2[nH]5)C=C4)C=C3)cc1
REMARK SMILES IDX 26 1 25 2 24 3 23 4 21 5 22 6 20 7 1 8 2 9 3 10 4 11 5 12
REMARK SMILES IDX 6 13 7 14 8 16 9 17 10 18 11 19 19 20 12 21 18 22 13 23
REMARK SMILES IDX 14 24 16 25 17 26 15 27 27 30 28 31 29 32 30 33 31 34 32 35
REMARK SMILES IDX 33 36 34 37 35 38 36 39 100 40 37 41 99 42 38 43 39 44 40 45
REMARK SMILES IDX 93 46 41 47 98 48 92 49 94 50 42 51 97 52 91 53 90 54 43 56
REMARK SMILES IDX 77 57 56 58 76 59 57 60 60 61 75 62 95 63 58 64 59 65 74 67
REMARK SMILES IDX 96 68 61 69 44 70 45 71 54 72 46 73 47 74 53 75 55 76 48 77
REMARK SMILES IDX 49 78 50 79 51 80 52 81 78 82 79 83 88 84 80 85 81 86 87 87
REMARK SMILES IDX 89 88 82 89 83 90 84 91 85 92 86 93 62 94 63 95 72 96 64 97
REMARK SMILES IDX 65 98 71 99 73 100 66 101 67 102 68 103 69 104 70 105
REMARK H PARENT 7 15 15 28 15 29 94 55 60 66
REMARK Flexibility Score: inf
ROOT
ATOM      1  O   UNL     1      -2.392   2.110   4.288  1.00  0.00    -0.376 OA
ENDROOT
BRANCH   1   2
ATOM      2  C   UNL     1      -3.015   3.046   3.421  1.00  0.00     0.202 C 
BRANCH   2   3
ATOM      3  C   UNL     1      -2.557   3.261   1.966  1.00  0.00     0.261 C 
BRANCH   3   4
ATOM      4  O   UNL     1      -2.263   2.077   1.208  1.00  0.00    -0.463 OA
BRANCH   4   5
ATOM      5  C   UNL     1      -0.943   1.864   0.959  1.00  0.00     0.310 C 
ATOM      6  O   UNL     1      -0.032   2.610   1.280  1.00  0.00    -0.252 OA
BRANCH   5   7
ATOM      7  C   UNL     1      -0.701   0.517   0.373  1.00  0.00     0.118 C 
ATOM      8  C   UNL     1       1.213  -1.064  -0.244  1.00  0.00     0.013 C 
ATOM      9  C   UNL     1       0.495   0.244  -0.509  1.00  0.00    -0.009 C 
ATOM     10  C   UNL     1       1.430   1.363  -0.888  1.00  0.00     0.013 C 
ATOM     11  C   UNL     1      -0.930   0.242  -1.096  1.00  0.00     0.100 C 
BRANCH  11  12
ATOM     12  C   UNL     1      -1.392  -1.043  -1.688  1.00  0.00     0.224 C 
ATOM     13  O   UNL     1      -0.795  -1.500  -2.659  1.00  0.00    -0.275 OA
ATOM     14  N   UNL     1      -2.450  -1.740  -1.181  1.00  0.00    -0.355 N 
ATOM     15  H   UNL     1      -2.547  -2.650  -1.544  1.00  0.00     0.163 HD
BRANCH  14  16
ATOM     16  C   UNL     1      -3.456  -1.378  -0.203  1.00  0.00     0.120 C 
BRANCH  16  17
ATOM     17  C   UNL     1      -4.888  -1.247  -0.749  1.00  0.00     0.056 C 
BRANCH  17  18
ATOM     18  C   UNL     1      -5.598  -2.500  -1.225  1.00  0.00    -0.046 A 
ATOM     19  C   UNL     1      -6.877  -2.816  -0.727  1.00  0.00     0.005 A 
ATOM     20  C   UNL     1      -5.071  -3.299  -2.249  1.00  0.00     0.005 A 
ATOM     21  C   UNL     1      -7.602  -3.900  -1.235  1.00  0.00     0.022 A 
ATOM     22  C   UNL     1      -5.773  -4.402  -2.739  1.00  0.00     0.022 A 
ATOM     23  C   UNL     1      -7.041  -4.693  -2.237  1.00  0.00     0.082 A 
BRANCH  23  24
ATOM     24  S   UNL     1      -7.957  -6.039  -2.923  1.00  0.00     0.238 S 
ATOM     25  O   UNL     1      -9.255  -5.548  -3.341  1.00  0.00    -0.207 OA
ATOM     26  O   UNL     1      -7.107  -6.808  -3.795  1.00  0.00    -0.207 OA
BRANCH  24  27
ATOM     27  N   UNL     1      -8.234  -7.019  -1.591  1.00  0.00    -0.225 NA
ATOM     28  H   UNL     1      -8.835  -6.530  -0.927  1.00  0.00     0.137 HD
ATOM     29  H   UNL     1      -7.346  -7.244  -1.143  1.00  0.00     0.137 HD
ENDBRANCH  24  27
ENDBRANCH  23  24
ENDBRANCH  17  18
ENDBRANCH  16  17
ENDBRANCH  14  16
ENDBRANCH  11  12
ENDBRANCH   5   7
ENDBRANCH   4   5
ENDBRANCH   3   4
ENDBRANCH   2   3
ENDBRANCH   1   2
BRANCH   1  30
ATOM     30  C   UNL     1      -2.043   0.818   3.825  1.00  0.00     0.188 C 
BRANCH  30  31
ATOM     31  C   UNL     1      -3.079  -0.017   3.054  1.00  0.00     0.188 C 
BRANCH  31  32
ATOM     32  O   UNL     1      -4.263   0.654   2.705  1.00  0.00    -0.376 OA
BRANCH  32  33
ATOM     33  C   UNL     1      -5.407   0.478   3.524  1.00  0.00     0.202 C 
BRANCH  33  34
ATOM     34  C   UNL     1      -5.363   0.112   5.026  1.00  0.00     0.261 C 
BRANCH  34  35
ATOM     35  O   UNL     1      -4.163  -0.455   5.569  1.00  0.00    -0.460 OA
BRANCH  35  36
ATOM     36  C   UNL     1      -4.047  -1.805   5.519  1.00  0.00     0.338 C 
ATOM     37  O   UNL     1      -4.845  -2.583   5.025  1.00  0.00    -0.246 OA
BRANCH  36  38
ATOM     38  C   UNL     1      -2.675  -2.176   5.943  1.00  0.00     0.060 A 
ATOM     39  C   UNL     1      -1.815  -2.770   5.008  1.00  0.00     0.016 A 
ATOM     40  C   UNL     1      -2.246  -1.958   7.253  1.00  0.00     0.016 A 
ATOM     41  C   UNL     1      -0.537  -3.183   5.391  1.00  0.00     0.010 A 
ATOM     42  C   UNL     1      -0.972  -2.394   7.640  1.00  0.00     0.010 A 
ATOM     43  C   UNL     1      -0.125  -3.041   6.721  1.00  0.00    -0.014 A 
BRANCH  43  44
ATOM     44  C   UNL     1       1.102  -3.738   7.191  1.00  0.00     0.031 A 
ATOM     45  C   UNL     1       0.949  -5.043   7.928  1.00  0.00     0.074 A 
ATOM     46  C   UNL     1       2.330  -3.244   6.946  1.00  0.00     0.049 A 
ATOM     47  N   UNL     1       1.864  -5.810   8.463  1.00  0.00    -0.248 NA
ATOM     48  C   UNL     1      -0.425  -5.549   8.086  1.00  0.00     0.031 C 
ATOM     49  C   UNL     1       2.615  -2.014   6.210  1.00  0.00     0.029 A 
ATOM     50  N   UNL     1       3.569  -3.719   7.301  1.00  0.00    -0.354 N 
ATOM     51  C   UNL     1       1.179  -6.880   9.027  1.00  0.00     0.074 A 
ATOM     52  C   UNL     1      -0.231  -6.647   8.800  1.00  0.00     0.031 C 
ATOM     53  C   UNL     1       3.946  -1.824   6.179  1.00  0.00     0.029 A 
ATOM     54  C   UNL     1       4.605  -2.900   6.920  1.00  0.00     0.049 A 
ATOM     55  H   UNL     1       3.703  -4.566   7.784  1.00  0.00     0.167 HD
ATOM     56  C   UNL     1       1.678  -7.964   9.669  1.00  0.00     0.037 A 
ATOM     57  C   UNL     1       5.930  -2.995   7.160  1.00  0.00     0.037 A 
ATOM     58  C   UNL     1       3.083  -8.191   9.895  1.00  0.00     0.049 A 
ATOM     59  C   UNL     1       6.459  -4.176   7.935  1.00  0.00     0.074 A 
ATOM     60  C   UNL     1       3.690  -9.266  10.520  1.00  0.00     0.029 A 
ATOM     61  N   UNL     1       4.098  -7.326   9.514  1.00  0.00    -0.354 N 
ATOM     62  N   UNL     1       5.802  -5.193   8.444  1.00  0.00    -0.248 NA
ATOM     63  C   UNL     1       7.910  -4.229   8.162  1.00  0.00     0.031 C 
ATOM     64  C   UNL     1       5.066  -9.022  10.572  1.00  0.00     0.029 A 
ATOM     65  C   UNL     1       5.325  -7.830   9.914  1.00  0.00     0.049 A 
ATOM     66  H   UNL     1       3.967  -6.479   9.030  1.00  0.00     0.167 HD
ATOM     67  C   UNL     1       6.764  -6.022   9.016  1.00  0.00     0.074 A 
ATOM     68  C   UNL     1       8.047  -5.392   8.784  1.00  0.00     0.031 C 
ATOM     69  C   UNL     1       6.600  -7.201   9.668  1.00  0.00     0.037 A 
BRANCH  56  70
ATOM     70  C   UNL     1       0.698  -8.976  10.200  1.00  0.00     0.058 A 
ATOM     71  C   UNL     1      -0.053  -9.803   9.348  1.00  0.00     0.135 A 
ATOM     72  C   UNL     1       0.533  -9.145  11.585  1.00  0.00     0.135 A 
ATOM     73  F   UNL     1       0.049  -9.673   8.016  1.00  0.00    -0.206 F 
ATOM     74  C   UNL     1      -0.950 -10.741   9.850  1.00  0.00     0.059 A 
ATOM     75  C   UNL     1      -0.335 -10.099  12.108  1.00  0.00     0.059 A 
ATOM     76  F   UNL     1       1.222  -8.380  12.446  1.00  0.00    -0.206 F 
ATOM     77  C   UNL     1      -1.083 -10.883  11.232  1.00  0.00     0.060 A 
BRANCH  77  78
ATOM     78  S   UNL     1      -2.246 -12.109  11.864  1.00  0.00     0.124 S 
ATOM     79  O   UNL     1      -3.527 -11.500  11.520  1.00  0.00    -0.237 OA
ATOM     80  O   UNL     1      -1.887 -13.301  11.102  1.00  0.00    -0.237 OA
ATOM     81  O   UNL     1      -1.943 -12.164  13.291  1.00  0.00    -0.744 OA
ENDBRANCH  77  78
ENDBRANCH  56  70
BRANCH  57  82
ATOM     82  C   UNL     1       6.855  -1.936   6.668  1.00  0.00     0.058 A 
ATOM     83  C   UNL     1       7.799  -2.202   5.665  1.00  0.00     0.135 A 
ATOM     84  C   UNL     1       6.820  -0.637   7.200  1.00  0.00     0.135 A 
ATOM     85  F   UNL     1       7.884  -3.432   5.134  1.00  0.00    -0.206 F 
ATOM     86  C   UNL     1       8.684  -1.226   5.216  1.00  0.00     0.059 A 
ATOM     87  C   UNL     1       7.673   0.365   6.747  1.00  0.00     0.059 A 
ATOM     88  F   UNL     1       5.933  -0.326   8.158  1.00  0.00    -0.206 F 
ATOM     89  C   UNL     1       8.610   0.057   5.761  1.00  0.00     0.060 A 
BRANCH  89  90
ATOM     90  S   UNL     1       9.731   1.328   5.137  1.00  0.00     0.124 S 
ATOM     91  O   UNL     1      11.010   0.884   5.678  1.00  0.00    -0.237 OA
ATOM     92  O   UNL     1       9.568   1.195   3.693  1.00  0.00    -0.237 OA
ATOM     93  O   UNL     1       9.196   2.559   5.711  1.00  0.00    -0.744 OA
ENDBRANCH  89  90
ENDBRANCH  57  82
BRANCH  69  94
ATOM     94  C   UNL     1       7.838  -7.924  10.132  1.00  0.00     0.058 A 
ATOM     95  C   UNL     1       8.629  -7.449  11.191  1.00  0.00     0.135 A 
ATOM     96  C   UNL     1       8.210  -9.142   9.536  1.00  0.00     0.135 A 
ATOM     97  F   UNL     1       8.324  -6.291  11.796  1.00  0.00    -0.206 F 
ATOM     98  C   UNL     1       9.761  -8.138  11.619  1.00  0.00     0.059 A 
ATOM     99  C   UNL     1       9.317  -9.864   9.971  1.00  0.00     0.059 A 
ATOM    100  F   UNL     1       7.483  -9.651   8.529  1.00  0.00    -0.206 F 
ATOM    101  C   UNL     1      10.095  -9.346  11.004  1.00  0.00     0.060 A 
BRANCH 101 102
ATOM    102  S   UNL     1      11.552 -10.240  11.585  1.00  0.00     0.124 S 
ATOM    103  O   UNL     1      12.634  -9.400  11.083  1.00  0.00    -0.237 OA
ATOM    104  O   UNL     1      11.364 -10.234  13.033  1.00  0.00    -0.237 OA
ATOM    105  O   UNL     1      11.426 -11.548  10.949  1.00  0.00    -0.744 OA
ENDBRANCH 101 102
ENDBRANCH  69  94
ENDBRANCH  43  44
ENDBRANCH  36  38
ENDBRANCH  35  36
ENDBRANCH  34  35
ENDBRANCH  33  34
ENDBRANCH  32  33
ENDBRANCH  31  32
ENDBRANCH  30  31
ENDBRANCH   1  30
TORSDOF 26
