REMARK SMILES Cc1ccccc1-c1c(Cl)ccc2c1C=C(C(=O)OCCOCCOCCOC(=O)c1ccc(-c3c4nc(c(-c5c(F)cc(S(=O)(=O)[O-])cc5F)c5ccc([nH]5)c(-c5c(F)cc(S(=O)(=O)[O-])cc5F)c5nc(c(-c6c(F)cc(S(=O)(=O)[O-])cc6F)c6ccc3[nH]6)C=C5)C=C4)cc1)[C@@H](C(F)(F)F)O2
REMARK SMILES IDX 24 1 23 2 22 3 21 4 20 5 19 6 17 7 18 8 16 9 8 10 9 11 14 12
REMARK SMILES IDX 10 13 11 14 13 15 15 16 12 17 102 18 97 19 7 20 1 21 2 22
REMARK SMILES IDX 3 23 4 24 6 25 5 26 98 27 99 28 100 29 101 30 25 31 26 32
REMARK SMILES IDX 27 33 28 34 29 35 30 36 31 37 32 38 96 39 33 40 95 41 34 42
REMARK SMILES IDX 35 43 36 44 89 45 37 46 94 47 88 48 90 49 38 50 93 51 87 52
REMARK SMILES IDX 86 53 39 55 73 56 52 57 72 58 53 59 56 60 71 61 91 62 54 63
REMARK SMILES IDX 55 64 70 66 92 67 57 68 40 69 41 70 50 71 42 72 43 73 49 74
REMARK SMILES IDX 51 75 44 76 45 77 46 78 47 79 48 80 74 81 75 82 84 83 76 84
REMARK SMILES IDX 77 85 83 86 85 87 78 88 79 89 80 90 81 91 82 92 58 93 59 94
REMARK SMILES IDX 68 95 60 96 61 97 67 98 69 99 62 100 63 101 64 102 65 103
REMARK SMILES IDX 66 104
REMARK H PARENT 90 54 56 65
REMARK Flexibility Score: inf
ROOT
ATOM      1  C   UNL     1      10.046   0.691  -3.580  1.00  0.00     0.188 C 
ENDROOT
BRANCH   1   2
ATOM      2  C   UNL     1       9.462   1.201  -2.289  1.00  0.00     0.188 C 
BRANCH   2   3
ATOM      3  O   UNL     1       8.726   0.380  -1.385  1.00  0.00    -0.376 OA
BRANCH   3   4
ATOM      4  C   UNL     1       7.925  -0.796  -1.589  1.00  0.00     0.202 C 
BRANCH   4   5
ATOM      5  C   UNL     1       6.285  -1.174  -2.040  1.00  0.00     0.261 C 
BRANCH   5   6
ATOM      6  O   UNL     1       4.745  -0.279  -2.243  1.00  0.00    -0.460 OA
BRANCH   6   7
ATOM      7  C   UNL     1       3.911   0.799  -1.803  1.00  0.00     0.338 C 
ATOM      8  O   UNL     1       3.964   1.357  -0.710  1.00  0.00    -0.246 OA
BRANCH   7   9
ATOM      9  C   UNL     1       2.817   1.326  -2.712  1.00  0.00     0.087 C 
ATOM     10  C   UNL     1       0.290   2.339  -0.119  1.00  0.00     0.012 A 
ATOM     11  C   UNL     1       0.144   3.414   0.794  1.00  0.00     0.049 A 
ATOM     12  C   UNL     1       1.288   2.436  -1.130  1.00  0.00     0.027 A 
ATOM     13  Cl  UNL     1      -0.949   3.341   2.139  1.00  0.00    -0.084 Cl
ATOM     14  C   UNL     1       0.911   4.574   0.677  1.00  0.00     0.025 A 
ATOM     15  C   UNL     1       2.051   3.614  -1.221  1.00  0.00     0.128 A 
ATOM     16  C   UNL     1       1.632   1.282  -2.044  1.00  0.00     0.028 C 
ATOM     17  C   UNL     1       1.862   4.675  -0.332  1.00  0.00     0.049 A 
ATOM     18  O   UNL     1       3.061   3.776  -2.133  1.00  0.00    -0.475 OA
ATOM     19  C   UNL     1       3.140   2.776  -3.180  1.00  0.00     0.316 C 
BRANCH  10  20
ATOM     20  C   UNL     1      -0.550   1.130  -0.005  1.00  0.00    -0.013 A 
ATOM     21  C   UNL     1       1.395  -0.283   0.838  1.00  0.00     0.045 C 
ATOM     22  C   UNL     1      -0.026  -0.115   0.389  1.00  0.00    -0.043 A 
ATOM     23  C   UNL     1      -0.850  -1.252   0.388  1.00  0.00     0.004 A 
ATOM     24  C   UNL     1      -2.198  -1.154   0.057  1.00  0.00     0.000 A 
ATOM     25  C   UNL     1      -1.921   1.212  -0.312  1.00  0.00     0.009 A 
ATOM     26  C   UNL     1      -2.740   0.084  -0.271  1.00  0.00     0.001 A 
ENDBRANCH  10  20
BRANCH  19  27
ATOM     27  C   UNL     1       2.267   3.240  -4.364  1.00  0.00     0.430 C 
ATOM     28  F   UNL     1       2.589   4.490  -4.775  1.00  0.00    -0.167 F 
ATOM     29  F   UNL     1       2.420   2.422  -5.435  1.00  0.00    -0.167 F 
ATOM     30  F   UNL     1       0.941   3.256  -4.075  1.00  0.00    -0.167 F 
ENDBRANCH  19  27
ENDBRANCH   7   9
ENDBRANCH   6   7
ENDBRANCH   5   6
ENDBRANCH   4   5
ENDBRANCH   3   4
ENDBRANCH   2   3
ENDBRANCH   1   2
BRANCH   1  31
ATOM     31  O   UNL     1       9.243  -0.361  -4.071  1.00  0.00    -0.376 OA
BRANCH  31  32
ATOM     32  C   UNL     1       9.821  -1.041  -5.164  1.00  0.00     0.202 C 
BRANCH  32  33
ATOM     33  C   UNL     1       9.829  -0.206  -6.449  1.00  0.00     0.261 C 
BRANCH  33  34
ATOM     34  O   UNL     1       8.495   0.059  -6.933  1.00  0.00    -0.460 OA
BRANCH  34  35
ATOM     35  C   UNL     1       8.059   1.376  -6.905  1.00  0.00     0.338 C 
ATOM     36  O   UNL     1       8.024   2.068  -7.879  1.00  0.00    -0.246 OA
BRANCH  35  37
ATOM     37  C   UNL     1       7.367   1.649  -5.602  1.00  0.00     0.060 A 
ATOM     38  C   UNL     1       7.321   2.797  -4.818  1.00  0.00     0.016 A 
ATOM     39  C   UNL     1       6.638   0.635  -5.115  1.00  0.00     0.016 A 
ATOM     40  C   UNL     1       6.880   2.796  -3.410  1.00  0.00     0.010 A 
ATOM     41  C   UNL     1       6.209   0.701  -3.785  1.00  0.00     0.010 A 
ATOM     42  C   UNL     1       6.464   1.646  -2.719  1.00  0.00    -0.014 A 
BRANCH  42  43
ATOM     43  C   UNL     1       6.464   1.494  -0.931  1.00  0.00     0.031 A 
ATOM     44  C   UNL     1       5.878   0.261   0.228  1.00  0.00     0.074 A 
ATOM     45  C   UNL     1       7.225   2.396  -0.228  1.00  0.00     0.049 A 
ATOM     46  N   UNL     1       6.250   0.151   1.493  1.00  0.00    -0.248 NA
ATOM     47  C   UNL     1       4.927  -0.930   0.073  1.00  0.00     0.031 C 
ATOM     48  C   UNL     1       7.571   2.440   1.207  1.00  0.00     0.029 A 
ATOM     49  N   UNL     1       7.875   3.545  -0.701  1.00  0.00    -0.354 N 
ATOM     50  C   UNL     1       5.533  -0.885   2.081  1.00  0.00     0.074 A 
ATOM     51  C   UNL     1       5.240  -1.785   1.039  1.00  0.00     0.031 C 
ATOM     52  C   UNL     1       8.065   3.639   1.538  1.00  0.00     0.029 A 
ATOM     53  C   UNL     1       7.989   4.455   0.358  1.00  0.00     0.049 A 
ATOM     54  H   UNL     1       8.195   3.688  -1.621  1.00  0.00     0.167 HD
ATOM     55  C   UNL     1       4.730  -0.795   3.183  1.00  0.00     0.037 A 
ATOM     56  C   UNL     1       7.372   5.658   0.274  1.00  0.00     0.037 A 
ATOM     57  C   UNL     1       4.802   0.519   3.764  1.00  0.00     0.049 A 
ATOM     58  C   UNL     1       6.210   5.673   1.233  1.00  0.00     0.074 A 
ATOM     59  C   UNL     1       5.705   1.061   4.655  1.00  0.00     0.029 A 
ATOM     60  N   UNL     1       4.130   1.588   3.160  1.00  0.00    -0.354 N 
ATOM     61  N   UNL     1       5.542   4.613   1.620  1.00  0.00    -0.248 NA
ATOM     62  C   UNL     1       5.839   6.879   1.961  1.00  0.00     0.031 C 
ATOM     63  C   UNL     1       5.617   2.470   4.550  1.00  0.00     0.029 A 
ATOM     64  C   UNL     1       4.604   2.792   3.656  1.00  0.00     0.049 A 
ATOM     65  H   UNL     1       3.423   1.498   2.480  1.00  0.00     0.167 HD
ATOM     66  C   UNL     1       4.708   4.964   2.649  1.00  0.00     0.074 A 
ATOM     67  C   UNL     1       4.926   6.393   2.816  1.00  0.00     0.031 C 
ATOM     68  C   UNL     1       3.970   4.083   3.392  1.00  0.00     0.037 A 
BRANCH  55  69
ATOM     69  C   UNL     1       3.942  -2.008   3.691  1.00  0.00     0.058 A 
ATOM     70  C   UNL     1       4.170  -2.500   4.986  1.00  0.00     0.135 A 
ATOM     71  C   UNL     1       3.103  -2.831   2.894  1.00  0.00     0.135 A 
ATOM     72  F   UNL     1       4.909  -1.795   5.855  1.00  0.00    -0.206 F 
ATOM     73  C   UNL     1       3.718  -3.766   5.405  1.00  0.00     0.059 A 
ATOM     74  C   UNL     1       2.672  -4.108   3.272  1.00  0.00     0.059 A 
ATOM     75  F   UNL     1       2.744  -2.468   1.655  1.00  0.00    -0.206 F 
ATOM     76  C   UNL     1       3.014  -4.585   4.524  1.00  0.00     0.060 A 
BRANCH  76  77
ATOM     77  S   UNL     1       2.677  -6.310   4.963  1.00  0.00     0.124 S 
ATOM     78  O   UNL     1       3.979  -6.768   5.437  1.00  0.00    -0.237 OA
ATOM     79  O   UNL     1       1.641  -6.173   5.980  1.00  0.00    -0.237 OA
ATOM     80  O   UNL     1       2.242  -6.906   3.701  1.00  0.00    -0.744 OA
ENDBRANCH  76  77
ENDBRANCH  55  69
BRANCH  56  81
ATOM     81  C   UNL     1       7.530   6.257  -1.083  1.00  0.00     0.058 A 
ATOM     82  C   UNL     1       8.866   6.426  -1.533  1.00  0.00     0.135 A 
ATOM     83  C   UNL     1       6.527   6.293  -2.057  1.00  0.00     0.135 A 
ATOM     84  F   UNL     1       9.881   6.396  -0.651  1.00  0.00    -0.206 F 
ATOM     85  C   UNL     1       9.203   6.470  -2.880  1.00  0.00     0.059 A 
ATOM     86  C   UNL     1       6.844   6.368  -3.427  1.00  0.00     0.059 A 
ATOM     87  F   UNL     1       5.244   6.119  -1.710  1.00  0.00    -0.206 F 
ATOM     88  C   UNL     1       8.188   6.406  -3.825  1.00  0.00     0.060 A 
BRANCH  88  89
ATOM     89  S   UNL     1       8.696   6.197  -5.554  1.00  0.00     0.124 S 
ATOM     90  O   UNL     1       9.375   7.455  -5.831  1.00  0.00    -0.237 OA
ATOM     91  O   UNL     1       9.566   5.023  -5.463  1.00  0.00    -0.237 OA
ATOM     92  O   UNL     1       7.430   5.987  -6.245  1.00  0.00    -0.744 OA
ENDBRANCH  88  89
ENDBRANCH  56  81
BRANCH  68  93
ATOM     93  C   UNL     1       2.761   4.486   4.222  1.00  0.00     0.058 A 
ATOM     94  C   UNL     1       2.075   5.704   4.062  1.00  0.00     0.135 A 
ATOM     95  C   UNL     1       2.175   3.594   5.154  1.00  0.00     0.135 A 
ATOM     96  F   UNL     1       2.383   6.564   3.081  1.00  0.00    -0.206 F 
ATOM     97  C   UNL     1       1.003   6.079   4.868  1.00  0.00     0.059 A 
ATOM     98  C   UNL     1       1.070   3.926   5.935  1.00  0.00     0.059 A 
ATOM     99  F   UNL     1       2.634   2.346   5.327  1.00  0.00    -0.206 F 
ATOM    100  C   UNL     1       0.518   5.191   5.817  1.00  0.00     0.060 A 
BRANCH 100 101
ATOM    101  S   UNL     1      -0.872   5.683   6.845  1.00  0.00     0.124 S 
ATOM    102  O   UNL     1      -0.201   6.454   7.888  1.00  0.00    -0.237 OA
ATOM    103  O   UNL     1      -1.693   6.460   5.921  1.00  0.00    -0.237 OA
ATOM    104  O   UNL     1      -1.448   4.413   7.272  1.00  0.00    -0.744 OA
ENDBRANCH 100 101
ENDBRANCH  68  93
ENDBRANCH  42  43
ENDBRANCH  35  37
ENDBRANCH  34  35
ENDBRANCH  33  34
ENDBRANCH  32  33
ENDBRANCH  31  32
ENDBRANCH   1  31
TORSDOF 22
