REMARK SMILES Cc1nn(C)c(Cl)c1C[N@@H+]1CC[C@H](O)C[C@@H]1C(=O)OCCOCCOCCOC(=O)c1ccc(-c2c3nc(c(-c4c(F)cc(S(=O)(=O)[O-])cc4F)c4ccc([nH]4)c(-c4c(F)cc(S(=O)(=O)[O-])cc4F)c4nc(c(-c5c(F)cc(S(=O)(=O)[O-])cc5F)c5ccc2[nH]5)C=C4)C=C3)cc1
REMARK SMILES IDX 24 1 23 2 22 3 21 4 20 5 19 6 17 7 18 8 16 9 10 10 11 11
REMARK SMILES IDX 12 13 15 14 13 15 9 16 8 17 1 18 2 19 3 20 4 21 6 22 5 23
REMARK SMILES IDX 7 24 14 25 25 27 26 28 27 29 28 30 29 31 30 32 31 33 32 34
REMARK SMILES IDX 96 35 33 36 95 37 34 38 35 39 36 40 89 41 37 42 94 43 88 44
REMARK SMILES IDX 90 45 38 46 93 47 87 48 86 49 39 51 73 52 52 53 72 54 53 55
REMARK SMILES IDX 56 56 71 57 91 58 54 59 55 60 70 62 92 63 57 64 40 65 41 66
REMARK SMILES IDX 50 67 42 68 43 69 49 70 51 71 44 72 45 73 46 74 47 75 48 76
REMARK SMILES IDX 74 77 75 78 84 79 76 80 77 81 83 82 85 83 78 84 79 85 80 86
REMARK SMILES IDX 81 87 82 88 58 89 59 90 68 91 60 92 61 93 67 94 69 95 62 96
REMARK SMILES IDX 63 97 64 98 65 99 66 100
REMARK H PARENT 10 12 14 26 90 50 56 61
REMARK Flexibility Score: inf
ROOT
ATOM      1  C   UNL     1       4.716   1.540  -5.324  1.00  0.00     0.188 C 
ENDROOT
BRANCH   1   2
ATOM      2  C   UNL     1       5.171   1.463  -3.857  1.00  0.00     0.188 C 
BRANCH   2   3
ATOM      3  O   UNL     1       5.237   0.181  -3.235  1.00  0.00    -0.376 OA
BRANCH   3   4
ATOM      4  C   UNL     1       4.659  -0.918  -3.918  1.00  0.00     0.202 C 
BRANCH   4   5
ATOM      5  C   UNL     1       3.148  -1.128  -3.709  1.00  0.00     0.261 C 
BRANCH   5   6
ATOM      6  O   UNL     1       2.285  -0.003  -4.008  1.00  0.00    -0.459 OA
BRANCH   6   7
ATOM      7  C   UNL     1       1.948   0.774  -2.939  1.00  0.00     0.365 C 
ATOM      8  O   UNL     1       2.385   0.603  -1.805  1.00  0.00    -0.245 OA
BRANCH   7   9
ATOM      9  C   UNL     1       0.972   1.923  -3.263  1.00  0.00     0.297 C 
ATOM     10  N   UNL     1      -0.441   1.558  -3.484  1.00  0.00    -0.319 N 
ATOM     11  C   UNL     1      -0.849   1.274  -4.850  1.00  0.00     0.265 C 
ATOM     12  H   UNL     1      -0.842   2.484  -3.336  1.00  0.00     0.349 HD
ATOM     13  C   UNL     1      -0.443   2.384  -5.811  1.00  0.00     0.093 C 
ATOM     14  C   UNL     1       1.510   2.893  -4.330  1.00  0.00     0.109 C 
ATOM     15  C   UNL     1       1.056   2.600  -5.761  1.00  0.00     0.126 C 
BRANCH  10  16
ATOM     16  C   UNL     1      -1.145   0.818  -2.433  1.00  0.00     0.305 C 
BRANCH  16  17
ATOM     17  C   UNL     1      -0.806  -0.632  -2.402  1.00  0.00     0.066 A 
ATOM     18  C   UNL     1       0.428  -0.861  -0.084  1.00  0.00     0.069 C 
ATOM     19  C   UNL     1      -0.074  -1.345  -1.399  1.00  0.00     0.070 A 
ATOM     20  N   UNL     1       0.163  -2.617  -1.759  1.00  0.00    -0.177 NA
ATOM     21  N   UNL     1      -0.421  -2.721  -2.967  1.00  0.00    -0.256 N 
ATOM     22  C   UNL     1      -1.178  -1.634  -3.269  1.00  0.00     0.135 A 
ATOM     23  C   UNL     1      -0.087  -3.837  -3.817  1.00  0.00     0.175 C 
ATOM     24  Cl  UNL     1      -2.292  -1.701  -4.556  1.00  0.00    -0.062 Cl
ENDBRANCH  16  17
ENDBRANCH  10  16
BRANCH  15  25
ATOM     25  O   UNL     1       1.698   1.468  -6.333  1.00  0.00    -0.393 OA
ATOM     26  H   UNL     1       1.462   0.673  -5.828  1.00  0.00     0.210 HD
ENDBRANCH  15  25
ENDBRANCH   7   9
ENDBRANCH   6   7
ENDBRANCH   5   6
ENDBRANCH   4   5
ENDBRANCH   3   4
ENDBRANCH   2   3
ENDBRANCH   1   2
BRANCH   1  27
ATOM     27  O   UNL     1       5.502   0.905  -6.326  1.00  0.00    -0.376 OA
BRANCH  27  28
ATOM     28  C   UNL     1       6.894   1.183  -6.380  1.00  0.00     0.202 C 
BRANCH  28  29
ATOM     29  C   UNL     1       7.253   2.615  -6.752  1.00  0.00     0.261 C 
BRANCH  29  30
ATOM     30  O   UNL     1       7.006   3.442  -5.620  1.00  0.00    -0.460 OA
BRANCH  30  31
ATOM     31  C   UNL     1       5.991   4.318  -5.688  1.00  0.00     0.338 C 
ATOM     32  O   UNL     1       5.260   4.545  -6.652  1.00  0.00    -0.246 OA
BRANCH  31  33
ATOM     33  C   UNL     1       5.911   5.016  -4.398  1.00  0.00     0.060 A 
ATOM     34  C   UNL     1       5.081   6.140  -4.355  1.00  0.00     0.016 A 
ATOM     35  C   UNL     1       6.958   4.823  -3.490  1.00  0.00     0.016 A 
ATOM     36  C   UNL     1       5.537   7.242  -3.669  1.00  0.00     0.010 A 
ATOM     37  C   UNL     1       7.455   5.938  -2.881  1.00  0.00     0.010 A 
ATOM     38  C   UNL     1       6.794   7.152  -3.075  1.00  0.00    -0.014 A 
BRANCH  38  39
ATOM     39  C   UNL     1       7.549   8.369  -2.851  1.00  0.00     0.031 A 
ATOM     40  C   UNL     1       7.550   8.852  -1.457  1.00  0.00     0.074 A 
ATOM     41  C   UNL     1       8.368   8.812  -3.830  1.00  0.00     0.049 A 
ATOM     42  N   UNL     1       7.135   9.984  -0.994  1.00  0.00    -0.248 NA
ATOM     43  C   UNL     1       7.930   7.883  -0.412  1.00  0.00     0.031 C 
ATOM     44  C   UNL     1       8.667   8.128  -5.100  1.00  0.00     0.029 A 
ATOM     45  N   UNL     1       9.228   9.866  -3.845  1.00  0.00    -0.354 N 
ATOM     46  C   UNL     1       7.437   9.939   0.364  1.00  0.00     0.074 A 
ATOM     47  C   UNL     1       7.651   8.562   0.696  1.00  0.00     0.031 C 
ATOM     48  C   UNL     1       9.789   8.655  -5.635  1.00  0.00     0.029 A 
ATOM     49  C   UNL     1      10.232   9.759  -4.801  1.00  0.00     0.049 A 
ATOM     50  H   UNL     1       9.148  10.634  -3.233  1.00  0.00     0.167 HD
ATOM     51  C   UNL     1       7.838  11.047   1.040  1.00  0.00     0.037 A 
ATOM     52  C   UNL     1      11.400  10.448  -4.832  1.00  0.00     0.037 A 
ATOM     53  C   UNL     1       7.462  12.252   0.349  1.00  0.00     0.049 A 
ATOM     54  C   UNL     1      11.258  11.611  -3.916  1.00  0.00     0.074 A 
ATOM     55  C   UNL     1       6.267  12.774  -0.106  1.00  0.00     0.029 A 
ATOM     56  N   UNL     1       8.455  12.962  -0.281  1.00  0.00    -0.354 N 
ATOM     57  N   UNL     1      10.461  12.625  -4.119  1.00  0.00    -0.248 NA
ATOM     58  C   UNL     1      11.726  11.461  -2.545  1.00  0.00     0.031 C 
ATOM     59  C   UNL     1       6.592  13.493  -1.291  1.00  0.00     0.029 A 
ATOM     60  C   UNL     1       7.971  13.398  -1.488  1.00  0.00     0.049 A 
ATOM     61  H   UNL     1       9.359  13.129   0.073  1.00  0.00     0.167 HD
ATOM     62  C   UNL     1      10.009  12.985  -2.857  1.00  0.00     0.074 A 
ATOM     63  C   UNL     1      10.914  12.322  -1.927  1.00  0.00     0.031 C 
ATOM     64  C   UNL     1       8.776  13.546  -2.683  1.00  0.00     0.037 A 
BRANCH  51  65
ATOM     65  C   UNL     1       8.907  11.011   2.112  1.00  0.00     0.058 A 
ATOM     66  C   UNL     1       9.111  12.153   2.907  1.00  0.00     0.135 A 
ATOM     67  C   UNL     1       9.909  10.014   2.214  1.00  0.00     0.135 A 
ATOM     68  F   UNL     1       8.231  13.167   2.882  1.00  0.00    -0.206 F 
ATOM     69  C   UNL     1      10.259  12.327   3.681  1.00  0.00     0.059 A 
ATOM     70  C   UNL     1      11.023  10.135   3.032  1.00  0.00     0.059 A 
ATOM     71  F   UNL     1       9.924   8.916   1.449  1.00  0.00    -0.206 F 
ATOM     72  C   UNL     1      11.217  11.318   3.719  1.00  0.00     0.060 A 
BRANCH  72  73
ATOM     73  S   UNL     1      12.769  11.592   4.586  1.00  0.00     0.124 S 
ATOM     74  O   UNL     1      13.425  12.545   3.699  1.00  0.00    -0.237 OA
ATOM     75  O   UNL     1      12.313  12.116   5.869  1.00  0.00    -0.237 OA
ATOM     76  O   UNL     1      13.364  10.259   4.635  1.00  0.00    -0.744 OA
ENDBRANCH  72  73
ENDBRANCH  51  65
BRANCH  52  77
ATOM     77  C   UNL     1      12.716   9.982  -5.348  1.00  0.00     0.058 A 
ATOM     78  C   UNL     1      13.759  10.884  -5.616  1.00  0.00     0.135 A 
ATOM     79  C   UNL     1      13.062   8.613  -5.374  1.00  0.00     0.135 A 
ATOM     80  F   UNL     1      13.534  12.206  -5.574  1.00  0.00    -0.206 F 
ATOM     81  C   UNL     1      15.067  10.457  -5.878  1.00  0.00     0.059 A 
ATOM     82  C   UNL     1      14.350   8.164  -5.656  1.00  0.00     0.059 A 
ATOM     83  F   UNL     1      12.174   7.665  -5.040  1.00  0.00    -0.206 F 
ATOM     84  C   UNL     1      15.354   9.092  -5.888  1.00  0.00     0.060 A 
BRANCH  84  85
ATOM     85  S   UNL     1      17.062   8.539  -6.097  1.00  0.00     0.124 S 
ATOM     86  O   UNL     1      17.337   8.921  -7.478  1.00  0.00    -0.237 OA
ATOM     87  O   UNL     1      17.762   9.305  -5.071  1.00  0.00    -0.237 OA
ATOM     88  O   UNL     1      16.986   7.101  -5.853  1.00  0.00    -0.744 OA
ENDBRANCH  84  85
ENDBRANCH  52  77
BRANCH  64  89
ATOM     89  C   UNL     1       8.089  14.133  -3.889  1.00  0.00     0.058 A 
ATOM     90  C   UNL     1       7.647  13.380  -4.989  1.00  0.00     0.135 A 
ATOM     91  C   UNL     1       7.730  15.489  -3.853  1.00  0.00     0.135 A 
ATOM     92  F   UNL     1       7.855  12.057  -5.046  1.00  0.00    -0.206 F 
ATOM     93  C   UNL     1       6.916  13.957  -6.028  1.00  0.00     0.059 A 
ATOM     94  C   UNL     1       6.973  16.079  -4.862  1.00  0.00     0.059 A 
ATOM     95  F   UNL     1       8.067  16.247  -2.796  1.00  0.00    -0.206 F 
ATOM     96  C   UNL     1       6.579  15.309  -5.954  1.00  0.00     0.060 A 
BRANCH  96  97
ATOM     97  S   UNL     1       5.543  16.028  -7.246  1.00  0.00     0.124 S 
ATOM     98  O   UNL     1       6.485  16.171  -8.351  1.00  0.00    -0.237 OA
ATOM     99  O   UNL     1       4.505  15.016  -7.425  1.00  0.00    -0.237 OA
ATOM    100  O   UNL     1       5.080  17.280  -6.653  1.00  0.00    -0.744 OA
ENDBRANCH  96  97
ENDBRANCH  64  89
ENDBRANCH  38  39
ENDBRANCH  31  33
ENDBRANCH  30  31
ENDBRANCH  29  30
ENDBRANCH  28  29
ENDBRANCH  27  28
ENDBRANCH   1  27
TORSDOF 23
