REMARK SMILES C[N@H+]1CCO[C@@H](CNS(=O)(=O)N2CCC(C(=O)OCCOCCOCCOC(=O)c3ccc(-c4c5nc(c(-c6c(F)cc(S(=O)(=O)[O-])cc6F)c6ccc([nH]6)c(-c6c(F)cc(S(=O)(=O)[O-])cc6F)c6nc(c(-c7c(F)cc(S(=O)(=O)[O-])cc7F)c7ccc4[nH]7)C=C6)C=C5)cc3)CC2)C1
REMARK SMILES IDX 22 1 21 2 20 3 19 4 18 5 16 6 17 7 15 8 12 9 13 10 97 11
REMARK SMILES IDX 14 12 96 13 9 14 10 15 11 16 8 17 7 19 6 20 1 21 2 22 3 23
REMARK SMILES IDX 98 24 4 26 5 27 23 28 24 29 25 30 26 31 27 32 28 33 29 34
REMARK SMILES IDX 30 35 31 36 95 37 32 38 94 39 33 40 34 41 35 42 88 43 36 44
REMARK SMILES IDX 93 45 87 46 89 47 37 48 92 49 86 50 85 51 38 53 72 54 51 55
REMARK SMILES IDX 71 56 52 57 55 58 70 59 90 60 53 61 54 62 69 64 91 65 56 66
REMARK SMILES IDX 39 67 40 68 49 69 41 70 42 71 48 72 50 73 43 74 44 75 45 76
REMARK SMILES IDX 46 77 47 78 73 79 74 80 83 81 75 82 76 83 82 84 84 85 77 86
REMARK SMILES IDX 78 87 79 88 80 89 81 90 57 91 58 92 67 93 59 94 60 95 66 96
REMARK SMILES IDX 68 97 61 98 62 99 63 100 64 101 65 102
REMARK H PARENT 8 18 2 25 89 52 55 63
REMARK Flexibility Score: inf
ROOT
ATOM      1  C   UNL     1      11.350   4.362   1.268  1.00  0.00     0.188 C 
ENDROOT
BRANCH   1   2
ATOM      2  O   UNL     1      12.293   3.771   0.388  1.00  0.00    -0.376 OA
BRANCH   2   3
ATOM      3  C   UNL     1      11.811   3.168  -0.805  1.00  0.00     0.202 C 
BRANCH   3   4
ATOM      4  C   UNL     1      10.705   2.106  -0.696  1.00  0.00     0.261 C 
BRANCH   4   5
ATOM      5  O   UNL     1       9.591   2.429   0.168  1.00  0.00    -0.463 OA
BRANCH   5   6
ATOM      6  C   UNL     1       9.498   1.691   1.305  1.00  0.00     0.309 C 
ATOM      7  O   UNL     1      10.287   0.803   1.614  1.00  0.00    -0.252 OA
BRANCH   6   8
ATOM      8  C   UNL     1       8.298   2.012   2.196  1.00  0.00     0.102 C 
ATOM      9  N   UNL     1       5.386   2.081   2.253  1.00  0.00    -0.189 NA
ATOM     10  C   UNL     1       6.108   0.962   2.887  1.00  0.00     0.104 C 
ATOM     11  C   UNL     1       6.094   3.356   2.474  1.00  0.00     0.104 C 
ATOM     12  C   UNL     1       7.430   0.749   2.184  1.00  0.00     0.032 C 
ATOM     13  C   UNL     1       7.518   3.309   1.917  1.00  0.00     0.032 C 
BRANCH   9  14
ATOM     14  S   UNL     1       4.765   1.808   0.718  1.00  0.00     0.279 S 
ATOM     15  O   UNL     1       4.259   0.462   0.628  1.00  0.00    -0.195 OA
ATOM     16  O   UNL     1       5.651   2.341  -0.288  1.00  0.00    -0.195 OA
BRANCH  14  17
ATOM     17  N   UNL     1       3.437   2.833   0.773  1.00  0.00    -0.199 NA
ATOM     18  H   UNL     1       3.765   3.763   1.033  1.00  0.00     0.142 HD
BRANCH  17  19
ATOM     19  C   UNL     1       2.380   2.433   1.734  1.00  0.00     0.138 C 
BRANCH  19  20
ATOM     20  C   UNL     1       0.993   2.977   1.352  1.00  0.00     0.188 C 
ATOM     21  C   UNL     1       1.036   0.217  -0.378  1.00  0.00     0.332 C 
ATOM     22  N   UNL     1      -0.018   1.216  -0.232  1.00  0.00    -0.333 N 
ATOM     23  C   UNL     1      -0.943   0.897   0.871  1.00  0.00     0.290 C 
ATOM     24  C   UNL     1       0.477   2.591  -0.056  1.00  0.00     0.295 C 
ATOM     25  H   UNL     1      -0.518   1.178  -1.121  1.00  0.00     0.348 HD
ATOM     26  C   UNL     1      -0.402   1.253   2.267  1.00  0.00     0.222 C 
ATOM     27  O   UNL     1       0.011   2.625   2.352  1.00  0.00    -0.365 OA
ENDBRANCH  19  20
ENDBRANCH  17  19
ENDBRANCH  14  17
ENDBRANCH   9  14
ENDBRANCH   6   8
ENDBRANCH   5   6
ENDBRANCH   4   5
ENDBRANCH   3   4
ENDBRANCH   2   3
ENDBRANCH   1   2
BRANCH   1  28
ATOM     28  C   UNL     1      10.237   5.238   0.678  1.00  0.00     0.188 C 
BRANCH  28  29
ATOM     29  O   UNL     1      10.246   5.358  -0.728  1.00  0.00    -0.376 OA
BRANCH  29  30
ATOM     30  C   UNL     1       9.798   6.593  -1.263  1.00  0.00     0.202 C 
BRANCH  30  31
ATOM     31  C   UNL     1      10.806   7.745  -1.091  1.00  0.00     0.261 C 
BRANCH  31  32
ATOM     32  O   UNL     1      11.239   8.030   0.258  1.00  0.00    -0.460 OA
BRANCH  32  33
ATOM     33  C   UNL     1      10.298   8.457   1.140  1.00  0.00     0.338 C 
ATOM     34  O   UNL     1       9.140   8.731   0.874  1.00  0.00    -0.246 OA
BRANCH  33  35
ATOM     35  C   UNL     1      10.814   8.241   2.526  1.00  0.00     0.060 A 
ATOM     36  C   UNL     1      10.003   7.548   3.442  1.00  0.00     0.016 A 
ATOM     37  C   UNL     1      12.090   8.654   2.912  1.00  0.00     0.016 A 
ATOM     38  C   UNL     1      10.442   7.320   4.753  1.00  0.00     0.010 A 
ATOM     39  C   UNL     1      12.520   8.443   4.231  1.00  0.00     0.010 A 
ATOM     40  C   UNL     1      11.684   7.811   5.173  1.00  0.00    -0.014 A 
BRANCH  40  41
ATOM     41  C   UNL     1      12.017   7.870   6.626  1.00  0.00     0.031 A 
ATOM     42  C   UNL     1      11.822   9.183   7.345  1.00  0.00     0.074 A 
ATOM     43  C   UNL     1      12.469   6.802   7.313  1.00  0.00     0.049 A 
ATOM     44  N   UNL     1      12.101   9.508   8.581  1.00  0.00    -0.248 NA
ATOM     45  C   UNL     1      11.235  10.277   6.555  1.00  0.00     0.031 C 
ATOM     46  C   UNL     1      12.667   5.462   6.766  1.00  0.00     0.029 A 
ATOM     47  N   UNL     1      12.857   6.687   8.629  1.00  0.00    -0.354 N 
ATOM     48  C   UNL     1      11.740  10.846   8.712  1.00  0.00     0.074 A 
ATOM     49  C   UNL     1      11.248  11.278   7.422  1.00  0.00     0.031 C 
ATOM     50  C   UNL     1      13.157   4.664   7.732  1.00  0.00     0.029 A 
ATOM     51  C   UNL     1      13.340   5.442   8.959  1.00  0.00     0.049 A 
ATOM     52  H   UNL     1      12.794   7.428   9.274  1.00  0.00     0.167 HD
ATOM     53  C   UNL     1      11.804  11.643   9.805  1.00  0.00     0.037 A 
ATOM     54  C   UNL     1      13.890   4.988  10.106  1.00  0.00     0.037 A 
ATOM     55  C   UNL     1      12.291  11.218  11.092  1.00  0.00     0.049 A 
ATOM     56  C   UNL     1      14.014   5.912  11.295  1.00  0.00     0.074 A 
ATOM     57  C   UNL     1      12.371  11.950  12.264  1.00  0.00     0.029 A 
ATOM     58  N   UNL     1      12.790   9.956  11.376  1.00  0.00    -0.354 N 
ATOM     59  N   UNL     1      13.646   7.166  11.411  1.00  0.00    -0.248 NA
ATOM     60  C   UNL     1      14.624   5.356  12.514  1.00  0.00     0.031 C 
ATOM     61  C   UNL     1      12.975  11.151  13.240  1.00  0.00     0.029 A 
ATOM     62  C   UNL     1      13.206   9.898  12.697  1.00  0.00     0.049 A 
ATOM     63  H   UNL     1      12.841   9.211  10.735  1.00  0.00     0.167 HD
ATOM     64  C   UNL     1      13.949   7.536  12.720  1.00  0.00     0.074 A 
ATOM     65  C   UNL     1      14.520   6.371  13.361  1.00  0.00     0.031 C 
ATOM     66  C   UNL     1      13.766   8.732  13.335  1.00  0.00     0.037 A 
BRANCH  53  67
ATOM     67  C   UNL     1      11.365  13.075   9.651  1.00  0.00     0.058 A 
ATOM     68  C   UNL     1      10.018  13.424   9.464  1.00  0.00     0.135 A 
ATOM     69  C   UNL     1      12.305  14.116   9.728  1.00  0.00     0.135 A 
ATOM     70  F   UNL     1       9.079  12.470   9.363  1.00  0.00    -0.206 F 
ATOM     71  C   UNL     1       9.622  14.752   9.333  1.00  0.00     0.059 A 
ATOM     72  C   UNL     1      11.928  15.452   9.632  1.00  0.00     0.059 A 
ATOM     73  F   UNL     1      13.607  13.840   9.902  1.00  0.00    -0.206 F 
ATOM     74  C   UNL     1      10.585  15.759   9.421  1.00  0.00     0.060 A 
BRANCH  74  75
ATOM     75  S   UNL     1      10.053  17.476   9.258  1.00  0.00     0.124 S 
ATOM     76  O   UNL     1       9.714  17.542   7.839  1.00  0.00    -0.237 OA
ATOM     77  O   UNL     1       8.926  17.541  10.182  1.00  0.00    -0.237 OA
ATOM     78  O   UNL     1      11.232  18.238   9.656  1.00  0.00    -0.744 OA
ENDBRANCH  74  75
ENDBRANCH  53  67
BRANCH  54  79
ATOM     79  C   UNL     1      14.388   3.585  10.193  1.00  0.00     0.058 A 
ATOM     80  C   UNL     1      13.766   2.639  11.022  1.00  0.00     0.135 A 
ATOM     81  C   UNL     1      15.511   3.166   9.460  1.00  0.00     0.135 A 
ATOM     82  F   UNL     1      12.703   2.992  11.761  1.00  0.00    -0.206 F 
ATOM     83  C   UNL     1      14.241   1.335  11.130  1.00  0.00     0.059 A 
ATOM     84  C   UNL     1      15.986   1.860   9.527  1.00  0.00     0.059 A 
ATOM     85  F   UNL     1      16.145   4.029   8.651  1.00  0.00    -0.206 F 
ATOM     86  C   UNL     1      15.349   0.953  10.372  1.00  0.00     0.060 A 
BRANCH  86  87
ATOM     87  S   UNL     1      15.919  -0.758  10.476  1.00  0.00     0.124 S 
ATOM     88  O   UNL     1      16.495  -0.797  11.815  1.00  0.00    -0.237 OA
ATOM     89  O   UNL     1      14.678  -1.504  10.293  1.00  0.00    -0.237 OA
ATOM     90  O   UNL     1      16.873  -0.862   9.375  1.00  0.00    -0.744 OA
ENDBRANCH  86  87
ENDBRANCH  54  79
BRANCH  66  91
ATOM     91  C   UNL     1      14.137   8.840  14.793  1.00  0.00     0.058 A 
ATOM     92  C   UNL     1      15.472   8.825  15.227  1.00  0.00     0.135 A 
ATOM     93  C   UNL     1      13.138   9.012  15.767  1.00  0.00     0.135 A 
ATOM     94  F   UNL     1      16.469   8.662  14.343  1.00  0.00    -0.206 F 
ATOM     95  C   UNL     1      15.802   8.944  16.575  1.00  0.00     0.059 A 
ATOM     96  C   UNL     1      13.446   9.167  17.116  1.00  0.00     0.059 A 
ATOM     97  F   UNL     1      11.845   9.050  15.410  1.00  0.00    -0.206 F 
ATOM     98  C   UNL     1      14.781   9.116  17.512  1.00  0.00     0.060 A 
BRANCH  98  99
ATOM     99  S   UNL     1      15.223   9.290  19.255  1.00  0.00     0.124 S 
ATOM    100  O   UNL     1      15.635   7.931  19.591  1.00  0.00    -0.237 OA
ATOM    101  O   UNL     1      16.291  10.283  19.208  1.00  0.00    -0.237 OA
ATOM    102  O   UNL     1      13.982   9.741  19.878  1.00  0.00    -0.744 OA
ENDBRANCH  98  99
ENDBRANCH  66  91
ENDBRANCH  40  41
ENDBRANCH  33  35
ENDBRANCH  32  33
ENDBRANCH  31  32
ENDBRANCH  30  31
ENDBRANCH  29  30
ENDBRANCH  28  29
ENDBRANCH   1  28
TORSDOF 24
