REMARK SMILES C[N@H+]1CCCN(S(=O)(=O)Cc2ccc(C(=O)OCCOCCOCCOC(=O)c3ccc(-c4c5nc(c(-c6c(F)cc(S(=O)(=O)[O-])cc6F)c6ccc([nH]6)c(-c6c(F)cc(S(=O)(=O)[O-])cc6F)c6nc(c(-c7c(F)cc(S(=O)(=O)[O-])cc7F)c7ccc4[nH]7)C=C6)C=C5)cc3)cc2)CC1
REMARK SMILES IDX 19 1 18 2 17 3 15 4 16 5 14 6 11 7 12 8 96 9 13 10 95 11
REMARK SMILES IDX 10 12 7 13 8 14 9 15 6 16 97 17 98 18 2 19 1 20 3 22 5 24
REMARK SMILES IDX 4 25 20 27 21 28 22 29 23 30 24 31 25 32 26 33 27 34 28 35
REMARK SMILES IDX 29 36 30 37 94 38 31 39 93 40 32 41 33 42 34 43 87 44 35 45
REMARK SMILES IDX 92 46 86 47 88 48 36 49 91 50 85 51 84 52 37 54 71 55 50 56
REMARK SMILES IDX 70 57 51 58 54 59 69 60 89 61 52 62 53 63 68 65 90 66 55 67
REMARK SMILES IDX 38 68 39 69 48 70 40 71 41 72 47 73 49 74 42 75 43 76 44 77
REMARK SMILES IDX 45 78 46 79 72 80 73 81 82 82 74 83 75 84 81 85 83 86 76 87
REMARK SMILES IDX 77 88 78 89 79 90 80 91 56 92 57 93 66 94 58 95 59 96 65 97
REMARK SMILES IDX 67 98 60 99 61 100 62 101 63 102 64 103
REMARK H PARENT 2 21 88 53 54 64
REMARK Flexibility Score: 80.00
ROOT
ATOM      1  C   UNL     1      -0.611 -12.728   1.441  1.00  0.00     0.202 C 
ENDROOT
BRANCH   1   2
ATOM      2  C   UNL     1       0.735 -11.977   1.421  1.00  0.00     0.261 C 
BRANCH   2   3
ATOM      3  O   UNL     1       0.861 -10.815   2.242  1.00  0.00    -0.460 OA
BRANCH   3   4
ATOM      4  C   UNL     1       0.911  -9.640   1.567  1.00  0.00     0.338 C 
ATOM      5  O   UNL     1       0.901  -9.489   0.357  1.00  0.00    -0.246 OA
BRANCH   4   6
ATOM      6  C   UNL     1       0.807  -8.509   2.512  1.00  0.00     0.060 A 
ATOM      7  C   UNL     1       0.648  -6.216   4.141  1.00  0.00    -0.032 A 
ATOM      8  C   UNL     1      -0.199  -6.368   3.039  1.00  0.00     0.006 A 
ATOM      9  C   UNL     1       1.513  -7.286   4.462  1.00  0.00     0.006 A 
ATOM     10  C   UNL     1      -0.106  -7.494   2.218  1.00  0.00     0.016 A 
ATOM     11  C   UNL     1       1.588  -8.432   3.663  1.00  0.00     0.016 A 
BRANCH   7  12
ATOM     12  C   UNL     1       0.816  -4.947   4.948  1.00  0.00     0.189 C 
BRANCH  12  13
ATOM     13  S   UNL     1      -0.446  -3.684   4.809  1.00  0.00     0.218 S 
ATOM     14  O   UNL     1       0.035  -2.530   5.545  1.00  0.00    -0.212 OA
ATOM     15  O   UNL     1      -1.723  -4.277   5.152  1.00  0.00    -0.212 OA
BRANCH  13  16
ATOM     16  N   UNL     1      -0.499  -3.233   3.166  1.00  0.00    -0.196 NA
BRANCH  16  17
ATOM     17  C   UNL     1       0.803  -2.885   2.528  1.00  0.00     0.163 C 
BRANCH  17  18
ATOM     18  C   UNL     1       0.705  -2.205   1.148  1.00  0.00     0.278 C 
BRANCH  18  19
ATOM     19  N   UNL     1       0.584  -0.739   1.248  1.00  0.00    -0.336 N 
ATOM     20  C   UNL     1       0.987  -0.111  -0.017  1.00  0.00     0.332 C 
ATOM     21  H   UNL     1       1.204  -0.445   2.003  1.00  0.00     0.347 HD
BRANCH  19  22
ATOM     22  C   UNL     1      -0.775  -0.300   1.596  1.00  0.00     0.263 CG0
ATOM     23  G   UNL     1      -1.319  -0.865   2.909  1.00  0.00     0.000 G0
ENDBRANCH  19  22
ENDBRANCH  18  19
ENDBRANCH  17  18
ENDBRANCH  16  17
BRANCH  16  24
ATOM     24  C   UNL     1      -1.649  -2.349   2.821  1.00  0.00     0.108 C 
BRANCH  24  25
ATOM     25  C   UNL     1      -1.319  -0.865   2.909  1.00  0.00     0.078 CG0
ATOM     26  G   UNL     1      -0.775  -0.300   1.596  1.00  0.00     0.000 G0
ENDBRANCH  24  25
ENDBRANCH  16  24
ENDBRANCH  13  16
ENDBRANCH  12  13
ENDBRANCH   7  12
ENDBRANCH   4   6
ENDBRANCH   3   4
ENDBRANCH   2   3
ENDBRANCH   1   2
BRANCH   1  27
ATOM     27  O   UNL     1      -1.862 -12.192   1.832  1.00  0.00    -0.376 OA
BRANCH  27  28
ATOM     28  C   UNL     1      -1.950 -10.940   2.474  1.00  0.00     0.188 C 
BRANCH  28  29
ATOM     29  C   UNL     1      -1.512 -10.860   3.950  1.00  0.00     0.188 C 
BRANCH  29  30
ATOM     30  O   UNL     1      -0.840 -11.957   4.529  1.00  0.00    -0.376 OA
BRANCH  30  31
ATOM     31  C   UNL     1      -1.514 -13.192   4.705  1.00  0.00     0.202 C 
BRANCH  31  32
ATOM     32  C   UNL     1      -3.045 -13.377   4.789  1.00  0.00     0.261 C 
BRANCH  32  33
ATOM     33  O   UNL     1      -3.881 -12.390   4.180  1.00  0.00    -0.460 OA
BRANCH  33  34
ATOM     34  C   UNL     1      -4.520 -11.553   5.034  1.00  0.00     0.338 C 
ATOM     35  O   UNL     1      -4.438 -11.539   6.253  1.00  0.00    -0.246 OA
BRANCH  34  36
ATOM     36  C   UNL     1      -5.225 -10.522   4.251  1.00  0.00     0.060 A 
ATOM     37  C   UNL     1      -4.749  -9.204   4.277  1.00  0.00     0.016 A 
ATOM     38  C   UNL     1      -6.364 -10.850   3.515  1.00  0.00     0.016 A 
ATOM     39  C   UNL     1      -5.414  -8.206   3.564  1.00  0.00     0.010 A 
ATOM     40  C   UNL     1      -7.043  -9.843   2.822  1.00  0.00     0.010 A 
ATOM     41  C   UNL     1      -6.582  -8.514   2.855  1.00  0.00    -0.014 A 
BRANCH  41  42
ATOM     42  C   UNL     1      -7.396  -7.430   2.250  1.00  0.00     0.031 A 
ATOM     43  C   UNL     1      -8.621  -6.948   2.975  1.00  0.00     0.074 A 
ATOM     44  C   UNL     1      -7.052  -6.888   1.067  1.00  0.00     0.049 A 
ATOM     45  N   UNL     1      -9.522  -6.080   2.596  1.00  0.00    -0.248 NA
ATOM     46  C   UNL     1      -8.865  -7.529   4.306  1.00  0.00     0.031 C 
ATOM     47  C   UNL     1      -5.868  -7.244   0.287  1.00  0.00     0.029 A 
ATOM     48  N   UNL     1      -7.681  -5.933   0.307  1.00  0.00    -0.354 N 
ATOM     49  C   UNL     1     -10.445  -6.015   3.633  1.00  0.00     0.074 A 
ATOM     50  C   UNL     1     -10.009  -6.953   4.646  1.00  0.00     0.031 C 
ATOM     51  C   UNL     1      -5.866  -6.530  -0.852  1.00  0.00     0.029 A 
ATOM     52  C   UNL     1      -7.067  -5.697  -0.900  1.00  0.00     0.049 A 
ATOM     53  H   UNL     1      -8.495  -5.462   0.599  1.00  0.00     0.167 HD
ATOM     54  C   UNL     1     -11.551  -5.239   3.734  1.00  0.00     0.037 A 
ATOM     55  C   UNL     1      -7.447  -4.922  -1.936  1.00  0.00     0.037 A 
ATOM     56  C   UNL     1     -11.979  -4.310   2.719  1.00  0.00     0.049 A 
ATOM     57  C   UNL     1      -8.726  -4.129  -1.836  1.00  0.00     0.074 A 
ATOM     58  C   UNL     1     -13.071  -3.460   2.738  1.00  0.00     0.029 A 
ATOM     59  N   UNL     1     -11.347  -4.120   1.498  1.00  0.00    -0.354 N 
ATOM     60  N   UNL     1      -9.572  -4.048  -0.837  1.00  0.00    -0.248 NA
ATOM     61  C   UNL     1      -9.103  -3.322  -3.006  1.00  0.00     0.031 C 
ATOM     62  C   UNL     1     -13.135  -2.802   1.506  1.00  0.00     0.029 A 
ATOM     63  C   UNL     1     -12.047  -3.193   0.742  1.00  0.00     0.049 A 
ATOM     64  H   UNL     1     -10.523  -4.576   1.212  1.00  0.00     0.167 HD
ATOM     65  C   UNL     1     -10.568  -3.166  -1.248  1.00  0.00     0.074 A 
ATOM     66  C   UNL     1     -10.208  -2.725  -2.580  1.00  0.00     0.031 C 
ATOM     67  C   UNL     1     -11.679  -2.759  -0.584  1.00  0.00     0.037 A 
BRANCH  54  68
ATOM     68  C   UNL     1     -12.396  -5.382   4.971  1.00  0.00     0.058 A 
ATOM     69  C   UNL     1     -11.958  -4.931   6.226  1.00  0.00     0.135 A 
ATOM     70  C   UNL     1     -13.682  -5.942   4.891  1.00  0.00     0.135 A 
ATOM     71  F   UNL     1     -10.732  -4.401   6.364  1.00  0.00    -0.206 F 
ATOM     72  C   UNL     1     -12.753  -5.052   7.362  1.00  0.00     0.059 A 
ATOM     73  C   UNL     1     -14.506  -6.046   6.008  1.00  0.00     0.059 A 
ATOM     74  F   UNL     1     -14.152  -6.392   3.717  1.00  0.00    -0.206 F 
ATOM     75  C   UNL     1     -14.027  -5.610   7.242  1.00  0.00     0.060 A 
BRANCH  75  76
ATOM     76  S   UNL     1     -15.050  -5.751   8.723  1.00  0.00     0.124 S 
ATOM     77  O   UNL     1     -14.354  -6.802   9.459  1.00  0.00    -0.237 OA
ATOM     78  O   UNL     1     -14.957  -4.410   9.293  1.00  0.00    -0.237 OA
ATOM     79  O   UNL     1     -16.362  -6.117   8.199  1.00  0.00    -0.744 OA
ENDBRANCH  75  76
ENDBRANCH  54  68
BRANCH  55  80
ATOM     80  C   UNL     1      -6.619  -4.873  -3.172  1.00  0.00     0.058 A 
ATOM     81  C   UNL     1      -5.939  -3.703  -3.542  1.00  0.00     0.135 A 
ATOM     82  C   UNL     1      -6.494  -5.992  -4.011  1.00  0.00     0.135 A 
ATOM     83  F   UNL     1      -6.036  -2.602  -2.782  1.00  0.00    -0.206 F 
ATOM     84  C   UNL     1      -5.175  -3.640  -4.704  1.00  0.00     0.059 A 
ATOM     85  C   UNL     1      -5.712  -5.963  -5.162  1.00  0.00     0.059 A 
ATOM     86  F   UNL     1      -7.120  -7.138  -3.701  1.00  0.00    -0.206 F 
ATOM     87  C   UNL     1      -5.063  -4.778  -5.504  1.00  0.00     0.060 A 
BRANCH  87  88
ATOM     88  S   UNL     1      -4.023  -4.697  -6.978  1.00  0.00     0.124 S 
ATOM     89  O   UNL     1      -4.816  -3.840  -7.852  1.00  0.00    -0.237 OA
ATOM     90  O   UNL     1      -2.795  -4.109  -6.450  1.00  0.00    -0.237 OA
ATOM     91  O   UNL     1      -3.915  -6.093  -7.391  1.00  0.00    -0.744 OA
ENDBRANCH  87  88
ENDBRANCH  55  80
BRANCH  67  92
ATOM     92  C   UNL     1     -12.580  -1.767  -1.272  1.00  0.00     0.058 A 
ATOM     93  C   UNL     1     -13.378  -2.129  -2.369  1.00  0.00     0.135 A 
ATOM     94  C   UNL     1     -12.693  -0.452  -0.789  1.00  0.00     0.135 A 
ATOM     95  F   UNL     1     -13.306  -3.370  -2.877  1.00  0.00    -0.206 F 
ATOM     96  C   UNL     1     -14.237  -1.218  -2.977  1.00  0.00     0.059 A 
ATOM     97  C   UNL     1     -13.569   0.466  -1.361  1.00  0.00     0.059 A 
ATOM     98  F   UNL     1     -11.962  -0.053   0.264  1.00  0.00    -0.206 F 
ATOM     99  C   UNL     1     -14.330   0.076  -2.462  1.00  0.00     0.060 A 
BRANCH  99 100
ATOM    100  S   UNL     1     -15.478   1.234  -3.237  1.00  0.00     0.124 S 
ATOM    101  O   UNL     1     -14.809   1.509  -4.505  1.00  0.00    -0.237 OA
ATOM    102  O   UNL     1     -16.703   0.446  -3.325  1.00  0.00    -0.237 OA
ATOM    103  O   UNL     1     -15.523   2.351  -2.298  1.00  0.00    -0.744 OA
ENDBRANCH  99 100
ENDBRANCH  67  92
ENDBRANCH  41  42
ENDBRANCH  34  36
ENDBRANCH  33  34
ENDBRANCH  32  33
ENDBRANCH  31  32
ENDBRANCH  30  31
ENDBRANCH  29  30
ENDBRANCH  28  29
ENDBRANCH  27  28
ENDBRANCH   1  27
TORSDOF 23
