REMARK SMILES O=C(OCCOCCOCCOC(=O)[C@H]1[C@H]2CC[C@H](CC2)[C@@H]1C(=O)Nc1ccc(Cc2ccncc2)cc1)c1ccc(-c2c3nc(c(-c4c(F)cc(S(=O)(=O)[O-])cc4F)c4ccc([nH]4)c(-c4c(F)cc(S(=O)(=O)[O-])cc4F)c4nc(c(-c5c(F)cc(S(=O)(=O)[O-])cc5F)c5ccc2[nH]5)C=C4)C=C3)cc1
REMARK SMILES IDX 8 1 7 2 6 3 5 4 4 5 3 6 2 7 1 8 39 9 40 10 104 11 41 12
REMARK SMILES IDX 103 13 42 14 43 15 44 16 97 17 45 18 102 19 96 20 98 21
REMARK SMILES IDX 46 22 101 23 95 24 94 25 47 27 81 28 60 29 80 30 61 31 64 32
REMARK SMILES IDX 79 33 99 34 62 35 63 36 78 38 100 39 65 40 48 41 49 42 58 43
REMARK SMILES IDX 50 44 51 45 57 46 59 47 52 48 53 49 54 50 55 51 56 52 82 53
REMARK SMILES IDX 83 54 92 55 84 56 85 57 91 58 93 59 86 60 87 61 88 62 89 63
REMARK SMILES IDX 90 64 66 65 67 66 76 67 68 68 69 69 75 70 77 71 70 72 71 73
REMARK SMILES IDX 72 74 73 75 74 76 9 77 10 78 11 79 12 80 13 81 14 82 15 83
REMARK SMILES IDX 16 84 22 85 21 86 17 87 19 88 20 89 18 90 23 91 24 92 25 93
REMARK SMILES IDX 26 95 27 96 38 97 28 98 37 99 29 100 30 101 31 102 32 103
REMARK SMILES IDX 36 104 33 105 35 106 34 107
REMARK H PARENT 98 26 64 37 25 94
REMARK Flexibility Score: inf
ROOT
ATOM      1  C   UNL     1       1.915   1.021  -3.299  1.00  0.00     0.188 C 
ENDROOT
BRANCH   1   2
ATOM      2  C   UNL     1       2.541  -0.007  -2.356  1.00  0.00     0.188 C 
BRANCH   2   3
ATOM      3  O   UNL     1       3.856   0.390  -1.963  1.00  0.00    -0.376 OA
BRANCH   3   4
ATOM      4  C   UNL     1       4.786  -0.663  -1.713  1.00  0.00     0.202 C 
BRANCH   4   5
ATOM      5  C   UNL     1       4.497  -1.585  -0.521  1.00  0.00     0.261 C 
BRANCH   5   6
ATOM      6  O   UNL     1       3.148  -1.506  -0.043  1.00  0.00    -0.460 OA
BRANCH   6   7
ATOM      7  C   UNL     1       2.720  -0.637   0.904  1.00  0.00     0.338 C 
ATOM      8  O   UNL     1       1.542  -0.614   1.252  1.00  0.00    -0.246 OA
BRANCH   7   9
ATOM      9  C   UNL     1       3.683   0.252   1.584  1.00  0.00     0.060 A 
ATOM     10  C   UNL     1       4.458   1.206   0.924  1.00  0.00     0.016 A 
ATOM     11  C   UNL     1       3.688   0.228   2.970  1.00  0.00     0.016 A 
ATOM     12  C   UNL     1       5.318   2.049   1.625  1.00  0.00     0.010 A 
ATOM     13  C   UNL     1       4.396   1.211   3.662  1.00  0.00     0.010 A 
ATOM     14  C   UNL     1       5.252   2.127   3.012  1.00  0.00    -0.014 A 
BRANCH  14  15
ATOM     15  C   UNL     1       6.058   3.116   3.804  1.00  0.00     0.031 A 
ATOM     16  C   UNL     1       6.632   2.670   5.124  1.00  0.00     0.074 A 
ATOM     17  C   UNL     1       6.243   4.403   3.431  1.00  0.00     0.049 A 
ATOM     18  N   UNL     1       6.981   3.387   6.157  1.00  0.00    -0.248 NA
ATOM     19  C   UNL     1       6.687   1.218   5.358  1.00  0.00     0.031 C 
ATOM     20  C   UNL     1       5.751   5.032   2.205  1.00  0.00     0.029 A 
ATOM     21  N   UNL     1       6.923   5.427   4.054  1.00  0.00    -0.354 N 
ATOM     22  C   UNL     1       7.162   2.468   7.182  1.00  0.00     0.074 A 
ATOM     23  C   UNL     1       6.730   1.184   6.679  1.00  0.00     0.031 C 
ATOM     24  C   UNL     1       6.224   6.284   2.124  1.00  0.00     0.029 A 
ATOM     25  C   UNL     1       6.933   6.606   3.342  1.00  0.00     0.049 A 
ATOM     26  H   UNL     1       7.362   5.325   4.929  1.00  0.00     0.167 HD
ATOM     27  C   UNL     1       7.736   2.643   8.394  1.00  0.00     0.037 A 
ATOM     28  C   UNL     1       7.431   7.824   3.628  1.00  0.00     0.037 A 
ATOM     29  C   UNL     1       8.402   3.857   8.769  1.00  0.00     0.049 A 
ATOM     30  C   UNL     1       8.157   7.989   4.928  1.00  0.00     0.074 A 
ATOM     31  C   UNL     1       9.167   4.111   9.891  1.00  0.00     0.029 A 
ATOM     32  N   UNL     1       8.453   4.998   7.978  1.00  0.00    -0.354 N 
ATOM     33  N   UNL     1       8.300   7.115   5.896  1.00  0.00    -0.248 NA
ATOM     34  C   UNL     1       8.817   9.277   5.166  1.00  0.00     0.031 C 
ATOM     35  C   UNL     1       9.700   5.400   9.767  1.00  0.00     0.029 A 
ATOM     36  C   UNL     1       9.273   5.942   8.564  1.00  0.00     0.049 A 
ATOM     37  H   UNL     1       7.975   5.115   7.125  1.00  0.00     0.167 HD
ATOM     38  C   UNL     1       9.125   7.723   6.830  1.00  0.00     0.074 A 
ATOM     39  C   UNL     1       9.433   9.044   6.317  1.00  0.00     0.031 C 
ATOM     40  C   UNL     1       9.600   7.226   7.997  1.00  0.00     0.037 A 
BRANCH  27  41
ATOM     41  C   UNL     1       7.745   1.460   9.324  1.00  0.00     0.058 A 
ATOM     42  C   UNL     1       8.453   0.284   9.019  1.00  0.00     0.135 A 
ATOM     43  C   UNL     1       6.973   1.469  10.496  1.00  0.00     0.135 A 
ATOM     44  F   UNL     1       9.198   0.212   7.903  1.00  0.00    -0.206 F 
ATOM     45  C   UNL     1       8.320  -0.867   9.785  1.00  0.00     0.059 A 
ATOM     46  C   UNL     1       6.864   0.341  11.306  1.00  0.00     0.059 A 
ATOM     47  F   UNL     1       6.288   2.569  10.847  1.00  0.00    -0.206 F 
ATOM     48  C   UNL     1       7.512  -0.832  10.921  1.00  0.00     0.060 A 
BRANCH  48  49
ATOM     49  S   UNL     1       7.319  -2.349  11.878  1.00  0.00     0.124 S 
ATOM     50  O   UNL     1       6.350  -3.082  11.065  1.00  0.00    -0.237 OA
ATOM     51  O   UNL     1       8.668  -2.889  11.892  1.00  0.00    -0.237 OA
ATOM     52  O   UNL     1       6.821  -1.870  13.168  1.00  0.00    -0.744 OA
ENDBRANCH  48  49
ENDBRANCH  27  41
BRANCH  28  53
ATOM     53  C   UNL     1       7.312   8.953   2.659  1.00  0.00     0.058 A 
ATOM     54  C   UNL     1       8.433   9.408   1.946  1.00  0.00     0.135 A 
ATOM     55  C   UNL     1       6.087   9.595   2.414  1.00  0.00     0.135 A 
ATOM     56  F   UNL     1       9.626   8.823   2.134  1.00  0.00    -0.206 F 
ATOM     57  C   UNL     1       8.355  10.477   1.058  1.00  0.00     0.059 A 
ATOM     58  C   UNL     1       5.978  10.653   1.512  1.00  0.00     0.059 A 
ATOM     59  F   UNL     1       4.975   9.181   3.040  1.00  0.00    -0.206 F 
ATOM     60  C   UNL     1       7.123  11.097   0.850  1.00  0.00     0.060 A 
BRANCH  60  61
ATOM     61  S   UNL     1       7.040  12.477  -0.315  1.00  0.00     0.124 S 
ATOM     62  O   UNL     1       7.779  13.510   0.401  1.00  0.00    -0.237 OA
ATOM     63  O   UNL     1       7.699  11.919  -1.492  1.00  0.00    -0.237 OA
ATOM     64  O   UNL     1       5.606  12.710  -0.458  1.00  0.00    -0.744 OA
ENDBRANCH  60  61
ENDBRANCH  28  53
BRANCH  40  65
ATOM     65  C   UNL     1      10.586   8.073   8.737  1.00  0.00     0.058 A 
ATOM     66  C   UNL     1      10.190   9.199   9.469  1.00  0.00     0.135 A 
ATOM     67  C   UNL     1      11.944   7.715   8.744  1.00  0.00     0.135 A 
ATOM     68  F   UNL     1       8.904   9.584   9.474  1.00  0.00    -0.206 F 
ATOM     69  C   UNL     1      11.113   9.957  10.176  1.00  0.00     0.059 A 
ATOM     70  C   UNL     1      12.879   8.442   9.466  1.00  0.00     0.059 A 
ATOM     71  F   UNL     1      12.364   6.640   8.057  1.00  0.00    -0.206 F 
ATOM     72  C   UNL     1      12.455   9.567  10.172  1.00  0.00     0.060 A 
BRANCH  72  73
ATOM     73  S   UNL     1      13.637  10.527  11.137  1.00  0.00     0.124 S 
ATOM     74  O   UNL     1      13.826  11.697  10.287  1.00  0.00    -0.237 OA
ATOM     75  O   UNL     1      12.910  10.757  12.382  1.00  0.00    -0.237 OA
ATOM     76  O   UNL     1      14.787   9.635  11.246  1.00  0.00    -0.744 OA
ENDBRANCH  72  73
ENDBRANCH  40  65
ENDBRANCH  14  15
ENDBRANCH   7   9
ENDBRANCH   6   7
ENDBRANCH   5   6
ENDBRANCH   4   5
ENDBRANCH   3   4
ENDBRANCH   2   3
ENDBRANCH   1   2
BRANCH   1  77
ATOM     77  O   UNL     1       2.480   1.106  -4.607  1.00  0.00    -0.376 OA
BRANCH  77  78
ATOM     78  C   UNL     1       3.896   1.198  -4.699  1.00  0.00     0.202 C 
BRANCH  78  79
ATOM     79  C   UNL     1       4.584   2.494  -4.236  1.00  0.00     0.261 C 
BRANCH  79  80
ATOM     80  O   UNL     1       4.052   3.126  -3.059  1.00  0.00    -0.463 OA
BRANCH  80  81
ATOM     81  C   UNL     1       3.140   4.107  -3.323  1.00  0.00     0.310 C 
ATOM     82  O   UNL     1       2.705   4.335  -4.447  1.00  0.00    -0.252 OA
BRANCH  81  83
ATOM     83  C   UNL     1       2.724   4.871  -2.052  1.00  0.00     0.115 C 
ATOM     84  C   UNL     1       3.969   5.483  -1.346  1.00  0.00     0.004 C 
ATOM     85  C   UNL     1       1.745   6.017  -2.442  1.00  0.00     0.096 C 
ATOM     86  C   UNL     1       4.783   6.310  -2.352  1.00  0.00     0.005 C 
ATOM     87  C   UNL     1       3.543   6.477  -0.246  1.00  0.00     0.005 C 
ATOM     88  C   UNL     1       2.474   7.383  -2.302  1.00  0.00     0.002 C 
ATOM     89  C   UNL     1       3.849   7.330  -3.022  1.00  0.00     0.005 C 
ATOM     90  C   UNL     1       2.744   7.647  -0.823  1.00  0.00     0.005 C 
BRANCH  85  91
ATOM     91  C   UNL     1       0.302   6.034  -1.868  1.00  0.00     0.228 C 
ATOM     92  O   UNL     1      -0.485   6.925  -2.204  1.00  0.00    -0.274 OA
ATOM     93  N   UNL     1      -0.199   4.913  -1.256  1.00  0.00    -0.326 N 
ATOM     94  H   UNL     1      -0.781   4.334  -1.800  1.00  0.00     0.169 HD
BRANCH  93  95
ATOM     95  C   UNL     1       0.035   4.506   0.074  1.00  0.00     0.041 A 
ATOM     96  C   UNL     1      -0.311   3.206   0.444  1.00  0.00     0.026 A 
ATOM     97  C   UNL     1       0.599   5.347   1.028  1.00  0.00     0.026 A 
ATOM     98  C   UNL     1       0.097   2.700   1.683  1.00  0.00     0.006 A 
ATOM     99  C   UNL     1       1.008   4.851   2.269  1.00  0.00     0.006 A 
ATOM    100  C   UNL     1       0.831   3.500   2.572  1.00  0.00    -0.043 A 
BRANCH 100 101
ATOM    101  C   UNL     1       1.673   2.869   3.647  1.00  0.00     0.071 C 
BRANCH 101 102
ATOM    102  C   UNL     1       1.192   2.624   5.047  1.00  0.00    -0.041 A 
ATOM    103  C   UNL     1       0.134   1.753   5.311  1.00  0.00     0.024 A 
ATOM    104  C   UNL     1       1.972   3.062   6.128  1.00  0.00     0.024 A 
ATOM    105  C   UNL     1      -0.089   1.358   6.622  1.00  0.00     0.111 A 
ATOM    106  C   UNL     1       1.671   2.610   7.403  1.00  0.00     0.111 A 
ATOM    107  N   UNL     1       0.653   1.767   7.673  1.00  0.00    -0.265 NA
ENDBRANCH 101 102
ENDBRANCH 100 101
ENDBRANCH  93  95
ENDBRANCH  85  91
ENDBRANCH  81  83
ENDBRANCH  80  81
ENDBRANCH  79  80
ENDBRANCH  78  79
ENDBRANCH  77  78
ENDBRANCH   1  77
TORSDOF 24
