REMARK SMILES COC(=O)[C@@H](CC(=O)OCCOCCOCCOC(=O)c1ccc(-c2c3nc(c(-c4c(F)cc(S(=O)(=O)[O-])cc4F)c4ccc([nH]4)c(-c4c(F)cc(S(=O)(=O)[O-])cc4F)c4nc(c(-c5c(F)cc(S(=O)(=O)[O-])cc5F)c5ccc2[nH]5)C=C4)C=C3)cc1)C1CCCCC1
REMARK SMILES IDX 13 1 12 2 11 3 10 4 9 5 7 6 8 7 6 8 5 9 3 10 4 11 2 12 1 13
REMARK SMILES IDX 87 14 88 15 92 16 89 17 91 18 90 19 14 20 15 21 16 22 17 23
REMARK SMILES IDX 18 24 19 25 20 26 21 27 22 28 86 29 23 30 85 31 24 32 25 33
REMARK SMILES IDX 26 34 79 35 27 36 84 37 78 38 80 39 28 40 83 41 77 42 76 43
REMARK SMILES IDX 29 45 63 46 42 47 62 48 43 49 46 50 61 51 81 52 44 53 45 54
REMARK SMILES IDX 60 56 82 57 47 58 30 59 31 60 40 61 32 62 33 63 39 64 41 65
REMARK SMILES IDX 34 66 35 67 36 68 37 69 38 70 64 71 65 72 74 73 66 74 67 75
REMARK SMILES IDX 73 76 75 77 68 78 69 79 70 80 71 81 72 82 48 83 49 84 58 85
REMARK SMILES IDX 50 86 51 87 57 88 59 89 52 90 53 91 54 92 55 93 56 94
REMARK H PARENT 80 44 46 55
REMARK Flexibility Score: inf
ROOT
ATOM      1  C   UNL     1      -1.512  -1.716  -4.211  1.00  0.00     0.188 C 
ENDROOT
BRANCH   1   2
ATOM      2  O   UNL     1      -0.835  -2.973  -4.194  1.00  0.00    -0.376 OA
BRANCH   2   3
ATOM      3  C   UNL     1       0.177  -3.169  -3.210  1.00  0.00     0.202 C 
BRANCH   3   4
ATOM      4  C   UNL     1       1.403  -2.267  -3.372  1.00  0.00     0.261 C 
BRANCH   4   5
ATOM      5  O   UNL     1       1.025  -0.894  -3.157  1.00  0.00    -0.463 OA
BRANCH   5   6
ATOM      6  C   UNL     1       1.812   0.059  -3.703  1.00  0.00     0.306 C 
ATOM      7  O   UNL     1       2.899  -0.153  -4.223  1.00  0.00    -0.252 OA
BRANCH   6   8
ATOM      8  C   UNL     1       1.107   1.405  -3.738  1.00  0.00     0.138 C 
BRANCH   8   9
ATOM      9  C   UNL     1       0.818   2.206  -2.446  1.00  0.00     0.113 C 
BRANCH   9  10
ATOM     10  C   UNL     1       1.612   1.808  -1.216  1.00  0.00     0.309 C 
ATOM     11  O   UNL     1       2.246   2.610  -0.541  1.00  0.00    -0.252 OA
BRANCH  10  12
ATOM     12  O   UNL     1       1.403   0.513  -0.876  1.00  0.00    -0.469 OA
ATOM     13  C   UNL     1       1.796   0.179   0.455  1.00  0.00     0.282 C 
ENDBRANCH  10  12
ENDBRANCH   9  10
BRANCH   9  14
ATOM     14  C   UNL     1      -0.716   2.418  -2.147  1.00  0.00     0.004 C 
ATOM     15  C   UNL     1      -1.185   1.972  -0.745  1.00  0.00     0.004 C 
ATOM     16  C   UNL     1      -1.113   3.903  -2.333  1.00  0.00     0.004 C 
ATOM     17  C   UNL     1      -2.677   2.206  -0.533  1.00  0.00     0.000 C 
ATOM     18  C   UNL     1      -2.610   4.146  -2.119  1.00  0.00     0.000 C 
ATOM     19  C   UNL     1      -3.085   3.650  -0.759  1.00  0.00     0.000 C 
ENDBRANCH   9  14
ENDBRANCH   8   9
ENDBRANCH   6   8
ENDBRANCH   5   6
ENDBRANCH   4   5
ENDBRANCH   3   4
ENDBRANCH   2   3
ENDBRANCH   1   2
BRANCH   1  20
ATOM     20  C   UNL     1      -1.859  -1.085  -2.858  1.00  0.00     0.188 C 
BRANCH  20  21
ATOM     21  O   UNL     1      -2.375  -2.055  -1.952  1.00  0.00    -0.376 OA
BRANCH  21  22
ATOM     22  C   UNL     1      -3.336  -1.519  -1.051  1.00  0.00     0.202 C 
BRANCH  22  23
ATOM     23  C   UNL     1      -4.734  -1.689  -1.641  1.00  0.00     0.261 C 
BRANCH  23  24
ATOM     24  O   UNL     1      -4.854  -1.110  -2.954  1.00  0.00    -0.460 OA
BRANCH  24  25
ATOM     25  C   UNL     1      -5.149   0.207  -3.006  1.00  0.00     0.338 C 
ATOM     26  O   UNL     1      -5.350   0.957  -2.072  1.00  0.00    -0.246 OA
BRANCH  25  27
ATOM     27  C   UNL     1      -5.135   0.621  -4.419  1.00  0.00     0.060 A 
ATOM     28  C   UNL     1      -4.090   1.405  -4.926  1.00  0.00     0.016 A 
ATOM     29  C   UNL     1      -6.211   0.260  -5.226  1.00  0.00     0.016 A 
ATOM     30  C   UNL     1      -4.137   1.855  -6.249  1.00  0.00     0.010 A 
ATOM     31  C   UNL     1      -6.255   0.707  -6.543  1.00  0.00     0.010 A 
ATOM     32  C   UNL     1      -5.232   1.523  -7.057  1.00  0.00    -0.014 A 
BRANCH  32  33
ATOM     33  C   UNL     1      -5.395   2.058  -8.430  1.00  0.00     0.031 A 
ATOM     34  C   UNL     1      -6.446   3.103  -8.677  1.00  0.00     0.074 A 
ATOM     35  C   UNL     1      -4.694   1.527  -9.447  1.00  0.00     0.049 A 
ATOM     36  N   UNL     1      -6.973   3.502  -9.803  1.00  0.00    -0.248 NA
ATOM     37  C   UNL     1      -6.988   3.774  -7.484  1.00  0.00     0.031 C 
ATOM     38  C   UNL     1      -3.623   0.541  -9.310  1.00  0.00     0.029 A 
ATOM     39  N   UNL     1      -4.810   1.712 -10.801  1.00  0.00    -0.354 N 
ATOM     40  C   UNL     1      -7.934   4.445  -9.457  1.00  0.00     0.074 A 
ATOM     41  C   UNL     1      -7.920   4.553  -8.013  1.00  0.00     0.031 C 
ATOM     42  C   UNL     1      -3.197   0.185 -10.533  1.00  0.00     0.029 A 
ATOM     43  C   UNL     1      -4.008   0.870 -11.536  1.00  0.00     0.049 A 
ATOM     44  H   UNL     1      -5.408   2.381 -11.207  1.00  0.00     0.167 HD
ATOM     45  C   UNL     1      -8.757   5.146 -10.275  1.00  0.00     0.037 A 
ATOM     46  C   UNL     1      -3.973   0.641 -12.863  1.00  0.00     0.037 A 
ATOM     47  C   UNL     1      -8.750   5.011 -11.709  1.00  0.00     0.049 A 
ATOM     48  C   UNL     1      -4.937   1.381 -13.751  1.00  0.00     0.074 A 
ATOM     49  C   UNL     1      -9.533   5.665 -12.644  1.00  0.00     0.029 A 
ATOM     50  N   UNL     1      -7.913   4.158 -12.416  1.00  0.00    -0.354 N 
ATOM     51  N   UNL     1      -5.860   2.254 -13.417  1.00  0.00    -0.248 NA
ATOM     52  C   UNL     1      -4.867   1.099 -15.191  1.00  0.00     0.031 C 
ATOM     53  C   UNL     1      -9.196   5.178 -13.912  1.00  0.00     0.029 A 
ATOM     54  C   UNL     1      -8.169   4.255 -13.773  1.00  0.00     0.049 A 
ATOM     55  H   UNL     1      -7.235   3.569 -12.012  1.00  0.00     0.167 HD
ATOM     56  C   UNL     1      -6.466   2.641 -14.606  1.00  0.00     0.074 A 
ATOM     57  C   UNL     1      -5.799   1.913 -15.668  1.00  0.00     0.031 C 
ATOM     58  C   UNL     1      -7.482   3.519 -14.806  1.00  0.00     0.037 A 
BRANCH  45  59
ATOM     59  C   UNL     1      -9.747   6.082  -9.635  1.00  0.00     0.058 A 
ATOM     60  C   UNL     1      -9.345   7.273  -9.010  1.00  0.00     0.135 A 
ATOM     61  C   UNL     1     -11.121   5.788  -9.651  1.00  0.00     0.135 A 
ATOM     62  F   UNL     1      -8.044   7.599  -8.949  1.00  0.00    -0.206 F 
ATOM     63  C   UNL     1     -10.263   8.120  -8.394  1.00  0.00     0.059 A 
ATOM     64  C   UNL     1     -12.060   6.633  -9.064  1.00  0.00     0.059 A 
ATOM     65  F   UNL     1     -11.565   4.663 -10.234  1.00  0.00    -0.206 F 
ATOM     66  C   UNL     1     -11.619   7.788  -8.421  1.00  0.00     0.060 A 
BRANCH  66  67
ATOM     67  S   UNL     1     -12.795   8.884  -7.598  1.00  0.00     0.124 S 
ATOM     68  O   UNL     1     -12.528   8.594  -6.192  1.00  0.00    -0.237 OA
ATOM     69  O   UNL     1     -12.373  10.202  -8.062  1.00  0.00    -0.237 OA
ATOM     70  O   UNL     1     -14.089   8.431  -8.097  1.00  0.00    -0.744 OA
ENDBRANCH  66  67
ENDBRANCH  45  59
BRANCH  46  71
ATOM     71  C   UNL     1      -3.007  -0.344 -13.420  1.00  0.00     0.058 A 
ATOM     72  C   UNL     1      -1.905   0.081 -14.174  1.00  0.00     0.135 A 
ATOM     73  C   UNL     1      -3.140  -1.721 -13.178  1.00  0.00     0.135 A 
ATOM     74  F   UNL     1      -1.740   1.386 -14.443  1.00  0.00    -0.206 F 
ATOM     75  C   UNL     1      -0.966  -0.820 -14.668  1.00  0.00     0.059 A 
ATOM     76  C   UNL     1      -2.201  -2.640 -13.639  1.00  0.00     0.059 A 
ATOM     77  F   UNL     1      -4.172  -2.180 -12.453  1.00  0.00    -0.206 F 
ATOM     78  C   UNL     1      -1.119  -2.179 -14.388  1.00  0.00     0.060 A 
BRANCH  78  79
ATOM     79  S   UNL     1       0.145  -3.330 -14.972  1.00  0.00     0.124 S 
ATOM     80  O   UNL     1      -0.137  -3.376 -16.402  1.00  0.00    -0.237 OA
ATOM     81  O   UNL     1       1.379  -2.651 -14.586  1.00  0.00    -0.237 OA
ATOM     82  O   UNL     1      -0.147  -4.553 -14.230  1.00  0.00    -0.744 OA
ENDBRANCH  78  79
ENDBRANCH  46  71
BRANCH  58  83
ATOM     83  C   UNL     1      -7.905   3.764 -16.226  1.00  0.00     0.058 A 
ATOM     84  C   UNL     1      -8.669   2.829 -16.939  1.00  0.00     0.135 A 
ATOM     85  C   UNL     1      -7.588   4.977 -16.859  1.00  0.00     0.135 A 
ATOM     86  F   UNL     1      -8.990   1.651 -16.380  1.00  0.00    -0.206 F 
ATOM     87  C   UNL     1      -9.093   3.080 -18.239  1.00  0.00     0.059 A 
ATOM     88  C   UNL     1      -8.021   5.260 -18.150  1.00  0.00     0.059 A 
ATOM     89  F   UNL     1      -6.866   5.907 -16.215  1.00  0.00    -0.206 F 
ATOM     90  C   UNL     1      -8.766   4.301 -18.835  1.00  0.00     0.060 A 
BRANCH  90  91
ATOM     91  S   UNL     1      -9.359   4.634 -20.507  1.00  0.00     0.124 S 
ATOM     92  O   UNL     1      -8.471   3.796 -21.306  1.00  0.00    -0.237 OA
ATOM     93  O   UNL     1     -10.751   4.198 -20.439  1.00  0.00    -0.237 OA
ATOM     94  O   UNL     1      -9.167   6.074 -20.655  1.00  0.00    -0.744 OA
ENDBRANCH  90  91
ENDBRANCH  58  83
ENDBRANCH  32  33
ENDBRANCH  25  27
ENDBRANCH  24  25
ENDBRANCH  23  24
ENDBRANCH  22  23
ENDBRANCH  21  22
ENDBRANCH  20  21
ENDBRANCH   1  20
TORSDOF 24
