REMARK SMILES C[C@H]1[C@@H](C(=O)OCCOCCOCCOC(=O)c2ccc(-c3c4nc(c(-c5c(F)cc(S(=O)(=O)[O-])cc5F)c5ccc([nH]5)c(-c5c(F)cc(S(=O)(=O)[O-])cc5F)c5nc(c(-c6c(F)cc(S(=O)(=O)[O-])cc6F)c6ccc3[nH]6)C=C5)C=C4)cc2)CCN1C(=O)c1cc2cc(F)ccc2s1
REMARK SMILES IDX 11 1 10 2 9 3 8 4 7 5 6 6 4 7 5 8 3 9 1 10 2 11 86 12 84 13
REMARK SMILES IDX 85 14 87 15 88 16 89 17 90 18 98 19 91 20 97 21 92 22 96 23
REMARK SMILES IDX 93 24 95 25 94 26 12 27 13 28 14 29 15 30 16 31 17 32 18 33
REMARK SMILES IDX 19 34 83 35 20 36 82 37 21 38 22 39 23 40 76 41 24 42 81 43
REMARK SMILES IDX 75 44 77 45 25 46 80 47 74 48 73 49 26 51 60 52 39 53 59 54
REMARK SMILES IDX 40 55 43 56 58 57 78 58 41 59 42 60 57 62 79 63 44 64 27 65
REMARK SMILES IDX 28 66 37 67 29 68 30 69 36 70 38 71 31 72 32 73 33 74 34 75
REMARK SMILES IDX 35 76 61 77 62 78 71 79 63 80 64 81 70 82 72 83 65 84 66 85
REMARK SMILES IDX 67 86 68 87 69 88 45 89 46 90 55 91 47 92 48 93 54 94 56 95
REMARK SMILES IDX 49 96 50 97 51 98 52 99 53 100
REMARK H PARENT 77 50 43 61
REMARK Flexibility Score: inf
ROOT
ATOM      1  C   UNL     1       0.174   0.224  -2.874  1.00  0.00     0.188 C 
ENDROOT
BRANCH   1   2
ATOM      2  C   UNL     1      -0.387   1.596  -3.291  1.00  0.00     0.188 C 
BRANCH   2   3
ATOM      3  O   UNL     1       0.396   2.460  -4.091  1.00  0.00    -0.376 OA
BRANCH   3   4
ATOM      4  C   UNL     1       1.712   2.787  -3.673  1.00  0.00     0.202 C 
BRANCH   4   5
ATOM      5  C   UNL     1       1.957   3.207  -2.222  1.00  0.00     0.261 C 
BRANCH   5   6
ATOM      6  O   UNL     1       1.617   2.185  -1.262  1.00  0.00    -0.463 OA
BRANCH   6   7
ATOM      7  C   UNL     1       0.927   2.603  -0.176  1.00  0.00     0.311 C 
ATOM      8  O   UNL     1       0.598   3.772   0.012  1.00  0.00    -0.252 OA
BRANCH   7   9
ATOM      9  C   UNL     1       0.480   1.517   0.788  1.00  0.00     0.123 C 
ATOM     10  C   UNL     1       2.426  -0.137   0.164  1.00  0.00     0.032 C 
ATOM     11  C   UNL     1       1.149   0.132   0.946  1.00  0.00     0.096 C 
ATOM     12  N   UNL     1       0.069  -0.846   0.775  1.00  0.00    -0.334 N 
ATOM     13  C   UNL     1      -1.022   1.264   0.602  1.00  0.00     0.039 C 
ATOM     14  C   UNL     1      -1.210  -0.228   0.513  1.00  0.00     0.121 C 
BRANCH  12  15
ATOM     15  C   UNL     1       0.028  -2.170   1.188  1.00  0.00     0.264 C 
ATOM     16  O   UNL     1      -1.035  -2.661   1.575  1.00  0.00    -0.268 OA
BRANCH  15  17
ATOM     17  C   UNL     1       1.198  -3.019   1.070  1.00  0.00     0.093 A 
ATOM     18  C   UNL     1       1.679  -3.866   2.059  1.00  0.00     0.034 A 
ATOM     19  S   UNL     1       1.373  -3.854  -0.437  1.00  0.00    -0.130 S 
ATOM     20  C   UNL     1       1.203  -5.199   1.740  1.00  0.00    -0.004 A 
ATOM     21  C   UNL     1       0.889  -5.308   0.378  1.00  0.00     0.035 A 
ATOM     22  C   UNL     1       0.898  -6.291   2.584  1.00  0.00     0.048 A 
ATOM     23  C   UNL     1       0.248  -6.437  -0.159  1.00  0.00     0.022 A 
ATOM     24  C   UNL     1       0.200  -7.379   2.063  1.00  0.00     0.123 A 
ATOM     25  C   UNL     1      -0.136  -7.452   0.720  1.00  0.00     0.041 A 
ATOM     26  F   UNL     1      -0.190  -8.358   2.891  1.00  0.00    -0.207 F 
ENDBRANCH  15  17
ENDBRANCH  12  15
ENDBRANCH   7   9
ENDBRANCH   6   7
ENDBRANCH   5   6
ENDBRANCH   4   5
ENDBRANCH   3   4
ENDBRANCH   2   3
ENDBRANCH   1   2
BRANCH   1  27
ATOM     27  O   UNL     1       1.366  -0.293  -3.426  1.00  0.00    -0.376 OA
BRANCH  27  28
ATOM     28  C   UNL     1       1.490  -0.456  -4.827  1.00  0.00     0.202 C 
BRANCH  28  29
ATOM     29  C   UNL     1       0.370  -1.070  -5.674  1.00  0.00     0.261 C 
BRANCH  29  30
ATOM     30  O   UNL     1      -0.951  -0.597  -5.395  1.00  0.00    -0.460 OA
BRANCH  30  31
ATOM     31  C   UNL     1      -1.764  -1.499  -4.782  1.00  0.00     0.338 C 
ATOM     32  O   UNL     1      -1.481  -2.620  -4.415  1.00  0.00    -0.246 OA
BRANCH  31  33
ATOM     33  C   UNL     1      -3.039  -0.831  -4.464  1.00  0.00     0.060 A 
ATOM     34  C   UNL     1      -3.405  -0.660  -3.121  1.00  0.00     0.016 A 
ATOM     35  C   UNL     1      -3.879  -0.413  -5.492  1.00  0.00     0.016 A 
ATOM     36  C   UNL     1      -4.624  -0.064  -2.799  1.00  0.00     0.010 A 
ATOM     37  C   UNL     1      -5.111   0.153  -5.170  1.00  0.00     0.010 A 
ATOM     38  C   UNL     1      -5.497   0.312  -3.825  1.00  0.00    -0.014 A 
BRANCH  38  39
ATOM     39  C   UNL     1      -6.896   0.699  -3.535  1.00  0.00     0.031 A 
ATOM     40  C   UNL     1      -7.964  -0.339  -3.728  1.00  0.00     0.074 A 
ATOM     41  C   UNL     1      -7.215   1.955  -3.178  1.00  0.00     0.049 A 
ATOM     42  N   UNL     1      -9.259  -0.195  -3.787  1.00  0.00    -0.248 NA
ATOM     43  C   UNL     1      -7.500  -1.727  -3.891  1.00  0.00     0.031 C 
ATOM     44  C   UNL     1      -6.260   3.023  -2.891  1.00  0.00     0.029 A 
ATOM     45  N   UNL     1      -8.444   2.550  -3.033  1.00  0.00    -0.354 N 
ATOM     46  C   UNL     1      -9.766  -1.466  -4.028  1.00  0.00     0.074 A 
ATOM     47  C   UNL     1      -8.638  -2.367  -4.112  1.00  0.00     0.031 C 
ATOM     48  C   UNL     1      -6.939   4.156  -2.639  1.00  0.00     0.029 A 
ATOM     49  C   UNL     1      -8.370   3.905  -2.806  1.00  0.00     0.049 A 
ATOM     50  H   UNL     1      -9.294   2.057  -3.087  1.00  0.00     0.167 HD
ATOM     51  C   UNL     1     -11.058  -1.841  -4.175  1.00  0.00     0.037 A 
ATOM     52  C   UNL     1      -9.344   4.838  -2.791  1.00  0.00     0.037 A 
ATOM     53  C   UNL     1     -12.166  -0.927  -4.089  1.00  0.00     0.049 A 
ATOM     54  C   UNL     1     -10.771   4.416  -3.043  1.00  0.00     0.074 A 
ATOM     55  C   UNL     1     -13.516  -1.200  -4.218  1.00  0.00     0.029 A 
ATOM     56  N   UNL     1     -12.051   0.436  -3.859  1.00  0.00    -0.354 N 
ATOM     57  N   UNL     1     -11.246   3.216  -3.285  1.00  0.00    -0.248 NA
ATOM     58  C   UNL     1     -11.795   5.471  -3.030  1.00  0.00     0.031 C 
ATOM     59  C   UNL     1     -14.213   0.008  -4.124  1.00  0.00     0.029 A 
ATOM     60  C   UNL     1     -13.304   1.022  -3.864  1.00  0.00     0.049 A 
ATOM     61  H   UNL     1     -11.204   0.916  -3.713  1.00  0.00     0.167 HD
ATOM     62  C   UNL     1     -12.624   3.366  -3.408  1.00  0.00     0.074 A 
ATOM     63  C   UNL     1     -12.908   4.774  -3.223  1.00  0.00     0.031 C 
ATOM     64  C   UNL     1     -13.569   2.423  -3.642  1.00  0.00     0.037 A 
BRANCH  51  65
ATOM     65  C   UNL     1     -11.338  -3.283  -4.488  1.00  0.00     0.058 A 
ATOM     66  C   UNL     1     -11.146  -4.302  -3.542  1.00  0.00     0.135 A 
ATOM     67  C   UNL     1     -11.835  -3.648  -5.751  1.00  0.00     0.135 A 
ATOM     68  F   UNL     1     -10.653  -4.014  -2.327  1.00  0.00    -0.206 F 
ATOM     69  C   UNL     1     -11.414  -5.634  -3.844  1.00  0.00     0.059 A 
ATOM     70  C   UNL     1     -12.140  -4.969  -6.064  1.00  0.00     0.059 A 
ATOM     71  F   UNL     1     -12.032  -2.715  -6.695  1.00  0.00    -0.206 F 
ATOM     72  C   UNL     1     -11.912  -5.957  -5.108  1.00  0.00     0.060 A 
BRANCH  72  73
ATOM     73  S   UNL     1     -12.261  -7.688  -5.481  1.00  0.00     0.124 S 
ATOM     74  O   UNL     1     -10.914  -8.243  -5.571  1.00  0.00    -0.237 OA
ATOM     75  O   UNL     1     -13.042  -8.104  -4.321  1.00  0.00    -0.237 OA
ATOM     76  O   UNL     1     -12.998  -7.624  -6.739  1.00  0.00    -0.744 OA
ENDBRANCH  72  73
ENDBRANCH  51  65
BRANCH  52  77
ATOM     77  C   UNL     1      -9.002   6.269  -2.562  1.00  0.00     0.058 A 
ATOM     78  C   UNL     1      -9.410   6.932  -1.395  1.00  0.00     0.135 A 
ATOM     79  C   UNL     1      -8.264   7.005  -3.504  1.00  0.00     0.135 A 
ATOM     80  F   UNL     1     -10.130   6.279  -0.470  1.00  0.00    -0.206 F 
ATOM     81  C   UNL     1      -9.111   8.273  -1.175  1.00  0.00     0.059 A 
ATOM     82  C   UNL     1      -7.927   8.338  -3.293  1.00  0.00     0.059 A 
ATOM     83  F   UNL     1      -7.843   6.418  -4.636  1.00  0.00    -0.206 F 
ATOM     84  C   UNL     1      -8.364   8.967  -2.128  1.00  0.00     0.060 A 
BRANCH  84  85
ATOM     85  S   UNL     1      -7.944  10.694  -1.808  1.00  0.00     0.124 S 
ATOM     86  O   UNL     1      -9.240  11.345  -1.959  1.00  0.00    -0.237 OA
ATOM     87  O   UNL     1      -7.414  10.632  -0.450  1.00  0.00    -0.237 OA
ATOM     88  O   UNL     1      -6.961  10.999  -2.844  1.00  0.00    -0.744 OA
ENDBRANCH  84  85
ENDBRANCH  52  77
BRANCH  64  89
ATOM     89  C   UNL     1     -15.014   2.846  -3.639  1.00  0.00     0.058 A 
ATOM     90  C   UNL     1     -15.587   3.551  -4.707  1.00  0.00     0.135 A 
ATOM     91  C   UNL     1     -15.862   2.420  -2.602  1.00  0.00     0.135 A 
ATOM     92  F   UNL     1     -14.820   3.987  -5.719  1.00  0.00    -0.206 F 
ATOM     93  C   UNL     1     -16.953   3.815  -4.751  1.00  0.00     0.059 A 
ATOM     94  C   UNL     1     -17.233   2.648  -2.639  1.00  0.00     0.059 A 
ATOM     95  F   UNL     1     -15.364   1.735  -1.561  1.00  0.00    -0.206 F 
ATOM     96  C   UNL     1     -17.770   3.346  -3.719  1.00  0.00     0.060 A 
BRANCH  96  97
ATOM     97  S   UNL     1     -19.552   3.613  -3.837  1.00  0.00     0.124 S 
ATOM     98  O   UNL     1     -19.652   5.049  -3.602  1.00  0.00    -0.237 OA
ATOM     99  O   UNL     1     -19.843   3.171  -5.198  1.00  0.00    -0.237 OA
ATOM    100  O   UNL     1     -20.095   2.765  -2.780  1.00  0.00    -0.744 OA
ENDBRANCH  96  97
ENDBRANCH  64  89
ENDBRANCH  38  39
ENDBRANCH  31  33
ENDBRANCH  30  31
ENDBRANCH  29  30
ENDBRANCH  28  29
ENDBRANCH  27  28
ENDBRANCH   1  27
TORSDOF 22
