REMARK SMILES COc1c(C)cccc1C(=O)NCc1ccc(C(=O)OCCOCCOCCOC(=O)c2ccc(-c3c4nc(c(-c5c(F)cc(S(=O)(=O)[O-])cc5F)c5ccc([nH]5)c(-c5c(F)cc(S(=O)(=O)[O-])cc5F)c5nc(c(-c6c(F)cc(S(=O)(=O)[O-])cc6F)c6ccc3[nH]6)C=C5)C=C4)cc2)cc1
REMARK SMILES IDX 24 1 23 2 22 3 21 4 20 5 18 6 19 7 17 8 14 9 15 10 99 11
REMARK SMILES IDX 16 12 98 13 13 14 12 15 10 16 11 17 9 19 3 20 4 21 5 22 6 23
REMARK SMILES IDX 8 24 7 25 2 26 1 27 25 28 26 29 27 30 28 31 29 32 30 33
REMARK SMILES IDX 31 34 32 35 33 36 97 37 34 38 96 39 35 40 36 41 37 42 90 43
REMARK SMILES IDX 38 44 95 45 89 46 91 47 39 48 94 49 88 50 87 51 40 53 74 54
REMARK SMILES IDX 53 55 73 56 54 57 57 58 72 59 92 60 55 61 56 62 71 64 93 65
REMARK SMILES IDX 58 66 41 67 42 68 51 69 43 70 44 71 50 72 52 73 45 74 46 75
REMARK SMILES IDX 47 76 48 77 49 78 75 79 76 80 85 81 77 82 78 83 84 84 86 85
REMARK SMILES IDX 79 86 80 87 81 88 82 89 83 90 59 91 60 92 69 93 61 94 62 95
REMARK SMILES IDX 68 96 70 97 63 98 64 99 65 100 66 101 67 102
REMARK H PARENT 12 18 91 52 57 63
REMARK Flexibility Score: inf
ROOT
ATOM      1  C   UNL     1       5.744  -8.217   1.752  1.00  0.00     0.188 C 
ENDROOT
BRANCH   1   2
ATOM      2  O   UNL     1       4.536  -9.006   1.876  1.00  0.00    -0.376 OA
BRANCH   2   3
ATOM      3  C   UNL     1       3.695  -9.451   0.793  1.00  0.00     0.202 C 
BRANCH   3   4
ATOM      4  C   UNL     1       2.074  -9.004   0.495  1.00  0.00     0.261 C 
BRANCH   4   5
ATOM      5  O   UNL     1       1.356  -7.508  -0.001  1.00  0.00    -0.460 OA
BRANCH   5   6
ATOM      6  C   UNL     1       0.818  -6.346   0.642  1.00  0.00     0.338 C 
ATOM      7  O   UNL     1       0.625  -6.159   1.846  1.00  0.00    -0.246 OA
BRANCH   6   8
ATOM      8  C   UNL     1       0.383  -5.059   0.095  1.00  0.00     0.060 A 
ATOM      9  C   UNL     1      -1.096  -2.656   0.175  1.00  0.00    -0.029 A 
ATOM     10  C   UNL     1       0.071  -2.747   0.917  1.00  0.00     0.006 A 
ATOM     11  C   UNL     1      -1.579  -3.799  -0.497  1.00  0.00     0.006 A 
ATOM     12  C   UNL     1       0.812  -3.915   0.846  1.00  0.00     0.016 A 
ATOM     13  C   UNL     1      -0.856  -4.999  -0.524  1.00  0.00     0.016 A 
BRANCH   9  14
ATOM     14  C   UNL     1      -1.774  -1.327   0.066  1.00  0.00     0.152 C 
BRANCH  14  15
ATOM     15  N   UNL     1      -2.156  -1.030  -1.298  1.00  0.00    -0.348 N 
ATOM     16  C   UNL     1      -1.477  -1.119  -2.486  1.00  0.00     0.255 C 
ATOM     17  O   UNL     1      -2.153  -0.917  -3.502  1.00  0.00    -0.269 OA
ATOM     18  H   UNL     1      -3.079  -0.701  -1.391  1.00  0.00     0.164 HD
BRANCH  16  19
ATOM     19  C   UNL     1      -0.041  -1.511  -2.673  1.00  0.00     0.082 A 
ATOM     20  C   UNL     1       1.069  -1.105  -1.906  1.00  0.00     0.134 A 
ATOM     21  C   UNL     1       2.379  -1.497  -2.284  1.00  0.00    -0.008 A 
ATOM     22  C   UNL     1       3.604  -1.165  -1.473  1.00  0.00     0.048 C 
ATOM     23  C   UNL     1       2.570  -2.215  -3.475  1.00  0.00     0.007 A 
ATOM     24  C   UNL     1       0.196  -2.273  -3.838  1.00  0.00     0.018 A 
ATOM     25  C   UNL     1       1.485  -2.611  -4.244  1.00  0.00     0.001 A 
BRANCH  20  26
ATOM     26  O   UNL     1       0.871  -0.447  -0.726  1.00  0.00    -0.496 OA
ATOM     27  C   UNL     1       1.297   0.905  -0.714  1.00  0.00     0.278 C 
ENDBRANCH  20  26
ENDBRANCH  16  19
ENDBRANCH  14  15
ENDBRANCH   9  14
ENDBRANCH   6   8
ENDBRANCH   5   6
ENDBRANCH   4   5
ENDBRANCH   3   4
ENDBRANCH   2   3
ENDBRANCH   1   2
BRANCH   1  28
ATOM     28  C   UNL     1       6.569  -8.131   0.468  1.00  0.00     0.188 C 
BRANCH  28  29
ATOM     29  O   UNL     1       5.711  -8.051  -0.652  1.00  0.00    -0.376 OA
BRANCH  29  30
ATOM     30  C   UNL     1       6.327  -7.932  -1.916  1.00  0.00     0.202 C 
BRANCH  30  31
ATOM     31  C   UNL     1       6.871  -6.522  -2.207  1.00  0.00     0.261 C 
BRANCH  31  32
ATOM     32  O   UNL     1       5.820  -5.524  -2.280  1.00  0.00    -0.460 OA
BRANCH  32  33
ATOM     33  C   UNL     1       5.807  -4.526  -1.322  1.00  0.00     0.338 C 
ATOM     34  O   UNL     1       6.454  -3.498  -1.454  1.00  0.00    -0.246 OA
BRANCH  33  35
ATOM     35  C   UNL     1       4.804  -4.829  -0.240  1.00  0.00     0.060 A 
ATOM     36  C   UNL     1       4.715  -4.379   1.087  1.00  0.00     0.016 A 
ATOM     37  C   UNL     1       3.954  -5.826  -0.539  1.00  0.00     0.016 A 
ATOM     38  C   UNL     1       3.912  -5.076   2.121  1.00  0.00     0.010 A 
ATOM     39  C   UNL     1       3.469  -6.573   0.531  1.00  0.00     0.010 A 
ATOM     40  C   UNL     1       3.256  -6.292   1.894  1.00  0.00    -0.014 A 
BRANCH  40  41
ATOM     41  C   UNL     1       2.522  -7.336   2.989  1.00  0.00     0.031 A 
ATOM     42  C   UNL     1       0.921  -7.993   3.153  1.00  0.00     0.074 A 
ATOM     43  C   UNL     1       3.264  -7.656   4.072  1.00  0.00     0.049 A 
ATOM     44  N   UNL     1       0.261  -8.094   4.301  1.00  0.00    -0.248 NA
ATOM     45  C   UNL     1      -0.106  -8.379   2.081  1.00  0.00     0.031 C 
ATOM     46  C   UNL     1       2.975  -8.684   5.068  1.00  0.00     0.029 A 
ATOM     47  N   UNL     1       4.408  -7.016   4.559  1.00  0.00    -0.354 N 
ATOM     48  C   UNL     1      -1.035  -8.548   3.984  1.00  0.00     0.074 A 
ATOM     49  C   UNL     1      -1.265  -8.159   2.670  1.00  0.00     0.031 C 
ATOM     50  C   UNL     1       3.718  -8.444   6.158  1.00  0.00     0.029 A 
ATOM     51  C   UNL     1       4.397  -7.179   5.951  1.00  0.00     0.049 A 
ATOM     52  H   UNL     1       5.089  -6.543   4.028  1.00  0.00     0.167 HD
ATOM     53  C   UNL     1      -1.747  -9.503   4.648  1.00  0.00     0.037 A 
ATOM     54  C   UNL     1       4.359  -6.098   6.777  1.00  0.00     0.037 A 
ATOM     55  C   UNL     1      -1.204  -9.583   5.976  1.00  0.00     0.049 A 
ATOM     56  C   UNL     1       3.144  -6.099   7.678  1.00  0.00     0.074 A 
ATOM     57  C   UNL     1      -0.289 -10.425   6.573  1.00  0.00     0.029 A 
ATOM     58  N   UNL     1      -1.252  -8.425   6.738  1.00  0.00    -0.354 N 
ATOM     59  N   UNL     1       2.127  -6.911   7.538  1.00  0.00    -0.248 NA
ATOM     60  C   UNL     1       2.976  -5.205   8.819  1.00  0.00     0.031 C 
ATOM     61  C   UNL     1       0.362  -9.667   7.592  1.00  0.00     0.029 A 
ATOM     62  C   UNL     1      -0.228  -8.414   7.662  1.00  0.00     0.049 A 
ATOM     63  H   UNL     1      -1.923  -7.712   6.635  1.00  0.00     0.167 HD
ATOM     64  C   UNL     1       1.167  -6.621   8.468  1.00  0.00     0.074 A 
ATOM     65  C   UNL     1       1.766  -5.575   9.276  1.00  0.00     0.031 C 
ATOM     66  C   UNL     1      -0.054  -7.231   8.491  1.00  0.00     0.037 A 
BRANCH  53  67
ATOM     67  C   UNL     1      -2.787 -10.476   3.997  1.00  0.00     0.058 A 
ATOM     68  C   UNL     1      -3.369 -11.502   4.777  1.00  0.00     0.135 A 
ATOM     69  C   UNL     1      -3.178 -10.561   2.623  1.00  0.00     0.135 A 
ATOM     70  F   UNL     1      -3.111 -11.586   6.090  1.00  0.00    -0.206 F 
ATOM     71  C   UNL     1      -4.209 -12.511   4.249  1.00  0.00     0.059 A 
ATOM     72  C   UNL     1      -4.042 -11.526   2.088  1.00  0.00     0.059 A 
ATOM     73  F   UNL     1      -2.714  -9.768   1.655  1.00  0.00    -0.206 F 
ATOM     74  C   UNL     1      -4.534 -12.522   2.898  1.00  0.00     0.060 A 
BRANCH  74  75
ATOM     75  S   UNL     1      -5.530 -13.847   2.182  1.00  0.00     0.124 S 
ATOM     76  O   UNL     1      -4.682 -15.015   2.396  1.00  0.00    -0.237 OA
ATOM     77  O   UNL     1      -6.750 -13.787   2.979  1.00  0.00    -0.237 OA
ATOM     78  O   UNL     1      -5.685 -13.448   0.784  1.00  0.00    -0.744 OA
ENDBRANCH  74  75
ENDBRANCH  53  67
BRANCH  54  79
ATOM     79  C   UNL     1       5.147  -4.936   6.257  1.00  0.00     0.058 A 
ATOM     80  C   UNL     1       6.533  -5.142   6.073  1.00  0.00     0.135 A 
ATOM     81  C   UNL     1       4.579  -3.852   5.573  1.00  0.00     0.135 A 
ATOM     82  F   UNL     1       7.148  -6.153   6.709  1.00  0.00    -0.206 F 
ATOM     83  C   UNL     1       7.280  -4.426   5.142  1.00  0.00     0.059 A 
ATOM     84  C   UNL     1       5.321  -3.096   4.646  1.00  0.00     0.059 A 
ATOM     85  F   UNL     1       3.266  -3.599   5.680  1.00  0.00    -0.206 F 
ATOM     86  C   UNL     1       6.651  -3.440   4.390  1.00  0.00     0.060 A 
BRANCH  86  87
ATOM     87  S   UNL     1       7.564  -2.772   2.972  1.00  0.00     0.124 S 
ATOM     88  O   UNL     1       8.761  -2.228   3.601  1.00  0.00    -0.237 OA
ATOM     89  O   UNL     1       7.767  -3.975   2.166  1.00  0.00    -0.237 OA
ATOM     90  O   UNL     1       6.643  -1.786   2.414  1.00  0.00    -0.744 OA
ENDBRANCH  86  87
ENDBRANCH  54  79
BRANCH  66  91
ATOM     91  C   UNL     1      -1.236  -6.761   9.305  1.00  0.00     0.058 A 
ATOM     92  C   UNL     1      -1.501  -5.411   9.588  1.00  0.00     0.135 A 
ATOM     93  C   UNL     1      -2.250  -7.679   9.671  1.00  0.00     0.135 A 
ATOM     94  F   UNL     1      -0.671  -4.438   9.187  1.00  0.00    -0.206 F 
ATOM     95  C   UNL     1      -2.654  -5.006  10.260  1.00  0.00     0.059 A 
ATOM     96  C   UNL     1      -3.438  -7.288  10.278  1.00  0.00     0.059 A 
ATOM     97  F   UNL     1      -2.123  -8.993   9.429  1.00  0.00    -0.206 F 
ATOM     98  C   UNL     1      -3.615  -5.952  10.603  1.00  0.00     0.060 A 
BRANCH  98  99
ATOM     99  S   UNL     1      -5.117  -5.449  11.458  1.00  0.00     0.124 S 
ATOM    100  O   UNL     1      -4.763  -5.725  12.847  1.00  0.00    -0.237 OA
ATOM    101  O   UNL     1      -5.241  -4.037  11.110  1.00  0.00    -0.237 OA
ATOM    102  O   UNL     1      -6.133  -6.322  10.877  1.00  0.00    -0.744 OA
ENDBRANCH  98  99
ENDBRANCH  66  91
ENDBRANCH  40  41
ENDBRANCH  33  35
ENDBRANCH  32  33
ENDBRANCH  31  32
ENDBRANCH  30  31
ENDBRANCH  29  30
ENDBRANCH  28  29
ENDBRANCH   1  28
TORSDOF 24
