REMARK SMILES O=C(OCCOCCOCCOC(=O)c1ccc(-c2c3nc(c(-c4c(F)cc(S(=O)(=O)[O-])cc4F)c4ccc([nH]4)c(-c4c(F)cc(S(=O)(=O)[O-])cc4F)c4nc(c(-c5c(F)cc(S(=O)(=O)[O-])cc5F)c5ccc2[nH]5)C=C4)C=C3)cc1)C(=O)N1CC[N@@H+]2CCC[C@H]2C1
REMARK SMILES IDX 8 1 7 2 6 3 5 4 4 5 3 6 2 7 1 8 81 9 82 10 83 11 84 12 91 13
REMARK SMILES IDX 85 14 90 15 86 16 89 17 87 18 88 20 9 21 10 22 11 23 12 24
REMARK SMILES IDX 13 25 14 26 15 27 16 28 80 29 17 30 79 31 18 32 19 33 20 34
REMARK SMILES IDX 73 35 21 36 78 37 72 38 74 39 22 40 77 41 71 42 70 43 23 45
REMARK SMILES IDX 57 46 36 47 56 48 37 49 40 50 55 51 75 52 38 53 39 54 54 56
REMARK SMILES IDX 76 57 41 58 24 59 25 60 34 61 26 62 27 63 33 64 35 65 28 66
REMARK SMILES IDX 29 67 30 68 31 69 32 70 58 71 59 72 68 73 60 74 61 75 67 76
REMARK SMILES IDX 69 77 62 78 63 79 64 80 65 81 66 82 42 83 43 84 52 85 44 86
REMARK SMILES IDX 45 87 51 88 53 89 46 90 47 91 48 92 49 93 50 94
REMARK H PARENT 86 19 74 44 40 55
REMARK Flexibility Score: inf
ROOT
ATOM      1  C   UNL     1       2.055   0.939  -2.905  1.00  0.00     0.188 C 
ENDROOT
BRANCH   1   2
ATOM      2  C   UNL     1       3.133   1.199  -1.850  1.00  0.00     0.188 C 
BRANCH   2   3
ATOM      3  O   UNL     1       4.390   0.531  -2.038  1.00  0.00    -0.376 OA
BRANCH   3   4
ATOM      4  C   UNL     1       4.388  -0.898  -2.050  1.00  0.00     0.202 C 
BRANCH   4   5
ATOM      5  C   UNL     1       4.214  -1.581  -0.684  1.00  0.00     0.262 C 
BRANCH   5   6
ATOM      6  O   UNL     1       2.918  -1.299  -0.141  1.00  0.00    -0.456 OA
BRANCH   6   7
ATOM      7  C   UNL     1       2.735  -0.512   0.938  1.00  0.00     0.397 C 
ATOM      8  O   UNL     1       1.696   0.116   1.098  1.00  0.00    -0.240 OA
BRANCH   7   9
ATOM      9  C   UNL     1       3.775  -0.537   2.068  1.00  0.00     0.332 C 
ATOM     10  O   UNL     1       3.650  -1.432   2.903  1.00  0.00    -0.261 OA
BRANCH   9  11
ATOM     11  N   UNL     1       4.742   0.471   2.169  1.00  0.00    -0.321 N 
ATOM     12  C   UNL     1       5.453   1.111   1.054  1.00  0.00     0.181 C 
ATOM     13  C   UNL     1       5.499   0.546   3.418  1.00  0.00     0.185 C 
ATOM     14  C   UNL     1       6.879   0.480   0.858  1.00  0.00     0.284 C 
ATOM     15  C   UNL     1       6.779  -0.251   3.193  1.00  0.00     0.204 C 
ATOM     16  N   UNL     1       7.605   0.355   2.127  1.00  0.00    -0.330 N 
ATOM     17  C   UNL     1       7.776  -0.291   4.329  1.00  0.00     0.073 C 
ATOM     18  C   UNL     1       8.804  -0.474   2.116  1.00  0.00     0.262 C 
ATOM     19  H   UNL     1       7.858   1.330   2.292  1.00  0.00     0.348 HD
ATOM     20  C   UNL     1       9.095  -0.622   3.616  1.00  0.00     0.068 C 
ENDBRANCH   9  11
ENDBRANCH   7   9
ENDBRANCH   6   7
ENDBRANCH   5   6
ENDBRANCH   4   5
ENDBRANCH   3   4
ENDBRANCH   2   3
ENDBRANCH   1   2
BRANCH   1  21
ATOM     21  O   UNL     1       2.178   1.703  -4.103  1.00  0.00    -0.376 OA
BRANCH  21  22
ATOM     22  C   UNL     1       3.453   1.676  -4.729  1.00  0.00     0.202 C 
BRANCH  22  23
ATOM     23  C   UNL     1       4.215   3.008  -4.607  1.00  0.00     0.261 C 
BRANCH  23  24
ATOM     24  O   UNL     1       3.887   3.777  -3.437  1.00  0.00    -0.460 OA
BRANCH  24  25
ATOM     25  C   UNL     1       2.747   4.501  -3.553  1.00  0.00     0.338 C 
ATOM     26  O   UNL     1       2.063   4.639  -4.560  1.00  0.00    -0.246 OA
BRANCH  25  27
ATOM     27  C   UNL     1       2.370   5.092  -2.255  1.00  0.00     0.060 A 
ATOM     28  C   UNL     1       1.104   4.801  -1.736  1.00  0.00     0.016 A 
ATOM     29  C   UNL     1       3.182   6.050  -1.639  1.00  0.00     0.016 A 
ATOM     30  C   UNL     1       0.613   5.529  -0.649  1.00  0.00     0.010 A 
ATOM     31  C   UNL     1       2.685   6.779  -0.550  1.00  0.00     0.010 A 
ATOM     32  C   UNL     1       1.376   6.563  -0.086  1.00  0.00    -0.014 A 
BRANCH  32  33
ATOM     33  C   UNL     1       0.720   7.520   0.848  1.00  0.00     0.031 A 
ATOM     34  C   UNL     1       0.222   8.841   0.313  1.00  0.00     0.074 A 
ATOM     35  C   UNL     1       0.498   7.198   2.136  1.00  0.00     0.049 A 
ATOM     36  N   UNL     1      -0.439   9.791   0.926  1.00  0.00    -0.248 NA
ATOM     37  C   UNL     1       0.505   9.129  -1.103  1.00  0.00     0.031 C 
ATOM     38  C   UNL     1       0.913   5.953   2.779  1.00  0.00     0.029 A 
ATOM     39  N   UNL     1      -0.142   7.895   3.132  1.00  0.00    -0.354 N 
ATOM     40  C   UNL     1      -0.668  10.775  -0.030  1.00  0.00     0.074 A 
ATOM     41  C   UNL     1      -0.031  10.332  -1.252  1.00  0.00     0.031 C 
ATOM     42  C   UNL     1       0.518   5.975   4.065  1.00  0.00     0.029 A 
ATOM     43  C   UNL     1      -0.169   7.236   4.338  1.00  0.00     0.049 A 
ATOM     44  H   UNL     1      -0.545   8.783   2.995  1.00  0.00     0.167 HD
ATOM     45  C   UNL     1      -1.363  11.933   0.086  1.00  0.00     0.037 A 
ATOM     46  C   UNL     1      -0.687   7.607   5.527  1.00  0.00     0.037 A 
ATOM     47  C   UNL     1      -1.995  12.385   1.299  1.00  0.00     0.049 A 
ATOM     48  C   UNL     1      -1.423   8.918   5.644  1.00  0.00     0.074 A 
ATOM     49  C   UNL     1      -2.718  13.546   1.514  1.00  0.00     0.029 A 
ATOM     50  N   UNL     1      -1.980  11.698   2.503  1.00  0.00    -0.354 N 
ATOM     51  N   UNL     1      -1.649   9.825   4.722  1.00  0.00    -0.248 NA
ATOM     52  C   UNL     1      -1.988   9.248   6.960  1.00  0.00     0.031 C 
ATOM     53  C   UNL     1      -3.111  13.578   2.857  1.00  0.00     0.029 A 
ATOM     54  C   UNL     1      -2.669  12.417   3.468  1.00  0.00     0.049 A 
ATOM     55  H   UNL     1      -1.545  10.828   2.652  1.00  0.00     0.167 HD
ATOM     56  C   UNL     1      -2.393  10.823   5.344  1.00  0.00     0.074 A 
ATOM     57  C   UNL     1      -2.601  10.398   6.713  1.00  0.00     0.031 C 
ATOM     58  C   UNL     1      -2.861  11.988   4.830  1.00  0.00     0.037 A 
BRANCH  45  59
ATOM     59  C   UNL     1      -1.480  12.798  -1.138  1.00  0.00     0.058 A 
ATOM     60  C   UNL     1      -2.317  12.443  -2.209  1.00  0.00     0.135 A 
ATOM     61  C   UNL     1      -0.784  14.014  -1.227  1.00  0.00     0.135 A 
ATOM     62  F   UNL     1      -2.991  11.282  -2.182  1.00  0.00    -0.206 F 
ATOM     63  C   UNL     1      -2.445  13.253  -3.332  1.00  0.00     0.059 A 
ATOM     64  C   UNL     1      -0.915  14.852  -2.332  1.00  0.00     0.059 A 
ATOM     65  F   UNL     1       0.030  14.401  -0.233  1.00  0.00    -0.206 F 
ATOM     66  C   UNL     1      -1.740  14.457  -3.385  1.00  0.00     0.060 A 
BRANCH  66  67
ATOM     67  S   UNL     1      -1.928  15.505  -4.843  1.00  0.00     0.124 S 
ATOM     68  O   UNL     1      -1.156  14.766  -5.836  1.00  0.00    -0.237 OA
ATOM     69  O   UNL     1      -3.374  15.511  -5.040  1.00  0.00    -0.237 OA
ATOM     70  O   UNL     1      -1.352  16.779  -4.422  1.00  0.00    -0.744 OA
ENDBRANCH  66  67
ENDBRANCH  45  59
BRANCH  46  71
ATOM     71  C   UNL     1      -0.521   6.729   6.716  1.00  0.00     0.058 A 
ATOM     72  C   UNL     1      -1.609   6.053   7.288  1.00  0.00     0.135 A 
ATOM     73  C   UNL     1       0.737   6.569   7.319  1.00  0.00     0.135 A 
ATOM     74  F   UNL     1      -2.834   6.186   6.756  1.00  0.00    -0.206 F 
ATOM     75  C   UNL     1      -1.463   5.268   8.427  1.00  0.00     0.059 A 
ATOM     76  C   UNL     1       0.913   5.769   8.443  1.00  0.00     0.059 A 
ATOM     77  F   UNL     1       1.812   7.187   6.806  1.00  0.00    -0.206 F 
ATOM     78  C   UNL     1      -0.197   5.134   8.999  1.00  0.00     0.060 A 
BRANCH  78  79
ATOM     79  S   UNL     1      -0.003   4.089  10.460  1.00  0.00     0.124 S 
ATOM     80  O   UNL     1      -0.534   4.951  11.509  1.00  0.00    -0.237 OA
ATOM     81  O   UNL     1      -0.815   2.925  10.119  1.00  0.00    -0.237 OA
ATOM     82  O   UNL     1       1.436   3.846  10.508  1.00  0.00    -0.744 OA
ENDBRANCH  78  79
ENDBRANCH  46  71
BRANCH  58  83
ATOM     83  C   UNL     1      -3.653  12.878   5.750  1.00  0.00     0.058 A 
ATOM     84  C   UNL     1      -3.037  13.597   6.787  1.00  0.00     0.135 A 
ATOM     85  C   UNL     1      -5.040  13.023   5.588  1.00  0.00     0.135 A 
ATOM     86  F   UNL     1      -1.714  13.494   6.987  1.00  0.00    -0.206 F 
ATOM     87  C   UNL     1      -3.774  14.397   7.656  1.00  0.00     0.059 A 
ATOM     88  C   UNL     1      -5.793  13.838   6.429  1.00  0.00     0.059 A 
ATOM     89  F   UNL     1      -5.678  12.371   4.603  1.00  0.00    -0.206 F 
ATOM     90  C   UNL     1      -5.154  14.504   7.473  1.00  0.00     0.060 A 
BRANCH  90  91
ATOM     91  S   UNL     1      -6.103  15.538   8.610  1.00  0.00     0.124 S 
ATOM     92  O   UNL     1      -6.189  14.678   9.786  1.00  0.00    -0.237 OA
ATOM     93  O   UNL     1      -5.255  16.718   8.748  1.00  0.00    -0.237 OA
ATOM     94  O   UNL     1      -7.359  15.757   7.899  1.00  0.00    -0.744 OA
ENDBRANCH  90  91
ENDBRANCH  58  83
ENDBRANCH  32  33
ENDBRANCH  25  27
ENDBRANCH  24  25
ENDBRANCH  23  24
ENDBRANCH  22  23
ENDBRANCH  21  22
ENDBRANCH   1  21
TORSDOF 21
