REMARK SMILES O=C(OCCOCCOCCOC(=O)c1ccc(S(=O)(=O)Cc2cccs2)c(F)c1)c1ccc(-c2c3nc(c(-c4c(F)cc(S(=O)(=O)[O-])cc4F)c4ccc([nH]4)c(-c4c(F)cc(S(=O)(=O)[O-])cc4F)c4nc(c(-c5c(F)cc(S(=O)(=O)[O-])cc5F)c5ccc2[nH]5)C=C4)C=C3)cc1
REMARK SMILES IDX 7 1 6 2 5 3 4 4 3 5 2 6 1 7 31 8 32 9 96 10 33 11 95 12
REMARK SMILES IDX 34 13 35 14 36 15 89 16 37 17 94 18 88 19 90 20 38 21 93 22
REMARK SMILES IDX 87 23 86 24 39 26 73 27 52 28 72 29 53 30 56 31 71 32 91 33
REMARK SMILES IDX 54 34 55 35 70 37 92 38 57 39 40 40 41 41 50 42 42 43 43 44
REMARK SMILES IDX 49 45 51 46 44 47 45 48 46 49 47 50 48 51 74 52 75 53 84 54
REMARK SMILES IDX 76 55 77 56 83 57 85 58 78 59 79 60 80 61 81 62 82 63 58 64
REMARK SMILES IDX 59 65 68 66 60 67 61 68 67 69 69 70 62 71 63 72 64 73 65 74
REMARK SMILES IDX 66 75 8 76 9 77 10 78 11 79 12 80 13 81 14 82 15 83 16 84
REMARK SMILES IDX 30 85 17 86 28 87 18 88 29 89 19 90 20 91 21 92 22 93 23 94
REMARK SMILES IDX 24 95 27 96 25 97 26 98
REMARK H PARENT 90 25 56 36
REMARK Flexibility Score: inf
ROOT
ATOM      1  C   UNL     1       2.512  -1.944   0.123  1.00  0.00     0.188 C 
ENDROOT
BRANCH   1   2
ATOM      2  O   UNL     1       3.826  -1.626  -0.344  1.00  0.00    -0.376 OA
BRANCH   2   3
ATOM      3  C   UNL     1       4.742  -1.246   0.691  1.00  0.00     0.202 C 
BRANCH   3   4
ATOM      4  C   UNL     1       4.499   0.132   1.335  1.00  0.00     0.261 C 
BRANCH   4   5
ATOM      5  O   UNL     1       3.126   0.553   1.310  1.00  0.00    -0.460 OA
BRANCH   5   6
ATOM      6  C   UNL     1       2.485   1.299   0.375  1.00  0.00     0.338 C 
ATOM      7  O   UNL     1       1.323   1.635   0.604  1.00  0.00    -0.246 OA
BRANCH   6   8
ATOM      8  C   UNL     1       3.084   1.706  -0.937  1.00  0.00     0.060 A 
ATOM      9  C   UNL     1       4.205   1.122  -1.530  1.00  0.00     0.016 A 
ATOM     10  C   UNL     1       2.431   2.723  -1.653  1.00  0.00     0.016 A 
ATOM     11  C   UNL     1       4.722   1.569  -2.737  1.00  0.00     0.010 A 
ATOM     12  C   UNL     1       2.924   3.164  -2.886  1.00  0.00     0.010 A 
ATOM     13  C   UNL     1       4.100   2.608  -3.410  1.00  0.00    -0.014 A 
BRANCH  13  14
ATOM     14  C   UNL     1       4.814   3.250  -4.528  1.00  0.00     0.031 A 
ATOM     15  C   UNL     1       5.416   4.595  -4.268  1.00  0.00     0.074 A 
ATOM     16  C   UNL     1       5.026   2.613  -5.693  1.00  0.00     0.049 A 
ATOM     17  N   UNL     1       5.934   5.446  -5.105  1.00  0.00    -0.248 NA
ATOM     18  C   UNL     1       5.479   5.021  -2.856  1.00  0.00     0.031 C 
ATOM     19  C   UNL     1       4.710   1.211  -5.964  1.00  0.00     0.029 A 
ATOM     20  N   UNL     1       5.520   3.076  -6.885  1.00  0.00    -0.354 N 
ATOM     21  C   UNL     1       6.384   6.504  -4.328  1.00  0.00     0.074 A 
ATOM     22  C   UNL     1       6.047   6.212  -2.955  1.00  0.00     0.031 C 
ATOM     23  C   UNL     1       4.899   0.961  -7.270  1.00  0.00     0.029 A 
ATOM     24  C   UNL     1       5.298   2.198  -7.924  1.00  0.00     0.049 A 
ATOM     25  H   UNL     1       5.982   3.939  -6.988  1.00  0.00     0.167 HD
ATOM     26  C   UNL     1       7.036   7.611  -4.743  1.00  0.00     0.037 A 
ATOM     27  C   UNL     1       5.322   2.409  -9.254  1.00  0.00     0.037 A 
ATOM     28  C   UNL     1       7.338   7.852  -6.127  1.00  0.00     0.049 A 
ATOM     29  C   UNL     1       5.785   3.747  -9.733  1.00  0.00     0.074 A 
ATOM     30  C   UNL     1       7.979   8.934  -6.694  1.00  0.00     0.029 A 
ATOM     31  N   UNL     1       6.994   6.992  -7.165  1.00  0.00    -0.354 N 
ATOM     32  N   UNL     1       6.169   4.777  -9.015  1.00  0.00    -0.248 NA
ATOM     33  C   UNL     1       5.869   3.948 -11.182  1.00  0.00     0.031 C 
ATOM     34  C   UNL     1       7.960   8.762  -8.081  1.00  0.00     0.029 A 
ATOM     35  C   UNL     1       7.369   7.540  -8.376  1.00  0.00     0.049 A 
ATOM     36  H   UNL     1       6.548   6.122  -7.052  1.00  0.00     0.167 HD
ATOM     37  C   UNL     1       6.601   5.730  -9.921  1.00  0.00     0.074 A 
ATOM     38  C   UNL     1       6.394   5.167 -11.244  1.00  0.00     0.031 C 
ATOM     39  C   UNL     1       7.156   6.941  -9.674  1.00  0.00     0.037 A 
BRANCH  26  40
ATOM     40  C   UNL     1       7.383   8.640  -3.707  1.00  0.00     0.058 A 
ATOM     41  C   UNL     1       6.700   9.865  -3.679  1.00  0.00     0.135 A 
ATOM     42  C   UNL     1       8.358   8.412  -2.720  1.00  0.00     0.135 A 
ATOM     43  F   UNL     1       5.746  10.128  -4.585  1.00  0.00    -0.206 F 
ATOM     44  C   UNL     1       6.967  10.827  -2.711  1.00  0.00     0.059 A 
ATOM     45  C   UNL     1       8.621   9.350  -1.724  1.00  0.00     0.059 A 
ATOM     46  F   UNL     1       9.017   7.243  -2.676  1.00  0.00    -0.206 F 
ATOM     47  C   UNL     1       7.924  10.558  -1.732  1.00  0.00     0.060 A 
BRANCH  47  48
ATOM     48  S   UNL     1       8.193  11.784  -0.434  1.00  0.00     0.124 S 
ATOM     49  O   UNL     1       8.852  12.858  -1.168  1.00  0.00    -0.237 OA
ATOM     50  O   UNL     1       6.831  12.059   0.013  1.00  0.00    -0.237 OA
ATOM     51  O   UNL     1       9.028  11.075   0.532  1.00  0.00    -0.744 OA
ENDBRANCH  47  48
ENDBRANCH  26  40
BRANCH  27  52
ATOM     52  C   UNL     1       4.846   1.346 -10.175  1.00  0.00     0.058 A 
ATOM     53  C   UNL     1       3.477   1.194 -10.452  1.00  0.00     0.135 A 
ATOM     54  C   UNL     1       5.724   0.391 -10.698  1.00  0.00     0.135 A 
ATOM     55  F   UNL     1       2.603   2.126 -10.049  1.00  0.00    -0.206 F 
ATOM     56  C   UNL     1       2.986   0.085 -11.135  1.00  0.00     0.059 A 
ATOM     57  C   UNL     1       5.261  -0.712 -11.414  1.00  0.00     0.059 A 
ATOM     58  F   UNL     1       7.044   0.510 -10.491  1.00  0.00    -0.206 F 
ATOM     59  C   UNL     1       3.886  -0.877 -11.592  1.00  0.00     0.060 A 
BRANCH  59  60
ATOM     60  S   UNL     1       3.243  -2.360 -12.400  1.00  0.00     0.124 S 
ATOM     61  O   UNL     1       2.734  -3.111 -11.256  1.00  0.00    -0.237 OA
ATOM     62  O   UNL     1       2.238  -1.818 -13.307  1.00  0.00    -0.237 OA
ATOM     63  O   UNL     1       4.423  -2.927 -13.046  1.00  0.00    -0.744 OA
ENDBRANCH  59  60
ENDBRANCH  27  52
BRANCH  39  64
ATOM     64  C   UNL     1       7.643   7.729 -10.849  1.00  0.00     0.058 A 
ATOM     65  C   UNL     1       9.023   7.892 -11.047  1.00  0.00     0.135 A 
ATOM     66  C   UNL     1       6.760   8.447 -11.666  1.00  0.00     0.135 A 
ATOM     67  F   UNL     1       9.902   7.221 -10.285  1.00  0.00    -0.206 F 
ATOM     68  C   UNL     1       9.514   8.793 -11.979  1.00  0.00     0.059 A 
ATOM     69  C   UNL     1       7.231   9.334 -12.627  1.00  0.00     0.059 A 
ATOM     70  F   UNL     1       5.434   8.302 -11.521  1.00  0.00    -0.206 F 
ATOM     71  C   UNL     1       8.609   9.524 -12.750  1.00  0.00     0.060 A 
BRANCH  71  72
ATOM     72  S   UNL     1       9.267  10.750 -13.896  1.00  0.00     0.124 S 
ATOM     73  O   UNL     1       9.815  11.746 -12.982  1.00  0.00    -0.237 OA
ATOM     74  O   UNL     1      10.245   9.972 -14.649  1.00  0.00    -0.237 OA
ATOM     75  O   UNL     1       8.092  11.171 -14.653  1.00  0.00    -0.744 OA
ENDBRANCH  71  72
ENDBRANCH  39  64
ENDBRANCH  13  14
ENDBRANCH   6   8
ENDBRANCH   5   6
ENDBRANCH   4   5
ENDBRANCH   3   4
ENDBRANCH   2   3
ENDBRANCH   1   2
BRANCH   1  76
ATOM     76  C   UNL     1       1.883  -3.142  -0.594  1.00  0.00     0.188 C 
BRANCH  76  77
ATOM     77  O   UNL     1       2.526  -4.399  -0.412  1.00  0.00    -0.376 OA
BRANCH  77  78
ATOM     78  C   UNL     1       3.906  -4.466  -0.751  1.00  0.00     0.202 C 
BRANCH  78  79
ATOM     79  C   UNL     1       4.302  -4.273  -2.224  1.00  0.00     0.261 C 
BRANCH  79  80
ATOM     80  O   UNL     1       3.741  -3.120  -2.885  1.00  0.00    -0.460 OA
BRANCH  80  81
ATOM     81  C   UNL     1       2.910  -3.409  -3.918  1.00  0.00     0.338 C 
ATOM     82  O   UNL     1       2.547  -4.523  -4.270  1.00  0.00    -0.246 OA
BRANCH  81  83
ATOM     83  C   UNL     1       2.509  -2.198  -4.668  1.00  0.00     0.063 A 
ATOM     84  C   UNL     1       2.663  -2.230  -6.059  1.00  0.00     0.017 A 
ATOM     85  C   UNL     1       1.880  -1.103  -4.064  1.00  0.00     0.056 A 
ATOM     86  C   UNL     1       2.179  -1.180  -6.843  1.00  0.00     0.024 A 
ATOM     87  C   UNL     1       1.397  -0.054  -4.857  1.00  0.00     0.142 A 
ATOM     88  C   UNL     1       1.540  -0.087  -6.238  1.00  0.00     0.103 A 
ATOM     89  F   UNL     1       0.790   0.970  -4.247  1.00  0.00    -0.206 F 
BRANCH  88  90
ATOM     90  S   UNL     1       0.963   1.215  -7.289  1.00  0.00     0.186 S 
ATOM     91  O   UNL     1       2.061   2.146  -7.397  1.00  0.00    -0.223 OA
ATOM     92  O   UNL     1       0.428   0.560  -8.477  1.00  0.00    -0.223 OA
BRANCH  90  93
ATOM     93  C   UNL     1      -0.350   2.121  -6.549  1.00  0.00     0.188 C 
BRANCH  93  94
ATOM     94  C   UNL     1      -1.555   1.327  -6.160  1.00  0.00     0.020 A 
ATOM     95  C   UNL     1      -1.886  -0.005  -6.319  1.00  0.00     0.016 A 
ATOM     96  S   UNL     1      -2.826   2.188  -5.376  1.00  0.00    -0.148 S 
ATOM     97  C   UNL     1      -3.152  -0.324  -5.747  1.00  0.00     0.012 A 
ATOM     98  C   UNL     1      -3.773   0.780  -5.215  1.00  0.00     0.065 A 
ENDBRANCH  93  94
ENDBRANCH  90  93
ENDBRANCH  88  90
ENDBRANCH  81  83
ENDBRANCH  80  81
ENDBRANCH  79  80
ENDBRANCH  78  79
ENDBRANCH  77  78
ENDBRANCH  76  77
ENDBRANCH   1  76
TORSDOF 23
