REMARK SMILES [NH3+][C@@H](CC1=C[C@H](S)c2ccccc2C1)C(=O)OCCOCCOCCOC(=O)c1ccc(-c2c3nc(c(-c4c(F)cc(S(=O)(=O)[O-])cc4F)c4ccc([nH]4)c(-c4c(F)cc(S(=O)(=O)[O-])cc4F)c4nc(c(-c5c(F)cc(S(=O)(=O)[O-])cc5F)c5ccc2[nH]5)C=C4)C=C3)cc1
REMARK SMILES IDX 21 1 20 2 19 3 18 4 17 5 15 6 16 7 2 8 1 9 3 13 4 14 5 15
REMARK SMILES IDX 14 16 6 17 13 18 8 19 12 20 9 21 11 22 10 23 7 24 22 26
REMARK SMILES IDX 23 27 24 28 25 29 26 30 27 31 28 32 29 33 30 34 94 35 31 36
REMARK SMILES IDX 93 37 32 38 33 39 34 40 87 41 35 42 92 43 86 44 88 45 36 46
REMARK SMILES IDX 91 47 85 48 84 49 37 51 71 52 50 53 70 54 51 55 54 56 69 57
REMARK SMILES IDX 89 58 52 59 53 60 68 62 90 63 55 64 38 65 39 66 48 67 40 68
REMARK SMILES IDX 41 69 47 70 49 71 42 72 43 73 44 74 45 75 46 76 72 77 73 78
REMARK SMILES IDX 82 79 74 80 75 81 81 82 83 83 76 84 77 85 78 86 79 87 80 88
REMARK SMILES IDX 56 89 57 90 66 91 58 92 59 93 65 94 67 95 60 96 61 97 62 98
REMARK SMILES IDX 63 99 64 100
REMARK H PARENT 1 10 1 11 1 12 7 25 88 50 54 61
REMARK Flexibility Score: inf
ROOT
ATOM      1  C   UNL     1      -2.134   1.200   1.566  1.00  0.00     0.188 C 
ENDROOT
BRANCH   1   2
ATOM      2  O   UNL     1      -3.461   1.398   1.092  1.00  0.00    -0.376 OA
BRANCH   2   3
ATOM      3  C   UNL     1      -3.784   0.996  -0.231  1.00  0.00     0.202 C 
BRANCH   3   4
ATOM      4  C   UNL     1      -2.888   1.421  -1.405  1.00  0.00     0.261 C 
BRANCH   4   5
ATOM      5  O   UNL     1      -1.469   1.305  -1.194  1.00  0.00    -0.459 OA
BRANCH   5   6
ATOM      6  C   UNL     1      -0.746   2.444  -1.408  1.00  0.00     0.365 C 
ATOM      7  O   UNL     1      -1.227   3.513  -1.772  1.00  0.00    -0.245 OA
BRANCH   6   8
ATOM      8  C   UNL     1       0.773   2.249  -1.259  1.00  0.00     0.295 C 
BRANCH   8   9
ATOM      9  N   UNL     1       1.177   1.270  -0.226  1.00  0.00    -0.346 N 
ATOM     10  H   UNL     1       2.194   1.206  -0.198  1.00  0.00     0.345 HD
ATOM     11  H   UNL     1       0.785   0.356  -0.452  1.00  0.00     0.345 HD
ATOM     12  H   UNL     1       0.830   1.574   0.684  1.00  0.00     0.345 HD
ENDBRANCH   8   9
BRANCH   8  13
ATOM     13  C   UNL     1       1.407   1.956  -2.630  1.00  0.00     0.108 C 
BRANCH  13  14
ATOM     14  C   UNL     1       0.838   0.787  -3.417  1.00  0.00    -0.062 C 
ATOM     15  C   UNL     1       0.154   1.002  -4.558  1.00  0.00    -0.009 C 
ATOM     16  C   UNL     1       1.080  -0.613  -2.903  1.00  0.00     0.066 C 
ATOM     17  C   UNL     1      -0.425  -0.084  -5.422  1.00  0.00     0.096 C 
ATOM     18  C   UNL     1       0.748  -1.727  -3.870  1.00  0.00    -0.039 A 
ATOM     19  C   UNL     1       0.033  -1.483  -5.056  1.00  0.00    -0.028 A 
ATOM     20  C   UNL     1       1.116  -3.042  -3.538  1.00  0.00     0.004 A 
ATOM     21  C   UNL     1      -0.269  -2.564  -5.904  1.00  0.00     0.005 A 
ATOM     22  C   UNL     1       0.796  -4.104  -4.382  1.00  0.00     0.000 A 
ATOM     23  C   UNL     1       0.107  -3.864  -5.566  1.00  0.00     0.000 A 
BRANCH  17  24
ATOM     24  S   UNL     1      -2.245   0.053  -5.324  1.00  0.00    -0.167 SA
ATOM     25  H   UNL     1      -2.646  -0.137  -4.038  1.00  0.00     0.103 HD
ENDBRANCH  17  24
ENDBRANCH  13  14
ENDBRANCH   8  13
ENDBRANCH   6   8
ENDBRANCH   5   6
ENDBRANCH   4   5
ENDBRANCH   3   4
ENDBRANCH   2   3
ENDBRANCH   1   2
BRANCH   1  26
ATOM     26  C   UNL     1      -1.464  -0.175   1.371  1.00  0.00     0.188 C 
BRANCH  26  27
ATOM     27  O   UNL     1      -2.192  -1.095   0.596  1.00  0.00    -0.376 OA
BRANCH  27  28
ATOM     28  C   UNL     1      -2.858  -2.174   1.224  1.00  0.00     0.202 C 
BRANCH  28  29
ATOM     29  C   UNL     1      -3.419  -2.145   2.661  1.00  0.00     0.261 C 
BRANCH  29  30
ATOM     30  O   UNL     1      -3.006  -1.090   3.531  1.00  0.00    -0.460 OA
BRANCH  30  31
ATOM     31  C   UNL     1      -1.932  -1.334   4.324  1.00  0.00     0.338 C 
ATOM     32  O   UNL     1      -1.258  -2.350   4.349  1.00  0.00    -0.246 OA
BRANCH  31  33
ATOM     33  C   UNL     1      -1.571  -0.062   4.989  1.00  0.00     0.060 A 
ATOM     34  C   UNL     1      -2.517   0.631   5.744  1.00  0.00     0.016 A 
ATOM     35  C   UNL     1      -0.280   0.460   4.816  1.00  0.00     0.016 A 
ATOM     36  C   UNL     1      -2.159   1.835   6.353  1.00  0.00     0.010 A 
ATOM     37  C   UNL     1       0.074   1.670   5.421  1.00  0.00     0.010 A 
ATOM     38  C   UNL     1      -0.856   2.352   6.217  1.00  0.00    -0.014 A 
BRANCH  38  39
ATOM     39  C   UNL     1      -0.445   3.483   7.086  1.00  0.00     0.031 A 
ATOM     40  C   UNL     1      -0.350   4.892   6.590  1.00  0.00     0.074 A 
ATOM     41  C   UNL     1      -0.204   3.205   8.382  1.00  0.00     0.049 A 
ATOM     42  N   UNL     1      -0.234   5.994   7.287  1.00  0.00    -0.248 NA
ATOM     43  C   UNL     1      -0.373   5.095   5.136  1.00  0.00     0.031 C 
ATOM     44  C   UNL     1      -0.207   1.859   8.960  1.00  0.00     0.029 A 
ATOM     45  N   UNL     1       0.052   4.028   9.448  1.00  0.00    -0.354 N 
ATOM     46  C   UNL     1      -0.208   7.030   6.362  1.00  0.00     0.074 A 
ATOM     47  C   UNL     1      -0.255   6.416   5.050  1.00  0.00     0.031 C 
ATOM     48  C   UNL     1      -0.026   1.952  10.285  1.00  0.00     0.029 A 
ATOM     49  C   UNL     1       0.120   3.359  10.648  1.00  0.00     0.049 A 
ATOM     50  H   UNL     1       0.175   5.001   9.364  1.00  0.00     0.167 HD
ATOM     51  C   UNL     1      -0.172   8.365   6.596  1.00  0.00     0.037 A 
ATOM     52  C   UNL     1       0.252   3.823  11.905  1.00  0.00     0.037 A 
ATOM     53  C   UNL     1      -0.100   8.957   7.911  1.00  0.00     0.049 A 
ATOM     54  C   UNL     1       0.306   5.306  12.137  1.00  0.00     0.074 A 
ATOM     55  C   UNL     1      -0.116  10.299   8.252  1.00  0.00     0.029 A 
ATOM     56  N   UNL     1       0.021   8.249   9.099  1.00  0.00    -0.354 N 
ATOM     57  N   UNL     1       0.210   6.279  11.264  1.00  0.00    -0.248 NA
ATOM     58  C   UNL     1       0.478   5.755  13.525  1.00  0.00     0.031 C 
ATOM     59  C   UNL     1       0.051  10.403   9.638  1.00  0.00     0.029 A 
ATOM     60  C   UNL     1       0.119   9.126  10.169  1.00  0.00     0.049 A 
ATOM     61  H   UNL     1       0.035   7.267   9.171  1.00  0.00     0.167 HD
ATOM     62  C   UNL     1       0.299   7.457  11.996  1.00  0.00     0.074 A 
ATOM     63  C   UNL     1       0.437   7.074  13.387  1.00  0.00     0.031 C 
ATOM     64  C   UNL     1       0.270   8.738  11.552  1.00  0.00     0.037 A 
BRANCH  51  65
ATOM     65  C   UNL     1      -0.226   9.289   5.408  1.00  0.00     0.058 A 
ATOM     66  C   UNL     1      -1.401   9.439   4.655  1.00  0.00     0.135 A 
ATOM     67  C   UNL     1       0.877  10.087   5.061  1.00  0.00     0.135 A 
ATOM     68  F   UNL     1      -2.487   8.703   4.942  1.00  0.00    -0.206 F 
ATOM     69  C   UNL     1      -1.474  10.325   3.584  1.00  0.00     0.059 A 
ATOM     70  C   UNL     1       0.819  10.998   4.009  1.00  0.00     0.059 A 
ATOM     71  F   UNL     1       2.024   9.993   5.752  1.00  0.00    -0.206 F 
ATOM     72  C   UNL     1      -0.357  11.100   3.268  1.00  0.00     0.060 A 
BRANCH  72  73
ATOM     73  S   UNL     1      -0.471  12.243   1.874  1.00  0.00     0.124 S 
ATOM     74  O   UNL     1      -0.518  11.321   0.744  1.00  0.00    -0.237 OA
ATOM     75  O   UNL     1      -1.710  12.960   2.159  1.00  0.00    -0.237 OA
ATOM     76  O   UNL     1       0.749  13.037   1.983  1.00  0.00    -0.744 OA
ENDBRANCH  72  73
ENDBRANCH  51  65
BRANCH  52  77
ATOM     77  C   UNL     1       0.276   2.860  13.035  1.00  0.00     0.058 A 
ATOM     78  C   UNL     1      -0.815   2.744  13.907  1.00  0.00     0.135 A 
ATOM     79  C   UNL     1       1.364   1.993  13.225  1.00  0.00     0.135 A 
ATOM     80  F   UNL     1      -1.877   3.552  13.764  1.00  0.00    -0.206 F 
ATOM     81  C   UNL     1      -0.830   1.804  14.931  1.00  0.00     0.059 A 
ATOM     82  C   UNL     1       1.361   1.028  14.226  1.00  0.00     0.059 A 
ATOM     83  F   UNL     1       2.423   2.052  12.403  1.00  0.00    -0.206 F 
ATOM     84  C   UNL     1       0.260   0.944  15.077  1.00  0.00     0.060 A 
BRANCH  84  85
ATOM     85  S   UNL     1       0.197  -0.318  16.367  1.00  0.00     0.124 S 
ATOM     86  O   UNL     1       0.305   0.490  17.575  1.00  0.00    -0.237 OA
ATOM     87  O   UNL     1      -1.104  -0.935  16.125  1.00  0.00    -0.237 OA
ATOM     88  O   UNL     1       1.349  -1.163  16.068  1.00  0.00    -0.744 OA
ENDBRANCH  84  85
ENDBRANCH  52  77
BRANCH  64  89
ATOM     89  C   UNL     1       0.403   9.834  12.574  1.00  0.00     0.058 A 
ATOM     90  C   UNL     1       1.634  10.114  13.187  1.00  0.00     0.135 A 
ATOM     91  C   UNL     1      -0.685  10.669  12.877  1.00  0.00     0.135 A 
ATOM     92  F   UNL     1       2.703   9.341  12.942  1.00  0.00    -0.206 F 
ATOM     93  C   UNL     1       1.781  11.183  14.067  1.00  0.00     0.059 A 
ATOM     94  C   UNL     1      -0.554  11.758  13.734  1.00  0.00     0.059 A 
ATOM     95  F   UNL     1      -1.884  10.447  12.316  1.00  0.00    -0.206 F 
ATOM     96  C   UNL     1       0.684  12.006  14.325  1.00  0.00     0.060 A 
BRANCH  96  97
ATOM     97  S   UNL     1       0.913  13.430  15.413  1.00  0.00     0.124 S 
ATOM     98  O   UNL     1       1.095  12.786  16.709  1.00  0.00    -0.237 OA
ATOM     99  O   UNL     1       2.101  14.063  14.848  1.00  0.00    -0.237 OA
ATOM    100  O   UNL     1      -0.327  14.183  15.255  1.00  0.00    -0.744 OA
ENDBRANCH  96  97
ENDBRANCH  64  89
ENDBRANCH  38  39
ENDBRANCH  31  33
ENDBRANCH  30  31
ENDBRANCH  29  30
ENDBRANCH  28  29
ENDBRANCH  27  28
ENDBRANCH  26  27
ENDBRANCH   1  26
TORSDOF 24
