REMARK SMILES CC(C)(C)[NH+]1CCN(C(=O)CCCC(=O)OCCOCCOCCOC(=O)c2ccc(-c3c4nc(c(-c5c(F)cc(S(=O)(=O)[O-])cc5F)c5ccc([nH]5)c(-c5c(F)cc(S(=O)(=O)[O-])cc5F)c5nc(c(-c6c(F)cc(S(=O)(=O)[O-])cc6F)c6ccc3[nH]6)C=C5)C=C4)cc2)CC1
REMARK SMILES IDX 20 1 19 2 18 3 17 4 16 5 14 6 15 7 13 8 12 9 11 10 9 11 5 12
REMARK SMILES IDX 6 13 95 14 7 16 94 17 8 18 10 19 2 20 1 21 3 22 4 23 21 24
REMARK SMILES IDX 22 25 23 26 24 27 25 28 26 29 27 30 28 31 29 32 93 33 30 34
REMARK SMILES IDX 92 35 31 36 32 37 33 38 86 39 34 40 91 41 85 42 87 43 35 44
REMARK SMILES IDX 90 45 84 46 83 47 36 49 70 50 49 51 69 52 50 53 53 54 68 55
REMARK SMILES IDX 88 56 51 57 52 58 67 60 89 61 54 62 37 63 38 64 47 65 39 66
REMARK SMILES IDX 40 67 46 68 48 69 41 70 42 71 43 72 44 73 45 74 71 75 72 76
REMARK SMILES IDX 81 77 73 78 74 79 80 80 82 81 75 82 76 83 77 84 78 85 79 86
REMARK SMILES IDX 55 87 56 88 65 89 57 90 58 91 64 92 66 93 59 94 60 95 61 96
REMARK SMILES IDX 62 97 63 98
REMARK H PARENT 5 15 87 48 53 59
REMARK Flexibility Score: inf
ROOT
ATOM      1  C   UNL     1       1.734   8.878  -0.042  1.00  0.00     0.188 C 
ENDROOT
BRANCH   1   2
ATOM      2  O   UNL     1       2.330   8.279   1.108  1.00  0.00    -0.376 OA
BRANCH   2   3
ATOM      3  C   UNL     1       2.869   6.967   0.997  1.00  0.00     0.202 C 
BRANCH   3   4
ATOM      4  C   UNL     1       1.940   5.883   0.450  1.00  0.00     0.261 C 
BRANCH   4   5
ATOM      5  O   UNL     1       1.473   6.162  -0.887  1.00  0.00    -0.463 OA
BRANCH   5   6
ATOM      6  C   UNL     1       0.136   6.153  -1.108  1.00  0.00     0.305 C 
ATOM      7  O   UNL     1      -0.696   5.929  -0.237  1.00  0.00    -0.252 OA
BRANCH   6   8
ATOM      8  C   UNL     1      -0.277   6.369  -2.567  1.00  0.00     0.123 C 
BRANCH   8   9
ATOM      9  C   UNL     1       0.679   6.494  -3.771  1.00  0.00     0.022 C 
BRANCH   9  10
ATOM     10  C   UNL     1       1.972   5.681  -3.886  1.00  0.00     0.101 C 
BRANCH  10  11
ATOM     11  C   UNL     1       1.867   4.288  -4.511  1.00  0.00     0.222 C 
ATOM     12  N   UNL     1       1.821   1.063  -1.784  1.00  0.00    -0.328 N 
ATOM     13  C   UNL     1       2.345   1.030  -3.167  1.00  0.00     0.284 C 
ATOM     14  C   UNL     1       1.669   2.459  -1.353  1.00  0.00     0.284 C 
ATOM     15  H   UNL     1       2.542   0.606  -1.226  1.00  0.00     0.348 HD
ATOM     16  C   UNL     1       1.539   1.857  -4.188  1.00  0.00     0.181 C 
ATOM     17  C   UNL     1       0.949   3.352  -2.369  1.00  0.00     0.181 C 
ATOM     18  N   UNL     1       1.445   3.236  -3.723  1.00  0.00    -0.331 N 
ATOM     19  O   UNL     1       2.220   4.121  -5.681  1.00  0.00    -0.275 OA
BRANCH  12  20
ATOM     20  C   UNL     1       0.716   0.154  -1.401  1.00  0.00     0.089 C 
ATOM     21  C   UNL     1       1.027  -0.275   0.053  1.00  0.00     0.078 C 
ATOM     22  C   UNL     1       0.676  -1.126  -2.260  1.00  0.00     0.078 C 
ATOM     23  C   UNL     1      -0.707   0.759  -1.416  1.00  0.00     0.078 C 
ENDBRANCH  12  20
ENDBRANCH  10  11
ENDBRANCH   9  10
ENDBRANCH   8   9
ENDBRANCH   6   8
ENDBRANCH   5   6
ENDBRANCH   4   5
ENDBRANCH   3   4
ENDBRANCH   2   3
ENDBRANCH   1   2
BRANCH   1  24
ATOM     24  C   UNL     1       2.458   8.732  -1.395  1.00  0.00     0.188 C 
BRANCH  24  25
ATOM     25  O   UNL     1       3.806   8.337  -1.265  1.00  0.00    -0.376 OA
BRANCH  25  26
ATOM     26  C   UNL     1       4.798   9.306  -1.541  1.00  0.00     0.202 C 
BRANCH  26  27
ATOM     27  C   UNL     1       4.730  10.672  -0.835  1.00  0.00     0.261 C 
BRANCH  27  28
ATOM     28  O   UNL     1       3.443  11.309  -0.744  1.00  0.00    -0.460 OA
BRANCH  28  29
ATOM     29  C   UNL     1       2.907  11.848  -1.864  1.00  0.00     0.338 C 
ATOM     30  O   UNL     1       3.422  11.880  -2.969  1.00  0.00    -0.246 OA
BRANCH  29  31
ATOM     31  C   UNL     1       1.477  12.150  -1.577  1.00  0.00     0.060 A 
ATOM     32  C   UNL     1       0.482  11.594  -2.398  1.00  0.00     0.016 A 
ATOM     33  C   UNL     1       1.112  12.924  -0.473  1.00  0.00     0.016 A 
ATOM     34  C   UNL     1      -0.872  11.838  -2.135  1.00  0.00     0.010 A 
ATOM     35  C   UNL     1      -0.241  13.187  -0.226  1.00  0.00     0.010 A 
ATOM     36  C   UNL     1      -1.241  12.672  -1.072  1.00  0.00    -0.014 A 
BRANCH  36  37
ATOM     37  C   UNL     1      -2.630  13.198  -0.973  1.00  0.00     0.031 A 
ATOM     38  C   UNL     1      -2.907  14.559  -1.561  1.00  0.00     0.074 A 
ATOM     39  C   UNL     1      -3.619  12.515  -0.366  1.00  0.00     0.049 A 
ATOM     40  N   UNL     1      -3.996  15.280  -1.512  1.00  0.00    -0.248 NA
ATOM     41  C   UNL     1      -1.800  15.192  -2.298  1.00  0.00     0.031 C 
ATOM     42  C   UNL     1      -3.498  11.181   0.217  1.00  0.00     0.029 A 
ATOM     43  N   UNL     1      -4.925  12.871  -0.119  1.00  0.00    -0.354 N 
ATOM     44  C   UNL     1      -3.697  16.460  -2.185  1.00  0.00     0.074 A 
ATOM     45  C   UNL     1      -2.324  16.363  -2.627  1.00  0.00     0.031 C 
ATOM     46  C   UNL     1      -4.673  10.843   0.782  1.00  0.00     0.029 A 
ATOM     47  C   UNL     1      -5.620  11.948   0.631  1.00  0.00     0.049 A 
ATOM     48  H   UNL     1      -5.326  13.708  -0.448  1.00  0.00     0.167 HD
ATOM     49  C   UNL     1      -4.494  17.530  -2.412  1.00  0.00     0.037 A 
ATOM     50  C   UNL     1      -6.859  12.006   1.162  1.00  0.00     0.037 A 
ATOM     51  C   UNL     1      -5.866  17.621  -1.992  1.00  0.00     0.049 A 
ATOM     52  C   UNL     1      -7.715  13.231   0.927  1.00  0.00     0.074 A 
ATOM     53  C   UNL     1      -6.768  18.644  -2.228  1.00  0.00     0.029 A 
ATOM     54  N   UNL     1      -6.532  16.664  -1.243  1.00  0.00    -0.354 N 
ATOM     55  N   UNL     1      -7.436  14.317   0.244  1.00  0.00    -0.248 NA
ATOM     56  C   UNL     1      -9.056  13.239   1.535  1.00  0.00     0.031 C 
ATOM     57  C   UNL     1      -7.962  18.333  -1.572  1.00  0.00     0.029 A 
ATOM     58  C   UNL     1      -7.823  17.088  -0.980  1.00  0.00     0.049 A 
ATOM     59  H   UNL     1      -6.144  15.810  -0.943  1.00  0.00     0.167 HD
ATOM     60  C   UNL     1      -8.576  15.116   0.314  1.00  0.00     0.074 A 
ATOM     61  C   UNL     1      -9.551  14.387   1.095  1.00  0.00     0.031 C 
ATOM     62  C   UNL     1      -8.795  16.343  -0.220  1.00  0.00     0.037 A 
BRANCH  49  63
ATOM     63  C   UNL     1      -3.902  18.712  -3.125  1.00  0.00     0.058 A 
ATOM     64  C   UNL     1      -3.641  18.694  -4.503  1.00  0.00     0.135 A 
ATOM     65  C   UNL     1      -3.668  19.908  -2.426  1.00  0.00     0.135 A 
ATOM     66  F   UNL     1      -3.825  17.569  -5.212  1.00  0.00    -0.206 F 
ATOM     67  C   UNL     1      -3.168  19.823  -5.165  1.00  0.00     0.059 A 
ATOM     68  C   UNL     1      -3.220  21.055  -3.072  1.00  0.00     0.059 A 
ATOM     69  F   UNL     1      -3.893  19.973  -1.104  1.00  0.00    -0.206 F 
ATOM     70  C   UNL     1      -2.970  21.001  -4.442  1.00  0.00     0.060 A 
BRANCH  70  71
ATOM     71  S   UNL     1      -2.409  22.471  -5.327  1.00  0.00     0.124 S 
ATOM     72  O   UNL     1      -1.022  22.122  -5.621  1.00  0.00    -0.237 OA
ATOM     73  O   UNL     1      -3.311  22.506  -6.473  1.00  0.00    -0.237 OA
ATOM     74  O   UNL     1      -2.592  23.544  -4.355  1.00  0.00    -0.744 OA
ENDBRANCH  70  71
ENDBRANCH  49  63
BRANCH  50  75
ATOM     75  C   UNL     1      -7.373  10.895   2.014  1.00  0.00     0.058 A 
ATOM     76  C   UNL     1      -8.459  10.104   1.607  1.00  0.00     0.135 A 
ATOM     77  C   UNL     1      -6.824  10.642   3.281  1.00  0.00     0.135 A 
ATOM     78  F   UNL     1      -9.032  10.315   0.412  1.00  0.00    -0.206 F 
ATOM     79  C   UNL     1      -9.004   9.128   2.438  1.00  0.00     0.059 A 
ATOM     80  C   UNL     1      -7.332   9.651   4.117  1.00  0.00     0.059 A 
ATOM     81  F   UNL     1      -5.781  11.364   3.719  1.00  0.00    -0.206 F 
ATOM     82  C   UNL     1      -8.435   8.912   3.694  1.00  0.00     0.060 A 
BRANCH  82  83
ATOM     83  S   UNL     1      -9.143   7.639   4.762  1.00  0.00     0.124 S 
ATOM     84  O   UNL     1     -10.374   8.281   5.207  1.00  0.00    -0.237 OA
ATOM     85  O   UNL     1      -9.304   6.518   3.841  1.00  0.00    -0.237 OA
ATOM     86  O   UNL     1      -8.120   7.455   5.787  1.00  0.00    -0.744 OA
ENDBRANCH  82  83
ENDBRANCH  50  75
BRANCH  62  87
ATOM     87  C   UNL     1     -10.154  16.963  -0.033  1.00  0.00     0.058 A 
ATOM     88  C   UNL     1     -10.576  17.469   1.206  1.00  0.00     0.135 A 
ATOM     89  C   UNL     1     -11.020  17.113  -1.129  1.00  0.00     0.135 A 
ATOM     90  F   UNL     1      -9.789  17.350   2.287  1.00  0.00    -0.206 F 
ATOM     91  C   UNL     1     -11.817  18.080   1.358  1.00  0.00     0.059 A 
ATOM     92  C   UNL     1     -12.253  17.748  -1.008  1.00  0.00     0.059 A 
ATOM     93  F   UNL     1     -10.662  16.661  -2.341  1.00  0.00    -0.206 F 
ATOM     94  C   UNL     1     -12.648  18.217   0.244  1.00  0.00     0.060 A 
BRANCH  94  95
ATOM     95  S   UNL     1     -14.241  19.044   0.446  1.00  0.00     0.124 S 
ATOM     96  O   UNL     1     -15.012  18.027   1.154  1.00  0.00    -0.237 OA
ATOM     97  O   UNL     1     -13.884  20.226   1.224  1.00  0.00    -0.237 OA
ATOM     98  O   UNL     1     -14.663  19.308  -0.927  1.00  0.00    -0.744 OA
ENDBRANCH  94  95
ENDBRANCH  62  87
ENDBRANCH  36  37
ENDBRANCH  29  31
ENDBRANCH  28  29
ENDBRANCH  27  28
ENDBRANCH  26  27
ENDBRANCH  25  26
ENDBRANCH  24  25
ENDBRANCH   1  24
TORSDOF 24
