REMARK SMILES O=C(COc1cc(-c2ccccc2)nc(NCc2ccc(Cl)cc2)n1)OCCOCCOCCOC(=O)c1ccc(-c2c3nc(c(-c4c(F)cc(S(=O)(=O)[O-])cc4F)c4ccc([nH]4)c(-c4c(F)cc(S(=O)(=O)[O-])cc4F)c4nc(c(-c5c(F)cc(S(=O)(=O)[O-])cc5F)c5ccc2[nH]5)C=C4)C=C3)cc1
REMARK SMILES IDX 30 1 29 2 28 3 27 4 26 5 2 6 1 7 3 8 4 9 5 10 6 11 25 12
REMARK SMILES IDX 7 13 15 14 14 15 8 16 9 17 13 18 10 19 12 20 11 21 16 22
REMARK SMILES IDX 17 24 18 25 19 26 24 27 20 28 23 29 21 30 22 31 31 32 32 33
REMARK SMILES IDX 33 34 34 35 35 36 36 37 37 38 38 39 39 40 103 41 40 42
REMARK SMILES IDX 102 43 41 44 42 45 43 46 96 47 44 48 101 49 95 50 97 51
REMARK SMILES IDX 45 52 100 53 94 54 93 55 46 57 80 58 59 59 79 60 60 61 63 62
REMARK SMILES IDX 78 63 98 64 61 65 62 66 77 68 99 69 64 70 47 71 48 72 57 73
REMARK SMILES IDX 49 74 50 75 56 76 58 77 51 78 52 79 53 80 54 81 55 82 81 83
REMARK SMILES IDX 82 84 91 85 83 86 84 87 90 88 92 89 85 90 86 91 87 92 88 93
REMARK SMILES IDX 89 94 65 95 66 96 75 97 67 98 68 99 74 100 76 101 69 102
REMARK SMILES IDX 70 103 71 104 72 105 73 106
REMARK H PARENT 16 23 97 56 63 67
REMARK Flexibility Score: inf
ROOT
ATOM      1  C   UNL     1       3.530   1.441  -1.664  1.00  0.00     0.188 C 
ENDROOT
BRANCH   1   2
ATOM      2  O   UNL     1       4.793   0.811  -1.523  1.00  0.00    -0.376 OA
BRANCH   2   3
ATOM      3  C   UNL     1       5.066   0.193  -0.283  1.00  0.00     0.202 C 
BRANCH   3   4
ATOM      4  C   UNL     1       4.247  -1.075  -0.058  1.00  0.00     0.261 C 
BRANCH   4   5
ATOM      5  O   UNL     1       2.808  -0.904   0.020  1.00  0.00    -0.461 OA
BRANCH   5   6
ATOM      6  C   UNL     1       2.102  -0.063   0.812  1.00  0.00     0.344 C 
ATOM      7  O   UNL     1       0.896   0.076   0.624  1.00  0.00    -0.248 OA
BRANCH   6   8
ATOM      8  C   UNL     1       2.829   0.710   1.901  1.00  0.00     0.353 C 
BRANCH   8   9
ATOM      9  O   UNL     1       3.931   0.007   2.468  1.00  0.00    -0.466 OA
BRANCH   9  10
ATOM     10  C   UNL     1       3.473  -0.759   3.498  1.00  0.00     0.219 A 
ATOM     11  C   UNL     1       2.648  -1.820   3.274  1.00  0.00     0.097 A 
ATOM     12  N   UNL     1       3.777  -0.290   4.695  1.00  0.00    -0.177 NA
ATOM     13  C   UNL     1       1.977  -2.287   4.376  1.00  0.00     0.080 A 
ATOM     14  C   UNL     1       3.130  -0.820   5.731  1.00  0.00     0.226 A 
ATOM     15  N   UNL     1       2.204  -1.789   5.615  1.00  0.00    -0.213 NA
BRANCH  13  16
ATOM     16  C   UNL     1       0.858  -3.223   4.160  1.00  0.00     0.000 A 
ATOM     17  C   UNL     1      -0.402  -2.981   4.726  1.00  0.00     0.010 A 
ATOM     18  C   UNL     1       0.968  -4.279   3.229  1.00  0.00     0.010 A 
ATOM     19  C   UNL     1      -1.517  -3.734   4.341  1.00  0.00     0.001 A 
ATOM     20  C   UNL     1      -0.144  -5.026   2.840  1.00  0.00     0.001 A 
ATOM     21  C   UNL     1      -1.390  -4.746   3.391  1.00  0.00     0.000 A 
ENDBRANCH  13  16
BRANCH  14  22
ATOM     22  N   UNL     1       3.399  -0.301   6.965  1.00  0.00    -0.350 N 
ATOM     23  H   UNL     1       2.825  -0.530   7.732  1.00  0.00     0.164 HD
BRANCH  22  24
ATOM     24  C   UNL     1       4.526   0.584   7.145  1.00  0.00     0.152 C 
BRANCH  24  25
ATOM     25  C   UNL     1       4.256   1.640   8.188  1.00  0.00    -0.029 A 
ATOM     26  C   UNL     1       4.378   3.005   7.865  1.00  0.00     0.007 A 
ATOM     27  C   UNL     1       3.944   1.280   9.505  1.00  0.00     0.007 A 
ATOM     28  C   UNL     1       4.227   3.985   8.850  1.00  0.00     0.021 A 
ATOM     29  C   UNL     1       3.790   2.261  10.485  1.00  0.00     0.021 A 
ATOM     30  C   UNL     1       3.957   3.606  10.161  1.00  0.00     0.041 A 
ATOM     31  Cl  UNL     1       3.912   4.777  11.419  1.00  0.00    -0.084 Cl
ENDBRANCH  24  25
ENDBRANCH  22  24
ENDBRANCH  14  22
ENDBRANCH   9  10
ENDBRANCH   8   9
ENDBRANCH   6   8
ENDBRANCH   5   6
ENDBRANCH   4   5
ENDBRANCH   3   4
ENDBRANCH   2   3
ENDBRANCH   1   2
BRANCH   1  32
ATOM     32  C   UNL     1       2.602   0.736  -2.670  1.00  0.00     0.188 C 
BRANCH  32  33
ATOM     33  O   UNL     1       3.146   0.102  -3.824  1.00  0.00    -0.376 OA
BRANCH  33  34
ATOM     34  C   UNL     1       4.409   0.510  -4.325  1.00  0.00     0.202 C 
BRANCH  34  35
ATOM     35  C   UNL     1       4.500   1.902  -4.965  1.00  0.00     0.261 C 
BRANCH  35  36
ATOM     36  O   UNL     1       4.111   2.997  -4.113  1.00  0.00    -0.460 OA
BRANCH  36  37
ATOM     37  C   UNL     1       2.890   3.535  -4.369  1.00  0.00     0.338 C 
ATOM     38  O   UNL     1       2.137   3.219  -5.274  1.00  0.00    -0.246 OA
BRANCH  37  39
ATOM     39  C   UNL     1       2.480   4.475  -3.292  1.00  0.00     0.060 A 
ATOM     40  C   UNL     1       1.208   4.301  -2.728  1.00  0.00     0.016 A 
ATOM     41  C   UNL     1       3.274   5.553  -2.889  1.00  0.00     0.016 A 
ATOM     42  C   UNL     1       0.702   5.232  -1.816  1.00  0.00     0.010 A 
ATOM     43  C   UNL     1       2.755   6.498  -1.986  1.00  0.00     0.010 A 
ATOM     44  C   UNL     1       1.449   6.367  -1.476  1.00  0.00    -0.014 A 
BRANCH  44  45
ATOM     45  C   UNL     1       0.782   7.487  -0.752  1.00  0.00     0.031 A 
ATOM     46  C   UNL     1       0.240   8.651  -1.547  1.00  0.00     0.074 A 
ATOM     47  C   UNL     1       0.585   7.456   0.580  1.00  0.00     0.049 A 
ATOM     48  N   UNL     1      -0.382   9.725  -1.131  1.00  0.00    -0.248 NA
ATOM     49  C   UNL     1       0.422   8.590  -3.006  1.00  0.00     0.031 C 
ATOM     50  C   UNL     1       1.011   6.384   1.477  1.00  0.00     0.029 A 
ATOM     51  N   UNL     1      -0.028   8.365   1.410  1.00  0.00    -0.354 N 
ATOM     52  C   UNL     1      -0.676  10.462  -2.273  1.00  0.00     0.074 A 
ATOM     53  C   UNL     1      -0.128   9.731  -3.397  1.00  0.00     0.031 C 
ATOM     54  C   UNL     1       0.658   6.704   2.735  1.00  0.00     0.029 A 
ATOM     55  C   UNL     1      -0.000   8.011   2.737  1.00  0.00     0.049 A 
ATOM     56  H   UNL     1      -0.449   9.193   1.083  1.00  0.00     0.167 HD
ATOM     57  C   UNL     1      -1.354  11.630  -2.387  1.00  0.00     0.037 A 
ATOM     58  C   UNL     1      -0.435   8.671   3.831  1.00  0.00     0.037 A 
ATOM     59  C   UNL     1      -1.903  12.372  -1.281  1.00  0.00     0.049 A 
ATOM     60  C   UNL     1      -1.112  10.011   3.689  1.00  0.00     0.074 A 
ATOM     61  C   UNL     1      -2.604  13.567  -1.311  1.00  0.00     0.029 A 
ATOM     62  N   UNL     1      -1.815  11.998   0.050  1.00  0.00    -0.354 N 
ATOM     63  N   UNL     1      -1.391  10.687   2.600  1.00  0.00    -0.248 NA
ATOM     64  C   UNL     1      -1.539  10.677   4.931  1.00  0.00     0.031 C 
ATOM     65  C   UNL     1      -2.903  13.936   0.005  1.00  0.00     0.029 A 
ATOM     66  C   UNL     1      -2.431  12.948   0.851  1.00  0.00     0.049 A 
ATOM     67  H   UNL     1      -1.379  11.179   0.379  1.00  0.00     0.167 HD
ATOM     68  C   UNL     1      -2.048  11.839   3.025  1.00  0.00     0.074 A 
ATOM     69  C   UNL     1      -2.143  11.762   4.467  1.00  0.00     0.031 C 
ATOM     70  C   UNL     1      -2.529  12.869   2.286  1.00  0.00     0.037 A 
BRANCH  57  71
ATOM     71  C   UNL     1      -1.542  12.192  -3.768  1.00  0.00     0.058 A 
ATOM     72  C   UNL     1      -2.452  11.623  -4.673  1.00  0.00     0.135 A 
ATOM     73  C   UNL     1      -0.852  13.347  -4.169  1.00  0.00     0.135 A 
ATOM     74  F   UNL     1      -3.123  10.508  -4.346  1.00  0.00    -0.206 F 
ATOM     75  C   UNL     1      -2.663  12.173  -5.933  1.00  0.00     0.059 A 
ATOM     76  C   UNL     1      -1.065  13.928  -5.415  1.00  0.00     0.059 A 
ATOM     77  F   UNL     1       0.032  13.928  -3.342  1.00  0.00    -0.206 F 
ATOM     78  C   UNL     1      -1.967  13.329  -6.293  1.00  0.00     0.060 A 
BRANCH  78  79
ATOM     79  S   UNL     1      -2.275  14.047  -7.920  1.00  0.00     0.124 S 
ATOM     80  O   UNL     1      -1.613  13.083  -8.794  1.00  0.00    -0.237 OA
ATOM     81  O   UNL     1      -3.733  14.063  -7.984  1.00  0.00    -0.237 OA
ATOM     82  O   UNL     1      -1.639  15.359  -7.839  1.00  0.00    -0.744 OA
ENDBRANCH  78  79
ENDBRANCH  57  71
BRANCH  58  83
ATOM     83  C   UNL     1      -0.206   8.103   5.186  1.00  0.00     0.058 A 
ATOM     84  C   UNL     1      -1.273   7.679   5.993  1.00  0.00     0.135 A 
ATOM     85  C   UNL     1       1.088   8.047   5.725  1.00  0.00     0.135 A 
ATOM     86  F   UNL     1      -2.530   7.734   5.527  1.00  0.00    -0.206 F 
ATOM     87  C   UNL     1      -1.070   7.252   7.301  1.00  0.00     0.059 A 
ATOM     88  C   UNL     1       1.319   7.597   7.017  1.00  0.00     0.059 A 
ATOM     89  F   UNL     1       2.142   8.436   4.992  1.00  0.00    -0.206 F 
ATOM     90  C   UNL     1       0.231   7.218   7.803  1.00  0.00     0.060 A 
BRANCH  90  91
ATOM     91  S   UNL     1       0.489   6.691   9.508  1.00  0.00     0.124 S 
ATOM     92  O   UNL     1      -0.249   7.708  10.248  1.00  0.00    -0.237 OA
ATOM     93  O   UNL     1      -0.094   5.354   9.499  1.00  0.00    -0.237 OA
ATOM     94  O   UNL     1       1.941   6.745   9.643  1.00  0.00    -0.744 OA
ENDBRANCH  90  91
ENDBRANCH  58  83
BRANCH  70  95
ATOM     95  C   UNL     1      -3.235  13.981   3.017  1.00  0.00     0.058 A 
ATOM     96  C   UNL     1      -2.539  14.894   3.826  1.00  0.00     0.135 A 
ATOM     97  C   UNL     1      -4.625  14.144   2.897  1.00  0.00     0.135 A 
ATOM     98  F   UNL     1      -1.210  14.783   3.979  1.00  0.00    -0.206 F 
ATOM     99  C   UNL     1      -3.199  15.903   4.521  1.00  0.00     0.059 A 
ATOM    100  C   UNL     1      -5.302  15.164   3.560  1.00  0.00     0.059 A 
ATOM    101  F   UNL     1      -5.340  13.310   2.126  1.00  0.00    -0.206 F 
ATOM    102  C   UNL     1      -4.583  16.026   4.386  1.00  0.00     0.060 A 
BRANCH 102 103
ATOM    103  S   UNL     1      -5.431  17.338   5.293  1.00  0.00     0.124 S 
ATOM    104  O   UNL     1      -5.438  16.801   6.649  1.00  0.00    -0.237 OA
ATOM    105  O   UNL     1      -4.560  18.488   5.071  1.00  0.00    -0.237 OA
ATOM    106  O   UNL     1      -6.735  17.414   4.640  1.00  0.00    -0.744 OA
ENDBRANCH 102 103
ENDBRANCH  70  95
ENDBRANCH  44  45
ENDBRANCH  37  39
ENDBRANCH  36  37
ENDBRANCH  35  36
ENDBRANCH  34  35
ENDBRANCH  33  34
ENDBRANCH  32  33
ENDBRANCH   1  32
TORSDOF 26
