REMARK SMILES O=C(OCCOCCOCCOC(=O)c1ccccc1/N=C/c1coc2ccccc2c1=O)c1ccc(-c2c3nc(c(-c4c(F)cc(S(=O)(=O)[O-])cc4F)c4ccc([nH]4)c(-c4c(F)cc(S(=O)(=O)[O-])cc4F)c4nc(c(-c5c(F)cc(S(=O)(=O)[O-])cc5F)c5ccc2[nH]5)C=C4)C=C3)cc1
REMARK SMILES IDX 7 1 6 2 5 3 4 4 3 5 2 6 1 7 34 8 35 9 99 10 36 11 98 12
REMARK SMILES IDX 37 13 38 14 39 15 92 16 40 17 97 18 91 19 93 20 41 21 96 22
REMARK SMILES IDX 90 23 89 24 42 26 76 27 55 28 75 29 56 30 59 31 74 32 94 33
REMARK SMILES IDX 57 34 58 35 73 37 95 38 60 39 43 40 44 41 53 42 45 43 46 44
REMARK SMILES IDX 52 45 54 46 47 47 48 48 49 49 50 50 51 51 77 52 78 53 87 54
REMARK SMILES IDX 79 55 80 56 86 57 88 58 81 59 82 60 83 61 84 62 85 63 61 64
REMARK SMILES IDX 62 65 71 66 63 67 64 68 70 69 72 70 65 71 66 72 67 73 68 74
REMARK SMILES IDX 69 75 8 76 9 77 10 78 11 79 12 80 13 81 14 82 15 83 16 84
REMARK SMILES IDX 20 85 17 86 19 87 18 88 21 89 22 90 23 91 24 92 32 93 25 94
REMARK SMILES IDX 31 95 33 96 26 97 30 98 27 99 29 100 28 101
REMARK H PARENT 93 25 59 36
REMARK Flexibility Score: inf
ROOT
ATOM      1  C   UNL     1       2.775   0.387   1.834  1.00  0.00     0.188 C 
ENDROOT
BRANCH   1   2
ATOM      2  O   UNL     1       4.020   0.908   2.274  1.00  0.00    -0.376 OA
BRANCH   2   3
ATOM      3  C   UNL     1       4.974   1.193   1.247  1.00  0.00     0.202 C 
BRANCH   3   4
ATOM      4  C   UNL     1       4.451   2.047   0.082  1.00  0.00     0.261 C 
BRANCH   4   5
ATOM      5  O   UNL     1       4.308   1.185  -1.060  1.00  0.00    -0.460 OA
BRANCH   5   6
ATOM      6  C   UNL     1       3.084   0.716  -1.385  1.00  0.00     0.338 C 
ATOM      7  O   UNL     1       1.992   1.187  -1.119  1.00  0.00    -0.246 OA
BRANCH   6   8
ATOM      8  C   UNL     1       3.330  -0.582  -2.035  1.00  0.00     0.060 A 
ATOM      9  C   UNL     1       4.182  -1.487  -1.387  1.00  0.00     0.016 A 
ATOM     10  C   UNL     1       2.803  -0.870  -3.293  1.00  0.00     0.016 A 
ATOM     11  C   UNL     1       4.621  -2.617  -2.049  1.00  0.00     0.010 A 
ATOM     12  C   UNL     1       3.226  -2.028  -3.951  1.00  0.00     0.010 A 
ATOM     13  C   UNL     1       4.175  -2.872  -3.350  1.00  0.00    -0.014 A 
BRANCH  13  14
ATOM     14  C   UNL     1       4.817  -3.981  -4.083  1.00  0.00     0.031 A 
ATOM     15  C   UNL     1       5.869  -3.663  -5.105  1.00  0.00     0.074 A 
ATOM     16  C   UNL     1       4.521  -5.247  -3.737  1.00  0.00     0.049 A 
ATOM     17  N   UNL     1       6.572  -4.484  -5.836  1.00  0.00    -0.248 NA
ATOM     18  C   UNL     1       6.154  -2.239  -5.361  1.00  0.00     0.031 C 
ATOM     19  C   UNL     1       3.515  -5.625  -2.743  1.00  0.00     0.029 A 
ATOM     20  N   UNL     1       5.066  -6.442  -4.128  1.00  0.00    -0.354 N 
ATOM     21  C   UNL     1       7.295  -3.683  -6.712  1.00  0.00     0.074 A 
ATOM     22  C   UNL     1       7.008  -2.308  -6.373  1.00  0.00     0.031 C 
ATOM     23  C   UNL     1       3.575  -6.952  -2.544  1.00  0.00     0.029 A 
ATOM     24  C   UNL     1       4.602  -7.522  -3.409  1.00  0.00     0.049 A 
ATOM     25  H   UNL     1       5.727  -6.521  -4.854  1.00  0.00     0.167 HD
ATOM     26  C   UNL     1       8.076  -4.082  -7.741  1.00  0.00     0.037 A 
ATOM     27  C   UNL     1       4.998  -8.812  -3.439  1.00  0.00     0.037 A 
ATOM     28  C   UNL     1       8.373  -5.463  -8.016  1.00  0.00     0.049 A 
ATOM     29  C   UNL     1       6.031  -9.196  -4.465  1.00  0.00     0.074 A 
ATOM     30  C   UNL     1       9.120  -5.999  -9.048  1.00  0.00     0.029 A 
ATOM     31  N   UNL     1       7.940  -6.526  -7.236  1.00  0.00    -0.354 N 
ATOM     32  N   UNL     1       6.688  -8.425  -5.300  1.00  0.00    -0.248 NA
ATOM     33  C   UNL     1       6.337 -10.627  -4.592  1.00  0.00     0.031 C 
ATOM     34  C   UNL     1       9.107  -7.392  -8.913  1.00  0.00     0.029 A 
ATOM     35  C   UNL     1       8.384  -7.718  -7.777  1.00  0.00     0.049 A 
ATOM     36  H   UNL     1       7.398  -6.443  -6.419  1.00  0.00     0.167 HD
ATOM     37  C   UNL     1       7.418  -9.288  -6.104  1.00  0.00     0.074 A 
ATOM     38  C   UNL     1       7.220 -10.623  -5.578  1.00  0.00     0.031 C 
ATOM     39  C   UNL     1       8.126  -9.021  -7.227  1.00  0.00     0.037 A 
BRANCH  26  40
ATOM     40  C   UNL     1       8.559  -3.038  -8.704  1.00  0.00     0.058 A 
ATOM     41  C   UNL     1       9.630  -2.179  -8.424  1.00  0.00     0.135 A 
ATOM     42  C   UNL     1       7.940  -2.927  -9.962  1.00  0.00     0.135 A 
ATOM     43  F   UNL     1      10.236  -2.223  -7.227  1.00  0.00    -0.206 F 
ATOM     44  C   UNL     1      10.070  -1.242  -9.357  1.00  0.00     0.059 A 
ATOM     45  C   UNL     1       8.374  -2.013 -10.915  1.00  0.00     0.059 A 
ATOM     46  F   UNL     1       6.900  -3.716 -10.274  1.00  0.00    -0.206 F 
ATOM     47  C   UNL     1       9.437  -1.169 -10.600  1.00  0.00     0.060 A 
BRANCH  47  48
ATOM     48  S   UNL     1      10.030   0.033 -11.810  1.00  0.00     0.124 S 
ATOM     49  O   UNL     1       9.529   1.284 -11.248  1.00  0.00    -0.237 OA
ATOM     50  O   UNL     1      11.476  -0.153 -11.752  1.00  0.00    -0.237 OA
ATOM     51  O   UNL     1       9.396  -0.393 -13.053  1.00  0.00    -0.744 OA
ENDBRANCH  47  48
ENDBRANCH  26  40
BRANCH  27  52
ATOM     52  C   UNL     1       4.455  -9.831  -2.495  1.00  0.00     0.058 A 
ATOM     53  C   UNL     1       5.315 -10.515  -1.615  1.00  0.00     0.135 A 
ATOM     54  C   UNL     1       3.089 -10.138  -2.423  1.00  0.00     0.135 A 
ATOM     55  F   UNL     1       6.630 -10.245  -1.618  1.00  0.00    -0.206 F 
ATOM     56  C   UNL     1       4.841 -11.436  -0.685  1.00  0.00     0.059 A 
ATOM     57  C   UNL     1       2.587 -11.033  -1.481  1.00  0.00     0.059 A 
ATOM     58  F   UNL     1       2.217  -9.535  -3.245  1.00  0.00    -0.206 F 
ATOM     59  C   UNL     1       3.470 -11.675  -0.615  1.00  0.00     0.060 A 
BRANCH  59  60
ATOM     60  S   UNL     1       2.836 -12.753   0.688  1.00  0.00     0.124 S 
ATOM     61  O   UNL     1       3.044 -14.071   0.102  1.00  0.00    -0.237 OA
ATOM     62  O   UNL     1       3.695 -12.409   1.818  1.00  0.00    -0.237 OA
ATOM     63  O   UNL     1       1.447 -12.324   0.817  1.00  0.00    -0.744 OA
ENDBRANCH  59  60
ENDBRANCH  27  52
BRANCH  39  64
ATOM     64  C   UNL     1       8.617 -10.209  -7.995  1.00  0.00     0.058 A 
ATOM     65  C   UNL     1       7.717 -10.978  -8.752  1.00  0.00     0.135 A 
ATOM     66  C   UNL     1       9.973 -10.555  -8.018  1.00  0.00     0.135 A 
ATOM     67  F   UNL     1       6.406 -10.687  -8.746  1.00  0.00    -0.206 F 
ATOM     68  C   UNL     1       8.147 -12.065  -9.497  1.00  0.00     0.059 A 
ATOM     69  C   UNL     1      10.429 -11.627  -8.776  1.00  0.00     0.059 A 
ATOM     70  F   UNL     1      10.866  -9.844  -7.312  1.00  0.00    -0.206 F 
ATOM     71  C   UNL     1       9.506 -12.380  -9.506  1.00  0.00     0.060 A 
BRANCH  71  72
ATOM     72  S   UNL     1      10.058 -13.767 -10.518  1.00  0.00     0.124 S 
ATOM     73  O   UNL     1       9.619 -14.905  -9.718  1.00  0.00    -0.237 OA
ATOM     74  O   UNL     1       9.332 -13.551 -11.766  1.00  0.00    -0.237 OA
ATOM     75  O   UNL     1      11.502 -13.573 -10.598  1.00  0.00    -0.744 OA
ENDBRANCH  71  72
ENDBRANCH  39  64
ENDBRANCH  13  14
ENDBRANCH   6   8
ENDBRANCH   5   6
ENDBRANCH   4   5
ENDBRANCH   3   4
ENDBRANCH   2   3
ENDBRANCH   1   2
BRANCH   1  76
ATOM     76  C   UNL     1       1.862  -0.139   2.948  1.00  0.00     0.188 C 
BRANCH  76  77
ATOM     77  O   UNL     1       2.362  -0.348   4.255  1.00  0.00    -0.376 OA
BRANCH  77  78
ATOM     78  C   UNL     1       3.656  -0.888   4.444  1.00  0.00     0.202 C 
BRANCH  78  79
ATOM     79  C   UNL     1       4.105  -2.149   3.696  1.00  0.00     0.261 C 
BRANCH  79  80
ATOM     80  O   UNL     1       3.240  -2.687   2.693  1.00  0.00    -0.460 OA
BRANCH  80  81
ATOM     81  C   UNL     1       2.216  -3.414   3.199  1.00  0.00     0.340 C 
ATOM     82  O   UNL     1       1.788  -3.392   4.341  1.00  0.00    -0.246 OA
BRANCH  81  83
ATOM     83  C   UNL     1       1.786  -4.401   2.207  1.00  0.00     0.085 A 
ATOM     84  C   UNL     1       0.992  -4.012   1.120  1.00  0.00     0.018 A 
ATOM     85  C   UNL     1       2.210  -5.730   2.370  1.00  0.00     0.077 A 
ATOM     86  C   UNL     1       0.569  -4.972   0.202  1.00  0.00     0.001 A 
ATOM     87  C   UNL     1       1.735  -6.683   1.461  1.00  0.00     0.029 A 
ATOM     88  C   UNL     1       0.912  -6.311   0.390  1.00  0.00     0.002 A 
BRANCH  85  89
ATOM     89  N   UNL     1       3.361  -6.054   3.092  1.00  0.00    -0.255 NA
ATOM     90  C   UNL     1       3.594  -5.811   4.338  1.00  0.00     0.127 C 
BRANCH  90  91
ATOM     91  C   UNL     1       5.021  -5.833   4.857  1.00  0.00     0.076 A 
ATOM     92  C   UNL     1       5.378  -7.063   5.278  1.00  0.00     0.209 A 
ATOM     93  C   UNL     1       6.025  -5.406   3.809  1.00  0.00     0.201 A 
ATOM     94  O   UNL     1       5.816  -8.071   4.394  1.00  0.00    -0.463 OA
ATOM     95  C   UNL     1       6.122  -6.378   2.701  1.00  0.00     0.065 A 
ATOM     96  O   UNL     1       6.590  -4.322   3.828  1.00  0.00    -0.288 OA
ATOM     97  C   UNL     1       5.859  -7.708   3.064  1.00  0.00     0.137 A 
ATOM     98  C   UNL     1       6.024  -5.941   1.382  1.00  0.00     0.016 A 
ATOM     99  C   UNL     1       5.441  -8.618   2.114  1.00  0.00     0.048 A 
ATOM    100  C   UNL     1       5.556  -6.845   0.438  1.00  0.00     0.001 A 
ATOM    101  C   UNL     1       5.228  -8.152   0.819  1.00  0.00     0.004 A 
ENDBRANCH  90  91
ENDBRANCH  85  89
ENDBRANCH  81  83
ENDBRANCH  80  81
ENDBRANCH  79  80
ENDBRANCH  78  79
ENDBRANCH  77  78
ENDBRANCH  76  77
ENDBRANCH   1  76
TORSDOF 22
