REMARK SMILES CCCC[C@@H](C(=O)OCCOCCOCCOC(=O)c1ccc(-c2c3nc(c(-c4c(F)cc(S(=O)(=O)[O-])cc4F)c4ccc([nH]4)c(-c4c(F)cc(S(=O)(=O)[O-])cc4F)c4nc(c(-c5c(F)cc(S(=O)(=O)[O-])cc5F)c5ccc2[nH]5)C=C4)C=C3)cc1)[C@](C)(O)c1cccc(Br)c1
REMARK SMILES IDX 12 1 11 2 10 3 9 4 8 5 6 6 7 7 5 8 4 9 3 10 2 11 1 12 86 13
REMARK SMILES IDX 87 14 88 15 89 17 90 18 95 19 91 20 93 21 92 22 94 23 13 24
REMARK SMILES IDX 14 25 15 26 16 27 17 28 18 29 19 30 20 31 21 32 85 33 22 34
REMARK SMILES IDX 84 35 23 36 24 37 25 38 78 39 26 40 83 41 77 42 79 43 27 44
REMARK SMILES IDX 82 45 76 46 75 47 28 49 62 50 41 51 61 52 42 53 45 54 60 55
REMARK SMILES IDX 80 56 43 57 44 58 59 60 81 61 46 62 29 63 30 64 39 65 31 66
REMARK SMILES IDX 32 67 38 68 40 69 33 70 34 71 35 72 36 73 37 74 63 75 64 76
REMARK SMILES IDX 73 77 65 78 66 79 72 80 74 81 67 82 68 83 69 84 70 85 71 86
REMARK SMILES IDX 47 87 48 88 57 89 49 90 50 91 56 92 58 93 51 94 52 95 53 96
REMARK SMILES IDX 54 97 55 98
REMARK H PARENT 88 16 79 48 45 59
REMARK Flexibility Score: inf
ROOT
ATOM      1  C   UNL     1       2.478   3.591   0.952  1.00  0.00     0.188 C 
ENDROOT
BRANCH   1   2
ATOM      2  O   UNL     1       3.437   2.890   0.179  1.00  0.00    -0.376 OA
BRANCH   2   3
ATOM      3  C   UNL     1       3.103   2.581  -1.171  1.00  0.00     0.202 C 
BRANCH   3   4
ATOM      4  C   UNL     1       1.691   2.060  -1.466  1.00  0.00     0.261 C 
BRANCH   4   5
ATOM      5  O   UNL     1       0.686   3.049  -1.158  1.00  0.00    -0.463 OA
BRANCH   5   6
ATOM      6  C   UNL     1      -0.581   2.586  -1.044  1.00  0.00     0.312 C 
ATOM      7  O   UNL     1      -0.887   1.415  -1.241  1.00  0.00    -0.252 OA
BRANCH   6   8
ATOM      8  C   UNL     1      -1.612   3.660  -0.662  1.00  0.00     0.135 C 
BRANCH   8   9
ATOM      9  C   UNL     1      -1.363   5.027  -1.325  1.00  0.00     0.019 C 
BRANCH   9  10
ATOM     10  C   UNL     1      -1.002   5.075  -2.812  1.00  0.00     0.001 C 
BRANCH  10  11
ATOM     11  C   UNL     1      -2.045   4.496  -3.761  1.00  0.00    -0.003 C 
ATOM     12  C   UNL     1      -3.424   5.115  -3.592  1.00  0.00     0.004 C 
ENDBRANCH  10  11
ENDBRANCH   9  10
ENDBRANCH   8   9
BRANCH   8  13
ATOM     13  C   UNL     1      -2.098   3.643   0.877  1.00  0.00     0.100 C 
ATOM     14  C   UNL     1      -1.606   2.344   1.580  1.00  0.00     0.048 C 
BRANCH  13  15
ATOM     15  O   UNL     1      -3.543   3.513   0.785  1.00  0.00    -0.385 OA
ATOM     16  H   UNL     1      -3.924   3.494   1.677  1.00  0.00     0.211 HD
ENDBRANCH  13  15
BRANCH  13  17
ATOM     17  C   UNL     1      -1.986   4.849   1.863  1.00  0.00    -0.015 A 
ATOM     18  C   UNL     1      -2.202   4.650   3.253  1.00  0.00     0.007 A 
ATOM     19  C   UNL     1      -1.850   6.198   1.497  1.00  0.00     0.022 A 
ATOM     20  C   UNL     1      -2.230   5.698   4.192  1.00  0.00     0.002 A 
ATOM     21  C   UNL     1      -1.839   7.248   2.436  1.00  0.00     0.018 A 
ATOM     22  C   UNL     1      -2.017   7.004   3.786  1.00  0.00     0.016 A 
ATOM     23  Br  UNL     1      -1.591   9.028   1.838  1.00  0.00    -0.051 Br
ENDBRANCH  13  17
ENDBRANCH   8  13
ENDBRANCH   6   8
ENDBRANCH   5   6
ENDBRANCH   4   5
ENDBRANCH   3   4
ENDBRANCH   2   3
ENDBRANCH   1   2
BRANCH   1  24
ATOM     24  C   UNL     1       1.968   4.949   0.446  1.00  0.00     0.188 C 
BRANCH  24  25
ATOM     25  O   UNL     1       2.445   5.527  -0.747  1.00  0.00    -0.376 OA
BRANCH  25  26
ATOM     26  C   UNL     1       3.786   5.996  -0.793  1.00  0.00     0.202 C 
BRANCH  26  27
ATOM     27  C   UNL     1       4.492   6.677   0.401  1.00  0.00     0.261 C 
BRANCH  27  28
ATOM     28  O   UNL     1       4.100   6.250   1.712  1.00  0.00    -0.460 OA
BRANCH  28  29
ATOM     29  C   UNL     1       3.559   7.205   2.509  1.00  0.00     0.338 C 
ATOM     30  O   UNL     1       3.435   8.402   2.259  1.00  0.00    -0.246 OA
BRANCH  29  31
ATOM     31  C   UNL     1       2.997   6.569   3.711  1.00  0.00     0.060 A 
ATOM     32  C   UNL     1       1.684   6.100   3.672  1.00  0.00     0.016 A 
ATOM     33  C   UNL     1       3.735   6.471   4.891  1.00  0.00     0.016 A 
ATOM     34  C   UNL     1       1.137   5.467   4.777  1.00  0.00     0.010 A 
ATOM     35  C   UNL     1       3.149   5.890   6.027  1.00  0.00     0.010 A 
ATOM     36  C   UNL     1       1.838   5.385   5.977  1.00  0.00    -0.014 A 
BRANCH  36  37
ATOM     37  C   UNL     1       1.095   4.945   7.186  1.00  0.00     0.031 A 
ATOM     38  C   UNL     1       0.708   5.974   8.211  1.00  0.00     0.074 A 
ATOM     39  C   UNL     1       0.618   3.690   7.308  1.00  0.00     0.049 A 
ATOM     40  N   UNL     1       0.205   5.805   9.405  1.00  0.00    -0.248 NA
ATOM     41  C   UNL     1       0.896   7.383   7.829  1.00  0.00     0.031 C 
ATOM     42  C   UNL     1       0.743   2.631   6.306  1.00  0.00     0.029 A 
ATOM     43  N   UNL     1      -0.089   3.100   8.328  1.00  0.00    -0.354 N 
ATOM     44  C   UNL     1       0.074   7.080   9.942  1.00  0.00     0.074 A 
ATOM     45  C   UNL     1       0.523   8.014   8.933  1.00  0.00     0.031 C 
ATOM     46  C   UNL     1       0.128   1.526   6.759  1.00  0.00     0.029 A 
ATOM     47  C   UNL     1      -0.352   1.767   8.118  1.00  0.00     0.049 A 
ATOM     48  H   UNL     1      -0.381   3.587   9.133  1.00  0.00     0.167 HD
ATOM     49  C   UNL     1      -0.364   7.433  11.173  1.00  0.00     0.037 A 
ATOM     50  C   UNL     1      -0.859   0.832   8.948  1.00  0.00     0.037 A 
ATOM     51  C   UNL     1      -0.852   6.500  12.155  1.00  0.00     0.049 A 
ATOM     52  C   UNL     1      -1.220   1.219  10.360  1.00  0.00     0.074 A 
ATOM     53  C   UNL     1      -1.281   6.754  13.445  1.00  0.00     0.029 A 
ATOM     54  N   UNL     1      -0.988   5.135  11.950  1.00  0.00    -0.354 N 
ATOM     55  N   UNL     1      -1.211   2.406  10.918  1.00  0.00    -0.248 NA
ATOM     56  C   UNL     1      -1.622   0.133  11.266  1.00  0.00     0.031 C 
ATOM     57  C   UNL     1      -1.633   5.535  14.037  1.00  0.00     0.029 A 
ATOM     58  C   UNL     1      -1.469   4.529  13.099  1.00  0.00     0.049 A 
ATOM     59  H   UNL     1      -0.774   4.666  11.112  1.00  0.00     0.167 HD
ATOM     60  C   UNL     1      -1.603   2.209  12.239  1.00  0.00     0.074 A 
ATOM     61  C   UNL     1      -1.871   0.794  12.389  1.00  0.00     0.031 C 
ATOM     62  C   UNL     1      -1.722   3.117  13.239  1.00  0.00     0.037 A 
BRANCH  49  63
ATOM     63  C   UNL     1      -0.257   8.879  11.559  1.00  0.00     0.058 A 
ATOM     64  C   UNL     1      -1.131   9.858  11.066  1.00  0.00     0.135 A 
ATOM     65  C   UNL     1       0.736   9.281  12.468  1.00  0.00     0.135 A 
ATOM     66  F   UNL     1      -2.079   9.531  10.174  1.00  0.00    -0.206 F 
ATOM     67  C   UNL     1      -1.014  11.191  11.450  1.00  0.00     0.059 A 
ATOM     68  C   UNL     1       0.855  10.602  12.884  1.00  0.00     0.059 A 
ATOM     69  F   UNL     1       1.604   8.383  12.961  1.00  0.00    -0.206 F 
ATOM     70  C   UNL     1      -0.018  11.553  12.360  1.00  0.00     0.060 A 
BRANCH  70  71
ATOM     71  S   UNL     1       0.117  13.282  12.858  1.00  0.00     0.124 S 
ATOM     72  O   UNL     1       0.677  13.888  11.654  1.00  0.00    -0.237 OA
ATOM     73  O   UNL     1      -1.268  13.630  13.157  1.00  0.00    -0.237 OA
ATOM     74  O   UNL     1       1.011  13.236  14.010  1.00  0.00    -0.744 OA
ENDBRANCH  70  71
ENDBRANCH  49  63
BRANCH  50  75
ATOM     75  C   UNL     1      -0.956  -0.586   8.505  1.00  0.00     0.058 A 
ATOM     76  C   UNL     1      -2.195  -1.227   8.363  1.00  0.00     0.135 A 
ATOM     77  C   UNL     1       0.201  -1.336   8.230  1.00  0.00     0.135 A 
ATOM     78  F   UNL     1      -3.328  -0.564   8.638  1.00  0.00    -0.206 F 
ATOM     79  C   UNL     1      -2.286  -2.558   7.963  1.00  0.00     0.059 A 
ATOM     80  C   UNL     1       0.134  -2.656   7.799  1.00  0.00     0.059 A 
ATOM     81  F   UNL     1       1.413  -0.774   8.355  1.00  0.00    -0.206 F 
ATOM     82  C   UNL     1      -1.114  -3.261   7.677  1.00  0.00     0.060 A 
BRANCH  82  83
ATOM     83  S   UNL     1      -1.239  -4.966   7.094  1.00  0.00     0.124 S 
ATOM     84  O   UNL     1      -1.554  -5.676   8.329  1.00  0.00    -0.237 OA
ATOM     85  O   UNL     1      -2.317  -4.878   6.114  1.00  0.00    -0.237 OA
ATOM     86  O   UNL     1       0.085  -5.225   6.535  1.00  0.00    -0.744 OA
ENDBRANCH  82  83
ENDBRANCH  50  75
BRANCH  62  87
ATOM     87  C   UNL     1      -2.163   2.614  14.586  1.00  0.00     0.058 A 
ATOM     88  C   UNL     1      -1.297   1.879  15.412  1.00  0.00     0.135 A 
ATOM     89  C   UNL     1      -3.443   2.913  15.079  1.00  0.00     0.135 A 
ATOM     90  F   UNL     1      -0.065   1.561  14.986  1.00  0.00    -0.206 F 
ATOM     91  C   UNL     1      -1.693   1.441  16.672  1.00  0.00     0.059 A 
ATOM     92  C   UNL     1      -3.851   2.507  16.346  1.00  0.00     0.059 A 
ATOM     93  F   UNL     1      -4.306   3.622  14.334  1.00  0.00    -0.206 F 
ATOM     94  C   UNL     1      -2.972   1.761  17.131  1.00  0.00     0.060 A 
BRANCH  94  95
ATOM     95  S   UNL     1      -3.462   1.213  18.780  1.00  0.00     0.124 S 
ATOM     96  O   UNL     1      -3.670  -0.215  18.565  1.00  0.00    -0.237 OA
ATOM     97  O   UNL     1      -2.299   1.569  19.587  1.00  0.00    -0.237 OA
ATOM     98  O   UNL     1      -4.668   1.989  19.053  1.00  0.00    -0.744 OA
ENDBRANCH  94  95
ENDBRANCH  62  87
ENDBRANCH  36  37
ENDBRANCH  29  31
ENDBRANCH  28  29
ENDBRANCH  27  28
ENDBRANCH  26  27
ENDBRANCH  25  26
ENDBRANCH  24  25
ENDBRANCH   1  24
TORSDOF 26
