REMARK SMILES Cc1c(CC(=O)OCCOCCOCCOC(=O)c2ccc(-c3c4nc(c(-c5c(F)cc(S(=O)(=O)[O-])cc5F)c5ccc([nH]5)c(-c5c(F)cc(S(=O)(=O)[O-])cc5F)c5nc(c(-c6c(F)cc(S(=O)(=O)[O-])cc6F)c6ccc3[nH]6)C=C5)C=C4)cc2)cc(-c2ccccc2)cc1-c1ccccc1
REMARK SMILES IDX 12 1 11 2 10 3 9 4 8 5 7 6 5 7 6 8 4 9 3 10 1 11 2 12 94 13
REMARK SMILES IDX 85 14 93 15 86 16 95 17 96 18 100 19 97 20 99 21 98 22 87 23
REMARK SMILES IDX 88 24 92 25 89 26 91 27 90 28 13 29 14 30 15 31 16 32 17 33
REMARK SMILES IDX 18 34 19 35 20 36 84 37 21 38 83 39 22 40 23 41 24 42 77 43
REMARK SMILES IDX 25 44 82 45 76 46 78 47 26 48 81 49 75 50 74 51 27 53 61 54
REMARK SMILES IDX 40 55 60 56 41 57 44 58 59 59 79 60 42 61 43 62 58 64 80 65
REMARK SMILES IDX 45 66 28 67 29 68 38 69 30 70 31 71 37 72 39 73 32 74 33 75
REMARK SMILES IDX 34 76 35 77 36 78 62 79 63 80 72 81 64 82 65 83 71 84 73 85
REMARK SMILES IDX 66 86 67 87 68 88 69 89 70 90 46 91 47 92 56 93 48 94 49 95
REMARK SMILES IDX 55 96 57 97 50 98 51 99 52 100 53 101 54 102
REMARK H PARENT 78 52 44 63
REMARK Flexibility Score: inf
ROOT
ATOM      1  C   UNL     1      -3.303  -3.464   4.615  1.00  0.00     0.188 C 
ENDROOT
BRANCH   1   2
ATOM      2  C   UNL     1      -1.908  -4.088   4.443  1.00  0.00     0.188 C 
BRANCH   2   3
ATOM      3  O   UNL     1      -0.656  -3.447   4.800  1.00  0.00    -0.376 OA
BRANCH   3   4
ATOM      4  C   UNL     1      -0.407  -2.025   4.858  1.00  0.00     0.202 C 
BRANCH   4   5
ATOM      5  C   UNL     1       0.589  -1.102   3.787  1.00  0.00     0.261 C 
BRANCH   5   6
ATOM      6  O   UNL     1       0.496  -0.855   2.119  1.00  0.00    -0.463 OA
BRANCH   6   7
ATOM      7  C   UNL     1       1.047  -1.365   0.898  1.00  0.00     0.310 C 
ATOM      8  O   UNL     1       1.927  -2.210   0.703  1.00  0.00    -0.252 OA
BRANCH   7   9
ATOM      9  C   UNL     1       0.520  -0.973  -0.427  1.00  0.00     0.158 C 
BRANCH   9  10
ATOM     10  C   UNL     1       0.038   0.401  -0.487  1.00  0.00    -0.033 A 
ATOM     11  C   UNL     1       2.382   1.329  -0.241  1.00  0.00     0.045 C 
ATOM     12  C   UNL     1       0.876   1.507  -0.326  1.00  0.00    -0.039 A 
ATOM     13  C   UNL     1       0.260   2.766  -0.310  1.00  0.00    -0.015 A 
ATOM     14  C   UNL     1      -1.329   0.508  -0.659  1.00  0.00     0.013 A 
ATOM     15  C   UNL     1      -1.155   2.860  -0.400  1.00  0.00     0.017 A 
ATOM     16  C   UNL     1      -1.954   1.730  -0.589  1.00  0.00    -0.017 A 
BRANCH  13  17
ATOM     17  C   UNL     1       1.072   3.976  -0.202  1.00  0.00    -0.018 A 
ATOM     18  C   UNL     1       1.082   4.727   0.979  1.00  0.00     0.009 A 
ATOM     19  C   UNL     1       1.924   4.347  -1.256  1.00  0.00     0.009 A 
ATOM     20  C   UNL     1       1.911   5.840   1.095  1.00  0.00     0.001 A 
ATOM     21  C   UNL     1       2.761   5.452  -1.135  1.00  0.00     0.001 A 
ATOM     22  C   UNL     1       2.746   6.203   0.037  1.00  0.00     0.000 A 
ENDBRANCH  13  17
BRANCH  16  23
ATOM     23  C   UNL     1      -3.407   1.682  -0.660  1.00  0.00    -0.018 A 
ATOM     24  C   UNL     1      -4.163   1.729   0.517  1.00  0.00     0.009 A 
ATOM     25  C   UNL     1      -4.032   1.279  -1.854  1.00  0.00     0.009 A 
ATOM     26  C   UNL     1      -5.516   1.393   0.499  1.00  0.00     0.001 A 
ATOM     27  C   UNL     1      -5.381   0.935  -1.870  1.00  0.00     0.001 A 
ATOM     28  C   UNL     1      -6.122   0.994  -0.692  1.00  0.00     0.000 A 
ENDBRANCH  16  23
ENDBRANCH   9  10
ENDBRANCH   7   9
ENDBRANCH   6   7
ENDBRANCH   5   6
ENDBRANCH   4   5
ENDBRANCH   3   4
ENDBRANCH   2   3
ENDBRANCH   1   2
BRANCH   1  29
ATOM     29  O   UNL     1      -3.338  -2.116   4.173  1.00  0.00    -0.376 OA
BRANCH  29  30
ATOM     30  C   UNL     1      -4.638  -1.556   4.013  1.00  0.00     0.202 C 
BRANCH  30  31
ATOM     31  C   UNL     1      -5.407  -2.010   2.744  1.00  0.00     0.261 C 
BRANCH  31  32
ATOM     32  O   UNL     1      -4.729  -1.624   1.524  1.00  0.00    -0.460 OA
BRANCH  32  33
ATOM     33  C   UNL     1      -4.422  -2.608   0.588  1.00  0.00     0.338 C 
ATOM     34  O   UNL     1      -5.231  -3.040  -0.180  1.00  0.00    -0.246 OA
BRANCH  33  35
ATOM     35  C   UNL     1      -2.933  -2.913   0.647  1.00  0.00     0.060 A 
ATOM     36  C   UNL     1      -2.154  -3.922   0.055  1.00  0.00     0.016 A 
ATOM     37  C   UNL     1      -2.249  -2.155   1.522  1.00  0.00     0.016 A 
ATOM     38  C   UNL     1      -0.772  -4.245   0.503  1.00  0.00     0.010 A 
ATOM     39  C   UNL     1      -1.067  -2.661   2.038  1.00  0.00     0.010 A 
ATOM     40  C   UNL     1      -0.173  -3.634   1.609  1.00  0.00    -0.014 A 
BRANCH  40  41
ATOM     41  C   UNL     1       1.166  -3.973   2.471  1.00  0.00     0.031 A 
ATOM     42  C   UNL     1       2.644  -3.200   2.799  1.00  0.00     0.074 A 
ATOM     43  C   UNL     1       1.048  -5.146   3.128  1.00  0.00     0.049 A 
ATOM     44  N   UNL     1       3.723  -3.833   3.233  1.00  0.00    -0.248 NA
ATOM     45  C   UNL     1       3.099  -1.765   2.614  1.00  0.00     0.031 C 
ATOM     46  C   UNL     1       1.885  -5.696   4.184  1.00  0.00     0.029 A 
ATOM     47  N   UNL     1       0.164  -6.183   2.823  1.00  0.00    -0.354 N 
ATOM     48  C   UNL     1       4.736  -2.896   3.482  1.00  0.00     0.074 A 
ATOM     49  C   UNL     1       4.404  -1.735   2.779  1.00  0.00     0.031 C 
ATOM     50  C   UNL     1       1.703  -7.024   4.220  1.00  0.00     0.029 A 
ATOM     51  C   UNL     1       0.827  -7.381   3.119  1.00  0.00     0.049 A 
ATOM     52  H   UNL     1      -0.749  -6.090   2.468  1.00  0.00     0.167 HD
ATOM     53  C   UNL     1       5.745  -3.035   4.383  1.00  0.00     0.037 A 
ATOM     54  C   UNL     1       1.106  -8.223   2.082  1.00  0.00     0.037 A 
ATOM     55  C   UNL     1       5.957  -4.441   4.610  1.00  0.00     0.049 A 
ATOM     56  C   UNL     1       2.592  -8.281   1.780  1.00  0.00     0.074 A 
ATOM     57  C   UNL     1       5.551  -5.350   5.562  1.00  0.00     0.029 A 
ATOM     58  N   UNL     1       6.333  -5.180   3.500  1.00  0.00    -0.354 N 
ATOM     59  N   UNL     1       3.529  -7.809   2.564  1.00  0.00    -0.248 NA
ATOM     60  C   UNL     1       3.141  -8.829   0.539  1.00  0.00     0.031 C 
ATOM     61  C   UNL     1       5.451  -6.621   4.901  1.00  0.00     0.029 A 
ATOM     62  C   UNL     1       5.868  -6.479   3.585  1.00  0.00     0.049 A 
ATOM     63  H   UNL     1       6.862  -4.826   2.749  1.00  0.00     0.167 HD
ATOM     64  C   UNL     1       4.729  -7.853   1.914  1.00  0.00     0.074 A 
ATOM     65  C   UNL     1       4.449  -8.551   0.670  1.00  0.00     0.031 C 
ATOM     66  C   UNL     1       5.880  -7.282   2.370  1.00  0.00     0.037 A 
BRANCH  53  67
ATOM     67  C   UNL     1       6.486  -1.850   5.031  1.00  0.00     0.058 A 
ATOM     68  C   UNL     1       7.643  -2.058   5.806  1.00  0.00     0.135 A 
ATOM     69  C   UNL     1       6.045  -0.491   5.032  1.00  0.00     0.135 A 
ATOM     70  F   UNL     1       8.142  -3.293   5.959  1.00  0.00    -0.206 F 
ATOM     71  C   UNL     1       8.307  -1.022   6.495  1.00  0.00     0.059 A 
ATOM     72  C   UNL     1       6.734   0.566   5.637  1.00  0.00     0.059 A 
ATOM     73  F   UNL     1       4.863  -0.113   4.525  1.00  0.00    -0.206 F 
ATOM     74  C   UNL     1       7.849   0.290   6.400  1.00  0.00     0.060 A 
BRANCH  74  75
ATOM     75  S   UNL     1       8.647   1.616   7.335  1.00  0.00     0.124 S 
ATOM     76  O   UNL     1       8.218   1.318   8.698  1.00  0.00    -0.237 OA
ATOM     77  O   UNL     1      10.061   1.401   7.051  1.00  0.00    -0.237 OA
ATOM     78  O   UNL     1       8.078   2.832   6.759  1.00  0.00    -0.744 OA
ENDBRANCH  74  75
ENDBRANCH  53  67
BRANCH  54  79
ATOM     79  C   UNL     1      -0.064  -8.332   1.144  1.00  0.00     0.058 A 
ATOM     80  C   UNL     1      -1.290  -8.754   1.717  1.00  0.00     0.135 A 
ATOM     81  C   UNL     1      -0.146  -7.704  -0.106  1.00  0.00     0.135 A 
ATOM     82  F   UNL     1      -1.294  -9.370   2.912  1.00  0.00    -0.206 F 
ATOM     83  C   UNL     1      -2.526  -8.425   1.171  1.00  0.00     0.059 A 
ATOM     84  C   UNL     1      -1.385  -7.396  -0.697  1.00  0.00     0.059 A 
ATOM     85  F   UNL     1       0.960  -7.248  -0.712  1.00  0.00    -0.206 F 
ATOM     86  C   UNL     1      -2.564  -7.700  -0.013  1.00  0.00     0.060 A 
BRANCH  86  87
ATOM     87  S   UNL     1      -4.167  -7.015  -0.509  1.00  0.00     0.124 S 
ATOM     88  O   UNL     1      -4.984  -8.216  -0.646  1.00  0.00    -0.237 OA
ATOM     89  O   UNL     1      -4.478  -6.167   0.641  1.00  0.00    -0.237 OA
ATOM     90  O   UNL     1      -3.860  -6.319  -1.753  1.00  0.00    -0.744 OA
ENDBRANCH  86  87
ENDBRANCH  54  79
BRANCH  66  91
ATOM     91  C   UNL     1       7.157  -7.484   1.621  1.00  0.00     0.058 A 
ATOM     92  C   UNL     1       7.691  -8.775   1.511  1.00  0.00     0.135 A 
ATOM     93  C   UNL     1       7.936  -6.419   1.136  1.00  0.00     0.135 A 
ATOM     94  F   UNL     1       6.996  -9.836   1.953  1.00  0.00    -0.206 F 
ATOM     95  C   UNL     1       8.945  -9.003   0.961  1.00  0.00     0.059 A 
ATOM     96  C   UNL     1       9.212  -6.617   0.619  1.00  0.00     0.059 A 
ATOM     97  F   UNL     1       7.476  -5.157   1.171  1.00  0.00    -0.206 F 
ATOM     98  C   UNL     1       9.705  -7.916   0.530  1.00  0.00     0.060 A 
BRANCH  98  99
ATOM     99  S   UNL     1      11.368  -8.198  -0.104  1.00  0.00     0.124 S 
ATOM    100  O   UNL     1      11.780  -9.416   0.589  1.00  0.00    -0.237 OA
ATOM    101  O   UNL     1      11.113  -8.342  -1.533  1.00  0.00    -0.237 OA
ATOM    102  O   UNL     1      12.082  -6.989   0.294  1.00  0.00    -0.744 OA
ENDBRANCH  98  99
ENDBRANCH  66  91
ENDBRANCH  40  41
ENDBRANCH  33  35
ENDBRANCH  32  33
ENDBRANCH  31  32
ENDBRANCH  30  31
ENDBRANCH  29  30
ENDBRANCH   1  29
TORSDOF 23
