REMARK SMILES CS(=O)(=O)c1ccc(C2=NN(c3ccc(C(=O)OCCOCCOCCOC(=O)c4ccc(-c5c6nc(c(-c7c(F)cc(S(=O)(=O)[O-])cc7F)c7ccc([nH]7)c(-c7c(F)cc(S(=O)(=O)[O-])cc7F)c7nc(c(-c8c(F)cc(S(=O)(=O)[O-])cc8F)c8ccc5[nH]8)C=C7)C=C6)cc4)cc3)[C@H](c3ccc(F)cc3)C2)cc1
REMARK SMILES IDX 22 1 21 2 20 3 19 4 18 5 16 6 17 7 15 8 12 9 13 10 97 11
REMARK SMILES IDX 14 12 96 13 11 14 9 15 10 16 106 17 98 18 8 19 5 20 6 21
REMARK SMILES IDX 108 22 7 23 107 24 2 25 1 26 3 27 4 28 99 29 100 30 105 31
REMARK SMILES IDX 101 32 104 33 102 34 103 35 23 36 24 37 25 38 26 39 27 40
REMARK SMILES IDX 28 41 29 42 30 43 31 44 95 45 32 46 94 47 33 48 34 49 35 50
REMARK SMILES IDX 88 51 36 52 93 53 87 54 89 55 37 56 92 57 86 58 85 59 38 61
REMARK SMILES IDX 72 62 51 63 71 64 52 65 55 66 70 67 90 68 53 69 54 70 69 72
REMARK SMILES IDX 91 73 56 74 39 75 40 76 49 77 41 78 42 79 48 80 50 81 43 82
REMARK SMILES IDX 44 83 45 84 46 85 47 86 73 87 74 88 83 89 75 90 76 91 82 92
REMARK SMILES IDX 84 93 77 94 78 95 79 96 80 97 81 98 57 99 58 100 67 101
REMARK SMILES IDX 59 102 60 103 66 104 68 105 61 106 62 107 63 108 64 109
REMARK SMILES IDX 65 110
REMARK H PARENT 89 60 55 71
REMARK Flexibility Score: inf
ROOT
ATOM      1  C   UNL     1       7.370 -12.150   0.520  1.00  0.00     0.188 C 
ENDROOT
BRANCH   1   2
ATOM      2  O   UNL     1       8.141 -13.336   0.520  1.00  0.00    -0.376 OA
BRANCH   2   3
ATOM      3  C   UNL     1       7.745 -14.454   1.297  1.00  0.00     0.202 C 
BRANCH   3   4
ATOM      4  C   UNL     1       7.033 -14.336   2.656  1.00  0.00     0.261 C 
BRANCH   4   5
ATOM      5  O   UNL     1       6.033 -13.316   2.755  1.00  0.00    -0.460 OA
BRANCH   5   6
ATOM      6  C   UNL     1       6.321 -12.297   3.607  1.00  0.00     0.338 C 
ATOM      7  O   UNL     1       7.298 -12.209   4.330  1.00  0.00    -0.246 OA
BRANCH   6   8
ATOM      8  C   UNL     1       5.338 -11.197   3.446  1.00  0.00     0.060 A 
ATOM      9  C   UNL     1       3.517  -9.056   3.337  1.00  0.00     0.060 A 
ATOM     10  C   UNL     1       4.885  -8.812   3.505  1.00  0.00     0.029 A 
ATOM     11  C   UNL     1       3.097 -10.374   3.097  1.00  0.00     0.029 A 
ATOM     12  C   UNL     1       5.791  -9.877   3.569  1.00  0.00     0.018 A 
ATOM     13  C   UNL     1       3.992 -11.445   3.170  1.00  0.00     0.018 A 
BRANCH   9  14
ATOM     14  N   UNL     1       2.555  -8.061   3.574  1.00  0.00    -0.257 N 
ATOM     15  C   UNL     1       2.082  -5.975   3.577  1.00  0.00     0.071 C 
ATOM     16  N   UNL     1       2.554  -6.921   2.824  1.00  0.00    -0.176 NA
ATOM     17  C   UNL     1       1.812  -6.346   5.008  1.00  0.00     0.091 C 
ATOM     18  C   UNL     1       2.149  -7.841   4.978  1.00  0.00     0.144 C 
BRANCH  15  19
ATOM     19  C   UNL     1       1.766  -4.620   3.086  1.00  0.00    -0.002 A 
ATOM     20  C   UNL     1       0.961  -2.103   2.196  1.00  0.00     0.067 A 
ATOM     21  C   UNL     1       0.631  -3.238   1.450  1.00  0.00     0.021 A 
ATOM     22  C   UNL     1       1.700  -2.217   3.379  1.00  0.00     0.021 A 
ATOM     23  C   UNL     1       1.051  -4.497   1.888  1.00  0.00     0.011 A 
ATOM     24  C   UNL     1       2.095  -3.482   3.830  1.00  0.00     0.011 A 
BRANCH  20  25
ATOM     25  S   UNL     1       0.359  -0.512   1.670  1.00  0.00     0.175 S 
ATOM     26  C   UNL     1       1.109  -0.246   0.085  1.00  0.00     0.163 C 
ATOM     27  O   UNL     1       0.887   0.482   2.585  1.00  0.00    -0.224 OA
ATOM     28  O   UNL     1      -1.073  -0.656   1.484  1.00  0.00    -0.224 OA
ENDBRANCH  20  25
ENDBRANCH  15  19
BRANCH  18  29
ATOM     29  C   UNL     1       1.060  -8.831   5.387  1.00  0.00    -0.023 A 
ATOM     30  C   UNL     1      -0.315  -8.562   5.306  1.00  0.00     0.009 A 
ATOM     31  C   UNL     1       1.453 -10.125   5.795  1.00  0.00     0.009 A 
ATOM     32  C   UNL     1      -1.256  -9.554   5.604  1.00  0.00     0.039 A 
ATOM     33  C   UNL     1       0.516 -11.129   6.042  1.00  0.00     0.039 A 
ATOM     34  C   UNL     1      -0.833 -10.832   5.947  1.00  0.00     0.123 A 
ATOM     35  F   UNL     1      -1.739 -11.791   6.180  1.00  0.00    -0.207 F 
ENDBRANCH  18  29
ENDBRANCH   9  14
ENDBRANCH   6   8
ENDBRANCH   5   6
ENDBRANCH   4   5
ENDBRANCH   3   4
ENDBRANCH   2   3
ENDBRANCH   1   2
BRANCH   1  36
ATOM     36  C   UNL     1       5.902 -12.195   0.049  1.00  0.00     0.188 C 
BRANCH  36  37
ATOM     37  O   UNL     1       5.321 -13.454  -0.189  1.00  0.00    -0.376 OA
BRANCH  37  38
ATOM     38  C   UNL     1       5.616 -14.160  -1.382  1.00  0.00     0.202 C 
BRANCH  38  39
ATOM     39  C   UNL     1       6.409 -13.622  -2.592  1.00  0.00     0.261 C 
BRANCH  39  40
ATOM     40  O   UNL     1       7.187 -12.435  -2.431  1.00  0.00    -0.460 OA
BRANCH  40  41
ATOM     41  C   UNL     1       6.664 -11.311  -2.979  1.00  0.00     0.338 C 
ATOM     42  O   UNL     1       5.595 -11.203  -3.564  1.00  0.00    -0.246 OA
BRANCH  41  43
ATOM     43  C   UNL     1       7.513 -10.163  -2.613  1.00  0.00     0.060 A 
ATOM     44  C   UNL     1       7.015  -9.206  -1.717  1.00  0.00     0.016 A 
ATOM     45  C   UNL     1       8.781 -10.017  -3.175  1.00  0.00     0.016 A 
ATOM     46  C   UNL     1       7.783  -8.089  -1.391  1.00  0.00     0.010 A 
ATOM     47  C   UNL     1       9.539  -8.883  -2.865  1.00  0.00     0.010 A 
ATOM     48  C   UNL     1       9.034  -7.901  -1.992  1.00  0.00    -0.014 A 
BRANCH  48  49
ATOM     49  C   UNL     1       9.744  -6.606  -1.844  1.00  0.00     0.031 A 
ATOM     50  C   UNL     1       9.641  -5.600  -2.959  1.00  0.00     0.074 A 
ATOM     51  C   UNL     1      10.461  -6.324  -0.741  1.00  0.00     0.049 A 
ATOM     52  N   UNL     1      10.235  -4.443  -3.091  1.00  0.00    -0.248 NA
ATOM     53  C   UNL     1       8.749  -5.949  -4.078  1.00  0.00     0.031 C 
ATOM     54  C   UNL     1      10.601  -7.197   0.423  1.00  0.00     0.029 A 
ATOM     55  N   UNL     1      11.220  -5.223  -0.428  1.00  0.00    -0.354 N 
ATOM     56  C   UNL     1       9.797  -3.929  -4.306  1.00  0.00     0.074 A 
ATOM     57  C   UNL     1       8.911  -4.913  -4.888  1.00  0.00     0.031 C 
ATOM     58  C   UNL     1      11.415  -6.605   1.316  1.00  0.00     0.029 A 
ATOM     59  C   UNL     1      11.881  -5.331   0.773  1.00  0.00     0.049 A 
ATOM     60  H   UNL     1      11.285  -4.431  -1.010  1.00  0.00     0.167 HD
ATOM     61  C   UNL     1      10.100  -2.741  -4.880  1.00  0.00     0.037 A 
ATOM     62  C   UNL     1      12.781  -4.508   1.349  1.00  0.00     0.037 A 
ATOM     63  C   UNL     1      10.985  -1.766  -4.297  1.00  0.00     0.049 A 
ATOM     64  C   UNL     1      13.166  -3.226   0.650  1.00  0.00     0.074 A 
ATOM     65  C   UNL     1      11.347  -0.527  -4.796  1.00  0.00     0.029 A 
ATOM     66  N   UNL     1      11.653  -1.921  -3.091  1.00  0.00    -0.354 N 
ATOM     67  N   UNL     1      12.727  -2.741  -0.488  1.00  0.00    -0.248 NA
ATOM     68  C   UNL     1      14.166  -2.378   1.315  1.00  0.00     0.031 C 
ATOM     69  C   UNL     1      12.276   0.043  -3.921  1.00  0.00     0.029 A 
ATOM     70  C   UNL     1      12.444  -0.811  -2.843  1.00  0.00     0.049 A 
ATOM     71  H   UNL     1      11.577  -2.705  -2.500  1.00  0.00     0.167 HD
ATOM     72  C   UNL     1      13.371  -1.518  -0.655  1.00  0.00     0.074 A 
ATOM     73  C   UNL     1      14.219  -1.331   0.503  1.00  0.00     0.031 C 
ATOM     74  C   UNL     1      13.271  -0.629  -1.675  1.00  0.00     0.037 A 
BRANCH  61  75
ATOM     75  C   UNL     1       9.484  -2.430  -6.216  1.00  0.00     0.058 A 
ATOM     76  C   UNL     1       8.118  -2.138  -6.350  1.00  0.00     0.135 A 
ATOM     77  C   UNL     1      10.283  -2.367  -7.370  1.00  0.00     0.135 A 
ATOM     78  F   UNL     1       7.304  -2.203  -5.284  1.00  0.00    -0.206 F 
ATOM     79  C   UNL     1       7.562  -1.808  -7.582  1.00  0.00     0.059 A 
ATOM     80  C   UNL     1       9.755  -2.010  -8.607  1.00  0.00     0.059 A 
ATOM     81  F   UNL     1      11.595  -2.642  -7.300  1.00  0.00    -0.206 F 
ATOM     82  C   UNL     1       8.391  -1.740  -8.704  1.00  0.00     0.060 A 
BRANCH  82  83
ATOM     83  S   UNL     1       7.657  -1.277 -10.287  1.00  0.00     0.124 S 
ATOM     84  O   UNL     1       6.858  -2.459 -10.595  1.00  0.00    -0.237 OA
ATOM     85  O   UNL     1       6.903  -0.077  -9.939  1.00  0.00    -0.237 OA
ATOM     86  O   UNL     1       8.814  -1.059 -11.149  1.00  0.00    -0.744 OA
ENDBRANCH  82  83
ENDBRANCH  61  75
BRANCH  62  87
ATOM     87  C   UNL     1      13.408  -4.871   2.651  1.00  0.00     0.058 A 
ATOM     88  C   UNL     1      13.168  -4.116   3.809  1.00  0.00     0.135 A 
ATOM     89  C   UNL     1      14.290  -5.959   2.756  1.00  0.00     0.135 A 
ATOM     90  F   UNL     1      12.344  -3.058   3.760  1.00  0.00    -0.206 F 
ATOM     91  C   UNL     1      13.800  -4.405   5.014  1.00  0.00     0.059 A 
ATOM     92  C   UNL     1      14.909  -6.288   3.958  1.00  0.00     0.059 A 
ATOM     93  F   UNL     1      14.551  -6.721   1.682  1.00  0.00    -0.206 F 
ATOM     94  C   UNL     1      14.670  -5.495   5.079  1.00  0.00     0.060 A 
BRANCH  94  95
ATOM     95  S   UNL     1      15.468  -5.873   6.654  1.00  0.00     0.124 S 
ATOM     96  O   UNL     1      16.426  -4.779   6.768  1.00  0.00    -0.237 OA
ATOM     97  O   UNL     1      14.343  -5.835   7.583  1.00  0.00    -0.237 OA
ATOM     98  O   UNL     1      16.043  -7.196   6.431  1.00  0.00    -0.744 OA
ENDBRANCH  94  95
ENDBRANCH  62  87
BRANCH  74  99
ATOM     99  C   UNL     1      14.053   0.654  -1.568  1.00  0.00     0.058 A 
ATOM    100  C   UNL     1      15.451   0.685  -1.694  1.00  0.00     0.135 A 
ATOM    101  C   UNL     1      13.386   1.878  -1.393  1.00  0.00     0.135 A 
ATOM    102  F   UNL     1      16.140  -0.455  -1.858  1.00  0.00    -0.206 F 
ATOM    103  C   UNL     1      16.161   1.880  -1.624  1.00  0.00     0.059 A 
ATOM    104  C   UNL     1      14.073   3.088  -1.353  1.00  0.00     0.059 A 
ATOM    105  F   UNL     1      12.049   1.909  -1.279  1.00  0.00    -0.206 F 
ATOM    106  C   UNL     1      15.462   3.077  -1.457  1.00  0.00     0.060 A 
BRANCH 106 107
ATOM    107  S   UNL     1      16.394   4.623  -1.403  1.00  0.00     0.124 S 
ATOM    108  O   UNL     1      17.039   4.532  -0.097  1.00  0.00    -0.237 OA
ATOM    109  O   UNL     1      17.278   4.494  -2.557  1.00  0.00    -0.237 OA
ATOM    110  O   UNL     1      15.361   5.648  -1.522  1.00  0.00    -0.744 OA
ENDBRANCH 106 107
ENDBRANCH  74  99
ENDBRANCH  48  49
ENDBRANCH  41  43
ENDBRANCH  40  41
ENDBRANCH  39  40
ENDBRANCH  38  39
ENDBRANCH  37  38
ENDBRANCH  36  37
ENDBRANCH   1  36
TORSDOF 24
