REMARK SMILES CCc1nn2c(C)c(CCC(=O)OCCOCCOCCOC(=O)c3ccc(-c4c5nc(c(-c6c(F)cc(S(=O)(=O)[O-])cc6F)c6ccc([nH]6)c(-c6c(F)cc(S(=O)(=O)[O-])cc6F)c6nc(c(-c7c(F)cc(S(=O)(=O)[O-])cc7F)c7ccc4[nH]7)C=C6)C=C5)cc3)c(C)nc2c1-c1ccccc1
REMARK SMILES IDX 17 1 16 2 15 3 14 4 13 5 11 6 12 7 10 8 9 9 8 10 3 11 4 12
REMARK SMILES IDX 95 13 5 14 94 15 6 16 93 17 7 18 91 19 92 20 2 21 1 22 96 23
REMARK SMILES IDX 97 24 101 25 98 26 100 27 99 28 18 29 19 30 20 31 21 32
REMARK SMILES IDX 22 33 23 34 24 35 25 36 26 37 90 38 27 39 89 40 28 41 29 42
REMARK SMILES IDX 30 43 83 44 31 45 88 46 82 47 84 48 32 49 87 50 81 51 80 52
REMARK SMILES IDX 33 54 67 55 46 56 66 57 47 58 50 59 65 60 85 61 48 62 49 63
REMARK SMILES IDX 64 65 86 66 51 67 34 68 35 69 44 70 36 71 37 72 43 73 45 74
REMARK SMILES IDX 38 75 39 76 40 77 41 78 42 79 68 80 69 81 78 82 70 83 71 84
REMARK SMILES IDX 77 85 79 86 72 87 73 88 74 89 75 90 76 91 52 92 53 93 62 94
REMARK SMILES IDX 54 95 55 96 61 97 63 98 56 99 57 100 58 101 59 102 60 103
REMARK H PARENT 84 53 50 64
REMARK Flexibility Score: inf
ROOT
ATOM      1  C   UNL     1      -0.087   9.240   1.296  1.00  0.00     0.188 C 
ENDROOT
BRANCH   1   2
ATOM      2  O   UNL     1      -0.593   9.166  -0.033  1.00  0.00    -0.376 OA
BRANCH   2   3
ATOM      3  C   UNL     1      -0.386   7.933  -0.711  1.00  0.00     0.202 C 
BRANCH   3   4
ATOM      4  C   UNL     1       1.014   7.793  -1.342  1.00  0.00     0.261 C 
BRANCH   4   5
ATOM      5  O   UNL     1       2.039   7.415  -0.390  1.00  0.00    -0.463 OA
BRANCH   5   6
ATOM      6  C   UNL     1       2.895   8.343   0.087  1.00  0.00     0.306 C 
ATOM      7  O   UNL     1       2.980   9.487  -0.338  1.00  0.00    -0.252 OA
BRANCH   6   8
ATOM      8  C   UNL     1       3.781   7.793   1.202  1.00  0.00     0.127 C 
BRANCH   8   9
ATOM      9  C   UNL     1       3.094   7.232   2.467  1.00  0.00     0.051 C 
BRANCH   9  10
ATOM     10  C   UNL     1       2.996   5.719   2.610  1.00  0.00    -0.005 A 
ATOM     11  C   UNL     1       1.511   1.512   1.989  1.00  0.00     0.073 A 
ATOM     12  N   UNL     1       1.137   2.725   1.592  1.00  0.00    -0.171 NA
ATOM     13  C   UNL     1       2.630   1.579   2.851  1.00  0.00     0.050 A 
ATOM     14  N   UNL     1       2.017   3.575   2.179  1.00  0.00    -0.219 N 
ATOM     15  C   UNL     1       2.925   2.923   2.986  1.00  0.00     0.163 A 
ATOM     16  C   UNL     1       2.065   4.950   1.994  1.00  0.00     0.046 A 
ATOM     17  N   UNL     1       3.859   3.618   3.700  1.00  0.00    -0.233 NA
ATOM     18  C   UNL     1       1.000   5.428   1.083  1.00  0.00     0.067 C 
ATOM     19  C   UNL     1       3.875   4.918   3.570  1.00  0.00     0.045 A 
ATOM     20  C   UNL     1       4.864   5.624   4.479  1.00  0.00     0.067 C 
BRANCH  11  21
ATOM     21  C   UNL     1       0.740   0.342   1.484  1.00  0.00     0.055 C 
ATOM     22  C   UNL     1       1.070   0.027   0.032  1.00  0.00     0.011 C 
ENDBRANCH  11  21
BRANCH  13  23
ATOM     23  C   UNL     1       3.411   0.536   3.461  1.00  0.00    -0.013 A 
ATOM     24  C   UNL     1       4.154  -0.328   2.650  1.00  0.00     0.009 A 
ATOM     25  C   UNL     1       3.466   0.415   4.852  1.00  0.00     0.009 A 
ATOM     26  C   UNL     1       4.965  -1.299   3.231  1.00  0.00     0.001 A 
ATOM     27  C   UNL     1       4.275  -0.561   5.430  1.00  0.00     0.001 A 
ATOM     28  C   UNL     1       5.027  -1.412   4.620  1.00  0.00     0.000 A 
ENDBRANCH  13  23
ENDBRANCH   9  10
ENDBRANCH   8   9
ENDBRANCH   6   8
ENDBRANCH   5   6
ENDBRANCH   4   5
ENDBRANCH   3   4
ENDBRANCH   2   3
ENDBRANCH   1   2
BRANCH   1  29
ATOM     29  C   UNL     1      -1.019   8.644   2.351  1.00  0.00     0.188 C 
BRANCH  29  30
ATOM     30  O   UNL     1      -0.716   7.287   2.707  1.00  0.00    -0.376 OA
BRANCH  30  31
ATOM     31  C   UNL     1      -1.769   6.326   2.549  1.00  0.00     0.202 C 
BRANCH  31  32
ATOM     32  C   UNL     1      -2.888   6.276   3.585  1.00  0.00     0.261 C 
BRANCH  32  33
ATOM     33  O   UNL     1      -3.232   7.563   4.023  1.00  0.00    -0.460 OA
BRANCH  33  34
ATOM     34  C   UNL     1      -2.374   8.084   4.933  1.00  0.00     0.338 C 
ATOM     35  O   UNL     1      -1.489   7.523   5.542  1.00  0.00    -0.246 OA
BRANCH  34  36
ATOM     36  C   UNL     1      -2.736   9.501   5.038  1.00  0.00     0.060 A 
ATOM     37  C   UNL     1      -2.241  10.199   6.134  1.00  0.00     0.016 A 
ATOM     38  C   UNL     1      -3.714  10.030   4.174  1.00  0.00     0.016 A 
ATOM     39  C   UNL     1      -2.965  11.284   6.555  1.00  0.00     0.010 A 
ATOM     40  C   UNL     1      -4.451  11.088   4.606  1.00  0.00     0.010 A 
ATOM     41  C   UNL     1      -4.129  11.606   5.851  1.00  0.00    -0.014 A 
BRANCH  41  42
ATOM     42  C   UNL     1      -5.078  12.472   6.488  1.00  0.00     0.031 A 
ATOM     43  C   UNL     1      -4.773  13.891   6.282  1.00  0.00     0.074 A 
ATOM     44  C   UNL     1      -6.150  11.965   7.120  1.00  0.00     0.049 A 
ATOM     45  N   UNL     1      -4.220  14.699   7.119  1.00  0.00    -0.248 NA
ATOM     46  C   UNL     1      -4.874  14.409   4.909  1.00  0.00     0.031 C 
ATOM     47  C   UNL     1      -6.670  10.594   7.082  1.00  0.00     0.029 A 
ATOM     48  N   UNL     1      -7.066  12.619   7.871  1.00  0.00    -0.354 N 
ATOM     49  C   UNL     1      -4.164  15.910   6.448  1.00  0.00     0.074 A 
ATOM     50  C   UNL     1      -4.313  15.609   5.050  1.00  0.00     0.031 C 
ATOM     51  C   UNL     1      -7.919  10.581   7.603  1.00  0.00     0.029 A 
ATOM     52  C   UNL     1      -8.228  11.904   8.119  1.00  0.00     0.049 A 
ATOM     53  H   UNL     1      -6.918  13.530   8.215  1.00  0.00     0.167 HD
ATOM     54  C   UNL     1      -4.338  17.079   7.118  1.00  0.00     0.037 A 
ATOM     55  C   UNL     1      -9.372  12.428   8.625  1.00  0.00     0.037 A 
ATOM     56  C   UNL     1      -4.155  16.902   8.538  1.00  0.00     0.049 A 
ATOM     57  C   UNL     1      -8.992  13.705   9.300  1.00  0.00     0.074 A 
ATOM     58  C   UNL     1      -3.116  16.442   9.325  1.00  0.00     0.029 A 
ATOM     59  N   UNL     1      -5.284  16.837   9.321  1.00  0.00    -0.354 N 
ATOM     60  N   UNL     1      -8.238  13.775  10.365  1.00  0.00    -0.248 NA
ATOM     61  C   UNL     1      -9.074  14.935   8.521  1.00  0.00     0.031 C 
ATOM     62  C   UNL     1      -3.737  15.716  10.381  1.00  0.00     0.029 A 
ATOM     63  C   UNL     1      -5.121  15.812  10.219  1.00  0.00     0.049 A 
ATOM     64  H   UNL     1      -6.071  17.424   9.251  1.00  0.00     0.167 HD
ATOM     65  C   UNL     1      -7.445  14.900  10.177  1.00  0.00     0.074 A 
ATOM     66  C   UNL     1      -8.069  15.622   9.072  1.00  0.00     0.031 C 
ATOM     67  C   UNL     1      -6.203  14.995  10.737  1.00  0.00     0.037 A 
BRANCH  54  68
ATOM     68  C   UNL     1      -5.061  18.261   6.526  1.00  0.00     0.058 A 
ATOM     69  C   UNL     1      -5.012  19.496   7.196  1.00  0.00     0.135 A 
ATOM     70  C   UNL     1      -6.005  18.172   5.475  1.00  0.00     0.135 A 
ATOM     71  F   UNL     1      -4.168  19.681   8.224  1.00  0.00    -0.206 F 
ATOM     72  C   UNL     1      -5.877  20.544   6.885  1.00  0.00     0.059 A 
ATOM     73  C   UNL     1      -6.828  19.224   5.105  1.00  0.00     0.059 A 
ATOM     74  F   UNL     1      -6.257  17.032   4.820  1.00  0.00    -0.206 F 
ATOM     75  C   UNL     1      -6.788  20.391   5.843  1.00  0.00     0.060 A 
BRANCH  75  76
ATOM     76  S   UNL     1      -7.978  21.696   5.505  1.00  0.00     0.124 S 
ATOM     77  O   UNL     1      -8.830  21.621   6.686  1.00  0.00    -0.237 OA
ATOM     78  O   UNL     1      -7.117  22.870   5.407  1.00  0.00    -0.237 OA
ATOM     79  O   UNL     1      -8.595  21.272   4.252  1.00  0.00    -0.744 OA
ENDBRANCH  75  76
ENDBRANCH  54  68
BRANCH  55  80
ATOM     80  C   UNL     1     -10.771  12.113   8.225  1.00  0.00     0.058 A 
ATOM     81  C   UNL     1     -11.858  12.649   8.940  1.00  0.00     0.135 A 
ATOM     82  C   UNL     1     -11.083  11.522   6.982  1.00  0.00     0.135 A 
ATOM     83  F   UNL     1     -11.656  13.242  10.127  1.00  0.00    -0.206 F 
ATOM     84  C   UNL     1     -13.159  12.661   8.427  1.00  0.00     0.059 A 
ATOM     85  C   UNL     1     -12.374  11.508   6.457  1.00  0.00     0.059 A 
ATOM     86  F   UNL     1     -10.126  11.020   6.188  1.00  0.00    -0.206 F 
ATOM     87  C   UNL     1     -13.403  12.108   7.170  1.00  0.00     0.060 A 
BRANCH  87  88
ATOM     88  S   UNL     1     -15.040  12.287   6.423  1.00  0.00     0.124 S 
ATOM     89  O   UNL     1     -15.862  11.455   7.295  1.00  0.00    -0.237 OA
ATOM     90  O   UNL     1     -15.263  13.725   6.517  1.00  0.00    -0.237 OA
ATOM     91  O   UNL     1     -14.852  11.775   5.068  1.00  0.00    -0.744 OA
ENDBRANCH  87  88
ENDBRANCH  55  80
BRANCH  67  92
ATOM     92  C   UNL     1      -5.828  14.020  11.825  1.00  0.00     0.058 A 
ATOM     93  C   UNL     1      -5.627  12.643  11.621  1.00  0.00     0.135 A 
ATOM     94  C   UNL     1      -5.456  14.544  13.073  1.00  0.00     0.135 A 
ATOM     95  F   UNL     1      -5.874  12.081  10.429  1.00  0.00    -0.206 F 
ATOM     96  C   UNL     1      -5.087  11.825  12.616  1.00  0.00     0.059 A 
ATOM     97  C   UNL     1      -4.889  13.753  14.068  1.00  0.00     0.059 A 
ATOM     98  F   UNL     1      -5.574  15.861  13.310  1.00  0.00    -0.206 F 
ATOM     99  C   UNL     1      -4.706  12.392  13.832  1.00  0.00     0.060 A 
BRANCH  99 100
ATOM    100  S   UNL     1      -3.878  11.361  15.065  1.00  0.00     0.124 S 
ATOM    101  O   UNL     1      -4.960  10.494  15.518  1.00  0.00    -0.237 OA
ATOM    102  O   UNL     1      -2.830  10.712  14.281  1.00  0.00    -0.237 OA
ATOM    103  O   UNL     1      -3.397  12.326  16.051  1.00  0.00    -0.744 OA
ENDBRANCH  99 100
ENDBRANCH  67  92
ENDBRANCH  41  42
ENDBRANCH  34  36
ENDBRANCH  33  34
ENDBRANCH  32  33
ENDBRANCH  31  32
ENDBRANCH  30  31
ENDBRANCH  29  30
ENDBRANCH   1  29
TORSDOF 24
