REMARK SMILES Cc1c(Cl)cccc1NC(=O)NCc1cn([C@@H]2C[NH2+][C@H](C(=O)OCCOCCOCCOC(=O)c3ccc(-c4c5nc(c(-c6c(F)cc(S(=O)(=O)[O-])cc6F)c6ccc([nH]6)c(-c6c(F)cc(S(=O)(=O)[O-])cc6F)c6nc(c(-c7c(F)cc(S(=O)(=O)[O-])cc7F)c7ccc4[nH]7)C=C6)C=C5)cc3)C2)nn1
REMARK SMILES IDX 27 1 26 2 25 3 24 4 23 5 21 6 22 7 20 8 17 9 18 10 101 11
REMARK SMILES IDX 19 12 16 15 14 16 15 17 103 18 102 19 13 20 12 21 9 22 10 23
REMARK SMILES IDX 11 25 8 27 1 28 2 29 3 30 4 31 5 32 7 33 6 34 28 35 29 36
REMARK SMILES IDX 30 37 31 38 32 39 33 40 34 41 35 42 36 43 100 44 37 45 99 46
REMARK SMILES IDX 38 47 39 48 40 49 93 50 41 51 98 52 92 53 94 54 42 55 97 56
REMARK SMILES IDX 91 57 90 58 43 60 77 61 56 62 76 63 57 64 60 65 75 66 95 67
REMARK SMILES IDX 58 68 59 69 74 71 96 72 61 73 44 74 45 75 54 76 46 77 47 78
REMARK SMILES IDX 53 79 55 80 48 81 49 82 50 83 51 84 52 85 78 86 79 87 88 88
REMARK SMILES IDX 80 89 81 90 87 91 89 92 82 93 83 94 84 95 85 96 86 97 62 98
REMARK SMILES IDX 63 99 72 100 64 101 65 102 71 103 73 104 66 105 67 106
REMARK SMILES IDX 68 107 69 108 70 109
REMARK H PARENT 19 13 19 14 9 24 12 26 94 59 60 70
REMARK Flexibility Score: inf
ROOT
ATOM      1  C   UNL     1      -4.719  -9.085   1.700  1.00  0.00     0.188 C 
ENDROOT
BRANCH   1   2
ATOM      2  O   UNL     1      -4.330  -9.659   0.474  1.00  0.00    -0.376 OA
BRANCH   2   3
ATOM      3  C   UNL     1      -3.729  -8.874  -0.543  1.00  0.00     0.202 C 
BRANCH   3   4
ATOM      4  C   UNL     1      -3.516  -7.344  -0.482  1.00  0.00     0.261 C 
BRANCH   4   5
ATOM      5  O   UNL     1      -3.593  -6.760   0.819  1.00  0.00    -0.459 OA
BRANCH   5   6
ATOM      6  C   UNL     1      -4.498  -5.761   1.029  1.00  0.00     0.365 C 
ATOM      7  O   UNL     1      -5.127  -5.190   0.146  1.00  0.00    -0.245 OA
BRANCH   6   8
ATOM      8  C   UNL     1      -4.729  -5.559   2.544  1.00  0.00     0.295 C 
ATOM      9  C   UNL     1      -4.709  -3.329   3.507  1.00  0.00     0.170 C 
ATOM     10  C   UNL     1      -3.298  -3.891   3.353  1.00  0.00     0.289 C 
ATOM     11  C   UNL     1      -5.633  -4.391   2.908  1.00  0.00     0.110 C 
ATOM     12  N   UNL     1      -3.458  -5.338   3.266  1.00  0.00    -0.333 N 
ATOM     13  H   UNL     1      -3.504  -5.748   4.199  1.00  0.00     0.347 HD
ATOM     14  H   UNL     1      -2.672  -5.775   2.784  1.00  0.00     0.347 HD
BRANCH   9  15
ATOM     15  N   UNL     1      -4.847  -2.058   2.842  1.00  0.00    -0.243 N 
ATOM     16  C   UNL     1      -4.898  -0.486   1.370  1.00  0.00     0.102 A 
ATOM     17  C   UNL     1      -4.671  -1.831   1.517  1.00  0.00     0.137 A 
ATOM     18  N   UNL     1      -5.246   0.043   2.586  1.00  0.00    -0.134 NA
ATOM     19  N   UNL     1      -5.208  -0.937   3.488  1.00  0.00    -0.067 NA
BRANCH  16  20
ATOM     20  C   UNL     1      -4.861   0.233   0.087  1.00  0.00     0.178 C 
BRANCH  20  21
ATOM     21  N   UNL     1      -4.524   1.621   0.191  1.00  0.00    -0.332 N 
ATOM     22  N   UNL     1      -2.250   2.065  -0.470  1.00  0.00    -0.308 N 
ATOM     23  C   UNL     1      -3.520   2.397  -0.195  1.00  0.00     0.319 C 
ATOM     24  H   UNL     1      -1.749   2.854  -0.780  1.00  0.00     0.171 HD
ATOM     25  O   UNL     1      -3.766   3.613  -0.223  1.00  0.00    -0.248 OA
ATOM     26  H   UNL     1      -5.216   2.130   0.672  1.00  0.00     0.165 HD
BRANCH  22  27
ATOM     27  C   UNL     1      -1.415   0.931  -0.449  1.00  0.00     0.047 A 
ATOM     28  C   UNL     1       0.593   2.406   0.200  1.00  0.00     0.048 C 
ATOM     29  C   UNL     1      -0.066   1.065  -0.029  1.00  0.00    -0.009 A 
ATOM     30  C   UNL     1       0.721  -0.103   0.116  1.00  0.00     0.046 A 
ATOM     31  Cl  UNL     1       2.377  -0.038   0.623  1.00  0.00    -0.084 Cl
ATOM     32  C   UNL     1       0.205  -1.365  -0.172  1.00  0.00     0.021 A 
ATOM     33  C   UNL     1      -1.824  -0.316  -0.918  1.00  0.00     0.026 A 
ATOM     34  C   UNL     1      -1.057  -1.468  -0.731  1.00  0.00     0.004 A 
ENDBRANCH  22  27
ENDBRANCH  20  21
ENDBRANCH  16  20
ENDBRANCH   9  15
ENDBRANCH   6   8
ENDBRANCH   5   6
ENDBRANCH   4   5
ENDBRANCH   3   4
ENDBRANCH   2   3
ENDBRANCH   1   2
BRANCH   1  35
ATOM     35  C   UNL     1      -3.637  -8.864   2.779  1.00  0.00     0.188 C 
BRANCH  35  36
ATOM     36  O   UNL     1      -2.273  -8.690   2.459  1.00  0.00    -0.376 OA
BRANCH  36  37
ATOM     37  C   UNL     1      -1.500  -9.693   1.826  1.00  0.00     0.202 C 
BRANCH  37  38
ATOM     38  C   UNL     1      -1.698 -11.189   2.047  1.00  0.00     0.261 C 
BRANCH  38  39
ATOM     39  O   UNL     1      -3.022 -11.596   2.312  1.00  0.00    -0.460 OA
BRANCH  39  40
ATOM     40  C   UNL     1      -3.274 -11.769   3.621  1.00  0.00     0.338 C 
ATOM     41  O   UNL     1      -2.584 -11.389   4.569  1.00  0.00    -0.246 OA
BRANCH  40  42
ATOM     42  C   UNL     1      -4.503 -12.532   3.772  1.00  0.00     0.060 A 
ATOM     43  C   UNL     1      -5.104 -12.537   5.032  1.00  0.00     0.016 A 
ATOM     44  C   UNL     1      -4.847 -13.444   2.764  1.00  0.00     0.016 A 
ATOM     45  C   UNL     1      -5.890 -13.614   5.364  1.00  0.00     0.010 A 
ATOM     46  C   UNL     1      -5.617 -14.525   3.103  1.00  0.00     0.010 A 
ATOM     47  C   UNL     1      -6.042 -14.639   4.424  1.00  0.00    -0.014 A 
BRANCH  47  48
ATOM     48  C   UNL     1      -6.693 -15.855   4.849  1.00  0.00     0.031 A 
ATOM     49  C   UNL     1      -8.153 -15.702   4.990  1.00  0.00     0.074 A 
ATOM     50  C   UNL     1      -6.009 -17.007   4.981  1.00  0.00     0.049 A 
ATOM     51  N   UNL     1      -8.851 -15.739   6.075  1.00  0.00    -0.248 NA
ATOM     52  C   UNL     1      -8.905 -15.266   3.801  1.00  0.00     0.031 C 
ATOM     53  C   UNL     1      -4.615 -17.270   4.602  1.00  0.00     0.029 A 
ATOM     54  N   UNL     1      -6.449 -18.226   5.390  1.00  0.00    -0.354 N 
ATOM     55  C   UNL     1     -10.168 -15.594   5.658  1.00  0.00     0.074 A 
ATOM     56  C   UNL     1     -10.123 -15.089   4.312  1.00  0.00     0.031 C 
ATOM     57  C   UNL     1      -4.400 -18.604   4.590  1.00  0.00     0.029 A 
ATOM     58  C   UNL     1      -5.590 -19.275   5.083  1.00  0.00     0.049 A 
ATOM     59  H   UNL     1      -7.302 -18.355   5.863  1.00  0.00     0.167 HD
ATOM     60  C   UNL     1     -11.179 -16.201   6.332  1.00  0.00     0.037 A 
ATOM     61  C   UNL     1      -5.873 -20.599   5.169  1.00  0.00     0.037 A 
ATOM     62  C   UNL     1     -10.778 -16.564   7.667  1.00  0.00     0.049 A 
ATOM     63  C   UNL     1      -7.017 -20.737   6.106  1.00  0.00     0.074 A 
ATOM     64  C   UNL     1     -10.359 -15.868   8.782  1.00  0.00     0.029 A 
ATOM     65  N   UNL     1     -10.402 -17.870   7.859  1.00  0.00    -0.354 N 
ATOM     66  N   UNL     1      -6.952 -20.448   7.378  1.00  0.00    -0.248 NA
ATOM     67  C   UNL     1      -8.363 -20.800   5.556  1.00  0.00     0.031 C 
ATOM     68  C   UNL     1      -9.407 -16.714   9.424  1.00  0.00     0.029 A 
ATOM     69  C   UNL     1      -9.321 -17.906   8.703  1.00  0.00     0.049 A 
ATOM     70  H   UNL     1     -10.838 -18.655   7.455  1.00  0.00     0.167 HD
ATOM     71  C   UNL     1      -8.181 -19.880   7.678  1.00  0.00     0.074 A 
ATOM     72  C   UNL     1      -9.047 -20.253   6.564  1.00  0.00     0.031 C 
ATOM     73  C   UNL     1      -8.292 -18.928   8.652  1.00  0.00     0.037 A 
BRANCH  60  74
ATOM     74  C   UNL     1     -12.354 -16.835   5.629  1.00  0.00     0.058 A 
ATOM     75  C   UNL     1     -13.475 -17.242   6.375  1.00  0.00     0.135 A 
ATOM     76  C   UNL     1     -12.307 -17.300   4.293  1.00  0.00     0.135 A 
ATOM     77  F   UNL     1     -13.598 -16.891   7.665  1.00  0.00    -0.206 F 
ATOM     78  C   UNL     1     -14.460 -18.076   5.842  1.00  0.00     0.059 A 
ATOM     79  C   UNL     1     -13.305 -18.078   3.724  1.00  0.00     0.059 A 
ATOM     80  F   UNL     1     -11.243 -17.110   3.503  1.00  0.00    -0.206 F 
ATOM     81  C   UNL     1     -14.361 -18.492   4.516  1.00  0.00     0.060 A 
BRANCH  81  82
ATOM     82  S   UNL     1     -15.584 -19.627   3.842  1.00  0.00     0.124 S 
ATOM     83  O   UNL     1     -15.257 -20.858   4.551  1.00  0.00    -0.237 OA
ATOM     84  O   UNL     1     -16.836 -18.981   4.221  1.00  0.00    -0.237 OA
ATOM     85  O   UNL     1     -15.292 -19.624   2.412  1.00  0.00    -0.744 OA
ENDBRANCH  81  82
ENDBRANCH  60  74
BRANCH  61  86
ATOM     86  C   UNL     1      -5.446 -21.683   4.245  1.00  0.00     0.058 A 
ATOM     87  C   UNL     1      -5.598 -23.039   4.583  1.00  0.00     0.135 A 
ATOM     88  C   UNL     1      -5.133 -21.412   2.897  1.00  0.00     0.135 A 
ATOM     89  F   UNL     1      -5.926 -23.389   5.836  1.00  0.00    -0.206 F 
ATOM     90  C   UNL     1      -5.486 -24.063   3.633  1.00  0.00     0.059 A 
ATOM     91  C   UNL     1      -5.006 -22.414   1.936  1.00  0.00     0.059 A 
ATOM     92  F   UNL     1      -5.030 -20.152   2.449  1.00  0.00    -0.206 F 
ATOM     93  C   UNL     1      -5.206 -23.738   2.306  1.00  0.00     0.060 A 
BRANCH  93  94
ATOM     94  S   UNL     1      -5.218 -25.035   1.046  1.00  0.00     0.124 S 
ATOM     95  O   UNL     1      -4.026 -25.803   1.392  1.00  0.00    -0.237 OA
ATOM     96  O   UNL     1      -6.495 -25.695   1.293  1.00  0.00    -0.237 OA
ATOM     97  O   UNL     1      -5.137 -24.291  -0.208  1.00  0.00    -0.744 OA
ENDBRANCH  93  94
ENDBRANCH  61  86
BRANCH  73  98
ATOM     98  C   UNL     1      -7.151 -18.803   9.633  1.00  0.00     0.058 A 
ATOM     99  C   UNL     1      -5.852 -18.376   9.303  1.00  0.00     0.135 A 
ATOM    100  C   UNL     1      -7.423 -19.019  10.992  1.00  0.00     0.135 A 
ATOM    101  F   UNL     1      -5.533 -18.052   8.043  1.00  0.00    -0.206 F 
ATOM    102  C   UNL     1      -4.859 -18.215  10.273  1.00  0.00     0.059 A 
ATOM    103  C   UNL     1      -6.459 -18.834  11.980  1.00  0.00     0.059 A 
ATOM    104  F   UNL     1      -8.660 -19.371  11.382  1.00  0.00    -0.206 F 
ATOM    105  C   UNL     1      -5.173 -18.446  11.612  1.00  0.00     0.060 A 
BRANCH 105 106
ATOM    106  S   UNL     1      -3.912 -18.167  12.874  1.00  0.00     0.124 S 
ATOM    107  O   UNL     1      -3.008 -19.292  12.661  1.00  0.00    -0.237 OA
ATOM    108  O   UNL     1      -3.385 -16.854  12.513  1.00  0.00    -0.237 OA
ATOM    109  O   UNL     1      -4.667 -18.201  14.124  1.00  0.00    -0.744 OA
ENDBRANCH 105 106
ENDBRANCH  73  98
ENDBRANCH  47  48
ENDBRANCH  40  42
ENDBRANCH  39  40
ENDBRANCH  38  39
ENDBRANCH  37  38
ENDBRANCH  36  37
ENDBRANCH  35  36
ENDBRANCH   1  35
TORSDOF 24
