REMARK SMILES Cc1ccccc1OCC(=O)c1nc(C)c(C(=O)OCCOCCOCCOC(=O)c2ccc(-c3c4nc(c(-c5c(F)cc(S(=O)(=O)[O-])cc5F)c5ccc([nH]5)c(-c5c(F)cc(S(=O)(=O)[O-])cc5F)c5nc(c(-c6c(F)cc(S(=O)(=O)[O-])cc6F)c6ccc3[nH]6)C=C5)C=C4)cc2)s1
REMARK SMILES IDX 23 1 22 2 21 3 20 4 19 5 17 6 18 7 16 8 12 9 13 10 97 11
REMARK SMILES IDX 14 12 15 13 10 14 11 15 9 16 8 17 7 18 1 19 2 20 3 21 4 22
REMARK SMILES IDX 6 23 5 24 24 25 25 26 26 27 27 28 28 29 29 30 30 31 31 32
REMARK SMILES IDX 32 33 96 34 33 35 95 36 34 37 35 38 36 39 89 40 37 41 94 42
REMARK SMILES IDX 88 43 90 44 38 45 93 46 87 47 86 48 39 50 73 51 52 52 72 53
REMARK SMILES IDX 53 54 56 55 71 56 91 57 54 58 55 59 70 61 92 62 57 63 40 64
REMARK SMILES IDX 41 65 50 66 42 67 43 68 49 69 51 70 44 71 45 72 46 73 47 74
REMARK SMILES IDX 48 75 74 76 75 77 84 78 76 79 77 80 83 81 85 82 78 83 79 84
REMARK SMILES IDX 80 85 81 86 82 87 58 88 59 89 68 90 60 91 61 92 67 93 69 94
REMARK SMILES IDX 62 95 63 96 64 97 65 98 66 99
REMARK H PARENT 90 49 56 60
REMARK Flexibility Score: inf
ROOT
ATOM      1  C   UNL     1      -1.992   7.614   5.806  1.00  0.00     0.188 C 
ENDROOT
BRANCH   1   2
ATOM      2  O   UNL     1      -2.088   7.340   7.202  1.00  0.00    -0.376 OA
BRANCH   2   3
ATOM      3  C   UNL     1      -1.812   5.966   7.477  1.00  0.00     0.202 C 
BRANCH   3   4
ATOM      4  C   UNL     1      -0.424   5.498   7.030  1.00  0.00     0.261 C 
BRANCH   4   5
ATOM      5  O   UNL     1      -0.172   5.208   5.526  1.00  0.00    -0.459 OA
BRANCH   5   6
ATOM      6  C   UNL     1       0.277   4.635   4.345  1.00  0.00     0.350 C 
ATOM      7  O   UNL     1       0.340   5.429   3.403  1.00  0.00    -0.245 OA
BRANCH   6   8
ATOM      8  C   UNL     1       0.657   3.181   4.071  1.00  0.00     0.136 A 
ATOM      9  C   UNL     1       1.252   1.599   2.278  1.00  0.00     0.164 A 
ATOM     10  N   UNL     1       1.485   1.062   3.447  1.00  0.00    -0.237 NA
ATOM     11  S   UNL     1      -0.017   2.703   2.458  1.00  0.00    -0.103 S 
ATOM     12  C   UNL     1       1.681   2.176   4.243  1.00  0.00     0.064 A 
ATOM     13  C   UNL     1       3.101   2.092   4.746  1.00  0.00     0.068 C 
BRANCH   9  14
ATOM     14  C   UNL     1       2.229   1.639   1.198  1.00  0.00     0.228 C 
ATOM     15  O   UNL     1       3.373   1.175   1.303  1.00  0.00    -0.288 OA
BRANCH  14  16
ATOM     16  C   UNL     1       1.861   2.406  -0.084  1.00  0.00     0.313 C 
BRANCH  16  17
ATOM     17  O   UNL     1       1.029   1.880  -1.105  1.00  0.00    -0.485 OA
BRANCH  17  18
ATOM     18  C   UNL     1       0.298   0.791  -0.728  1.00  0.00     0.122 A 
ATOM     19  C   UNL     1       2.318  -0.765  -0.897  1.00  0.00     0.048 C 
ATOM     20  C   UNL     1       0.866  -0.487  -0.633  1.00  0.00    -0.009 A 
ATOM     21  C   UNL     1       0.045  -1.553  -0.238  1.00  0.00     0.007 A 
ATOM     22  C   UNL     1      -1.315  -1.355   0.009  1.00  0.00     0.001 A 
ATOM     23  C   UNL     1      -1.067   0.987  -0.505  1.00  0.00     0.047 A 
ATOM     24  C   UNL     1      -1.873  -0.086  -0.130  1.00  0.00     0.004 A 
ENDBRANCH  17  18
ENDBRANCH  16  17
ENDBRANCH  14  16
ENDBRANCH   9  14
ENDBRANCH   6   8
ENDBRANCH   5   6
ENDBRANCH   4   5
ENDBRANCH   3   4
ENDBRANCH   2   3
ENDBRANCH   1   2
BRANCH   1  25
ATOM     25  C   UNL     1      -0.724   8.392   5.438  1.00  0.00     0.188 C 
BRANCH  25  26
ATOM     26  O   UNL     1       0.409   8.131   6.267  1.00  0.00    -0.376 OA
BRANCH  26  27
ATOM     27  C   UNL     1       0.475   8.899   7.470  1.00  0.00     0.202 C 
BRANCH  27  28
ATOM     28  C   UNL     1       1.666   9.850   7.344  1.00  0.00     0.261 C 
BRANCH  28  29
ATOM     29  O   UNL     1       2.890   9.116   7.569  1.00  0.00    -0.460 OA
BRANCH  29  30
ATOM     30  C   UNL     1       3.327   8.436   6.489  1.00  0.00     0.338 C 
ATOM     31  O   UNL     1       3.606   8.947   5.394  1.00  0.00    -0.246 OA
BRANCH  30  32
ATOM     32  C   UNL     1       3.243   6.980   6.753  1.00  0.00     0.060 A 
ATOM     33  C   UNL     1       3.097   6.148   5.668  1.00  0.00     0.016 A 
ATOM     34  C   UNL     1       3.091   6.427   8.034  1.00  0.00     0.016 A 
ATOM     35  C   UNL     1       2.658   4.837   5.875  1.00  0.00     0.010 A 
ATOM     36  C   UNL     1       2.599   5.110   8.209  1.00  0.00     0.010 A 
ATOM     37  C   UNL     1       2.259   4.297   7.116  1.00  0.00    -0.014 A 
BRANCH  37  38
ATOM     38  C   UNL     1       1.496   2.985   7.406  1.00  0.00     0.031 A 
ATOM     39  C   UNL     1       2.287   1.800   7.866  1.00  0.00     0.074 A 
ATOM     40  C   UNL     1       0.159   2.627   7.350  1.00  0.00     0.049 A 
ATOM     41  N   UNL     1       1.821   0.586   7.931  1.00  0.00    -0.248 NA
ATOM     42  C   UNL     1       3.728   1.870   8.124  1.00  0.00     0.031 C 
ATOM     43  C   UNL     1      -0.466   1.881   8.464  1.00  0.00     0.029 A 
ATOM     44  N   UNL     1      -0.985   2.962   6.610  1.00  0.00    -0.354 N 
ATOM     45  C   UNL     1       2.739  -0.102   8.669  1.00  0.00     0.074 A 
ATOM     46  C   UNL     1       3.972   0.584   8.393  1.00  0.00     0.031 C 
ATOM     47  C   UNL     1      -1.772   1.699   8.231  1.00  0.00     0.029 A 
ATOM     48  C   UNL     1      -2.102   2.207   6.913  1.00  0.00     0.049 A 
ATOM     49  H   UNL     1      -0.992   3.675   5.932  1.00  0.00     0.167 HD
ATOM     50  C   UNL     1       2.326  -0.892   9.702  1.00  0.00     0.037 A 
ATOM     51  C   UNL     1      -3.113   1.814   6.080  1.00  0.00     0.037 A 
ATOM     52  C   UNL     1       0.885  -1.236   9.657  1.00  0.00     0.049 A 
ATOM     53  C   UNL     1      -3.249   0.308   6.174  1.00  0.00     0.074 A 
ATOM     54  C   UNL     1      -0.166  -1.116  10.555  1.00  0.00     0.029 A 
ATOM     55  N   UNL     1       0.294  -1.697   8.477  1.00  0.00    -0.354 N 
ATOM     56  N   UNL     1      -2.750  -0.367   7.170  1.00  0.00    -0.248 NA
ATOM     57  C   UNL     1      -3.778  -0.577   5.136  1.00  0.00     0.031 C 
ATOM     58  C   UNL     1      -1.368  -1.554   9.923  1.00  0.00     0.029 A 
ATOM     59  C   UNL     1      -1.062  -1.961   8.638  1.00  0.00     0.049 A 
ATOM     60  H   UNL     1       0.781  -1.820   7.630  1.00  0.00     0.167 HD
ATOM     61  C   UNL     1      -2.624  -1.671   6.816  1.00  0.00     0.074 A 
ATOM     62  C   UNL     1      -3.361  -1.781   5.571  1.00  0.00     0.031 C 
ATOM     63  C   UNL     1      -1.843  -2.527   7.534  1.00  0.00     0.037 A 
BRANCH  50  64
ATOM     64  C   UNL     1       3.222  -1.157  10.924  1.00  0.00     0.058 A 
ATOM     65  C   UNL     1       2.831  -2.083  11.915  1.00  0.00     0.135 A 
ATOM     66  C   UNL     1       4.423  -0.467  11.241  1.00  0.00     0.135 A 
ATOM     67  F   UNL     1       1.706  -2.801  11.784  1.00  0.00    -0.206 F 
ATOM     68  C   UNL     1       3.557  -2.295  13.098  1.00  0.00     0.059 A 
ATOM     69  C   UNL     1       5.202  -0.720  12.366  1.00  0.00     0.059 A 
ATOM     70  F   UNL     1       4.891   0.568  10.538  1.00  0.00    -0.206 F 
ATOM     71  C   UNL     1       4.749  -1.614  13.310  1.00  0.00     0.060 A 
BRANCH  71  72
ATOM     72  S   UNL     1       5.695  -1.850  14.822  1.00  0.00     0.124 S 
ATOM     73  O   UNL     1       4.872  -1.145  15.799  1.00  0.00    -0.237 OA
ATOM     74  O   UNL     1       5.735  -3.302  14.945  1.00  0.00    -0.237 OA
ATOM     75  O   UNL     1       6.979  -1.219  14.521  1.00  0.00    -0.744 OA
ENDBRANCH  71  72
ENDBRANCH  50  64
BRANCH  51  76
ATOM     76  C   UNL     1      -3.458   2.679   4.909  1.00  0.00     0.058 A 
ATOM     77  C   UNL     1      -3.989   3.960   5.162  1.00  0.00     0.135 A 
ATOM     78  C   UNL     1      -3.139   2.411   3.576  1.00  0.00     0.135 A 
ATOM     79  F   UNL     1      -4.463   4.254   6.383  1.00  0.00    -0.206 F 
ATOM     80  C   UNL     1      -3.986   4.984   4.209  1.00  0.00     0.059 A 
ATOM     81  C   UNL     1      -3.154   3.415   2.592  1.00  0.00     0.059 A 
ATOM     82  F   UNL     1      -2.703   1.197   3.213  1.00  0.00    -0.206 F 
ATOM     83  C   UNL     1      -3.488   4.720   2.941  1.00  0.00     0.060 A 
BRANCH  83  84
ATOM     84  S   UNL     1      -3.073   6.100   1.833  1.00  0.00     0.124 S 
ATOM     85  O   UNL     1      -4.320   6.286   1.108  1.00  0.00    -0.237 OA
ATOM     86  O   UNL     1      -2.724   7.168   2.768  1.00  0.00    -0.237 OA
ATOM     87  O   UNL     1      -1.962   5.564   1.049  1.00  0.00    -0.744 OA
ENDBRANCH  83  84
ENDBRANCH  51  76
BRANCH  63  88
ATOM     88  C   UNL     1      -1.784  -3.991   7.233  1.00  0.00     0.058 A 
ATOM     89  C   UNL     1      -2.941  -4.740   6.954  1.00  0.00     0.135 A 
ATOM     90  C   UNL     1      -0.582  -4.715   7.352  1.00  0.00     0.135 A 
ATOM     91  F   UNL     1      -4.147  -4.151   6.897  1.00  0.00    -0.206 F 
ATOM     92  C   UNL     1      -2.902  -6.116   6.749  1.00  0.00     0.059 A 
ATOM     93  C   UNL     1      -0.527  -6.097   7.199  1.00  0.00     0.059 A 
ATOM     94  F   UNL     1       0.581  -4.097   7.602  1.00  0.00    -0.206 F 
ATOM     95  C   UNL     1      -1.688  -6.786   6.872  1.00  0.00     0.060 A 
BRANCH  95  96
ATOM     96  S   UNL     1      -1.638  -8.570   6.630  1.00  0.00     0.124 S 
ATOM     97  O   UNL     1      -2.910  -9.007   7.197  1.00  0.00    -0.237 OA
ATOM     98  O   UNL     1      -1.531  -8.662   5.177  1.00  0.00    -0.237 OA
ATOM     99  O   UNL     1      -0.453  -8.979   7.378  1.00  0.00    -0.744 OA
ENDBRANCH  95  96
ENDBRANCH  63  88
ENDBRANCH  37  38
ENDBRANCH  30  32
ENDBRANCH  29  30
ENDBRANCH  28  29
ENDBRANCH  27  28
ENDBRANCH  26  27
ENDBRANCH  25  26
ENDBRANCH   1  25
TORSDOF 24
