REMARK SMILES O=C(OCCOCCOCCOC(=O)c1csc(C[NH2+][C@H]2CCSc3ccc(F)cc32)c1)c1ccc(-c2c3nc(c(-c4c(F)cc(S(=O)(=O)[O-])cc4F)c4ccc([nH]4)c(-c4c(F)cc(S(=O)(=O)[O-])cc4F)c4nc(c(-c5c(F)cc(S(=O)(=O)[O-])cc5F)c5ccc2[nH]5)C=C4)C=C3)cc1
REMARK SMILES IDX 7 1 6 2 5 3 4 4 3 5 2 6 1 7 33 8 34 9 98 10 35 11 97 12
REMARK SMILES IDX 36 13 37 14 38 15 91 16 39 17 96 18 90 19 92 20 40 21 95 22
REMARK SMILES IDX 89 23 88 24 41 26 75 27 54 28 74 29 55 30 58 31 73 32 93 33
REMARK SMILES IDX 56 34 57 35 72 37 94 38 59 39 42 40 43 41 52 42 44 43 45 44
REMARK SMILES IDX 51 45 53 46 46 47 47 48 48 49 49 50 50 51 76 52 77 53 86 54
REMARK SMILES IDX 78 55 79 56 85 57 87 58 80 59 81 60 82 61 83 62 84 63 60 64
REMARK SMILES IDX 61 65 70 66 62 67 63 68 69 69 71 70 64 71 65 72 66 73 67 74
REMARK SMILES IDX 68 75 8 76 9 77 10 78 11 79 12 80 13 81 14 82 15 83 16 84
REMARK SMILES IDX 32 85 17 86 18 87 19 88 20 89 21 92 22 93 31 94 23 95 25 96
REMARK SMILES IDX 30 97 24 98 26 99 28 100 27 101 29 102
REMARK H PARENT 92 25 58 36 20 90 20 91
REMARK Flexibility Score: inf
ROOT
ATOM      1  C   UNL     1      -3.070   3.736   4.196  1.00  0.00     0.188 C 
ENDROOT
BRANCH   1   2
ATOM      2  O   UNL     1      -2.784   2.388   3.790  1.00  0.00    -0.376 OA
BRANCH   2   3
ATOM      3  C   UNL     1      -2.237   1.581   4.837  1.00  0.00     0.202 C 
BRANCH   3   4
ATOM      4  C   UNL     1      -0.711   1.627   4.943  1.00  0.00     0.261 C 
BRANCH   4   5
ATOM      5  O   UNL     1      -0.177   2.925   4.660  1.00  0.00    -0.460 OA
BRANCH   5   6
ATOM      6  C   UNL     1       0.256   3.427   3.478  1.00  0.00     0.338 C 
ATOM      7  O   UNL     1       0.811   4.526   3.512  1.00  0.00    -0.246 OA
BRANCH   6   8
ATOM      8  C   UNL     1       0.090   2.773   2.130  1.00  0.00     0.060 A 
ATOM      9  C   UNL     1       0.640   3.467   1.033  1.00  0.00     0.016 A 
ATOM     10  C   UNL     1      -0.556   1.565   1.852  1.00  0.00     0.016 A 
ATOM     11  C   UNL     1       0.567   2.962  -0.273  1.00  0.00     0.010 A 
ATOM     12  C   UNL     1      -0.611   1.041   0.556  1.00  0.00     0.010 A 
ATOM     13  C   UNL     1      -0.048   1.733  -0.514  1.00  0.00    -0.014 A 
BRANCH  13  14
ATOM     14  C   UNL     1      -0.006   1.089  -1.843  1.00  0.00     0.031 A 
ATOM     15  C   UNL     1      -1.227   0.982  -2.704  1.00  0.00     0.074 A 
ATOM     16  C   UNL     1       1.142   0.497  -2.218  1.00  0.00     0.049 A 
ATOM     17  N   UNL     1      -1.340   0.479  -3.906  1.00  0.00    -0.248 NA
ATOM     18  C   UNL     1      -2.481   1.500  -2.144  1.00  0.00     0.031 C 
ATOM     19  C   UNL     1       2.373   0.473  -1.426  1.00  0.00     0.029 A 
ATOM     20  N   UNL     1       1.447  -0.227  -3.339  1.00  0.00    -0.354 N 
ATOM     21  C   UNL     1      -2.662   0.688  -4.277  1.00  0.00     0.074 A 
ATOM     22  C   UNL     1      -3.329   1.285  -3.142  1.00  0.00     0.031 C 
ATOM     23  C   UNL     1       3.297  -0.248  -2.079  1.00  0.00     0.029 A 
ATOM     24  C   UNL     1       2.718  -0.742  -3.325  1.00  0.00     0.049 A 
ATOM     25  H   UNL     1       0.816  -0.364  -4.082  1.00  0.00     0.167 HD
ATOM     26  C   UNL     1      -3.256   0.428  -5.466  1.00  0.00     0.037 A 
ATOM     27  C   UNL     1       3.347  -1.531  -4.214  1.00  0.00     0.037 A 
ATOM     28  C   UNL     1      -2.614  -0.258  -6.554  1.00  0.00     0.049 A 
ATOM     29  C   UNL     1       2.637  -1.919  -5.474  1.00  0.00     0.074 A 
ATOM     30  C   UNL     1      -3.116  -0.557  -7.808  1.00  0.00     0.029 A 
ATOM     31  N   UNL     1      -1.336  -0.794  -6.495  1.00  0.00    -0.354 N 
ATOM     32  N   UNL     1       1.425  -1.605  -5.864  1.00  0.00    -0.248 NA
ATOM     33  C   UNL     1       3.382  -2.757  -6.421  1.00  0.00     0.031 C 
ATOM     34  C   UNL     1      -2.156  -1.317  -8.489  1.00  0.00     0.029 A 
ATOM     35  C   UNL     1      -1.046  -1.462  -7.672  1.00  0.00     0.049 A 
ATOM     36  H   UNL     1      -0.725  -0.712  -5.727  1.00  0.00     0.167 HD
ATOM     37  C   UNL     1       1.263  -2.193  -7.111  1.00  0.00     0.074 A 
ATOM     38  C   UNL     1       2.507  -2.876  -7.412  1.00  0.00     0.031 C 
ATOM     39  C   UNL     1       0.185  -2.164  -7.936  1.00  0.00     0.037 A 
BRANCH  26  40
ATOM     40  C   UNL     1      -4.665   0.909  -5.643  1.00  0.00     0.058 A 
ATOM     41  C   UNL     1      -4.927   2.259  -5.928  1.00  0.00     0.135 A 
ATOM     42  C   UNL     1      -5.758   0.038  -5.527  1.00  0.00     0.135 A 
ATOM     43  F   UNL     1      -3.914   3.132  -6.048  1.00  0.00    -0.206 F 
ATOM     44  C   UNL     1      -6.227   2.737  -6.055  1.00  0.00     0.059 A 
ATOM     45  C   UNL     1      -7.067   0.494  -5.656  1.00  0.00     0.059 A 
ATOM     46  F   UNL     1      -5.560  -1.262  -5.263  1.00  0.00    -0.206 F 
ATOM     47  C   UNL     1      -7.292   1.851  -5.894  1.00  0.00     0.060 A 
BRANCH  47  48
ATOM     48  S   UNL     1      -8.979   2.488  -5.981  1.00  0.00     0.124 S 
ATOM     49  O   UNL     1      -9.157   3.016  -4.632  1.00  0.00    -0.237 OA
ATOM     50  O   UNL     1      -8.894   3.483  -7.046  1.00  0.00    -0.237 OA
ATOM     51  O   UNL     1      -9.768   1.303  -6.301  1.00  0.00    -0.744 OA
ENDBRANCH  47  48
ENDBRANCH  26  40
BRANCH  27  52
ATOM     52  C   UNL     1       4.741  -1.946  -3.932  1.00  0.00     0.058 A 
ATOM     53  C   UNL     1       5.814  -1.289  -4.548  1.00  0.00     0.135 A 
ATOM     54  C   UNL     1       5.029  -2.908  -2.951  1.00  0.00     0.135 A 
ATOM     55  F   UNL     1       5.582  -0.363  -5.490  1.00  0.00    -0.206 F 
ATOM     56  C   UNL     1       7.129  -1.553  -4.184  1.00  0.00     0.059 A 
ATOM     57  C   UNL     1       6.335  -3.178  -2.559  1.00  0.00     0.059 A 
ATOM     58  F   UNL     1       4.029  -3.545  -2.321  1.00  0.00    -0.206 F 
ATOM     59  C   UNL     1       7.378  -2.487  -3.176  1.00  0.00     0.060 A 
BRANCH  59  60
ATOM     60  S   UNL     1       9.081  -2.718  -2.621  1.00  0.00     0.124 S 
ATOM     61  O   UNL     1       9.668  -3.423  -3.754  1.00  0.00    -0.237 OA
ATOM     62  O   UNL     1       9.526  -1.341  -2.424  1.00  0.00    -0.237 OA
ATOM     63  O   UNL     1       8.933  -3.500  -1.397  1.00  0.00    -0.744 OA
ENDBRANCH  59  60
ENDBRANCH  27  52
BRANCH  39  64
ATOM     64  C   UNL     1       0.308  -2.909  -9.232  1.00  0.00     0.058 A 
ATOM     65  C   UNL     1       0.249  -4.310  -9.274  1.00  0.00     0.135 A 
ATOM     66  C   UNL     1       0.475  -2.219 -10.442  1.00  0.00     0.135 A 
ATOM     67  F   UNL     1       0.097  -5.014  -8.140  1.00  0.00    -0.206 F 
ATOM     68  C   UNL     1       0.384  -5.005 -10.470  1.00  0.00     0.059 A 
ATOM     69  C   UNL     1       0.590  -2.893 -11.653  1.00  0.00     0.059 A 
ATOM     70  F   UNL     1       0.527  -0.877 -10.455  1.00  0.00    -0.206 F 
ATOM     71  C   UNL     1       0.562  -4.287 -11.654  1.00  0.00     0.060 A 
BRANCH  71  72
ATOM     72  S   UNL     1       0.741  -5.198 -13.201  1.00  0.00     0.124 S 
ATOM     73  O   UNL     1       2.125  -5.652 -13.113  1.00  0.00    -0.237 OA
ATOM     74  O   UNL     1      -0.276  -6.237 -13.076  1.00  0.00    -0.237 OA
ATOM     75  O   UNL     1       0.474  -4.188 -14.221  1.00  0.00    -0.744 OA
ENDBRANCH  71  72
ENDBRANCH  39  64
ENDBRANCH  13  14
ENDBRANCH   6   8
ENDBRANCH   5   6
ENDBRANCH   4   5
ENDBRANCH   3   4
ENDBRANCH   2   3
ENDBRANCH   1   2
BRANCH   1  76
ATOM     76  C   UNL     1      -4.362   4.246   3.550  1.00  0.00     0.188 C 
BRANCH  76  77
ATOM     77  O   UNL     1      -5.573   3.683   4.063  1.00  0.00    -0.376 OA
BRANCH  77  78
ATOM     78  C   UNL     1      -5.724   2.272   3.953  1.00  0.00     0.202 C 
BRANCH  78  79
ATOM     79  C   UNL     1      -6.017   1.691   2.564  1.00  0.00     0.261 C 
BRANCH  79  80
ATOM     80  O   UNL     1      -5.401   2.380   1.467  1.00  0.00    -0.460 OA
BRANCH  80  81
ATOM     81  C   UNL     1      -6.279   3.089   0.691  1.00  0.00     0.339 C 
ATOM     82  O   UNL     1      -7.469   3.220   0.946  1.00  0.00    -0.246 OA
BRANCH  81  83
ATOM     83  C   UNL     1      -5.676   3.646  -0.516  1.00  0.00     0.071 A 
ATOM     84  C   UNL     1      -6.381   3.670  -1.706  1.00  0.00     0.081 A 
ATOM     85  C   UNL     1      -4.390   4.277  -0.681  1.00  0.00     0.037 A 
ATOM     86  S   UNL     1      -5.560   4.484  -2.953  1.00  0.00    -0.142 S 
ATOM     87  C   UNL     1      -4.229   4.838  -1.940  1.00  0.00     0.060 A 
BRANCH  87  88
ATOM     88  C   UNL     1      -3.162   5.763  -2.451  1.00  0.00     0.308 C 
BRANCH  88  89
ATOM     89  N   UNL     1      -1.965   5.054  -2.915  1.00  0.00    -0.336 N 
ATOM     90  H   UNL     1      -2.238   4.412  -3.658  1.00  0.00     0.347 HD
ATOM     91  H   UNL     1      -1.572   4.568  -2.109  1.00  0.00     0.347 HD
BRANCH  89  92
ATOM     92  C   UNL     1      -0.910   5.957  -3.438  1.00  0.00     0.215 C 
ATOM     93  C   UNL     1      -1.266   6.380  -4.878  1.00  0.00     0.081 C 
ATOM     94  C   UNL     1      -0.558   7.078  -2.466  1.00  0.00     0.026 A 
ATOM     95  C   UNL     1      -0.396   7.514  -5.385  1.00  0.00     0.081 C 
ATOM     96  C   UNL     1      -0.587   8.440  -2.808  1.00  0.00     0.017 A 
ATOM     97  C   UNL     1      -0.243   6.733  -1.135  1.00  0.00     0.050 A 
ATOM     98  S   UNL     1      -0.807   9.031  -4.475  1.00  0.00    -0.125 SA
ATOM     99  C   UNL     1      -0.435   9.415  -1.806  1.00  0.00     0.018 A 
ATOM    100  C   UNL     1      -0.081   7.709  -0.162  1.00  0.00     0.123 A 
ATOM    101  C   UNL     1      -0.198   9.050  -0.481  1.00  0.00     0.040 A 
ATOM    102  F   UNL     1       0.157   7.344   1.103  1.00  0.00    -0.207 F 
ENDBRANCH  89  92
ENDBRANCH  88  89
ENDBRANCH  87  88
ENDBRANCH  81  83
ENDBRANCH  80  81
ENDBRANCH  79  80
ENDBRANCH  78  79
ENDBRANCH  77  78
ENDBRANCH  76  77
ENDBRANCH   1  76
TORSDOF 23
