REMARK SMILES COc1ccccc1C(=O)N1[C@@H](C(=O)OCCOCCOCCOC(=O)c2ccc(-c3c4nc(c(-c5c(F)cc(S(=O)(=O)[O-])cc5F)c5ccc([nH]5)c(-c5c(F)cc(S(=O)(=O)[O-])cc5F)c5nc(c(-c6c(F)cc(S(=O)(=O)[O-])cc6F)c6ccc3[nH]6)C=C5)C=C4)cc2)COC12CC[NH+](Cc1ccccc1)CC2
REMARK SMILES IDX 19 1 18 2 17 3 16 4 15 5 13 6 14 7 12 8 11 9 95 10 93 11
REMARK SMILES IDX 94 12 96 13 107 14 97 15 106 16 98 17 9 19 10 20 8 21 3 22
REMARK SMILES IDX 4 23 5 24 7 25 6 26 2 27 1 28 99 29 100 30 101 31 105 32
REMARK SMILES IDX 102 33 104 34 103 35 20 36 21 37 22 38 23 39 24 40 25 41
REMARK SMILES IDX 26 42 27 43 28 44 92 45 29 46 91 47 30 48 31 49 32 50 85 51
REMARK SMILES IDX 33 52 90 53 84 54 86 55 34 56 89 57 83 58 82 59 35 61 69 62
REMARK SMILES IDX 48 63 68 64 49 65 52 66 67 67 87 68 50 69 51 70 66 72 88 73
REMARK SMILES IDX 53 74 36 75 37 76 46 77 38 78 39 79 45 80 47 81 40 82 41 83
REMARK SMILES IDX 42 84 43 85 44 86 70 87 71 88 80 89 72 90 73 91 79 92 81 93
REMARK SMILES IDX 74 94 75 95 76 96 77 97 78 98 54 99 55 100 64 101 56 102
REMARK SMILES IDX 57 103 63 104 65 105 58 106 59 107 60 108 61 109 62 110
REMARK H PARENT 98 18 86 60 52 71
REMARK Flexibility Score: inf
ROOT
ATOM      1  C   UNL     1       1.429   4.959   1.125  1.00  0.00     0.188 C 
ENDROOT
BRANCH   1   2
ATOM      2  O   UNL     1       0.102   5.353   0.810  1.00  0.00    -0.376 OA
BRANCH   2   3
ATOM      3  C   UNL     1      -0.825   4.344   0.414  1.00  0.00     0.202 C 
BRANCH   3   4
ATOM      4  C   UNL     1      -0.343   3.163  -0.440  1.00  0.00     0.261 C 
BRANCH   4   5
ATOM      5  O   UNL     1       0.536   2.245   0.249  1.00  0.00    -0.462 OA
BRANCH   5   6
ATOM      6  C   UNL     1       1.715   1.948  -0.357  1.00  0.00     0.331 C 
ATOM      7  O   UNL     1       2.055   2.429  -1.434  1.00  0.00    -0.250 OA
BRANCH   6   8
ATOM      8  C   UNL     1       2.525   0.843   0.336  1.00  0.00     0.224 C 
ATOM      9  N   UNL     1       2.146  -0.416  -0.270  1.00  0.00    -0.293 N 
ATOM     10  C   UNL     1       2.017  -1.437   0.780  1.00  0.00     0.155 C 
ATOM     11  C   UNL     1       2.418   0.581   1.824  1.00  0.00     0.200 C 
ATOM     12  O   UNL     1       1.711  -0.662   1.964  1.00  0.00    -0.352 OA
ATOM     13  C   UNL     1       0.809  -2.328   0.531  1.00  0.00     0.120 C 
ATOM     14  C   UNL     1       3.307  -2.219   1.102  1.00  0.00     0.120 C 
ATOM     15  C   UNL     1       0.715  -3.540   1.423  1.00  0.00     0.267 C 
ATOM     16  C   UNL     1       3.060  -3.542   1.847  1.00  0.00     0.267 C 
ATOM     17  N   UNL     1       1.930  -4.337   1.377  1.00  0.00    -0.331 N 
ATOM     18  H   UNL     1       1.848  -5.100   2.049  1.00  0.00     0.348 HD
BRANCH   9  19
ATOM     19  C   UNL     1       2.665  -0.643  -1.533  1.00  0.00     0.260 C 
ATOM     20  O   UNL     1       3.886  -0.605  -1.701  1.00  0.00    -0.269 OA
BRANCH  19  21
ATOM     21  C   UNL     1       1.748  -0.678  -2.736  1.00  0.00     0.082 A 
ATOM     22  C   UNL     1       0.388  -1.021  -2.788  1.00  0.00     0.131 A 
ATOM     23  C   UNL     1      -0.259  -1.231  -4.018  1.00  0.00     0.047 A 
ATOM     24  C   UNL     1       0.403  -1.010  -5.218  1.00  0.00     0.004 A 
ATOM     25  C   UNL     1       2.377  -0.398  -3.968  1.00  0.00     0.018 A 
ATOM     26  C   UNL     1       1.715  -0.559  -5.192  1.00  0.00     0.001 A 
BRANCH  22  27
ATOM     27  O   UNL     1      -0.412  -1.282  -1.715  1.00  0.00    -0.496 OA
ATOM     28  C   UNL     1      -1.024  -0.095  -1.227  1.00  0.00     0.278 C 
ENDBRANCH  22  27
ENDBRANCH  19  21
ENDBRANCH   9  19
BRANCH  17  29
ATOM     29  C   UNL     1       2.103  -5.179   0.178  1.00  0.00     0.299 C 
BRANCH  29  30
ATOM     30  C   UNL     1       2.828  -4.634  -1.037  1.00  0.00     0.006 A 
ATOM     31  C   UNL     1       2.140  -4.310  -2.216  1.00  0.00     0.009 A 
ATOM     32  C   UNL     1       4.221  -4.459  -1.019  1.00  0.00     0.009 A 
ATOM     33  C   UNL     1       2.818  -3.757  -3.307  1.00  0.00     0.001 A 
ATOM     34  C   UNL     1       4.883  -3.832  -2.076  1.00  0.00     0.001 A 
ATOM     35  C   UNL     1       4.179  -3.475  -3.220  1.00  0.00     0.000 A 
ENDBRANCH  29  30
ENDBRANCH  17  29
ENDBRANCH   6   8
ENDBRANCH   5   6
ENDBRANCH   4   5
ENDBRANCH   3   4
ENDBRANCH   2   3
ENDBRANCH   1   2
BRANCH   1  36
ATOM     36  C   UNL     1       1.597   3.893   2.209  1.00  0.00     0.188 C 
BRANCH  36  37
ATOM     37  O   UNL     1       0.397   3.302   2.656  1.00  0.00    -0.376 OA
BRANCH  37  38
ATOM     38  C   UNL     1      -0.150   3.728   3.895  1.00  0.00     0.202 C 
BRANCH  38  39
ATOM     39  C   UNL     1      -0.072   5.198   4.358  1.00  0.00     0.261 C 
BRANCH  39  40
ATOM     40  O   UNL     1       1.135   5.924   4.071  1.00  0.00    -0.460 OA
BRANCH  40  41
ATOM     41  C   UNL     1       2.253   5.607   4.780  1.00  0.00     0.338 C 
ATOM     42  O   UNL     1       2.328   4.825   5.696  1.00  0.00    -0.246 OA
BRANCH  41  43
ATOM     43  C   UNL     1       3.412   6.140   3.997  1.00  0.00     0.060 A 
ATOM     44  C   UNL     1       4.426   5.247   3.607  1.00  0.00     0.016 A 
ATOM     45  C   UNL     1       3.437   7.462   3.550  1.00  0.00     0.016 A 
ATOM     46  C   UNL     1       5.475   5.679   2.790  1.00  0.00     0.010 A 
ATOM     47  C   UNL     1       4.508   7.904   2.766  1.00  0.00     0.010 A 
ATOM     48  C   UNL     1       5.548   7.024   2.412  1.00  0.00    -0.014 A 
BRANCH  48  49
ATOM     49  C   UNL     1       6.831   7.579   1.911  1.00  0.00     0.031 A 
ATOM     50  C   UNL     1       7.755   8.193   2.930  1.00  0.00     0.074 A 
ATOM     51  C   UNL     1       7.180   7.553   0.613  1.00  0.00     0.049 A 
ATOM     52  N   UNL     1       8.877   8.838   2.759  1.00  0.00    -0.248 NA
ATOM     53  C   UNL     1       7.341   8.065   4.338  1.00  0.00     0.031 C 
ATOM     54  C   UNL     1       6.407   6.940  -0.464  1.00  0.00     0.029 A 
ATOM     55  N   UNL     1       8.282   8.078  -0.020  1.00  0.00    -0.354 N 
ATOM     56  C   UNL     1       9.294   9.207   4.033  1.00  0.00     0.074 A 
ATOM     57  C   UNL     1       8.292   8.738   4.963  1.00  0.00     0.031 C 
ATOM     58  C   UNL     1       7.047   7.145  -1.630  1.00  0.00     0.029 A 
ATOM     59  C   UNL     1       8.255   7.936  -1.387  1.00  0.00     0.049 A 
ATOM     60  H   UNL     1       9.021   8.515   0.462  1.00  0.00     0.167 HD
ATOM     61  C   UNL     1      10.414   9.874   4.398  1.00  0.00     0.037 A 
ATOM     62  C   UNL     1       9.091   8.417  -2.331  1.00  0.00     0.037 A 
ATOM     63  C   UNL     1      11.402  10.348   3.468  1.00  0.00     0.049 A 
ATOM     64  C   UNL     1      10.294   9.228  -1.913  1.00  0.00     0.074 A 
ATOM     65  C   UNL     1      12.577  11.027   3.735  1.00  0.00     0.029 A 
ATOM     66  N   UNL     1      11.325  10.206   2.090  1.00  0.00    -0.354 N 
ATOM     67  N   UNL     1      10.688   9.562  -0.706  1.00  0.00    -0.248 NA
ATOM     68  C   UNL     1      11.168   9.727  -2.985  1.00  0.00     0.031 C 
ATOM     69  C   UNL     1      13.181  11.348   2.515  1.00  0.00     0.029 A 
ATOM     70  C   UNL     1      12.418  10.809   1.490  1.00  0.00     0.049 A 
ATOM     71  H   UNL     1      10.601   9.744   1.609  1.00  0.00     0.167 HD
ATOM     72  C   UNL     1      11.869  10.281  -0.872  1.00  0.00     0.074 A 
ATOM     73  C   UNL     1      12.129  10.330  -2.296  1.00  0.00     0.031 C 
ATOM     74  C   UNL     1      12.669  10.844   0.070  1.00  0.00     0.037 A 
BRANCH  61  75
ATOM     75  C   UNL     1      10.594  10.167   5.862  1.00  0.00     0.058 A 
ATOM     76  C   UNL     1      10.853   9.152   6.798  1.00  0.00     0.135 A 
ATOM     77  C   UNL     1      10.497  11.485   6.336  1.00  0.00     0.135 A 
ATOM     78  F   UNL     1      10.931   7.871   6.403  1.00  0.00    -0.206 F 
ATOM     79  C   UNL     1      10.972   9.429   8.156  1.00  0.00     0.059 A 
ATOM     80  C   UNL     1      10.646  11.789   7.686  1.00  0.00     0.059 A 
ATOM     81  F   UNL     1      10.244  12.493   5.487  1.00  0.00    -0.206 F 
ATOM     82  C   UNL     1      10.863  10.751   8.590  1.00  0.00     0.060 A 
BRANCH  82  83
ATOM     83  S   UNL     1      11.003  11.092  10.357  1.00  0.00     0.124 S 
ATOM     84  O   UNL     1       9.742  10.554  10.857  1.00  0.00    -0.237 OA
ATOM     85  O   UNL     1      12.201  10.343  10.724  1.00  0.00    -0.237 OA
ATOM     86  O   UNL     1      11.132  12.544  10.414  1.00  0.00    -0.744 OA
ENDBRANCH  82  83
ENDBRANCH  61  75
BRANCH  62  87
ATOM     87  C   UNL     1       8.811   8.159  -3.771  1.00  0.00     0.058 A 
ATOM     88  C   UNL     1       9.632   7.313  -4.532  1.00  0.00     0.135 A 
ATOM     89  C   UNL     1       7.709   8.746  -4.413  1.00  0.00     0.135 A 
ATOM     90  F   UNL     1      10.710   6.745  -3.972  1.00  0.00    -0.206 F 
ATOM     91  C   UNL     1       9.371   7.057  -5.876  1.00  0.00     0.059 A 
ATOM     92  C   UNL     1       7.412   8.485  -5.748  1.00  0.00     0.059 A 
ATOM     93  F   UNL     1       6.891   9.564  -3.732  1.00  0.00    -0.206 F 
ATOM     94  C   UNL     1       8.253   7.641  -6.473  1.00  0.00     0.060 A 
BRANCH  94  95
ATOM     95  S   UNL     1       7.884   7.243  -8.196  1.00  0.00     0.124 S 
ATOM     96  O   UNL     1       8.952   7.947  -8.897  1.00  0.00    -0.237 OA
ATOM     97  O   UNL     1       7.971   5.786  -8.198  1.00  0.00    -0.237 OA
ATOM     98  O   UNL     1       6.542   7.784  -8.387  1.00  0.00    -0.744 OA
ENDBRANCH  94  95
ENDBRANCH  62  87
BRANCH  74  99
ATOM     99  C   UNL     1      13.930  11.526  -0.394  1.00  0.00     0.058 A 
ATOM    100  C   UNL     1      13.908  12.756  -1.068  1.00  0.00     0.135 A 
ATOM    101  C   UNL     1      15.186  10.971  -0.089  1.00  0.00     0.135 A 
ATOM    102  F   UNL     1      12.737  13.331  -1.387  1.00  0.00    -0.206 F 
ATOM    103  C   UNL     1      15.083  13.402  -1.443  1.00  0.00     0.059 A 
ATOM    104  C   UNL     1      16.373  11.614  -0.427  1.00  0.00     0.059 A 
ATOM    105  F   UNL     1      15.267   9.803   0.567  1.00  0.00    -0.206 F 
ATOM    106  C   UNL     1      16.311  12.825  -1.114  1.00  0.00     0.060 A 
BRANCH 106 107
ATOM    107  S   UNL     1      17.827  13.693  -1.571  1.00  0.00     0.124 S 
ATOM    108  O   UNL     1      17.851  13.503  -3.017  1.00  0.00    -0.237 OA
ATOM    109  O   UNL     1      17.557  15.053  -1.114  1.00  0.00    -0.237 OA
ATOM    110  O   UNL     1      18.864  12.983  -0.827  1.00  0.00    -0.744 OA
ENDBRANCH 106 107
ENDBRANCH  74  99
ENDBRANCH  48  49
ENDBRANCH  41  43
ENDBRANCH  40  41
ENDBRANCH  39  40
ENDBRANCH  38  39
ENDBRANCH  37  38
ENDBRANCH  36  37
ENDBRANCH   1  36
TORSDOF 25
