REMARK SMILES O=C(OCCOCCOCCOC(=O)c1cc([C@@H]2C=NN=C2c2ccc(F)cc2)c2c(ccc3ccccc32)n1)c1ccc(-c2c3nc(c(-c4c(F)cc(S(=O)(=O)[O-])cc4F)c4ccc([nH]4)c(-c4c(F)cc(S(=O)(=O)[O-])cc4F)c4nc(c(-c5c(F)cc(S(=O)(=O)[O-])cc5F)c5ccc2[nH]5)C=C4)C=C3)cc1
REMARK SMILES IDX 7 1 6 2 5 3 4 4 3 5 2 6 1 7 41 8 42 9 106 10 43 11 105 12
REMARK SMILES IDX 44 13 45 14 46 15 99 16 47 17 104 18 98 19 100 20 48 21
REMARK SMILES IDX 103 22 97 23 96 24 49 26 83 27 62 28 82 29 63 30 66 31 81 32
REMARK SMILES IDX 101 33 64 34 65 35 80 37 102 38 67 39 50 40 51 41 60 42
REMARK SMILES IDX 52 43 53 44 59 45 61 46 54 47 55 48 56 49 57 50 58 51 84 52
REMARK SMILES IDX 85 53 94 54 86 55 87 56 93 57 95 58 88 59 89 60 90 61 91 62
REMARK SMILES IDX 92 63 68 64 69 65 78 66 70 67 71 68 77 69 79 70 72 71 73 72
REMARK SMILES IDX 74 73 75 74 76 75 8 76 9 77 10 78 11 79 12 80 13 81 14 82
REMARK SMILES IDX 15 83 16 84 40 85 17 86 31 87 30 88 32 89 39 90 33 91 34 92
REMARK SMILES IDX 38 93 35 94 37 95 36 96 18 97 19 98 22 99 20 100 21 101
REMARK SMILES IDX 23 102 24 103 29 104 25 105 28 106 26 107 27 108
REMARK H PARENT 100 25 66 36
REMARK Flexibility Score: inf
ROOT
ATOM      1  C   UNL     1       3.380   0.512  -1.649  1.00  0.00     0.188 C 
ENDROOT
BRANCH   1   2
ATOM      2  O   UNL     1       4.654  -0.110  -1.513  1.00  0.00    -0.376 OA
BRANCH   2   3
ATOM      3  C   UNL     1       5.159  -0.179  -0.189  1.00  0.00     0.202 C 
BRANCH   3   4
ATOM      4  C   UNL     1       4.614  -1.372   0.599  1.00  0.00     0.261 C 
BRANCH   4   5
ATOM      5  O   UNL     1       3.192  -1.584   0.498  1.00  0.00    -0.460 OA
BRANCH   5   6
ATOM      6  C   UNL     1       2.126  -1.036   1.109  1.00  0.00     0.338 C 
ATOM      7  O   UNL     1       1.025  -1.558   0.938  1.00  0.00    -0.246 OA
BRANCH   6   8
ATOM      8  C   UNL     1       2.174   0.226   1.894  1.00  0.00     0.060 A 
ATOM      9  C   UNL     1       3.318   0.778   2.466  1.00  0.00     0.016 A 
ATOM     10  C   UNL     1       0.932   0.858   2.114  1.00  0.00     0.016 A 
ATOM     11  C   UNL     1       3.224   1.888   3.296  1.00  0.00     0.010 A 
ATOM     12  C   UNL     1       0.829   1.957   2.957  1.00  0.00     0.010 A 
ATOM     13  C   UNL     1       1.975   2.431   3.587  1.00  0.00    -0.014 A 
BRANCH  13  14
ATOM     14  C   UNL     1       1.921   3.460   4.617  1.00  0.00     0.031 A 
ATOM     15  C   UNL     1       2.496   4.785   4.273  1.00  0.00     0.074 A 
ATOM     16  C   UNL     1       1.312   3.236   5.798  1.00  0.00     0.049 A 
ATOM     17  N   UNL     1       3.454   5.424   4.864  1.00  0.00    -0.248 NA
ATOM     18  C   UNL     1       1.979   5.455   3.071  1.00  0.00     0.031 C 
ATOM     19  C   UNL     1       0.485   2.080   6.159  1.00  0.00     0.029 A 
ATOM     20  N   UNL     1       1.203   4.051   6.886  1.00  0.00    -0.354 N 
ATOM     21  C   UNL     1       3.503   6.675   4.255  1.00  0.00     0.074 A 
ATOM     22  C   UNL     1       2.683   6.587   3.074  1.00  0.00     0.031 C 
ATOM     23  C   UNL     1      -0.220   2.375   7.271  1.00  0.00     0.029 A 
ATOM     24  C   UNL     1       0.190   3.680   7.759  1.00  0.00     0.049 A 
ATOM     25  H   UNL     1       1.787   4.830   7.037  1.00  0.00     0.167 HD
ATOM     26  C   UNL     1       4.015   7.766   4.889  1.00  0.00     0.037 A 
ATOM     27  C   UNL     1      -0.343   4.431   8.753  1.00  0.00     0.037 A 
ATOM     28  C   UNL     1       4.892   7.406   5.971  1.00  0.00     0.049 A 
ATOM     29  C   UNL     1       0.646   5.479   9.109  1.00  0.00     0.074 A 
ATOM     30  C   UNL     1       6.043   6.649   6.086  1.00  0.00     0.029 A 
ATOM     31  N   UNL     1       4.460   7.618   7.257  1.00  0.00    -0.354 N 
ATOM     32  N   UNL     1       1.791   5.249   9.691  1.00  0.00    -0.248 NA
ATOM     33  C   UNL     1       0.517   6.791   8.493  1.00  0.00     0.031 C 
ATOM     34  C   UNL     1       5.984   6.066   7.385  1.00  0.00     0.029 A 
ATOM     35  C   UNL     1       4.812   6.517   7.993  1.00  0.00     0.049 A 
ATOM     36  H   UNL     1       3.985   8.414   7.588  1.00  0.00     0.167 HD
ATOM     37  C   UNL     1       2.654   6.198   9.166  1.00  0.00     0.074 A 
ATOM     38  C   UNL     1       1.788   7.193   8.546  1.00  0.00     0.031 C 
ATOM     39  C   UNL     1       3.989   5.946   9.037  1.00  0.00     0.037 A 
BRANCH  26  40
ATOM     40  C   UNL     1       3.424   9.152   4.757  1.00  0.00     0.058 A 
ATOM     41  C   UNL     1       2.073   9.385   4.414  1.00  0.00     0.135 A 
ATOM     42  C   UNL     1       4.120  10.264   5.275  1.00  0.00     0.135 A 
ATOM     43  F   UNL     1       1.262   8.403   4.000  1.00  0.00    -0.206 F 
ATOM     44  C   UNL     1       1.454  10.616   4.581  1.00  0.00     0.059 A 
ATOM     45  C   UNL     1       3.500  11.495   5.507  1.00  0.00     0.059 A 
ATOM     46  F   UNL     1       5.404  10.149   5.652  1.00  0.00    -0.206 F 
ATOM     47  C   UNL     1       2.162  11.655   5.165  1.00  0.00     0.060 A 
BRANCH  47  48
ATOM     48  S   UNL     1       1.251  13.150   5.591  1.00  0.00     0.124 S 
ATOM     49  O   UNL     1       1.043  13.747   4.276  1.00  0.00    -0.237 OA
ATOM     50  O   UNL     1       0.063  12.604   6.239  1.00  0.00    -0.237 OA
ATOM     51  O   UNL     1       2.172  13.861   6.472  1.00  0.00    -0.744 OA
ENDBRANCH  47  48
ENDBRANCH  26  40
BRANCH  27  52
ATOM     52  C   UNL     1      -1.766   4.486   9.182  1.00  0.00     0.058 A 
ATOM     53  C   UNL     1      -2.819   4.107   8.323  1.00  0.00     0.135 A 
ATOM     54  C   UNL     1      -2.140   5.166  10.355  1.00  0.00     0.135 A 
ATOM     55  F   UNL     1      -2.584   3.513   7.144  1.00  0.00    -0.206 F 
ATOM     56  C   UNL     1      -4.150   4.410   8.590  1.00  0.00     0.059 A 
ATOM     57  C   UNL     1      -3.470   5.500  10.634  1.00  0.00     0.059 A 
ATOM     58  F   UNL     1      -1.204   5.583  11.221  1.00  0.00    -0.206 F 
ATOM     59  C   UNL     1      -4.465   5.138   9.730  1.00  0.00     0.060 A 
BRANCH  59  60
ATOM     60  S   UNL     1      -6.175   5.680   9.932  1.00  0.00     0.124 S 
ATOM     61  O   UNL     1      -6.375   6.485   8.730  1.00  0.00    -0.237 OA
ATOM     62  O   UNL     1      -6.893   4.409   9.965  1.00  0.00    -0.237 OA
ATOM     63  O   UNL     1      -6.154   6.421  11.188  1.00  0.00    -0.744 OA
ENDBRANCH  59  60
ENDBRANCH  27  52
BRANCH  39  64
ATOM     64  C   UNL     1       4.585   4.813   9.828  1.00  0.00     0.058 A 
ATOM     65  C   UNL     1       5.657   5.097  10.689  1.00  0.00     0.135 A 
ATOM     66  C   UNL     1       4.235   3.461   9.662  1.00  0.00     0.135 A 
ATOM     67  F   UNL     1       6.078   6.364  10.845  1.00  0.00    -0.206 F 
ATOM     68  C   UNL     1       6.349   4.094  11.360  1.00  0.00     0.059 A 
ATOM     69  C   UNL     1       4.893   2.441  10.352  1.00  0.00     0.059 A 
ATOM     70  F   UNL     1       3.296   3.095   8.777  1.00  0.00    -0.206 F 
ATOM     71  C   UNL     1       5.960   2.767  11.187  1.00  0.00     0.060 A 
BRANCH  71  72
ATOM     72  S   UNL     1       6.890   1.482  12.048  1.00  0.00     0.124 S 
ATOM     73  O   UNL     1       8.162   1.502  11.331  1.00  0.00    -0.237 OA
ATOM     74  O   UNL     1       6.932   1.988  13.417  1.00  0.00    -0.237 OA
ATOM     75  O   UNL     1       6.085   0.280  11.854  1.00  0.00    -0.744 OA
ENDBRANCH  71  72
ENDBRANCH  39  64
ENDBRANCH  13  14
ENDBRANCH   6   8
ENDBRANCH   5   6
ENDBRANCH   4   5
ENDBRANCH   3   4
ENDBRANCH   2   3
ENDBRANCH   1   2
BRANCH   1  76
ATOM     76  C   UNL     1       2.293  -0.390  -2.277  1.00  0.00     0.188 C 
BRANCH  76  77
ATOM     77  O   UNL     1       2.543  -1.277  -3.367  1.00  0.00    -0.376 OA
BRANCH  77  78
ATOM     78  C   UNL     1       3.864  -1.496  -3.819  1.00  0.00     0.202 C 
BRANCH  78  79
ATOM     79  C   UNL     1       4.313  -0.480  -4.871  1.00  0.00     0.261 C 
BRANCH  79  80
ATOM     80  O   UNL     1       3.976   0.878  -4.550  1.00  0.00    -0.459 OA
BRANCH  80  81
ATOM     81  C   UNL     1       2.755   1.290  -4.968  1.00  0.00     0.357 C 
ATOM     82  O   UNL     1       1.971   0.685  -5.698  1.00  0.00    -0.244 OA
BRANCH  81  83
ATOM     83  C   UNL     1       2.521   2.667  -4.490  1.00  0.00     0.149 A 
ATOM     84  C   UNL     1       3.191   3.686  -5.113  1.00  0.00     0.041 A 
ATOM     85  N   UNL     1       1.558   2.881  -3.581  1.00  0.00    -0.241 NA
ATOM     86  C   UNL     1       2.791   5.026  -4.896  1.00  0.00    -0.021 A 
ATOM     87  C   UNL     1       1.193   4.143  -3.319  1.00  0.00     0.072 A 
ATOM     88  C   UNL     1       1.699   5.311  -3.974  1.00  0.00     0.012 A 
ATOM     89  C   UNL     1       0.204   4.233  -2.363  1.00  0.00     0.029 A 
ATOM     90  C   UNL     1       1.004   6.582  -3.659  1.00  0.00    -0.009 A 
ATOM     91  C   UNL     1      -0.385   5.439  -2.018  1.00  0.00     0.011 A 
ATOM     92  C   UNL     1      -0.020   6.606  -2.669  1.00  0.00    -0.018 A 
ATOM     93  C   UNL     1       1.209   7.836  -4.285  1.00  0.00     0.009 A 
ATOM     94  C   UNL     1      -0.717   7.783  -2.333  1.00  0.00     0.009 A 
ATOM     95  C   UNL     1       0.510   9.008  -3.960  1.00  0.00     0.001 A 
ATOM     96  C   UNL     1      -0.454   8.983  -2.975  1.00  0.00     0.001 A 
BRANCH  86  97
ATOM     97  C   UNL     1       3.529   5.957  -5.827  1.00  0.00     0.115 C 
ATOM     98  C   UNL     1       4.202   7.167  -5.303  1.00  0.00     0.123 C 
ATOM     99  C   UNL     1       2.825   6.574  -6.996  1.00  0.00     0.083 C 
ATOM    100  N   UNL     1       4.099   8.175  -6.111  1.00  0.00    -0.162 NA
ATOM    101  N   UNL     1       3.228   7.797  -7.196  1.00  0.00    -0.154 NA
BRANCH  99 102
ATOM    102  C   UNL     1       1.904   5.853  -7.904  1.00  0.00    -0.001 A 
ATOM    103  C   UNL     1       2.025   6.081  -9.280  1.00  0.00     0.013 A 
ATOM    104  C   UNL     1       0.910   4.981  -7.441  1.00  0.00     0.013 A 
ATOM    105  C   UNL     1       1.185   5.415 -10.178  1.00  0.00     0.040 A 
ATOM    106  C   UNL     1       0.078   4.309  -8.339  1.00  0.00     0.040 A 
ATOM    107  C   UNL     1       0.225   4.531  -9.700  1.00  0.00     0.123 A 
ATOM    108  F   UNL     1      -0.578   3.895 -10.563  1.00  0.00    -0.207 F 
ENDBRANCH  99 102
ENDBRANCH  86  97
ENDBRANCH  81  83
ENDBRANCH  80  81
ENDBRANCH  79  80
ENDBRANCH  78  79
ENDBRANCH  77  78
ENDBRANCH  76  77
ENDBRANCH   1  76
TORSDOF 22
