REMARK SMILES O=C(NC1(C(=O)OCCOCCOCCOC(=O)c2ccc(-c3c4nc(c(-c5c(F)cc(S(=O)(=O)[O-])cc5F)c5ccc([nH]5)c(-c5c(F)cc(S(=O)(=O)[O-])cc5F)c5nc(c(-c6c(F)cc(S(=O)(=O)[O-])cc6F)c6ccc3[nH]6)C=C5)C=C4)cc2)CC[NH2+]CC1)OCC1c2ccccc2-c2ccccc21
REMARK SMILES IDX 11 1 10 2 9 3 8 4 7 5 5 6 6 7 4 8 85 9 89 10 86 11 88 12
REMARK SMILES IDX 87 13 3 16 1 17 2 18 90 20 91 21 92 22 93 23 104 24 94 25
REMARK SMILES IDX 98 26 99 27 103 28 95 29 97 30 100 31 102 32 96 33 101 34
REMARK SMILES IDX 12 35 13 36 14 37 15 38 16 39 17 40 18 41 19 42 20 43 84 44
REMARK SMILES IDX 21 45 83 46 22 47 23 48 24 49 77 50 25 51 82 52 76 53 78 54
REMARK SMILES IDX 26 55 81 56 75 57 74 58 27 60 61 61 40 62 60 63 41 64 44 65
REMARK SMILES IDX 59 66 79 67 42 68 43 69 58 71 80 72 45 73 28 74 29 75 38 76
REMARK SMILES IDX 30 77 31 78 37 79 39 80 32 81 33 82 34 83 35 84 36 85 62 86
REMARK SMILES IDX 63 87 72 88 64 89 65 90 71 91 73 92 66 93 67 94 68 95 69 96
REMARK SMILES IDX 70 97 46 98 47 99 56 100 48 101 49 102 55 103 57 104 50 105
REMARK SMILES IDX 51 106 52 107 53 108 54 109
REMARK H PARENT 87 14 87 15 3 19 78 59 44 70
REMARK Flexibility Score: inf
ROOT
ATOM      1  C   UNL     1       4.517   4.500   2.054  1.00  0.00     0.188 C 
ENDROOT
BRANCH   1   2
ATOM      2  O   UNL     1       5.238   3.299   2.415  1.00  0.00    -0.376 OA
BRANCH   2   3
ATOM      3  C   UNL     1       6.673   3.184   2.285  1.00  0.00     0.202 C 
BRANCH   3   4
ATOM      4  C   UNL     1       7.297   1.763   1.668  1.00  0.00     0.261 C 
BRANCH   4   5
ATOM      5  O   UNL     1       6.752   0.955   0.182  1.00  0.00    -0.461 OA
BRANCH   5   6
ATOM      6  C   UNL     1       5.423   0.854  -1.160  1.00  0.00     0.332 C 
ATOM      7  O   UNL     1       4.528   1.763  -1.352  1.00  0.00    -0.249 OA
BRANCH   6   8
ATOM      8  C   UNL     1       4.871  -0.407  -2.057  1.00  0.00     0.151 C 
ATOM      9  C   UNL     1       4.783   0.435  -3.441  1.00  0.00     0.102 C 
ATOM     10  C   UNL     1       5.423  -1.764  -2.496  1.00  0.00     0.102 C 
ATOM     11  C   UNL     1       4.165  -0.243  -4.637  1.00  0.00     0.263 C 
ATOM     12  C   UNL     1       4.684  -2.351  -3.708  1.00  0.00     0.263 C 
ATOM     13  N   UNL     1       4.836  -1.503  -4.885  1.00  0.00    -0.346 N 
ATOM     14  H   UNL     1       5.826  -1.335  -5.063  1.00  0.00     0.346 HD
ATOM     15  H   UNL     1       4.427  -1.961  -5.700  1.00  0.00     0.346 HD
BRANCH   8  16
ATOM     16  N   UNL     1       3.404  -0.526  -1.533  1.00  0.00    -0.305 N 
ATOM     17  O   UNL     1       1.981  -0.464   0.229  1.00  0.00    -0.225 OA
ATOM     18  C   UNL     1       2.867  -1.056  -0.378  1.00  0.00     0.408 C 
ATOM     19  H   UNL     1       2.732  -0.150  -2.146  1.00  0.00     0.168 HD
BRANCH  18  20
ATOM     20  O   UNL     1       3.351  -2.251   0.043  1.00  0.00    -0.449 OA
BRANCH  20  21
ATOM     21  C   UNL     1       3.979  -2.251   1.385  1.00  0.00     0.248 C 
BRANCH  21  22
ATOM     22  C   UNL     1       5.437  -1.911   1.098  1.00  0.00     0.088 C 
ATOM     23  C   UNL     1       6.825  -2.592   1.075  1.00  0.00    -0.029 A 
ATOM     24  C   UNL     1       5.670  -0.501   0.639  1.00  0.00    -0.029 A 
ATOM     25  C   UNL     1       7.263  -3.722   1.741  1.00  0.00     0.005 A 
ATOM     26  C   UNL     1       7.695  -1.973   0.094  1.00  0.00    -0.014 A 
ATOM     27  C   UNL     1       7.080  -0.775  -0.448  1.00  0.00    -0.014 A 
ATOM     28  C   UNL     1       5.028   1.170   0.901  1.00  0.00     0.005 A 
ATOM     29  C   UNL     1       8.569  -4.179   1.485  1.00  0.00     0.000 A 
ATOM     30  C   UNL     1       8.984  -2.415  -0.137  1.00  0.00     0.009 A 
ATOM     31  C   UNL     1       7.795   0.533  -1.399  1.00  0.00     0.009 A 
ATOM     32  C   UNL     1       5.890   2.562  -0.028  1.00  0.00     0.000 A 
ATOM     33  C   UNL     1       9.422  -3.527   0.572  1.00  0.00     0.001 A 
ATOM     34  C   UNL     1       7.223   2.202  -1.202  1.00  0.00     0.001 A 
ENDBRANCH  21  22
ENDBRANCH  20  21
ENDBRANCH  18  20
ENDBRANCH   8  16
ENDBRANCH   6   8
ENDBRANCH   5   6
ENDBRANCH   4   5
ENDBRANCH   3   4
ENDBRANCH   2   3
ENDBRANCH   1   2
BRANCH   1  35
ATOM     35  C   UNL     1       4.268   4.936   0.574  1.00  0.00     0.188 C 
BRANCH  35  36
ATOM     36  O   UNL     1       5.341   5.543  -0.179  1.00  0.00    -0.376 OA
BRANCH  36  37
ATOM     37  C   UNL     1       6.058   6.602   0.426  1.00  0.00     0.202 C 
BRANCH  37  38
ATOM     38  C   UNL     1       5.378   7.971   0.325  1.00  0.00     0.261 C 
BRANCH  38  39
ATOM     39  O   UNL     1       3.950   7.876   0.363  1.00  0.00    -0.460 OA
BRANCH  39  40
ATOM     40  C   UNL     1       3.359   7.739  -0.860  1.00  0.00     0.338 C 
ATOM     41  O   UNL     1       3.868   7.967  -1.944  1.00  0.00    -0.246 OA
BRANCH  40  42
ATOM     42  C   UNL     1       2.060   7.039  -0.680  1.00  0.00     0.060 A 
ATOM     43  C   UNL     1       1.733   6.009  -1.578  1.00  0.00     0.016 A 
ATOM     44  C   UNL     1       1.249   7.280   0.436  1.00  0.00     0.016 A 
ATOM     45  C   UNL     1       0.565   5.263  -1.399  1.00  0.00     0.010 A 
ATOM     46  C   UNL     1       0.070   6.552   0.603  1.00  0.00     0.010 A 
ATOM     47  C   UNL     1      -0.305   5.584  -0.346  1.00  0.00    -0.014 A 
BRANCH  47  48
ATOM     48  C   UNL     1      -1.746   5.247  -0.450  1.00  0.00     0.031 A 
ATOM     49  C   UNL     1      -2.591   6.217  -1.238  1.00  0.00     0.074 A 
ATOM     50  C   UNL     1      -2.304   4.191   0.167  1.00  0.00     0.049 A 
ATOM     51  N   UNL     1      -3.888   6.296  -1.351  1.00  0.00    -0.248 NA
ATOM     52  C   UNL     1      -1.859   7.255  -1.989  1.00  0.00     0.031 C 
ATOM     53  C   UNL     1      -1.587   3.155   0.907  1.00  0.00     0.029 A 
ATOM     54  N   UNL     1      -3.626   3.835   0.284  1.00  0.00    -0.354 N 
ATOM     55  C   UNL     1      -4.122   7.388  -2.179  1.00  0.00     0.074 A 
ATOM     56  C   UNL     1      -2.842   7.955  -2.524  1.00  0.00     0.031 C 
ATOM     57  C   UNL     1      -2.483   2.297   1.432  1.00  0.00     0.029 A 
ATOM     58  C   UNL     1      -3.835   2.746   1.098  1.00  0.00     0.049 A 
ATOM     59  H   UNL     1      -4.355   4.315  -0.171  1.00  0.00     0.167 HD
ATOM     60  C   UNL     1      -5.302   7.886  -2.611  1.00  0.00     0.037 A 
ATOM     61  C   UNL     1      -4.989   2.207   1.545  1.00  0.00     0.037 A 
ATOM     62  C   UNL     1      -6.574   7.347  -2.230  1.00  0.00     0.049 A 
ATOM     63  C   UNL     1      -6.301   2.828   1.122  1.00  0.00     0.074 A 
ATOM     64  C   UNL     1      -7.836   7.789  -2.577  1.00  0.00     0.029 A 
ATOM     65  N   UNL     1      -6.741   6.247  -1.402  1.00  0.00    -0.354 N 
ATOM     66  N   UNL     1      -6.513   3.866   0.344  1.00  0.00    -0.248 NA
ATOM     67  C   UNL     1      -7.530   2.212   1.642  1.00  0.00     0.031 C 
ATOM     68  C   UNL     1      -8.770   6.978  -1.924  1.00  0.00     0.029 A 
ATOM     69  C   UNL     1      -8.087   6.002  -1.212  1.00  0.00     0.049 A 
ATOM     70  H   UNL     1      -6.009   5.720  -1.007  1.00  0.00     0.167 HD
ATOM     71  C   UNL     1      -7.895   4.007   0.259  1.00  0.00     0.074 A 
ATOM     72  C   UNL     1      -8.470   2.947   1.061  1.00  0.00     0.031 C 
ATOM     73  C   UNL     1      -8.627   4.927  -0.419  1.00  0.00     0.037 A 
BRANCH  60  74
ATOM     74  C   UNL     1      -5.246   9.095  -3.499  1.00  0.00     0.058 A 
ATOM     75  C   UNL     1      -4.797   9.011  -4.827  1.00  0.00     0.135 A 
ATOM     76  C   UNL     1      -5.614  10.357  -3.008  1.00  0.00     0.135 A 
ATOM     77  F   UNL     1      -4.396   7.834  -5.333  1.00  0.00    -0.206 F 
ATOM     78  C   UNL     1      -4.691  10.142  -5.630  1.00  0.00     0.059 A 
ATOM     79  C   UNL     1      -5.541  11.497  -3.801  1.00  0.00     0.059 A 
ATOM     80  F   UNL     1      -6.030  10.493  -1.739  1.00  0.00    -0.206 F 
ATOM     81  C   UNL     1      -5.065  11.381  -5.107  1.00  0.00     0.060 A 
BRANCH  81  82
ATOM     82  S   UNL     1      -4.925  12.840  -6.160  1.00  0.00     0.124 S 
ATOM     83  O   UNL     1      -3.481  13.049  -6.179  1.00  0.00    -0.237 OA
ATOM     84  O   UNL     1      -5.515  12.379  -7.413  1.00  0.00    -0.237 OA
ATOM     85  O   UNL     1      -5.696  13.851  -5.444  1.00  0.00    -0.744 OA
ENDBRANCH  81  82
ENDBRANCH  60  74
BRANCH  61  86
ATOM     86  C   UNL     1      -4.968   1.040   2.473  1.00  0.00     0.058 A 
ATOM     87  C   UNL     1      -5.426  -0.223   2.067  1.00  0.00     0.135 A 
ATOM     88  C   UNL     1      -4.514   1.170   3.796  1.00  0.00     0.135 A 
ATOM     89  F   UNL     1      -5.892  -0.397   0.821  1.00  0.00    -0.206 F 
ATOM     90  C   UNL     1      -5.446  -1.310   2.938  1.00  0.00     0.059 A 
ATOM     91  C   UNL     1      -4.502   0.092   4.678  1.00  0.00     0.059 A 
ATOM     92  F   UNL     1      -4.068   2.355   4.240  1.00  0.00    -0.206 F 
ATOM     93  C   UNL     1      -4.980  -1.143   4.243  1.00  0.00     0.060 A 
BRANCH  93  94
ATOM     94  S   UNL     1      -4.976  -2.567   5.356  1.00  0.00     0.124 S 
ATOM     95  O   UNL     1      -6.394  -2.704   5.667  1.00  0.00    -0.237 OA
ATOM     96  O   UNL     1      -4.403  -3.615   4.517  1.00  0.00    -0.237 OA
ATOM     97  O   UNL     1      -4.128  -2.128   6.461  1.00  0.00    -0.744 OA
ENDBRANCH  93  94
ENDBRANCH  61  86
BRANCH  73  98
ATOM     98  C   UNL     1     -10.124   4.807  -0.365  1.00  0.00     0.058 A 
ATOM     99  C   UNL     1     -10.854   5.177   0.773  1.00  0.00     0.135 A 
ATOM    100  C   UNL     1     -10.839   4.397  -1.503  1.00  0.00     0.135 A 
ATOM    101  F   UNL     1     -10.217   5.577   1.885  1.00  0.00    -0.206 F 
ATOM    102  C   UNL     1     -12.245   5.128   0.789  1.00  0.00     0.059 A 
ATOM    103  C   UNL     1     -12.229   4.366  -1.518  1.00  0.00     0.059 A 
ATOM    104  F   UNL     1     -10.187   4.050  -2.623  1.00  0.00    -0.206 F 
ATOM    105  C   UNL     1     -12.923   4.724  -0.363  1.00  0.00     0.060 A 
BRANCH 105 106
ATOM    106  S   UNL     1     -14.728   4.707  -0.345  1.00  0.00     0.124 S 
ATOM    107  O   UNL     1     -15.003   3.513   0.448  1.00  0.00    -0.237 OA
ATOM    108  O   UNL     1     -15.048   5.980   0.294  1.00  0.00    -0.237 OA
ATOM    109  O   UNL     1     -15.081   4.617  -1.759  1.00  0.00    -0.744 OA
ENDBRANCH 105 106
ENDBRANCH  73  98
ENDBRANCH  47  48
ENDBRANCH  40  42
ENDBRANCH  39  40
ENDBRANCH  38  39
ENDBRANCH  37  38
ENDBRANCH  36  37
ENDBRANCH  35  36
ENDBRANCH   1  35
TORSDOF 24
