REMARK SMILES O=C(OCCOCCOCCOC(=O)c1cccn1CC(=O)N1CC[C@H]2CCCC[C@H]2C1)c1ccc(-c2c3nc(c(-c4c(F)cc(S(=O)(=O)[O-])cc4F)c4ccc([nH]4)c(-c4c(F)cc(S(=O)(=O)[O-])cc4F)c4nc(c(-c5c(F)cc(S(=O)(=O)[O-])cc5F)c5ccc2[nH]5)C=C4)C=C3)cc1
REMARK SMILES IDX 7 1 6 2 5 3 4 4 3 5 2 6 1 7 33 8 34 9 98 10 35 11 97 12
REMARK SMILES IDX 36 13 37 14 38 15 91 16 39 17 96 18 90 19 92 20 40 21 95 22
REMARK SMILES IDX 89 23 88 24 41 26 75 27 54 28 74 29 55 30 58 31 73 32 93 33
REMARK SMILES IDX 56 34 57 35 72 37 94 38 59 39 42 40 43 41 52 42 44 43 45 44
REMARK SMILES IDX 51 45 53 46 46 47 47 48 48 49 49 50 50 51 76 52 77 53 86 54
REMARK SMILES IDX 78 55 79 56 85 57 87 58 80 59 81 60 82 61 83 62 84 63 60 64
REMARK SMILES IDX 61 65 70 66 62 67 63 68 69 69 71 70 64 71 65 72 66 73 67 74
REMARK SMILES IDX 68 75 8 76 9 77 10 78 11 79 12 80 13 81 14 82 15 83 16 84
REMARK SMILES IDX 19 85 17 86 18 87 20 88 21 89 22 90 23 91 24 92 32 93 25 94
REMARK SMILES IDX 31 95 26 96 30 97 27 98 29 99 28 100
REMARK H PARENT 92 25 58 36
REMARK Flexibility Score: inf
ROOT
ATOM      1  C   UNL     1       3.043  -0.744  -2.096  1.00  0.00     0.188 C 
ENDROOT
BRANCH   1   2
ATOM      2  O   UNL     1       4.439  -0.503  -1.969  1.00  0.00    -0.376 OA
BRANCH   2   3
ATOM      3  C   UNL     1       5.239  -1.342  -1.127  1.00  0.00     0.202 C 
BRANCH   3   4
ATOM      4  C   UNL     1       4.820  -1.774   0.296  1.00  0.00     0.261 C 
BRANCH   4   5
ATOM      5  O   UNL     1       3.430  -1.839   0.584  1.00  0.00    -0.460 OA
BRANCH   5   6
ATOM      6  C   UNL     1       2.651  -0.728   0.606  1.00  0.00     0.338 C 
ATOM      7  O   UNL     1       1.433  -0.859   0.627  1.00  0.00    -0.246 OA
BRANCH   6   8
ATOM      8  C   UNL     1       3.388   0.607   0.366  1.00  0.00     0.060 A 
ATOM      9  C   UNL     1       3.926   1.670   0.875  1.00  0.00     0.016 A 
ATOM     10  C   UNL     1       2.812   1.520   1.067  1.00  0.00     0.016 A 
ATOM     11  C   UNL     1       4.127   2.812   2.475  1.00  0.00     0.010 A 
ATOM     12  C   UNL     1       2.875   2.794   2.590  1.00  0.00     0.010 A 
ATOM     13  C   UNL     1       3.581   2.875   3.655  1.00  0.00    -0.014 A 
BRANCH  13  14
ATOM     14  C   UNL     1       3.673   3.547   4.977  1.00  0.00     0.031 A 
ATOM     15  C   UNL     1       3.792   5.025   4.669  1.00  0.00     0.074 A 
ATOM     16  C   UNL     1       3.839   2.847   6.204  1.00  0.00     0.049 A 
ATOM     17  N   UNL     1       4.842   5.790   4.668  1.00  0.00    -0.248 NA
ATOM     18  C   UNL     1       2.673   5.651   3.888  1.00  0.00     0.031 C 
ATOM     19  C   UNL     1       3.358   1.471   6.524  1.00  0.00     0.029 A 
ATOM     20  N   UNL     1       4.418   3.103   7.476  1.00  0.00    -0.354 N 
ATOM     21  C   UNL     1       4.334   7.035   4.264  1.00  0.00     0.074 A 
ATOM     22  C   UNL     1       3.264   6.734   3.374  1.00  0.00     0.031 C 
ATOM     23  C   UNL     1       3.881   0.948   7.677  1.00  0.00     0.029 A 
ATOM     24  C   UNL     1       4.644   1.961   8.392  1.00  0.00     0.049 A 
ATOM     25  H   UNL     1       4.663   4.019   7.743  1.00  0.00     0.167 HD
ATOM     26  C   UNL     1       4.322   8.122   5.098  1.00  0.00     0.037 A 
ATOM     27  C   UNL     1       5.356   1.884   9.610  1.00  0.00     0.037 A 
ATOM     28  C   UNL     1       4.944   7.772   6.337  1.00  0.00     0.049 A 
ATOM     29  C   UNL     1       5.399   3.300   9.982  1.00  0.00     0.074 A 
ATOM     30  C   UNL     1       6.188   7.260   6.606  1.00  0.00     0.029 A 
ATOM     31  N   UNL     1       4.093   7.503   7.392  1.00  0.00    -0.354 N 
ATOM     32  N   UNL     1       4.362   3.958  10.406  1.00  0.00    -0.248 NA
ATOM     33  C   UNL     1       6.647   4.051   9.823  1.00  0.00     0.031 C 
ATOM     34  C   UNL     1       5.902   6.274   7.557  1.00  0.00     0.029 A 
ATOM     35  C   UNL     1       4.671   6.541   8.166  1.00  0.00     0.049 A 
ATOM     36  H   UNL     1       3.221   7.932   7.556  1.00  0.00     0.167 HD
ATOM     37  C   UNL     1       4.730   5.248  10.128  1.00  0.00     0.074 A 
ATOM     38  C   UNL     1       6.187   5.263  10.131  1.00  0.00     0.031 C 
ATOM     39  C   UNL     1       3.939   5.937   9.255  1.00  0.00     0.037 A 
BRANCH  26  40
ATOM     40  C   UNL     1       3.430   9.333   5.112  1.00  0.00     0.058 A 
ATOM     41  C   UNL     1       3.873  10.421   5.899  1.00  0.00     0.135 A 
ATOM     42  C   UNL     1       2.088   9.377   4.693  1.00  0.00     0.135 A 
ATOM     43  F   UNL     1       5.142  10.476   6.338  1.00  0.00    -0.206 F 
ATOM     44  C   UNL     1       3.018  11.426   6.324  1.00  0.00     0.059 A 
ATOM     45  C   UNL     1       1.230  10.406   5.061  1.00  0.00     0.059 A 
ATOM     46  F   UNL     1       1.520   8.399   3.980  1.00  0.00    -0.206 F 
ATOM     47  C   UNL     1       1.695  11.405   5.904  1.00  0.00     0.060 A 
BRANCH  47  48
ATOM     48  S   UNL     1       0.598  12.714   6.463  1.00  0.00     0.124 S 
ATOM     49  O   UNL     1       0.446  12.390   7.876  1.00  0.00    -0.237 OA
ATOM     50  O   UNL     1       1.385  13.907   6.163  1.00  0.00    -0.237 OA
ATOM     51  O   UNL     1      -0.589  12.533   5.633  1.00  0.00    -0.744 OA
ENDBRANCH  47  48
ENDBRANCH  26  40
BRANCH  27  52
ATOM     52  C   UNL     1       6.031   1.009  10.780  1.00  0.00     0.058 A 
ATOM     53  C   UNL     1       6.067  -0.386  10.958  1.00  0.00     0.135 A 
ATOM     54  C   UNL     1       6.863   1.663  11.772  1.00  0.00     0.135 A 
ATOM     55  F   UNL     1       5.233  -1.172  10.262  1.00  0.00    -0.206 F 
ATOM     56  C   UNL     1       6.963  -1.044  11.882  1.00  0.00     0.059 A 
ATOM     57  C   UNL     1       7.795   1.049  12.627  1.00  0.00     0.059 A 
ATOM     58  F   UNL     1       6.811   2.984  11.986  1.00  0.00    -0.206 F 
ATOM     59  C   UNL     1       7.878  -0.319  12.654  1.00  0.00     0.060 A 
BRANCH  59  60
ATOM     60  S   UNL     1       9.254  -1.096  13.569  1.00  0.00     0.124 S 
ATOM     61  O   UNL     1       8.613  -1.546  14.799  1.00  0.00    -0.237 OA
ATOM     62  O   UNL     1       9.685  -2.149  12.654  1.00  0.00    -0.237 OA
ATOM     63  O   UNL     1      10.214  -0.005  13.732  1.00  0.00    -0.744 OA
ENDBRANCH  59  60
ENDBRANCH  27  52
BRANCH  39  64
ATOM     64  C   UNL     1       2.451   5.617   9.324  1.00  0.00     0.058 A 
ATOM     65  C   UNL     1       1.776   5.719  10.557  1.00  0.00     0.135 A 
ATOM     66  C   UNL     1       1.679   5.138   8.249  1.00  0.00     0.135 A 
ATOM     67  F   UNL     1       2.425   6.184  11.637  1.00  0.00    -0.206 F 
ATOM     68  C   UNL     1       0.431   5.370  10.716  1.00  0.00     0.059 A 
ATOM     69  C   UNL     1       0.333   4.760   8.385  1.00  0.00     0.059 A 
ATOM     70  F   UNL     1       2.210   5.045   7.025  1.00  0.00    -0.206 F 
ATOM     71  C   UNL     1      -0.288   4.893   9.624  1.00  0.00     0.060 A 
BRANCH  71  72
ATOM     72  S   UNL     1      -2.043   4.504   9.841  1.00  0.00     0.124 S 
ATOM     73  O   UNL     1      -2.026   3.563  10.957  1.00  0.00    -0.237 OA
ATOM     74  O   UNL     1      -2.609   5.817  10.135  1.00  0.00    -0.237 OA
ATOM     75  O   UNL     1      -2.432   3.930   8.556  1.00  0.00    -0.744 OA
ENDBRANCH  71  72
ENDBRANCH  39  64
ENDBRANCH  13  14
ENDBRANCH   6   8
ENDBRANCH   5   6
ENDBRANCH   4   5
ENDBRANCH   3   4
ENDBRANCH   2   3
ENDBRANCH   1   2
BRANCH   1  76
ATOM     76  C   UNL     1       2.286  -1.209  -3.328  1.00  0.00     0.188 C 
BRANCH  76  77
ATOM     77  O   UNL     1       2.992  -1.856  -4.348  1.00  0.00    -0.376 OA
BRANCH  77  78
ATOM     78  C   UNL     1       4.274  -1.325  -4.619  1.00  0.00     0.202 C 
BRANCH  78  79
ATOM     79  C   UNL     1       4.371   0.175  -4.990  1.00  0.00     0.261 C 
BRANCH  79  80
ATOM     80  O   UNL     1       3.884   1.182  -4.040  1.00  0.00    -0.459 OA
BRANCH  80  81
ATOM     81  C   UNL     1       2.636   1.731  -4.233  1.00  0.00     0.355 C 
ATOM     82  O   UNL     1       1.865   1.355  -5.107  1.00  0.00    -0.244 OA
BRANCH  81  83
ATOM     83  C   UNL     1       2.446   2.967  -3.462  1.00  0.00     0.128 A 
ATOM     84  C   UNL     1       2.963   4.153  -3.986  1.00  0.00     0.035 A 
ATOM     85  N   UNL     1       1.590   3.348  -2.380  1.00  0.00    -0.333 N 
ATOM     86  C   UNL     1       2.259   5.233  -3.431  1.00  0.00     0.020 A 
ATOM     87  C   UNL     1       1.395   4.716  -2.494  1.00  0.00     0.087 A 
BRANCH  85  88
ATOM     88  C   UNL     1       0.792   2.519  -1.403  1.00  0.00     0.222 C 
BRANCH  88  89
ATOM     89  C   UNL     1       0.439   2.927   0.175  1.00  0.00     0.242 C 
ATOM     90  O   UNL     1      -0.744   3.109   0.483  1.00  0.00    -0.273 OA
BRANCH  89  91
ATOM     91  N   UNL     1       1.464   2.832   1.228  1.00  0.00    -0.341 N 
ATOM     92  C   UNL     1       3.079   3.756   0.560  1.00  0.00     0.120 C 
ATOM     93  C   UNL     1       1.756   1.288   2.613  1.00  0.00     0.123 C 
ATOM     94  C   UNL     1       5.077   3.286   0.757  1.00  0.00     0.025 C 
ATOM     95  C   UNL     1       3.820   0.708   2.847  1.00  0.00     0.012 C 
ATOM     96  C   UNL     1       5.515   1.565   1.907  1.00  0.00    -0.005 C 
ATOM     97  C   UNL     1       4.534   0.159   4.139  1.00  0.00     0.006 C 
ATOM     98  C   UNL     1       6.816   1.806   2.652  1.00  0.00     0.004 C 
ATOM     99  C   UNL     1       5.852   0.789   4.735  1.00  0.00     0.000 C 
ATOM    100  C   UNL     1       6.615   1.962   4.122  1.00  0.00     0.000 C 
ENDBRANCH  89  91
ENDBRANCH  88  89
ENDBRANCH  85  88
ENDBRANCH  81  83
ENDBRANCH  80  81
ENDBRANCH  79  80
ENDBRANCH  78  79
ENDBRANCH  77  78
ENDBRANCH  76  77
ENDBRANCH   1  76
TORSDOF 23
