REMARK SMILES O=C(OCCOCCOCCOC(=O)[C@H]1CCCC[C@H]1C(=O)N1CCN(S(=O)(=O)c2ccc(F)cc2)CC1)c1ccc(-c2c3nc(c(-c4c(F)cc(S(=O)(=O)[O-])cc4F)c4ccc([nH]4)c(-c4c(F)cc(S(=O)(=O)[O-])cc4F)c4nc(c(-c5c(F)cc(S(=O)(=O)[O-])cc5F)c5ccc2[nH]5)C=C4)C=C3)cc1
REMARK SMILES IDX 7 1 6 2 5 3 4 4 3 5 2 6 1 7 39 8 40 9 104 10 41 11 103 12
REMARK SMILES IDX 42 13 43 14 44 15 97 16 45 17 102 18 96 19 98 20 46 21
REMARK SMILES IDX 101 22 95 23 94 24 47 26 81 27 60 28 80 29 61 30 64 31 79 32
REMARK SMILES IDX 99 33 62 34 63 35 78 37 100 38 65 39 48 40 49 41 58 42 50 43
REMARK SMILES IDX 51 44 57 45 59 46 52 47 53 48 54 49 55 50 56 51 82 52 83 53
REMARK SMILES IDX 92 54 84 55 85 56 91 57 93 58 86 59 87 60 88 61 89 62 90 63
REMARK SMILES IDX 66 64 67 65 76 66 68 67 69 68 75 69 77 70 70 71 71 72 72 73
REMARK SMILES IDX 73 74 74 75 8 76 9 77 10 78 11 79 12 80 13 81 14 82 15 83
REMARK SMILES IDX 16 84 20 85 17 86 19 87 18 88 21 89 22 90 23 91 24 92 38 93
REMARK SMILES IDX 25 94 37 95 26 96 27 97 28 98 29 99 30 100 31 101 36 102
REMARK SMILES IDX 32 103 35 104 33 105 34 106
REMARK H PARENT 98 25 64 36
REMARK Flexibility Score: inf
ROOT
ATOM      1  C   UNL     1      -0.059   4.861   1.204  1.00  0.00     0.188 C 
ENDROOT
BRANCH   1   2
ATOM      2  O   UNL     1       0.227   3.135   1.361  1.00  0.00    -0.376 OA
BRANCH   2   3
ATOM      3  C   UNL     1      -0.319   1.982   2.908  1.00  0.00     0.202 C 
BRANCH   3   4
ATOM      4  C   UNL     1      -0.726   3.075   4.504  1.00  0.00     0.261 C 
BRANCH   4   5
ATOM      5  O   UNL     1       0.378   4.441   4.996  1.00  0.00    -0.460 OA
BRANCH   5   6
ATOM      6  C   UNL     1       1.588   5.271   4.848  1.00  0.00     0.338 C 
ATOM      7  O   UNL     1       1.481   6.463   5.157  1.00  0.00    -0.246 OA
BRANCH   6   8
ATOM      8  C   UNL     1       3.067   4.902   4.259  1.00  0.00     0.060 A 
ATOM      9  C   UNL     1       3.279   4.251   3.071  1.00  0.00     0.016 A 
ATOM     10  C   UNL     1       4.324   5.379   4.667  1.00  0.00     0.016 A 
ATOM     11  C   UNL     1       4.437   3.563   2.669  1.00  0.00     0.010 A 
ATOM     12  C   UNL     1       5.600   4.774   4.192  1.00  0.00     0.010 A 
ATOM     13  C   UNL     1       5.627   3.687   3.292  1.00  0.00    -0.014 A 
BRANCH  13  14
ATOM     14  C   UNL     1       6.436   2.379   3.216  1.00  0.00     0.031 A 
ATOM     15  C   UNL     1       6.473   1.599   4.500  1.00  0.00     0.074 A 
ATOM     16  C   UNL     1       6.690   1.623   2.095  1.00  0.00     0.049 A 
ATOM     17  N   UNL     1       7.144   0.523   4.798  1.00  0.00    -0.248 NA
ATOM     18  C   UNL     1       5.619   2.091   5.592  1.00  0.00     0.031 C 
ATOM     19  C   UNL     1       6.405   2.025   0.718  1.00  0.00     0.029 A 
ATOM     20  N   UNL     1       7.096   0.296   1.923  1.00  0.00    -0.354 N 
ATOM     21  C   UNL     1       6.920   0.323   6.150  1.00  0.00     0.074 A 
ATOM     22  C   UNL     1       5.987   1.322   6.597  1.00  0.00     0.031 C 
ATOM     23  C   UNL     1       6.454   0.953  -0.097  1.00  0.00     0.029 A 
ATOM     24  C   UNL     1       7.026  -0.177   0.613  1.00  0.00     0.049 A 
ATOM     25  H   UNL     1       7.407  -0.263   2.671  1.00  0.00     0.167 HD
ATOM     26  C   UNL     1       7.513  -0.583   6.951  1.00  0.00     0.037 A 
ATOM     27  C   UNL     1       7.444  -1.330   0.018  1.00  0.00     0.037 A 
ATOM     28  C   UNL     1       8.377  -1.613   6.455  1.00  0.00     0.049 A 
ATOM     29  C   UNL     1       8.240  -2.271   0.890  1.00  0.00     0.074 A 
ATOM     30  C   UNL     1       9.182  -2.478   7.166  1.00  0.00     0.029 A 
ATOM     31  N   UNL     1       8.518  -1.935   5.112  1.00  0.00    -0.354 N 
ATOM     32  N   UNL     1       8.358  -2.262   2.197  1.00  0.00    -0.248 NA
ATOM     33  C   UNL     1       9.051  -3.302   0.224  1.00  0.00     0.031 C 
ATOM     34  C   UNL     1       9.862  -3.282   6.248  1.00  0.00     0.029 A 
ATOM     35  C   UNL     1       9.408  -2.981   4.972  1.00  0.00     0.049 A 
ATOM     36  H   UNL     1       8.053  -1.484   4.371  1.00  0.00     0.167 HD
ATOM     37  C   UNL     1       9.265  -3.264   2.508  1.00  0.00     0.074 A 
ATOM     38  C   UNL     1       9.641  -3.891   1.257  1.00  0.00     0.031 C 
ATOM     39  C   UNL     1       9.755  -3.613   3.723  1.00  0.00     0.037 A 
BRANCH  26  40
ATOM     40  C   UNL     1       7.401  -0.340   8.423  1.00  0.00     0.058 A 
ATOM     41  C   UNL     1       8.523   0.165   9.102  1.00  0.00     0.135 A 
ATOM     42  C   UNL     1       6.218  -0.525   9.150  1.00  0.00     0.135 A 
ATOM     43  F   UNL     1       9.664   0.411   8.439  1.00  0.00    -0.206 F 
ATOM     44  C   UNL     1       8.488   0.439  10.459  1.00  0.00     0.059 A 
ATOM     45  C   UNL     1       6.148  -0.217  10.505  1.00  0.00     0.059 A 
ATOM     46  F   UNL     1       5.097  -0.931   8.531  1.00  0.00    -0.206 F 
ATOM     47  C   UNL     1       7.295   0.243  11.153  1.00  0.00     0.060 A 
BRANCH  47  48
ATOM     48  S   UNL     1       7.271   0.621  12.915  1.00  0.00     0.124 S 
ATOM     49  O   UNL     1       8.164  -0.400  13.449  1.00  0.00    -0.237 OA
ATOM     50  O   UNL     1       7.778   1.990  12.939  1.00  0.00    -0.237 OA
ATOM     51  O   UNL     1       5.862   0.476  13.271  1.00  0.00    -0.744 OA
ENDBRANCH  47  48
ENDBRANCH  26  40
BRANCH  27  52
ATOM     52  C   UNL     1       7.347  -1.580  -1.478  1.00  0.00     0.058 A 
ATOM     53  C   UNL     1       7.863  -0.649  -2.399  1.00  0.00     0.135 A 
ATOM     54  C   UNL     1       6.816  -2.762  -2.040  1.00  0.00     0.135 A 
ATOM     55  F   UNL     1       8.475   0.462  -1.963  1.00  0.00    -0.206 F 
ATOM     56  C   UNL     1       7.771  -0.819  -3.780  1.00  0.00     0.059 A 
ATOM     57  C   UNL     1       6.756  -2.980  -3.428  1.00  0.00     0.059 A 
ATOM     58  F   UNL     1       6.375  -3.748  -1.242  1.00  0.00    -0.206 F 
ATOM     59  C   UNL     1       7.206  -1.983  -4.291  1.00  0.00     0.060 A 
BRANCH  59  60
ATOM     60  S   UNL     1       7.075  -2.145  -6.090  1.00  0.00     0.124 S 
ATOM     61  O   UNL     1       6.115  -1.092  -6.411  1.00  0.00    -0.237 OA
ATOM     62  O   UNL     1       8.447  -1.901  -6.523  1.00  0.00    -0.237 OA
ATOM     63  O   UNL     1       6.592  -3.509  -6.278  1.00  0.00    -0.744 OA
ENDBRANCH  59  60
ENDBRANCH  27  52
BRANCH  39  64
ATOM     64  C   UNL     1      10.689  -4.782   3.792  1.00  0.00     0.058 A 
ATOM     65  C   UNL     1      10.271  -5.958   4.436  1.00  0.00     0.135 A 
ATOM     66  C   UNL     1      12.008  -4.721   3.318  1.00  0.00     0.135 A 
ATOM     67  F   UNL     1       9.022  -6.061   4.918  1.00  0.00    -0.206 F 
ATOM     68  C   UNL     1      11.135  -7.026   4.626  1.00  0.00     0.059 A 
ATOM     69  C   UNL     1      12.879  -5.796   3.462  1.00  0.00     0.059 A 
ATOM     70  F   UNL     1      12.452  -3.619   2.693  1.00  0.00    -0.206 F 
ATOM     71  C   UNL     1      12.435  -6.937   4.131  1.00  0.00     0.060 A 
BRANCH  71  72
ATOM     72  S   UNL     1      13.525  -8.355   4.359  1.00  0.00     0.124 S 
ATOM     73  O   UNL     1      13.716  -8.356   5.806  1.00  0.00    -0.237 OA
ATOM     74  O   UNL     1      12.718  -9.447   3.824  1.00  0.00    -0.237 OA
ATOM     75  O   UNL     1      14.703  -8.008   3.570  1.00  0.00    -0.744 OA
ENDBRANCH  71  72
ENDBRANCH  39  64
ENDBRANCH  13  14
ENDBRANCH   6   8
ENDBRANCH   5   6
ENDBRANCH   4   5
ENDBRANCH   3   4
ENDBRANCH   2   3
ENDBRANCH   1   2
BRANCH   1  76
ATOM     76  C   UNL     1      -0.489   5.676  -0.012  1.00  0.00     0.188 C 
BRANCH  76  77
ATOM     77  O   UNL     1      -1.803   5.729  -0.510  1.00  0.00    -0.376 OA
BRANCH  77  78
ATOM     78  C   UNL     1      -2.348   4.719  -1.333  1.00  0.00     0.202 C 
BRANCH  78  79
ATOM     79  C   UNL     1      -1.508   3.937  -2.385  1.00  0.00     0.261 C 
BRANCH  79  80
ATOM     80  O   UNL     1      -0.108   3.718  -2.090  1.00  0.00    -0.463 OA
BRANCH  80  81
ATOM     81  C   UNL     1       0.723   4.649  -2.614  1.00  0.00     0.309 C 
ATOM     82  O   UNL     1       0.299   5.592  -3.278  1.00  0.00    -0.252 OA
BRANCH  81  83
ATOM     83  C   UNL     1       2.210   4.414  -2.331  1.00  0.00     0.111 C 
ATOM     84  C   UNL     1       2.936   5.681  -2.884  1.00  0.00     0.016 C 
ATOM     85  C   UNL     1       2.845   4.091  -0.948  1.00  0.00     0.093 C 
ATOM     86  C   UNL     1       2.795   6.881  -1.944  1.00  0.00     0.001 C 
ATOM     87  C   UNL     1       3.321   5.287  -0.049  1.00  0.00     0.014 C 
ATOM     88  C   UNL     1       3.612   6.641  -0.698  1.00  0.00     0.001 C 
BRANCH  85  89
ATOM     89  C   UNL     1       2.751   2.668  -0.261  1.00  0.00     0.226 C 
ATOM     90  O   UNL     1       3.808   2.036  -0.175  1.00  0.00    -0.275 OA
ATOM     91  N   UNL     1       1.724   2.152   0.464  1.00  0.00    -0.340 N 
ATOM     92  C   UNL     1       1.799   2.183   2.000  1.00  0.00     0.136 C 
ATOM     93  C   UNL     1       0.345   1.602  -0.041  1.00  0.00     0.136 C 
ATOM     94  C   UNL     1       0.629   3.527   2.945  1.00  0.00     0.124 C 
ATOM     95  C   UNL     1      -1.183   2.421   0.459  1.00  0.00     0.124 C 
ATOM     96  N   UNL     1      -1.357   3.381   2.172  1.00  0.00    -0.194 NA
BRANCH  96  97
ATOM     97  S   UNL     1      -3.035   2.266   2.696  1.00  0.00     0.243 S 
ATOM     98  O   UNL     1      -2.718   0.857   2.827  1.00  0.00    -0.207 OA
ATOM     99  O   UNL     1      -3.658   2.967   3.798  1.00  0.00    -0.207 OA
BRANCH  97 100
ATOM    100  C   UNL     1      -4.291   2.223   1.310  1.00  0.00     0.082 A 
ATOM    101  C   UNL     1      -4.115   1.625   0.036  1.00  0.00     0.025 A 
ATOM    102  C   UNL     1      -5.623   2.415   1.689  1.00  0.00     0.025 A 
ATOM    103  C   UNL     1      -5.116   1.601  -0.940  1.00  0.00     0.040 A 
ATOM    104  C   UNL     1      -6.672   2.201   0.773  1.00  0.00     0.040 A 
ATOM    105  C   UNL     1      -6.403   1.879  -0.552  1.00  0.00     0.123 A 
ATOM    106  F   UNL     1      -7.400   1.724  -1.431  1.00  0.00    -0.207 F 
ENDBRANCH  97 100
ENDBRANCH  96  97
ENDBRANCH  85  89
ENDBRANCH  81  83
ENDBRANCH  80  81
ENDBRANCH  79  80
ENDBRANCH  78  79
ENDBRANCH  77  78
ENDBRANCH  76  77
ENDBRANCH   1  76
TORSDOF 23
