REMARK SMILES CC[NH2+]C[C@@H](C)C(=O)N1CCO[C@@H](CC(=O)OCCOCCOCCOC(=O)c2ccc(-c3c4nc(c(-c5c(F)cc(S(=O)(=O)[O-])cc5F)c5ccc([nH]5)c(-c5c(F)cc(S(=O)(=O)[O-])cc5F)c5nc(c(-c6c(F)cc(S(=O)(=O)[O-])cc6F)c6ccc3[nH]6)C=C5)C=C4)cc2)C1
REMARK SMILES IDX 20 1 19 2 18 3 17 4 15 5 16 6 14 7 13 8 9 9 10 10 95 11
REMARK SMILES IDX 11 12 12 13 7 14 8 15 5 16 6 17 4 18 3 19 2 22 1 23 21 24
REMARK SMILES IDX 22 25 23 26 24 27 25 28 26 29 27 30 28 31 29 32 30 33 94 34
REMARK SMILES IDX 31 35 93 36 32 37 33 38 34 39 87 40 35 41 92 42 86 43 88 44
REMARK SMILES IDX 36 45 91 46 85 47 84 48 37 50 71 51 50 52 70 53 51 54 54 55
REMARK SMILES IDX 69 56 89 57 52 58 53 59 68 61 90 62 55 63 38 64 39 65 48 66
REMARK SMILES IDX 40 67 41 68 47 69 49 70 42 71 43 72 44 73 45 74 46 75 72 76
REMARK SMILES IDX 73 77 82 78 74 79 75 80 81 81 83 82 76 83 77 84 78 85 79 86
REMARK SMILES IDX 80 87 56 88 57 89 66 90 58 91 59 92 65 93 67 94 60 95 61 96
REMARK SMILES IDX 62 97 63 98 64 99
REMARK H PARENT 3 20 3 21 88 49 54 60
REMARK Flexibility Score: inf
ROOT
ATOM      1  O   UNL     1       4.526   9.231   5.504  1.00  0.00    -0.376 OA
ENDROOT
BRANCH   1   2
ATOM      2  C   UNL     1       3.197   9.031   5.980  1.00  0.00     0.202 C 
BRANCH   2   3
ATOM      3  C   UNL     1       2.107   9.804   5.229  1.00  0.00     0.261 C 
BRANCH   3   4
ATOM      4  O   UNL     1       2.015   9.426   3.839  1.00  0.00    -0.463 OA
BRANCH   4   5
ATOM      5  C   UNL     1       2.041  10.449   2.952  1.00  0.00     0.308 C 
ATOM      6  O   UNL     1       2.008  11.636   3.261  1.00  0.00    -0.252 OA
BRANCH   5   7
ATOM      7  C   UNL     1       2.212  10.027   1.517  1.00  0.00     0.156 C 
BRANCH   7   8
ATOM      8  C   UNL     1       2.058   8.571   1.087  1.00  0.00     0.148 C 
ATOM      9  N   UNL     1       0.565   6.618   0.788  1.00  0.00    -0.337 N 
ATOM     10  C   UNL     1       0.676   6.769  -0.656  1.00  0.00     0.148 C 
ATOM     11  C   UNL     1       0.719   7.904   1.495  1.00  0.00     0.152 C 
ATOM     12  C   UNL     1       2.029   7.369  -1.009  1.00  0.00     0.182 C 
ATOM     13  O   UNL     1       2.181   8.638  -0.365  1.00  0.00    -0.374 OA
BRANCH   9  14
ATOM     14  C   UNL     1       0.312   5.466   1.505  1.00  0.00     0.231 C 
ATOM     15  O   UNL     1      -0.237   5.536   2.613  1.00  0.00    -0.274 OA
BRANCH  14  16
ATOM     16  C   UNL     1       0.878   4.097   1.068  1.00  0.00     0.130 C 
ATOM     17  C   UNL     1       2.399   4.134   1.169  1.00  0.00     0.024 C 
BRANCH  16  18
ATOM     18  C   UNL     1       0.403   3.483  -0.253  1.00  0.00     0.273 C 
BRANCH  18  19
ATOM     19  N   UNL     1       0.858   2.115  -0.549  1.00  0.00    -0.346 N 
ATOM     20  H   UNL     1       0.522   1.862  -1.478  1.00  0.00     0.346 HD
ATOM     21  H   UNL     1       1.876   2.128  -0.482  1.00  0.00     0.346 HD
BRANCH  19  22
ATOM     22  C   UNL     1       0.395   1.105   0.393  1.00  0.00     0.257 C 
ATOM     23  C   UNL     1       0.902  -0.258  -0.059  1.00  0.00     0.071 C 
ENDBRANCH  19  22
ENDBRANCH  18  19
ENDBRANCH  16  18
ENDBRANCH  14  16
ENDBRANCH   9  14
ENDBRANCH   7   8
ENDBRANCH   5   7
ENDBRANCH   4   5
ENDBRANCH   3   4
ENDBRANCH   2   3
ENDBRANCH   1   2
BRANCH   1  24
ATOM     24  C   UNL     1       4.799   8.793   4.176  1.00  0.00     0.188 C 
BRANCH  24  25
ATOM     25  C   UNL     1       4.597   7.297   3.945  1.00  0.00     0.188 C 
BRANCH  25  26
ATOM     26  O   UNL     1       3.279   6.806   4.093  1.00  0.00    -0.376 OA
BRANCH  26  27
ATOM     27  C   UNL     1       3.064   5.542   4.727  1.00  0.00     0.202 C 
BRANCH  27  28
ATOM     28  C   UNL     1       4.166   4.505   5.081  1.00  0.00     0.261 C 
BRANCH  28  29
ATOM     29  O   UNL     1       5.498   4.734   4.608  1.00  0.00    -0.460 OA
BRANCH  29  30
ATOM     30  C   UNL     1       5.755   4.436   3.316  1.00  0.00     0.338 C 
ATOM     31  O   UNL     1       5.035   3.814   2.556  1.00  0.00    -0.246 OA
BRANCH  30  32
ATOM     32  C   UNL     1       6.957   5.196   2.893  1.00  0.00     0.060 A 
ATOM     33  C   UNL     1       6.873   5.959   1.719  1.00  0.00     0.016 A 
ATOM     34  C   UNL     1       8.131   5.205   3.650  1.00  0.00     0.016 A 
ATOM     35  C   UNL     1       7.966   6.711   1.284  1.00  0.00     0.010 A 
ATOM     36  C   UNL     1       9.238   5.931   3.195  1.00  0.00     0.010 A 
ATOM     37  C   UNL     1       9.171   6.662   1.994  1.00  0.00    -0.014 A 
BRANCH  37  38
ATOM     38  C   UNL     1      10.418   7.175   1.370  1.00  0.00     0.031 A 
ATOM     39  C   UNL     1      11.306   6.185   0.662  1.00  0.00     0.074 A 
ATOM     40  C   UNL     1      10.756   8.477   1.407  1.00  0.00     0.049 A 
ATOM     41  N   UNL     1      12.489   6.356   0.134  1.00  0.00    -0.248 NA
ATOM     42  C   UNL     1      10.785   4.813   0.540  1.00  0.00     0.031 C 
ATOM     43  C   UNL     1       9.958   9.545   2.005  1.00  0.00     0.029 A 
ATOM     44  N   UNL     1      11.879   9.117   0.939  1.00  0.00    -0.354 N 
ATOM     45  C   UNL     1      12.855   5.117  -0.380  1.00  0.00     0.074 A 
ATOM     46  C   UNL     1      11.784   4.195  -0.070  1.00  0.00     0.031 C 
ATOM     47  C   UNL     1      10.631  10.706   1.892  1.00  0.00     0.029 A 
ATOM     48  C   UNL     1      11.921  10.457   1.249  1.00  0.00     0.049 A 
ATOM     49  H   UNL     1      12.586   8.660   0.429  1.00  0.00     0.167 HD
ATOM     50  C   UNL     1      13.976   4.778  -1.059  1.00  0.00     0.037 A 
ATOM     51  C   UNL     1      12.902  11.365   1.067  1.00  0.00     0.037 A 
ATOM     52  C   UNL     1      15.046   5.694  -1.356  1.00  0.00     0.049 A 
ATOM     53  C   UNL     1      14.188  10.943   0.394  1.00  0.00     0.074 A 
ATOM     54  C   UNL     1      16.233   5.443  -2.022  1.00  0.00     0.029 A 
ATOM     55  N   UNL     1      15.060   7.035  -1.005  1.00  0.00    -0.354 N 
ATOM     56  N   UNL     1      14.525   9.767  -0.084  1.00  0.00    -0.248 NA
ATOM     57  C   UNL     1      15.229  11.970   0.236  1.00  0.00     0.031 C 
ATOM     58  C   UNL     1      16.985   6.621  -2.032  1.00  0.00     0.029 A 
ATOM     59  C   UNL     1      16.242   7.621  -1.425  1.00  0.00     0.049 A 
ATOM     60  H   UNL     1      14.337   7.502  -0.527  1.00  0.00     0.167 HD
ATOM     61  C   UNL     1      15.797   9.926  -0.630  1.00  0.00     0.074 A 
ATOM     62  C   UNL     1      16.166  11.311  -0.431  1.00  0.00     0.031 C 
ATOM     63  C   UNL     1      16.588   9.009  -1.241  1.00  0.00     0.037 A 
BRANCH  50  64
ATOM     64  C   UNL     1      14.111   3.349  -1.509  1.00  0.00     0.058 A 
ATOM     65  C   UNL     1      13.320   2.826  -2.544  1.00  0.00     0.135 A 
ATOM     66  C   UNL     1      15.064   2.502  -0.920  1.00  0.00     0.135 A 
ATOM     67  F   UNL     1      12.377   3.585  -3.125  1.00  0.00    -0.206 F 
ATOM     68  C   UNL     1      13.455   1.507  -2.966  1.00  0.00     0.059 A 
ATOM     69  C   UNL     1      15.236   1.189  -1.346  1.00  0.00     0.059 A 
ATOM     70  F   UNL     1      15.842   2.950   0.078  1.00  0.00    -0.206 F 
ATOM     71  C   UNL     1      14.418   0.697  -2.362  1.00  0.00     0.060 A 
BRANCH  71  72
ATOM     72  S   UNL     1      14.585  -1.008  -2.929  1.00  0.00     0.124 S 
ATOM     73  O   UNL     1      13.359  -1.609  -2.411  1.00  0.00    -0.237 OA
ATOM     74  O   UNL     1      14.648  -0.848  -4.378  1.00  0.00    -0.237 OA
ATOM     75  O   UNL     1      15.820  -1.459  -2.296  1.00  0.00    -0.744 OA
ENDBRANCH  71  72
ENDBRANCH  50  64
BRANCH  51  76
ATOM     76  C   UNL     1      12.737  12.763   1.558  1.00  0.00     0.058 A 
ATOM     77  C   UNL     1      12.670  13.846   0.668  1.00  0.00     0.135 A 
ATOM     78  C   UNL     1      12.686  13.047   2.932  1.00  0.00     0.135 A 
ATOM     79  F   UNL     1      12.731  13.632  -0.655  1.00  0.00    -0.206 F 
ATOM     80  C   UNL     1      12.586  15.160   1.121  1.00  0.00     0.059 A 
ATOM     81  C   UNL     1      12.570  14.349   3.409  1.00  0.00     0.059 A 
ATOM     82  F   UNL     1      12.741  12.049   3.828  1.00  0.00    -0.206 F 
ATOM     83  C   UNL     1      12.538  15.401   2.495  1.00  0.00     0.060 A 
BRANCH  83  84
ATOM     84  S   UNL     1      12.409  17.108   3.072  1.00  0.00     0.124 S 
ATOM     85  O   UNL     1      13.748  17.614   2.792  1.00  0.00    -0.237 OA
ATOM     86  O   UNL     1      11.338  17.635   2.233  1.00  0.00    -0.237 OA
ATOM     87  O   UNL     1      12.073  16.960   4.486  1.00  0.00    -0.744 OA
ENDBRANCH  83  84
ENDBRANCH  51  76
BRANCH  63  88
ATOM     88  C   UNL     1      17.909   9.476  -1.793  1.00  0.00     0.058 A 
ATOM     89  C   UNL     1      18.988   9.808  -0.960  1.00  0.00     0.135 A 
ATOM     90  C   UNL     1      18.116   9.528  -3.183  1.00  0.00     0.135 A 
ATOM     91  F   UNL     1      18.846   9.779   0.374  1.00  0.00    -0.206 F 
ATOM     92  C   UNL     1      20.218  10.198  -1.484  1.00  0.00     0.059 A 
ATOM     93  C   UNL     1      19.345   9.886  -3.728  1.00  0.00     0.059 A 
ATOM     94  F   UNL     1      17.122   9.208  -4.026  1.00  0.00    -0.206 F 
ATOM     95  C   UNL     1      20.388  10.230  -2.869  1.00  0.00     0.060 A 
BRANCH  95  96
ATOM     96  S   UNL     1      22.000  10.700  -3.534  1.00  0.00     0.124 S 
ATOM     97  O   UNL     1      22.024  12.133  -3.264  1.00  0.00    -0.237 OA
ATOM     98  O   UNL     1      22.914   9.888  -2.737  1.00  0.00    -0.237 OA
ATOM     99  O   UNL     1      21.909  10.328  -4.943  1.00  0.00    -0.744 OA
ENDBRANCH  95  96
ENDBRANCH  63  88
ENDBRANCH  37  38
ENDBRANCH  30  32
ENDBRANCH  29  30
ENDBRANCH  28  29
ENDBRANCH  27  28
ENDBRANCH  26  27
ENDBRANCH  25  26
ENDBRANCH  24  25
ENDBRANCH   1  24
TORSDOF 26
