REMARK SMILES COC(=O)c1c(NS(=O)(=O)CCC(=O)OCCOCCOCCOC(=O)c2ccc(-c3c4nc(c(-c5c(F)cc(S(=O)(=O)[O-])cc5F)c5ccc([nH]5)c(-c5c(F)cc(S(=O)(=O)[O-])cc5F)c5nc(c(-c6c(F)cc(S(=O)(=O)[O-])cc6F)c6ccc3[nH]6)C=C5)C=C4)cc2)sc2c1CCC2
REMARK SMILES IDX 18 1 17 2 16 3 15 4 13 5 14 6 12 7 11 8 8 9 9 10 10 11 7 12
REMARK SMILES IDX 6 14 5 15 95 16 93 17 94 18 96 19 98 20 97 21 3 22 4 23 2 24
REMARK SMILES IDX 1 25 19 26 20 27 21 28 22 29 23 30 24 31 25 32 26 33 27 34
REMARK SMILES IDX 28 35 92 36 29 37 91 38 30 39 31 40 32 41 85 42 33 43 90 44
REMARK SMILES IDX 84 45 86 46 34 47 89 48 83 49 82 50 35 52 69 53 48 54 68 55
REMARK SMILES IDX 49 56 52 57 67 58 87 59 50 60 51 61 66 63 88 64 53 65 36 66
REMARK SMILES IDX 37 67 46 68 38 69 39 70 45 71 47 72 40 73 41 74 42 75 43 76
REMARK SMILES IDX 44 77 70 78 71 79 80 80 72 81 73 82 79 83 81 84 74 85 75 86
REMARK SMILES IDX 76 87 77 88 78 89 54 90 55 91 64 92 56 93 57 94 63 95 65 96
REMARK SMILES IDX 58 97 59 98 60 99 61 100 62 101
REMARK H PARENT 7 13 86 51 52 62
REMARK Flexibility Score: inf
ROOT
ATOM      1  O   UNL     1      -0.322  -1.458   2.734  1.00  0.00    -0.376 OA
ENDROOT
BRANCH   1   2
ATOM      2  C   UNL     1      -0.549  -0.058   2.703  1.00  0.00     0.202 C 
BRANCH   2   3
ATOM      3  C   UNL     1       0.365   0.837   3.696  1.00  0.00     0.261 C 
BRANCH   3   4
ATOM      4  O   UNL     1       1.417   0.242   4.547  1.00  0.00    -0.463 OA
BRANCH   4   5
ATOM      5  C   UNL     1       1.479   0.256   5.911  1.00  0.00     0.306 C 
ATOM      6  O   UNL     1       0.592   0.681   6.641  1.00  0.00    -0.252 OA
BRANCH   5   7
ATOM      7  C   UNL     1       2.853  -0.205   6.444  1.00  0.00     0.141 C 
BRANCH   7   8
ATOM      8  C   UNL     1       3.012  -1.510   7.244  1.00  0.00     0.171 C 
BRANCH   8   9
ATOM      9  S   UNL     1       3.928  -2.866   6.426  1.00  0.00     0.233 S 
ATOM     10  O   UNL     1       4.744  -3.515   7.431  1.00  0.00    -0.207 OA
ATOM     11  O   UNL     1       4.556  -2.330   5.235  1.00  0.00    -0.207 OA
BRANCH   9  12
ATOM     12  N   UNL     1       2.825  -4.043   5.905  1.00  0.00    -0.274 N 
ATOM     13  H   UNL     1       3.086  -4.948   5.619  1.00  0.00     0.180 HD
BRANCH  12  14
ATOM     14  C   UNL     1       1.480  -3.578   5.928  1.00  0.00     0.117 A 
ATOM     15  C   UNL     1       0.974  -2.705   4.969  1.00  0.00     0.098 A 
ATOM     16  C   UNL     1      -0.313  -2.193   5.552  1.00  0.00    -0.017 A 
ATOM     17  S   UNL     1       0.433  -4.030   7.187  1.00  0.00    -0.121 S 
ATOM     18  C   UNL     1      -0.649  -2.861   6.711  1.00  0.00     0.011 A 
ATOM     19  C   UNL     1      -1.467  -1.249   5.284  1.00  0.00     0.038 C 
ATOM     20  C   UNL     1      -1.940  -2.504   7.354  1.00  0.00     0.047 C 
ATOM     21  C   UNL     1      -2.398  -1.301   6.524  1.00  0.00     0.010 C 
BRANCH  15  22
ATOM     22  C   UNL     1       1.835  -2.607   3.692  1.00  0.00     0.341 C 
ATOM     23  O   UNL     1       2.519  -3.569   3.338  1.00  0.00    -0.246 OA
BRANCH  22  24
ATOM     24  O   UNL     1       1.989  -1.417   3.045  1.00  0.00    -0.465 OA
ATOM     25  C   UNL     1       2.443  -1.459   1.681  1.00  0.00     0.282 C 
ENDBRANCH  22  24
ENDBRANCH  15  22
ENDBRANCH  12  14
ENDBRANCH   9  12
ENDBRANCH   8   9
ENDBRANCH   7   8
ENDBRANCH   5   7
ENDBRANCH   4   5
ENDBRANCH   3   4
ENDBRANCH   2   3
ENDBRANCH   1   2
BRANCH   1  26
ATOM     26  C   UNL     1      -1.236  -2.381   2.156  1.00  0.00     0.188 C 
BRANCH  26  27
ATOM     27  C   UNL     1      -0.862  -3.810   2.602  1.00  0.00     0.188 C 
BRANCH  27  28
ATOM     28  O   UNL     1       0.284  -4.422   2.026  1.00  0.00    -0.376 OA
BRANCH  28  29
ATOM     29  C   UNL     1       0.196  -4.823   0.666  1.00  0.00     0.202 C 
BRANCH  29  30
ATOM     30  C   UNL     1      -0.614  -6.091   0.352  1.00  0.00     0.261 C 
BRANCH  30  31
ATOM     31  O   UNL     1      -1.721  -6.270   1.224  1.00  0.00    -0.460 OA
BRANCH  31  32
ATOM     32  C   UNL     1      -1.440  -6.931   2.382  1.00  0.00     0.338 C 
ATOM     33  O   UNL     1      -0.437  -7.557   2.648  1.00  0.00    -0.246 OA
BRANCH  32  34
ATOM     34  C   UNL     1      -2.623  -6.790   3.263  1.00  0.00     0.060 A 
ATOM     35  C   UNL     1      -2.849  -7.811   4.182  1.00  0.00     0.016 A 
ATOM     36  C   UNL     1      -3.600  -5.799   3.013  1.00  0.00     0.016 A 
ATOM     37  C   UNL     1      -4.150  -8.020   4.586  1.00  0.00     0.010 A 
ATOM     38  C   UNL     1      -4.874  -5.947   3.492  1.00  0.00     0.010 A 
ATOM     39  C   UNL     1      -5.141  -7.175   4.069  1.00  0.00    -0.014 A 
BRANCH  39  40
ATOM     40  C   UNL     1      -6.363  -7.830   3.643  1.00  0.00     0.031 A 
ATOM     41  C   UNL     1      -7.436  -7.895   4.633  1.00  0.00     0.074 A 
ATOM     42  C   UNL     1      -6.482  -8.289   2.377  1.00  0.00     0.049 A 
ATOM     43  N   UNL     1      -7.832  -8.934   5.285  1.00  0.00    -0.248 NA
ATOM     44  C   UNL     1      -8.068  -6.632   5.033  1.00  0.00     0.031 C 
ATOM     45  C   UNL     1      -5.626  -8.011   1.214  1.00  0.00     0.029 A 
ATOM     46  N   UNL     1      -7.479  -9.036   1.839  1.00  0.00    -0.354 N 
ATOM     47  C   UNL     1      -8.926  -8.502   6.014  1.00  0.00     0.074 A 
ATOM     48  C   UNL     1      -8.912  -7.059   5.972  1.00  0.00     0.031 C 
ATOM     49  C   UNL     1      -6.266  -8.386   0.086  1.00  0.00     0.029 A 
ATOM     50  C   UNL     1      -7.509  -9.034   0.453  1.00  0.00     0.049 A 
ATOM     51  H   UNL     1      -8.126  -9.537   2.386  1.00  0.00     0.167 HD
ATOM     52  C   UNL     1      -9.918  -9.354   6.380  1.00  0.00     0.037 A 
ATOM     53  C   UNL     1      -8.547  -9.437  -0.319  1.00  0.00     0.037 A 
ATOM     54  C   UNL     1      -9.547 -10.737   6.241  1.00  0.00     0.049 A 
ATOM     55  C   UNL     1      -9.384 -10.340   0.522  1.00  0.00     0.074 A 
ATOM     56  C   UNL     1      -8.511 -11.508   6.734  1.00  0.00     0.029 A 
ATOM     57  N   UNL     1     -10.074 -11.452   5.191  1.00  0.00    -0.354 N 
ATOM     58  N   UNL     1      -8.997 -11.514   0.947  1.00  0.00    -0.248 NA
ATOM     59  C   UNL     1     -10.485  -9.747   1.269  1.00  0.00     0.031 C 
ATOM     60  C   UNL     1      -8.169 -12.400   5.676  1.00  0.00     0.029 A 
ATOM     61  C   UNL     1      -9.036 -12.143   4.612  1.00  0.00     0.049 A 
ATOM     62  H   UNL     1     -11.017 -11.467   4.907  1.00  0.00     0.167 HD
ATOM     63  C   UNL     1      -9.517 -11.626   2.232  1.00  0.00     0.074 A 
ATOM     64  C   UNL     1     -10.499 -10.551   2.336  1.00  0.00     0.031 C 
ATOM     65  C   UNL     1      -8.908 -12.387   3.190  1.00  0.00     0.037 A 
BRANCH  52  66
ATOM     66  C   UNL     1     -11.332  -8.891   6.530  1.00  0.00     0.058 A 
ATOM     67  C   UNL     1     -12.225  -9.597   7.349  1.00  0.00     0.135 A 
ATOM     68  C   UNL     1     -11.889  -7.886   5.707  1.00  0.00     0.135 A 
ATOM     69  F   UNL     1     -11.787 -10.599   8.127  1.00  0.00    -0.206 F 
ATOM     70  C   UNL     1     -13.592  -9.328   7.342  1.00  0.00     0.059 A 
ATOM     71  C   UNL     1     -13.234  -7.558   5.731  1.00  0.00     0.059 A 
ATOM     72  F   UNL     1     -11.155  -7.244   4.786  1.00  0.00    -0.206 F 
ATOM     73  C   UNL     1     -14.085  -8.311   6.524  1.00  0.00     0.060 A 
BRANCH  73  74
ATOM     74  S   UNL     1     -15.859  -8.017   6.440  1.00  0.00     0.124 S 
ATOM     75  O   UNL     1     -16.287  -9.111   5.576  1.00  0.00    -0.237 OA
ATOM     76  O   UNL     1     -16.255  -8.114   7.841  1.00  0.00    -0.237 OA
ATOM     77  O   UNL     1     -15.945  -6.679   5.862  1.00  0.00    -0.744 OA
ENDBRANCH  73  74
ENDBRANCH  52  66
BRANCH  53  78
ATOM     78  C   UNL     1      -9.034  -8.764  -1.556  1.00  0.00     0.058 A 
ATOM     79  C   UNL     1     -10.030  -9.353  -2.353  1.00  0.00     0.135 A 
ATOM     80  C   UNL     1      -8.720  -7.420  -1.856  1.00  0.00     0.135 A 
ATOM     81  F   UNL     1     -10.416 -10.617  -2.124  1.00  0.00    -0.206 F 
ATOM     82  C   UNL     1     -10.702  -8.641  -3.355  1.00  0.00     0.059 A 
ATOM     83  C   UNL     1      -9.357  -6.700  -2.863  1.00  0.00     0.059 A 
ATOM     84  F   UNL     1      -7.845  -6.719  -1.120  1.00  0.00    -0.206 F 
ATOM     85  C   UNL     1     -10.367  -7.308  -3.592  1.00  0.00     0.060 A 
BRANCH  85  86
ATOM     86  S   UNL     1     -11.338  -6.333  -4.762  1.00  0.00     0.124 S 
ATOM     87  O   UNL     1     -10.960  -6.929  -6.038  1.00  0.00    -0.237 OA
ATOM     88  O   UNL     1     -12.703  -6.587  -4.316  1.00  0.00    -0.237 OA
ATOM     89  O   UNL     1     -10.860  -4.969  -4.546  1.00  0.00    -0.744 OA
ENDBRANCH  85  86
ENDBRANCH  53  78
BRANCH  65  90
ATOM     90  C   UNL     1      -7.823 -13.346   2.766  1.00  0.00     0.058 A 
ATOM     91  C   UNL     1      -6.599 -12.941   2.204  1.00  0.00     0.135 A 
ATOM     92  C   UNL     1      -7.953 -14.704   3.099  1.00  0.00     0.135 A 
ATOM     93  F   UNL     1      -6.349 -11.647   1.963  1.00  0.00    -0.206 F 
ATOM     94  C   UNL     1      -5.569 -13.848   1.946  1.00  0.00     0.059 A 
ATOM     95  C   UNL     1      -6.927 -15.622   2.878  1.00  0.00     0.059 A 
ATOM     96  F   UNL     1      -9.070 -15.145   3.701  1.00  0.00    -0.206 F 
ATOM     97  C   UNL     1      -5.741 -15.188   2.289  1.00  0.00     0.060 A 
BRANCH  97  98
ATOM     98  S   UNL     1      -4.370 -16.340   2.044  1.00  0.00     0.124 S 
ATOM     99  O   UNL     1      -4.393 -16.541   0.600  1.00  0.00    -0.237 OA
ATOM    100  O   UNL     1      -3.228 -15.591   2.562  1.00  0.00    -0.237 OA
ATOM    101  O   UNL     1      -4.754 -17.501   2.843  1.00  0.00    -0.744 OA
ENDBRANCH  97  98
ENDBRANCH  65  90
ENDBRANCH  39  40
ENDBRANCH  32  34
ENDBRANCH  31  32
ENDBRANCH  30  31
ENDBRANCH  29  30
ENDBRANCH  28  29
ENDBRANCH  27  28
ENDBRANCH  26  27
ENDBRANCH   1  26
TORSDOF 26
