REMARK SMILES Cc1cc(C(=O)N[C@H](C(=O)OCCOCCOCCOC(=O)c2ccc(-c3c4nc(c(-c5c(F)cc(S(=O)(=O)[O-])cc5F)c5ccc([nH]5)c(-c5c(F)cc(S(=O)(=O)[O-])cc5F)c5nc(c(-c6c(F)cc(S(=O)(=O)[O-])cc6F)c6ccc3[nH]6)C=C5)C=C4)cc2)C(C)C)c(C)s1
REMARK SMILES IDX 16 1 15 2 14 3 13 4 12 5 11 6 9 7 10 8 8 9 7 10 5 11 6 12
REMARK SMILES IDX 4 14 1 15 2 16 3 17 94 18 92 19 93 20 89 21 90 22 91 23
REMARK SMILES IDX 17 24 18 25 19 26 20 27 21 28 22 29 23 30 24 31 88 32 25 33
REMARK SMILES IDX 87 34 26 35 27 36 28 37 81 38 29 39 86 40 80 41 82 42 30 43
REMARK SMILES IDX 85 44 79 45 78 46 31 48 65 49 44 50 64 51 45 52 48 53 63 54
REMARK SMILES IDX 83 55 46 56 47 57 62 59 84 60 49 61 32 62 33 63 42 64 34 65
REMARK SMILES IDX 35 66 41 67 43 68 36 69 37 70 38 71 39 72 40 73 66 74 67 75
REMARK SMILES IDX 76 76 68 77 69 78 75 79 77 80 70 81 71 82 72 83 73 84 74 85
REMARK SMILES IDX 50 86 51 87 60 88 52 89 53 90 59 91 61 92 54 93 55 94 56 95
REMARK SMILES IDX 57 96 58 97
REMARK H PARENT 7 13 82 47 48 58
REMARK Flexibility Score: inf
ROOT
ATOM      1  C   UNL     1       1.124  -1.395   0.150  1.00  0.00     0.188 C 
ENDROOT
BRANCH   1   2
ATOM      2  C   UNL     1       2.183  -2.144   0.988  1.00  0.00     0.188 C 
BRANCH   2   3
ATOM      3  O   UNL     1       3.446  -2.256   0.358  1.00  0.00    -0.376 OA
BRANCH   3   4
ATOM      4  C   UNL     1       3.732  -3.506  -0.252  1.00  0.00     0.202 C 
BRANCH   4   5
ATOM      5  C   UNL     1       2.847  -3.913  -1.444  1.00  0.00     0.261 C 
BRANCH   5   6
ATOM      6  O   UNL     1       1.419  -3.933  -1.242  1.00  0.00    -0.462 OA
BRANCH   6   7
ATOM      7  C   UNL     1       0.933  -4.727  -0.245  1.00  0.00     0.328 C 
ATOM      8  O   UNL     1       1.663  -5.378   0.484  1.00  0.00    -0.250 OA
BRANCH   7   9
ATOM      9  C   UNL     1      -0.625  -4.722  -0.259  1.00  0.00     0.195 C 
BRANCH   9  10
ATOM     10  N   UNL     1      -1.032  -5.784  -1.174  1.00  0.00    -0.338 N 
ATOM     11  C   UNL     1      -0.935  -7.152  -1.153  1.00  0.00     0.253 C 
ATOM     12  O   UNL     1      -1.430  -7.695  -2.144  1.00  0.00    -0.269 OA
ATOM     13  H   UNL     1      -1.474  -5.444  -1.985  1.00  0.00     0.164 HD
BRANCH  11  14
ATOM     14  C   UNL     1      -0.270  -7.923  -0.079  1.00  0.00     0.053 A 
ATOM     15  C   UNL     1       1.351  -8.224   3.360  1.00  0.00     0.056 C 
ATOM     16  C   UNL     1       0.777  -8.441   2.001  1.00  0.00     0.003 A 
ATOM     17  C   UNL     1       0.150  -7.500   1.225  1.00  0.00     0.029 A 
ATOM     18  S   UNL     1       0.829  -9.925   1.199  1.00  0.00    -0.145 S 
ATOM     19  C   UNL     1       0.055  -9.276  -0.203  1.00  0.00     0.014 A 
ATOM     20  C   UNL     1      -0.154 -10.223  -1.341  1.00  0.00     0.057 C 
ENDBRANCH  11  14
ENDBRANCH   9  10
BRANCH   9  21
ATOM     21  C   UNL     1      -1.481  -4.724   1.042  1.00  0.00     0.017 C 
ATOM     22  C   UNL     1      -0.883  -3.965   2.226  1.00  0.00     0.010 C 
ATOM     23  C   UNL     1      -2.907  -4.211   0.785  1.00  0.00     0.010 C 
ENDBRANCH   9  21
ENDBRANCH   7   9
ENDBRANCH   6   7
ENDBRANCH   5   6
ENDBRANCH   4   5
ENDBRANCH   3   4
ENDBRANCH   2   3
ENDBRANCH   1   2
BRANCH   1  24
ATOM     24  O   UNL     1       1.498  -0.739  -1.051  1.00  0.00    -0.376 OA
BRANCH  24  25
ATOM     25  C   UNL     1       2.723  -0.023  -1.081  1.00  0.00     0.202 C 
BRANCH  25  26
ATOM     26  C   UNL     1       3.063   0.999   0.025  1.00  0.00     0.261 C 
BRANCH  26  27
ATOM     27  O   UNL     1       2.721   0.640   1.378  1.00  0.00    -0.460 OA
BRANCH  27  28
ATOM     28  C   UNL     1       1.618   1.238   1.891  1.00  0.00     0.338 C 
ATOM     29  O   UNL     1       0.923   2.081   1.332  1.00  0.00    -0.246 OA
BRANCH  28  30
ATOM     30  C   UNL     1       1.200   0.583   3.155  1.00  0.00     0.060 A 
ATOM     31  C   UNL     1      -0.082   0.013   3.212  1.00  0.00     0.016 A 
ATOM     32  C   UNL     1       2.007   0.586   4.294  1.00  0.00     0.016 A 
ATOM     33  C   UNL     1      -0.579  -0.511   4.405  1.00  0.00     0.010 A 
ATOM     34  C   UNL     1       1.492   0.094   5.505  1.00  0.00     0.010 A 
ATOM     35  C   UNL     1       0.180  -0.413   5.576  1.00  0.00    -0.014 A 
BRANCH  35  36
ATOM     36  C   UNL     1      -0.507  -0.593   6.884  1.00  0.00     0.031 A 
ATOM     37  C   UNL     1      -1.013   0.638   7.595  1.00  0.00     0.074 A 
ATOM     38  C   UNL     1      -0.754  -1.811   7.400  1.00  0.00     0.049 A 
ATOM     39  N   UNL     1      -1.652   0.742   8.731  1.00  0.00    -0.248 NA
ATOM     40  C   UNL     1      -0.764   1.927   6.926  1.00  0.00     0.031 C 
ATOM     41  C   UNL     1      -0.372  -3.084   6.792  1.00  0.00     0.029 A 
ATOM     42  N   UNL     1      -1.391  -2.172   8.563  1.00  0.00    -0.354 N 
ATOM     43  C   UNL     1      -1.876   2.103   8.916  1.00  0.00     0.074 A 
ATOM     44  C   UNL     1      -1.274   2.787   7.794  1.00  0.00     0.031 C 
ATOM     45  C   UNL     1      -0.771  -4.087   7.595  1.00  0.00     0.029 A 
ATOM     46  C   UNL     1      -1.414  -3.529   8.785  1.00  0.00     0.049 A 
ATOM     47  H   UNL     1      -1.794  -1.520   9.181  1.00  0.00     0.167 HD
ATOM     48  C   UNL     1      -2.533   2.729   9.922  1.00  0.00     0.037 A 
ATOM     49  C   UNL     1      -1.883  -4.236   9.835  1.00  0.00     0.037 A 
ATOM     50  C   UNL     1      -3.130   2.050  11.043  1.00  0.00     0.049 A 
ATOM     51  C   UNL     1      -2.546  -3.512  10.983  1.00  0.00     0.074 A 
ATOM     52  C   UNL     1      -3.826   2.595  12.107  1.00  0.00     0.029 A 
ATOM     53  N   UNL     1      -3.095   0.679  11.251  1.00  0.00    -0.354 N 
ATOM     54  N   UNL     1      -2.769  -2.228  11.134  1.00  0.00    -0.248 NA
ATOM     55  C   UNL     1      -3.030  -4.338  12.099  1.00  0.00     0.031 C 
ATOM     56  C   UNL     1      -4.160   1.561  12.988  1.00  0.00     0.029 A 
ATOM     57  C   UNL     1      -3.732   0.363  12.440  1.00  0.00     0.049 A 
ATOM     58  H   UNL     1      -2.679   0.026  10.642  1.00  0.00     0.167 HD
ATOM     59  C   UNL     1      -3.446  -2.097  12.345  1.00  0.00     0.074 A 
ATOM     60  C   UNL     1      -3.610  -3.434  12.875  1.00  0.00     0.031 C 
ATOM     61  C   UNL     1      -3.893  -0.972  12.961  1.00  0.00     0.037 A 
BRANCH  48  62
ATOM     62  C   UNL     1      -2.610   4.231   9.874  1.00  0.00     0.058 A 
ATOM     63  C   UNL     1      -3.397   4.905   8.925  1.00  0.00     0.135 A 
ATOM     64  C   UNL     1      -1.905   5.008  10.807  1.00  0.00     0.135 A 
ATOM     65  F   UNL     1      -4.075   4.214   7.995  1.00  0.00    -0.206 F 
ATOM     66  C   UNL     1      -3.459   6.294   8.886  1.00  0.00     0.059 A 
ATOM     67  C   UNL     1      -1.978   6.398  10.807  1.00  0.00     0.059 A 
ATOM     68  F   UNL     1      -1.135   4.418  11.734  1.00  0.00    -0.206 F 
ATOM     69  C   UNL     1      -2.747   7.032   9.833  1.00  0.00     0.060 A 
BRANCH  69  70
ATOM     70  S   UNL     1      -2.844   8.834   9.773  1.00  0.00     0.124 S 
ATOM     71  O   UNL     1      -2.075   9.127   8.567  1.00  0.00    -0.237 OA
ATOM     72  O   UNL     1      -4.282   9.064   9.679  1.00  0.00    -0.237 OA
ATOM     73  O   UNL     1      -2.225   9.251  11.027  1.00  0.00    -0.744 OA
ENDBRANCH  69  70
ENDBRANCH  48  62
BRANCH  49  74
ATOM     74  C   UNL     1      -1.736  -5.718   9.865  1.00  0.00     0.058 A 
ATOM     75  C   UNL     1      -2.852  -6.565   9.793  1.00  0.00     0.135 A 
ATOM     76  C   UNL     1      -0.472  -6.317   9.989  1.00  0.00     0.135 A 
ATOM     77  F   UNL     1      -4.084  -6.043   9.691  1.00  0.00    -0.206 F 
ATOM     78  C   UNL     1      -2.725  -7.949   9.860  1.00  0.00     0.059 A 
ATOM     79  C   UNL     1      -0.316  -7.699  10.028  1.00  0.00     0.059 A 
ATOM     80  F   UNL     1       0.631  -5.555  10.057  1.00  0.00    -0.206 F 
ATOM     81  C   UNL     1      -1.450  -8.507   9.973  1.00  0.00     0.060 A 
BRANCH  81  82
ATOM     82  S   UNL     1      -1.292 -10.306  10.007  1.00  0.00     0.124 S 
ATOM     83  O   UNL     1      -1.823 -10.624  11.327  1.00  0.00    -0.237 OA
ATOM     84  O   UNL     1      -2.118 -10.705   8.871  1.00  0.00    -0.237 OA
ATOM     85  O   UNL     1       0.142 -10.519   9.835  1.00  0.00    -0.744 OA
ENDBRANCH  81  82
ENDBRANCH  49  74
BRANCH  61  86
ATOM     86  C   UNL     1      -4.641  -1.139  14.260  1.00  0.00     0.058 A 
ATOM     87  C   UNL     1      -4.003  -1.556  15.439  1.00  0.00     0.135 A 
ATOM     88  C   UNL     1      -6.014  -0.847  14.331  1.00  0.00     0.135 A 
ATOM     89  F   UNL     1      -2.692  -1.847  15.431  1.00  0.00    -0.206 F 
ATOM     90  C   UNL     1      -4.705  -1.720  16.629  1.00  0.00     0.059 A 
ATOM     91  C   UNL     1      -6.729  -0.971  15.518  1.00  0.00     0.059 A 
ATOM     92  F   UNL     1      -6.674  -0.428  13.240  1.00  0.00    -0.206 F 
ATOM     93  C   UNL     1      -6.070  -1.428  16.658  1.00  0.00     0.060 A 
BRANCH  93  94
ATOM     94  S   UNL     1      -6.971  -1.646  18.208  1.00  0.00     0.124 S 
ATOM     95  O   UNL     1      -7.044  -3.100  18.303  1.00  0.00    -0.237 OA
ATOM     96  O   UNL     1      -6.094  -0.991  19.173  1.00  0.00    -0.237 OA
ATOM     97  O   UNL     1      -8.240  -0.968  17.962  1.00  0.00    -0.744 OA
ENDBRANCH  93  94
ENDBRANCH  61  86
ENDBRANCH  35  36
ENDBRANCH  28  30
ENDBRANCH  27  28
ENDBRANCH  26  27
ENDBRANCH  25  26
ENDBRANCH  24  25
ENDBRANCH   1  24
TORSDOF 23
