REMARK SMILES O=C(OCCOCCOCCOC(=O)c1cc(Br)n(Cc2ccn(C3CCCC3)n2)c1)c1ccc(-c2c3nc(c(-c4c(F)cc(S(=O)(=O)[O-])cc4F)c4ccc([nH]4)c(-c4c(F)cc(S(=O)(=O)[O-])cc4F)c4nc(c(-c5c(F)cc(S(=O)(=O)[O-])cc5F)c5ccc2[nH]5)C=C4)C=C3)cc1
REMARK SMILES IDX 7 1 6 2 5 3 4 4 3 5 2 6 1 7 32 8 33 9 97 10 34 11 96 12
REMARK SMILES IDX 35 13 36 14 37 15 90 16 38 17 95 18 89 19 91 20 39 21 94 22
REMARK SMILES IDX 88 23 87 24 40 26 74 27 53 28 73 29 54 30 57 31 72 32 92 33
REMARK SMILES IDX 55 34 56 35 71 37 93 38 58 39 41 40 42 41 51 42 43 43 44 44
REMARK SMILES IDX 50 45 52 46 45 47 46 48 47 49 48 50 49 51 75 52 76 53 85 54
REMARK SMILES IDX 77 55 78 56 84 57 86 58 79 59 80 60 81 61 82 62 83 63 59 64
REMARK SMILES IDX 60 65 69 66 61 67 62 68 68 69 70 70 63 71 64 72 65 73 66 74
REMARK SMILES IDX 67 75 8 76 9 77 10 78 11 79 12 80 13 81 14 82 15 83 16 84
REMARK SMILES IDX 31 85 17 86 19 87 18 88 20 89 21 90 22 91 30 92 23 93 24 94
REMARK SMILES IDX 25 95 26 96 29 97 27 98 28 99
REMARK H PARENT 91 25 57 36
REMARK Flexibility Score: inf
ROOT
ATOM      1  C   UNL     1       3.548  -1.067  -1.412  1.00  0.00     0.188 C 
ENDROOT
BRANCH   1   2
ATOM      2  O   UNL     1       4.790  -1.299  -0.756  1.00  0.00    -0.376 OA
BRANCH   2   3
ATOM      3  C   UNL     1       5.183  -0.303   0.176  1.00  0.00     0.202 C 
BRANCH   3   4
ATOM      4  C   UNL     1       4.660  -0.613   1.575  1.00  0.00     0.261 C 
BRANCH   4   5
ATOM      5  O   UNL     1       3.225  -0.676   1.709  1.00  0.00    -0.460 OA
BRANCH   5   6
ATOM      6  C   UNL     1       2.254   0.228   1.480  1.00  0.00     0.338 C 
ATOM      7  O   UNL     1       1.081  -0.136   1.552  1.00  0.00    -0.246 OA
BRANCH   6   8
ATOM      8  C   UNL     1       2.523   1.633   1.075  1.00  0.00     0.060 A 
ATOM      9  C   UNL     1       3.644   2.371   1.466  1.00  0.00     0.016 A 
ATOM     10  C   UNL     1       1.501   2.280   0.356  1.00  0.00     0.016 A 
ATOM     11  C   UNL     1       3.727   3.737   1.187  1.00  0.00     0.010 A 
ATOM     12  C   UNL     1       1.576   3.644   0.083  1.00  0.00     0.010 A 
ATOM     13  C   UNL     1       2.669   4.387   0.548  1.00  0.00    -0.014 A 
BRANCH  13  14
ATOM     14  C   UNL     1       2.581   5.857   0.607  1.00  0.00     0.031 A 
ATOM     15  C   UNL     1       3.299   6.729  -0.392  1.00  0.00     0.074 A 
ATOM     16  C   UNL     1       1.737   6.375   1.527  1.00  0.00     0.049 A 
ATOM     17  N   UNL     1       3.102   7.997  -0.637  1.00  0.00    -0.248 NA
ATOM     18  C   UNL     1       4.308   6.121  -1.274  1.00  0.00     0.031 C 
ATOM     19  C   UNL     1       0.848   5.643   2.442  1.00  0.00     0.029 A 
ATOM     20  N   UNL     1       1.434   7.679   1.781  1.00  0.00    -0.354 N 
ATOM     21  C   UNL     1       3.849   8.323  -1.770  1.00  0.00     0.074 A 
ATOM     22  C   UNL     1       4.627   7.137  -2.077  1.00  0.00     0.031 C 
ATOM     23  C   UNL     1      -0.011   6.508   3.017  1.00  0.00     0.029 A 
ATOM     24  C   UNL     1       0.320   7.854   2.589  1.00  0.00     0.049 A 
ATOM     25  H   UNL     1       1.960   8.430   1.422  1.00  0.00     0.167 HD
ATOM     26  C   UNL     1       4.382   9.548  -2.021  1.00  0.00     0.037 A 
ATOM     27  C   UNL     1      -0.330   9.013   2.847  1.00  0.00     0.037 A 
ATOM     28  C   UNL     1       5.088  10.104  -0.911  1.00  0.00     0.049 A 
ATOM     29  C   UNL     1       0.584  10.127   2.494  1.00  0.00     0.074 A 
ATOM     30  C   UNL     1       6.268   9.806  -0.266  1.00  0.00     0.029 A 
ATOM     31  N   UNL     1       4.437  11.016  -0.118  1.00  0.00    -0.354 N 
ATOM     32  N   UNL     1       1.671  10.440   3.144  1.00  0.00    -0.248 NA
ATOM     33  C   UNL     1       0.450  10.732   1.177  1.00  0.00     0.031 C 
ATOM     34  C   UNL     1       6.079  10.226   1.079  1.00  0.00     0.029 A 
ATOM     35  C   UNL     1       4.790  10.752   1.180  1.00  0.00     0.049 A 
ATOM     36  H   UNL     1       3.830  11.728  -0.425  1.00  0.00     0.167 HD
ATOM     37  C   UNL     1       2.525  10.954   2.182  1.00  0.00     0.074 A 
ATOM     38  C   UNL     1       1.674  11.243   1.035  1.00  0.00     0.031 C 
ATOM     39  C   UNL     1       3.880  10.843   2.304  1.00  0.00     0.037 A 
BRANCH  26  40
ATOM     40  C   UNL     1       3.694  10.412  -3.027  1.00  0.00     0.058 A 
ATOM     41  C   UNL     1       4.463  11.217  -3.883  1.00  0.00     0.135 A 
ATOM     42  C   UNL     1       2.296  10.540  -3.109  1.00  0.00     0.135 A 
ATOM     43  F   UNL     1       5.804  11.146  -3.849  1.00  0.00    -0.206 F 
ATOM     44  C   UNL     1       3.877  12.104  -4.784  1.00  0.00     0.059 A 
ATOM     45  C   UNL     1       1.688  11.412  -4.009  1.00  0.00     0.059 A 
ATOM     46  F   UNL     1       1.496   9.845  -2.288  1.00  0.00    -0.206 F 
ATOM     47  C   UNL     1       2.487  12.198  -4.835  1.00  0.00     0.060 A 
BRANCH  47  48
ATOM     48  S   UNL     1       1.705  13.323  -6.011  1.00  0.00     0.124 S 
ATOM     49  O   UNL     1       1.490  14.505  -5.185  1.00  0.00    -0.237 OA
ATOM     50  O   UNL     1       2.716  13.456  -7.057  1.00  0.00    -0.237 OA
ATOM     51  O   UNL     1       0.507  12.588  -6.404  1.00  0.00    -0.744 OA
ENDBRANCH  47  48
ENDBRANCH  26  40
BRANCH  27  52
ATOM     52  C   UNL     1      -1.754   9.229   3.204  1.00  0.00     0.058 A 
ATOM     53  C   UNL     1      -2.182  10.454   3.743  1.00  0.00     0.135 A 
ATOM     54  C   UNL     1      -2.771   8.337   2.806  1.00  0.00     0.135 A 
ATOM     55  F   UNL     1      -1.286  11.376   4.127  1.00  0.00    -0.206 F 
ATOM     56  C   UNL     1      -3.534  10.793   3.842  1.00  0.00     0.059 A 
ATOM     57  C   UNL     1      -4.126   8.643   2.916  1.00  0.00     0.059 A 
ATOM     58  F   UNL     1      -2.478   7.170   2.212  1.00  0.00    -0.206 F 
ATOM     59  C   UNL     1      -4.499   9.886   3.409  1.00  0.00     0.060 A 
BRANCH  59  60
ATOM     60  S   UNL     1      -6.232  10.394   3.376  1.00  0.00     0.124 S 
ATOM     61  O   UNL     1      -6.543  10.500   4.797  1.00  0.00    -0.237 OA
ATOM     62  O   UNL     1      -6.167  11.653   2.641  1.00  0.00    -0.237 OA
ATOM     63  O   UNL     1      -6.894   9.299   2.671  1.00  0.00    -0.744 OA
ENDBRANCH  59  60
ENDBRANCH  27  52
BRANCH  39  64
ATOM     64  C   UNL     1       4.454  10.473   3.647  1.00  0.00     0.058 A 
ATOM     65  C   UNL     1       4.246   9.225   4.258  1.00  0.00     0.135 A 
ATOM     66  C   UNL     1       5.417  11.318   4.222  1.00  0.00     0.135 A 
ATOM     67  F   UNL     1       3.430   8.316   3.708  1.00  0.00    -0.206 F 
ATOM     68  C   UNL     1       4.951   8.839   5.397  1.00  0.00     0.059 A 
ATOM     69  C   UNL     1       6.160  10.937   5.338  1.00  0.00     0.059 A 
ATOM     70  F   UNL     1       5.710  12.496   3.645  1.00  0.00    -0.206 F 
ATOM     71  C   UNL     1       5.918   9.694   5.921  1.00  0.00     0.060 A 
BRANCH  71  72
ATOM     72  S   UNL     1       6.967   9.114   7.274  1.00  0.00     0.124 S 
ATOM     73  O   UNL     1       6.151   9.417   8.444  1.00  0.00    -0.237 OA
ATOM     74  O   UNL     1       7.136   7.695   6.968  1.00  0.00    -0.237 OA
ATOM     75  O   UNL     1       8.178   9.916   7.125  1.00  0.00    -0.744 OA
ENDBRANCH  71  72
ENDBRANCH  39  64
ENDBRANCH  13  14
ENDBRANCH   6   8
ENDBRANCH   5   6
ENDBRANCH   4   5
ENDBRANCH   3   4
ENDBRANCH   2   3
ENDBRANCH   1   2
BRANCH   1  76
ATOM     76  C   UNL     1       2.491  -2.167  -1.176  1.00  0.00     0.188 C 
BRANCH  76  77
ATOM     77  O   UNL     1       2.774  -3.562  -1.299  1.00  0.00    -0.376 OA
BRANCH  77  78
ATOM     78  C   UNL     1       4.115  -3.993  -1.433  1.00  0.00     0.202 C 
BRANCH  78  79
ATOM     79  C   UNL     1       4.562  -4.045  -2.893  1.00  0.00     0.261 C 
BRANCH  79  80
ATOM     80  O   UNL     1       4.120  -2.907  -3.653  1.00  0.00    -0.460 OA
BRANCH  80  81
ATOM     81  C   UNL     1       3.148  -3.141  -4.573  1.00  0.00     0.339 C 
ATOM     82  O   UNL     1       2.681  -4.250  -4.838  1.00  0.00    -0.246 OA
BRANCH  81  83
ATOM     83  C   UNL     1       2.772  -1.958  -5.332  1.00  0.00     0.078 A 
ATOM     84  C   UNL     1       2.963  -1.786  -6.731  1.00  0.00     0.051 A 
ATOM     85  C   UNL     1       2.057  -0.848  -4.899  1.00  0.00     0.102 A 
ATOM     86  C   UNL     1       2.286  -0.654  -7.116  1.00  0.00     0.086 A 
ATOM     87  N   UNL     1       1.747  -0.064  -6.000  1.00  0.00    -0.335 N 
ATOM     88  Br  UNL     1       2.091  -0.146  -8.905  1.00  0.00    -0.031 Br
BRANCH  87  89
ATOM     89  C   UNL     1       0.774   1.032  -5.986  1.00  0.00     0.180 C 
BRANCH  89  90
ATOM     90  C   UNL     1       1.373   2.398  -6.087  1.00  0.00     0.082 A 
ATOM     91  C   UNL     1       2.468   2.865  -6.854  1.00  0.00     0.047 A 
ATOM     92  N   UNL     1       0.793   3.410  -5.421  1.00  0.00    -0.176 NA
ATOM     93  C   UNL     1       2.534   4.216  -6.617  1.00  0.00     0.109 A 
ATOM     94  N   UNL     1       1.538   4.493  -5.726  1.00  0.00    -0.269 N 
BRANCH  94  95
ATOM     95  C   UNL     1       1.367   5.738  -5.008  1.00  0.00     0.107 C 
ATOM     96  C   UNL     1       0.018   6.435  -5.169  1.00  0.00     0.027 C 
ATOM     97  C   UNL     1       1.547   5.576  -3.495  1.00  0.00     0.027 C 
ATOM     98  C   UNL     1       0.008   7.383  -3.977  1.00  0.00     0.002 C 
ATOM     99  C   UNL     1       0.546   6.525  -2.843  1.00  0.00     0.002 C 
ENDBRANCH  94  95
ENDBRANCH  89  90
ENDBRANCH  87  89
ENDBRANCH  81  83
ENDBRANCH  80  81
ENDBRANCH  79  80
ENDBRANCH  78  79
ENDBRANCH  77  78
ENDBRANCH  76  77
ENDBRANCH   1  76
TORSDOF 23
