REMARK SMILES NC(=O)c1c(F)cccc1O[C@@H](F)C(=O)OCCOCCOCCOC(=O)c1ccc(-c2c3nc(c(-c4c(F)cc(S(=O)(=O)[O-])cc4F)c4ccc([nH]4)c(-c4c(F)cc(S(=O)(=O)[O-])cc4F)c4nc(c(-c5c(F)cc(S(=O)(=O)[O-])cc5F)c5ccc2[nH]5)C=C4)C=C3)cc1
REMARK SMILES IDX 20 1 19 2 18 3 17 4 16 5 14 6 15 7 12 8 13 9 11 10 10 11
REMARK SMILES IDX 4 12 5 13 6 14 7 15 9 16 8 17 2 18 1 19 3 22 21 23 22 24
REMARK SMILES IDX 23 25 24 26 25 27 26 28 27 29 28 30 29 31 93 32 30 33 92 34
REMARK SMILES IDX 31 35 32 36 33 37 86 38 34 39 91 40 85 41 87 42 35 43 90 44
REMARK SMILES IDX 84 45 83 46 36 48 70 49 49 50 69 51 50 52 53 53 68 54 88 55
REMARK SMILES IDX 51 56 52 57 67 59 89 60 54 61 37 62 38 63 47 64 39 65 40 66
REMARK SMILES IDX 46 67 48 68 41 69 42 70 43 71 44 72 45 73 71 74 72 75 81 76
REMARK SMILES IDX 73 77 74 78 80 79 82 80 75 81 76 82 77 83 78 84 79 85 55 86
REMARK SMILES IDX 56 87 65 88 57 89 58 90 64 91 66 92 59 93 60 94 61 95 62 96
REMARK SMILES IDX 63 97
REMARK H PARENT 1 20 1 21 87 47 53 58
REMARK Flexibility Score: inf
ROOT
ATOM      1  C   UNL     1       0.548  -4.258  -1.281  1.00  0.00     0.188 C 
ENDROOT
BRANCH   1   2
ATOM      2  O   UNL     1       1.363  -3.770  -2.341  1.00  0.00    -0.376 OA
BRANCH   2   3
ATOM      3  C   UNL     1       1.982  -2.495  -2.197  1.00  0.00     0.202 C 
BRANCH   3   4
ATOM      4  C   UNL     1       1.133  -1.325  -1.676  1.00  0.00     0.261 C 
BRANCH   4   5
ATOM      5  O   UNL     1       0.515  -1.589  -0.400  1.00  0.00    -0.458 OA
BRANCH   5   6
ATOM      6  C   UNL     1      -0.790  -1.204  -0.260  1.00  0.00     0.381 C 
ATOM      7  O   UNL     1      -1.404  -0.581  -1.119  1.00  0.00    -0.244 OA
BRANCH   6   8
ATOM      8  C   UNL     1      -1.442  -1.775   1.043  1.00  0.00     0.461 C 
ATOM      9  F   UNL     1      -2.535  -1.041   1.419  1.00  0.00    -0.189 F 
BRANCH   8  10
ATOM     10  O   UNL     1      -0.848  -2.227   2.244  1.00  0.00    -0.450 OA
BRANCH  10  11
ATOM     11  C   UNL     1       0.333  -1.796   2.760  1.00  0.00     0.139 A 
ATOM     12  C   UNL     1       1.020  -0.596   2.562  1.00  0.00     0.117 A 
ATOM     13  C   UNL     1       2.271  -0.410   3.167  1.00  0.00     0.139 A 
ATOM     14  F   UNL     1       2.962   0.725   2.979  1.00  0.00    -0.206 F 
ATOM     15  C   UNL     1       2.834  -1.378   3.996  1.00  0.00     0.040 A 
ATOM     16  C   UNL     1       0.901  -2.754   3.626  1.00  0.00     0.047 A 
ATOM     17  C   UNL     1       2.139  -2.553   4.239  1.00  0.00     0.007 A 
BRANCH  12  18
ATOM     18  C   UNL     1       0.451   0.537   1.820  1.00  0.00     0.255 C 
ATOM     19  N   UNL     1       1.241   1.117   0.870  1.00  0.00    -0.365 N 
ATOM     20  H   UNL     1       0.903   1.880   0.347  1.00  0.00     0.159 HD
ATOM     21  H   UNL     1       2.149   0.772   0.707  1.00  0.00     0.159 HD
ATOM     22  O   UNL     1      -0.698   0.905   2.005  1.00  0.00    -0.269 OA
ENDBRANCH  12  18
ENDBRANCH  10  11
ENDBRANCH   8  10
ENDBRANCH   6   8
ENDBRANCH   5   6
ENDBRANCH   4   5
ENDBRANCH   3   4
ENDBRANCH   2   3
ENDBRANCH   1   2
BRANCH   1  23
ATOM     23  C   UNL     1       1.134  -4.277   0.147  1.00  0.00     0.188 C 
BRANCH  23  24
ATOM     24  O   UNL     1       2.398  -3.656   0.256  1.00  0.00    -0.376 OA
BRANCH  24  25
ATOM     25  C   UNL     1       3.517  -4.496   0.488  1.00  0.00     0.202 C 
BRANCH  25  26
ATOM     26  C   UNL     1       3.758  -5.750  -0.378  1.00  0.00     0.261 C 
BRANCH  26  27
ATOM     27  O   UNL     1       2.608  -6.492  -0.811  1.00  0.00    -0.460 OA
BRANCH  27  28
ATOM     28  C   UNL     1       2.038  -7.344   0.072  1.00  0.00     0.338 C 
ATOM     29  O   UNL     1       2.385  -7.536   1.227  1.00  0.00    -0.246 OA
BRANCH  28  30
ATOM     30  C   UNL     1       0.770  -7.821  -0.529  1.00  0.00     0.060 A 
ATOM     31  C   UNL     1      -0.447  -7.515   0.100  1.00  0.00     0.016 A 
ATOM     32  C   UNL     1       0.782  -8.527  -1.733  1.00  0.00     0.016 A 
ATOM     33  C   UNL     1      -1.655  -7.934  -0.467  1.00  0.00     0.010 A 
ATOM     34  C   UNL     1      -0.424  -8.970  -2.283  1.00  0.00     0.010 A 
ATOM     35  C   UNL     1      -1.645  -8.700  -1.639  1.00  0.00    -0.014 A 
BRANCH  35  36
ATOM     36  C   UNL     1      -2.868  -9.416  -2.080  1.00  0.00     0.031 A 
ATOM     37  C   UNL     1      -3.021 -10.857  -1.677  1.00  0.00     0.074 A 
ATOM     38  C   UNL     1      -3.817  -8.819  -2.821  1.00  0.00     0.049 A 
ATOM     39  N   UNL     1      -3.934 -11.727  -2.021  1.00  0.00    -0.248 NA
ATOM     40  C   UNL     1      -1.996 -11.387  -0.763  1.00  0.00     0.031 C 
ATOM     41  C   UNL     1      -3.822  -7.414  -3.220  1.00  0.00     0.029 A 
ATOM     42  N   UNL     1      -4.964  -9.332  -3.377  1.00  0.00    -0.354 N 
ATOM     43  C   UNL     1      -3.596 -12.904  -1.365  1.00  0.00     0.074 A 
ATOM     44  C   UNL     1      -2.368 -12.651  -0.643  1.00  0.00     0.031 C 
ATOM     45  C   UNL     1      -4.919  -7.176  -3.960  1.00  0.00     0.029 A 
ATOM     46  C   UNL     1      -5.672  -8.421  -4.123  1.00  0.00     0.049 A 
ATOM     47  H   UNL     1      -5.252 -10.266  -3.253  1.00  0.00     0.167 HD
ATOM     48  C   UNL     1      -4.255 -14.087  -1.351  1.00  0.00     0.037 A 
ATOM     49  C   UNL     1      -6.787  -8.580  -4.867  1.00  0.00     0.037 A 
ATOM     50  C   UNL     1      -5.462 -14.340  -2.093  1.00  0.00     0.049 A 
ATOM     51  C   UNL     1      -7.441  -9.936  -4.944  1.00  0.00     0.074 A 
ATOM     52  C   UNL     1      -6.191 -15.512  -2.174  1.00  0.00     0.029 A 
ATOM     53  N   UNL     1      -6.112 -13.408  -2.889  1.00  0.00    -0.354 N 
ATOM     54  N   UNL     1      -7.102 -11.052  -4.341  1.00  0.00    -0.248 NA
ATOM     55  C   UNL     1      -8.625 -10.059  -5.808  1.00  0.00     0.031 C 
ATOM     56  C   UNL     1      -7.253 -15.304  -3.060  1.00  0.00     0.029 A 
ATOM     57  C   UNL     1      -7.224 -13.984  -3.481  1.00  0.00     0.049 A 
ATOM     58  H   UNL     1      -5.826 -12.474  -3.015  1.00  0.00     0.167 HD
ATOM     59  C   UNL     1      -8.048 -11.999  -4.724  1.00  0.00     0.074 A 
ATOM     60  C   UNL     1      -8.972 -11.326  -5.614  1.00  0.00     0.031 C 
ATOM     61  C   UNL     1      -8.144 -13.303  -4.362  1.00  0.00     0.037 A 
BRANCH  48  62
ATOM     62  C   UNL     1      -3.663 -15.195  -0.524  1.00  0.00     0.058 A 
ATOM     63  C   UNL     1      -3.107 -16.329  -1.137  1.00  0.00     0.135 A 
ATOM     64  C   UNL     1      -3.638 -15.132   0.880  1.00  0.00     0.135 A 
ATOM     65  F   UNL     1      -3.097 -16.441  -2.474  1.00  0.00    -0.206 F 
ATOM     66  C   UNL     1      -2.543 -17.358  -0.389  1.00  0.00     0.059 A 
ATOM     67  C   UNL     1      -3.049 -16.134   1.646  1.00  0.00     0.059 A 
ATOM     68  F   UNL     1      -4.133 -14.059   1.517  1.00  0.00    -0.206 F 
ATOM     69  C   UNL     1      -2.510 -17.246   1.002  1.00  0.00     0.060 A 
BRANCH  69  70
ATOM     70  S   UNL     1      -1.692 -18.546   1.951  1.00  0.00     0.124 S 
ATOM     71  O   UNL     1      -2.623 -19.658   1.802  1.00  0.00    -0.237 OA
ATOM     72  O   UNL     1      -0.418 -18.681   1.248  1.00  0.00    -0.237 OA
ATOM     73  O   UNL     1      -1.597 -17.977   3.292  1.00  0.00    -0.744 OA
ENDBRANCH  69  70
ENDBRANCH  48  62
BRANCH  49  74
ATOM     74  C   UNL     1      -7.369  -7.405  -5.571  1.00  0.00     0.058 A 
ATOM     75  C   UNL     1      -6.717  -6.802  -6.659  1.00  0.00     0.135 A 
ATOM     76  C   UNL     1      -8.565  -6.825  -5.124  1.00  0.00     0.135 A 
ATOM     77  F   UNL     1      -5.571  -7.320  -7.128  1.00  0.00    -0.206 F 
ATOM     78  C   UNL     1      -7.205  -5.640  -7.246  1.00  0.00     0.059 A 
ATOM     79  C   UNL     1      -9.086  -5.675  -5.711  1.00  0.00     0.059 A 
ATOM     80  F   UNL     1      -9.236  -7.379  -4.103  1.00  0.00    -0.206 F 
ATOM     81  C   UNL     1      -8.384  -5.076  -6.756  1.00  0.00     0.060 A 
BRANCH  81  82
ATOM     82  S   UNL     1      -8.963  -3.530  -7.489  1.00  0.00     0.124 S 
ATOM     83  O   UNL     1      -7.896  -2.610  -7.111  1.00  0.00    -0.237 OA
ATOM     84  O   UNL     1      -9.034  -3.873  -8.905  1.00  0.00    -0.237 OA
ATOM     85  O   UNL     1     -10.248  -3.305  -6.834  1.00  0.00    -0.744 OA
ENDBRANCH  81  82
ENDBRANCH  49  74
BRANCH  61  86
ATOM     86  C   UNL     1      -9.304 -14.105  -4.891  1.00  0.00     0.058 A 
ATOM     87  C   UNL     1     -10.313 -14.549  -4.018  1.00  0.00     0.135 A 
ATOM     88  C   UNL     1      -9.362 -14.534  -6.226  1.00  0.00     0.135 A 
ATOM     89  F   UNL     1     -10.304 -14.175  -2.728  1.00  0.00    -0.206 F 
ATOM     90  C   UNL     1     -11.317 -15.412  -4.441  1.00  0.00     0.059 A 
ATOM     91  C   UNL     1     -10.375 -15.376  -6.679  1.00  0.00     0.059 A 
ATOM     92  F   UNL     1      -8.429 -14.133  -7.104  1.00  0.00    -0.206 F 
ATOM     93  C   UNL     1     -11.336 -15.826  -5.774  1.00  0.00     0.060 A 
BRANCH  93  94
ATOM     94  S   UNL     1     -12.636 -16.964  -6.300  1.00  0.00     0.124 S 
ATOM     95  O   UNL     1     -12.277 -18.183  -5.584  1.00  0.00    -0.237 OA
ATOM     96  O   UNL     1     -13.843 -16.287  -5.834  1.00  0.00    -0.237 OA
ATOM     97  O   UNL     1     -12.476 -17.017  -7.750  1.00  0.00    -0.744 OA
ENDBRANCH  93  94
ENDBRANCH  61  86
ENDBRANCH  35  36
ENDBRANCH  28  30
ENDBRANCH  27  28
ENDBRANCH  26  27
ENDBRANCH  25  26
ENDBRANCH  24  25
ENDBRANCH  23  24
ENDBRANCH   1  23
TORSDOF 23
