REMARK SMILES Cc1cccc(OC2(C(=O)OCCOCCOCCOC(=O)c3ccc(-c4c5nc(c(-c6c(F)cc(S(=O)(=O)[O-])cc6F)c6ccc([nH]6)c(-c6c(F)cc(S(=O)(=O)[O-])cc6F)c6nc(c(-c7c(F)cc(S(=O)(=O)[O-])cc7F)c7ccc4[nH]7)C=C6)C=C5)cc3)CCN(C(=O)c3cnc[nH]c3=O)CC2)c1
REMARK SMILES IDX 16 1 15 2 14 3 13 4 12 5 11 6 9 7 10 8 8 9 89 10 102 11
REMARK SMILES IDX 90 12 101 13 91 14 92 15 93 16 7 17 6 18 1 19 2 20 3 21
REMARK SMILES IDX 103 22 4 23 5 24 94 25 95 26 99 27 96 28 98 29 100 30 97 31
REMARK SMILES IDX 17 33 18 34 19 35 20 36 21 37 22 38 23 39 24 40 88 41 25 42
REMARK SMILES IDX 87 43 26 44 27 45 28 46 81 47 29 48 86 49 80 50 82 51 30 52
REMARK SMILES IDX 85 53 79 54 78 55 31 57 65 58 44 59 64 60 45 61 48 62 63 63
REMARK SMILES IDX 83 64 46 65 47 66 62 68 84 69 49 70 32 71 33 72 42 73 34 74
REMARK SMILES IDX 35 75 41 76 43 77 36 78 37 79 38 80 39 81 40 82 66 83 67 84
REMARK SMILES IDX 76 85 68 86 69 87 75 88 77 89 70 90 71 91 72 92 73 93 74 94
REMARK SMILES IDX 50 95 51 96 60 97 52 98 53 99 59 100 61 101 54 102 55 103
REMARK SMILES IDX 56 104 57 105 58 106
REMARK H PARENT 98 32 82 56 48 67
REMARK Flexibility Score: inf
ROOT
ATOM      1  C   UNL     1       2.071   2.634  -5.584  1.00  0.00     0.188 C 
ENDROOT
BRANCH   1   2
ATOM      2  C   UNL     1       0.638   3.142  -5.381  1.00  0.00     0.188 C 
BRANCH   2   3
ATOM      3  O   UNL     1       0.251   4.511  -5.132  1.00  0.00    -0.376 OA
BRANCH   3   4
ATOM      4  C   UNL     1       1.031   5.502  -4.437  1.00  0.00     0.202 C 
BRANCH   4   5
ATOM      5  C   UNL     1       0.665   6.231  -2.923  1.00  0.00     0.261 C 
BRANCH   5   6
ATOM      6  O   UNL     1       0.635   5.526  -1.274  1.00  0.00    -0.460 OA
BRANCH   6   7
ATOM      7  C   UNL     1      -0.260   5.007  -0.222  1.00  0.00     0.350 C 
ATOM      8  O   UNL     1      -1.487   5.145  -0.142  1.00  0.00    -0.247 OA
BRANCH   7   9
ATOM      9  C   UNL     1       0.238   4.093   0.915  1.00  0.00     0.209 C 
ATOM     10  C   UNL     1       1.745   4.209   0.977  1.00  0.00     0.082 C 
ATOM     11  C   UNL     1      -0.567   4.558   2.179  1.00  0.00     0.082 C 
ATOM     12  C   UNL     1       2.319   4.130   2.374  1.00  0.00     0.124 C 
ATOM     13  C   UNL     1       0.144   4.210   3.461  1.00  0.00     0.124 C 
ATOM     14  N   UNL     1       1.472   4.787   3.343  1.00  0.00    -0.338 N 
ATOM     15  C   UNL     1       1.738   6.084   3.752  1.00  0.00     0.261 C 
ATOM     16  O   UNL     1       2.435   6.875   3.126  1.00  0.00    -0.269 OA
BRANCH   9  17
ATOM     17  O   UNL     1      -0.391   2.841   0.538  1.00  0.00    -0.475 OA
BRANCH  17  18
ATOM     18  C   UNL     1      -0.291   1.605   1.096  1.00  0.00     0.121 A 
ATOM     19  C   UNL     1       2.327  -1.112   1.324  1.00  0.00     0.044 C 
ATOM     20  C   UNL     1       0.995  -0.426   1.391  1.00  0.00    -0.047 A 
ATOM     21  C   UNL     1      -0.179  -1.187   1.386  1.00  0.00     0.003 A 
ATOM     22  C   UNL     1       0.926   0.972   1.283  1.00  0.00     0.050 A 
ATOM     23  C   UNL     1      -1.414  -0.556   1.273  1.00  0.00     0.004 A 
ATOM     24  C   UNL     1      -1.467   0.834   1.111  1.00  0.00     0.046 A 
ENDBRANCH  17  18
ENDBRANCH   9  17
BRANCH  15  25
ATOM     25  C   UNL     1       1.159   6.432   5.063  1.00  0.00     0.123 A 
ATOM     26  C   UNL     1       0.328   7.472   5.219  1.00  0.00     0.132 A 
ATOM     27  C   UNL     1       1.429   5.595   6.248  1.00  0.00     0.263 A 
ATOM     28  N   UNL     1      -0.309   7.795   6.397  1.00  0.00    -0.246 NA
ATOM     29  N   UNL     1       0.722   5.927   7.365  1.00  0.00    -0.312 N 
ATOM     30  O   UNL     1       2.230   4.666   6.260  1.00  0.00    -0.269 OA
ATOM     31  C   UNL     1      -0.101   7.012   7.400  1.00  0.00     0.199 A 
ATOM     32  H   UNL     1       0.808   5.367   8.170  1.00  0.00     0.171 HD
ENDBRANCH  15  25
ENDBRANCH   7   9
ENDBRANCH   6   7
ENDBRANCH   5   6
ENDBRANCH   4   5
ENDBRANCH   3   4
ENDBRANCH   2   3
ENDBRANCH   1   2
BRANCH   1  33
ATOM     33  O   UNL     1       3.022   3.376  -4.847  1.00  0.00    -0.376 OA
BRANCH  33  34
ATOM     34  C   UNL     1       4.351   2.883  -4.887  1.00  0.00     0.202 C 
BRANCH  34  35
ATOM     35  C   UNL     1       4.582   1.523  -4.192  1.00  0.00     0.261 C 
BRANCH  35  36
ATOM     36  O   UNL     1       4.524   1.562  -2.744  1.00  0.00    -0.460 OA
BRANCH  36  37
ATOM     37  C   UNL     1       3.534   0.849  -2.089  1.00  0.00     0.338 C 
ATOM     38  O   UNL     1       3.811  -0.053  -1.307  1.00  0.00    -0.246 OA
BRANCH  37  39
ATOM     39  C   UNL     1       2.213   1.544  -2.124  1.00  0.00     0.060 A 
ATOM     40  C   UNL     1       0.888   1.092  -2.032  1.00  0.00     0.016 A 
ATOM     41  C   UNL     1       2.331   2.878  -2.203  1.00  0.00     0.016 A 
ATOM     42  C   UNL     1      -0.297   1.987  -2.161  1.00  0.00     0.010 A 
ATOM     43  C   UNL     1       1.194   3.642  -2.428  1.00  0.00     0.010 A 
ATOM     44  C   UNL     1      -0.209   3.368  -2.397  1.00  0.00    -0.014 A 
BRANCH  44  45
ATOM     45  C   UNL     1      -1.490   4.476  -2.737  1.00  0.00     0.031 A 
ATOM     46  C   UNL     1      -2.021   6.067  -2.121  1.00  0.00     0.074 A 
ATOM     47  C   UNL     1      -2.280   4.106  -3.771  1.00  0.00     0.049 A 
ATOM     48  N   UNL     1      -3.271   6.503  -2.098  1.00  0.00    -0.248 NA
ATOM     49  C   UNL     1      -1.220   7.181  -1.405  1.00  0.00     0.031 C 
ATOM     50  C   UNL     1      -3.186   4.962  -4.532  1.00  0.00     0.029 A 
ATOM     51  N   UNL     1      -2.448   2.842  -4.346  1.00  0.00    -0.354 N 
ATOM     52  C   UNL     1      -3.310   7.809  -1.543  1.00  0.00     0.074 A 
ATOM     53  C   UNL     1      -2.062   8.084  -0.969  1.00  0.00     0.031 C 
ATOM     54  C   UNL     1      -3.981   4.191  -5.287  1.00  0.00     0.029 A 
ATOM     55  C   UNL     1      -3.730   2.815  -4.907  1.00  0.00     0.049 A 
ATOM     56  H   UNL     1      -1.789   2.110  -4.355  1.00  0.00     0.167 HD
ATOM     57  C   UNL     1      -4.274   8.748  -1.748  1.00  0.00     0.037 A 
ATOM     58  C   UNL     1      -4.659   1.911  -4.493  1.00  0.00     0.037 A 
ATOM     59  C   UNL     1      -5.279   8.186  -2.594  1.00  0.00     0.049 A 
ATOM     60  C   UNL     1      -5.909   2.575  -3.970  1.00  0.00     0.074 A 
ATOM     61  C   UNL     1      -5.392   8.124  -3.970  1.00  0.00     0.029 A 
ATOM     62  N   UNL     1      -6.067   7.185  -2.067  1.00  0.00    -0.354 N 
ATOM     63  N   UNL     1      -5.976   3.840  -3.651  1.00  0.00    -0.248 NA
ATOM     64  C   UNL     1      -7.189   1.898  -3.795  1.00  0.00     0.031 C 
ATOM     65  C   UNL     1      -6.219   7.015  -4.274  1.00  0.00     0.029 A 
ATOM     66  C   UNL     1      -6.639   6.450  -3.081  1.00  0.00     0.049 A 
ATOM     67  H   UNL     1      -6.201   7.020  -1.106  1.00  0.00     0.167 HD
ATOM     68  C   UNL     1      -7.231   4.143  -3.200  1.00  0.00     0.074 A 
ATOM     69  C   UNL     1      -7.962   2.899  -3.335  1.00  0.00     0.031 C 
ATOM     70  C   UNL     1      -7.558   5.384  -2.738  1.00  0.00     0.037 A 
BRANCH  57  71
ATOM     71  C   UNL     1      -4.023  10.235  -1.475  1.00  0.00     0.058 A 
ATOM     72  C   UNL     1      -4.326  11.200  -2.453  1.00  0.00     0.135 A 
ATOM     73  C   UNL     1      -3.379  10.754  -0.322  1.00  0.00     0.135 A 
ATOM     74  F   UNL     1      -4.999  10.871  -3.563  1.00  0.00    -0.206 F 
ATOM     75  C   UNL     1      -3.927  12.539  -2.354  1.00  0.00     0.059 A 
ATOM     76  C   UNL     1      -2.902  12.073  -0.232  1.00  0.00     0.059 A 
ATOM     77  F   UNL     1      -3.163   9.976   0.753  1.00  0.00    -0.206 F 
ATOM     78  C   UNL     1      -3.183  12.963  -1.259  1.00  0.00     0.060 A 
BRANCH  78  79
ATOM     79  S   UNL     1      -2.584  14.670  -1.215  1.00  0.00     0.124 S 
ATOM     80  O   UNL     1      -2.102  14.874  -2.578  1.00  0.00    -0.237 OA
ATOM     81  O   UNL     1      -3.793  15.403  -0.857  1.00  0.00    -0.237 OA
ATOM     82  O   UNL     1      -1.541  14.640  -0.194  1.00  0.00    -0.744 OA
ENDBRANCH  78  79
ENDBRANCH  57  71
BRANCH  58  83
ATOM     83  C   UNL     1      -4.064   0.592  -4.117  1.00  0.00     0.058 A 
ATOM     84  C   UNL     1      -3.500  -0.173  -5.160  1.00  0.00     0.135 A 
ATOM     85  C   UNL     1      -3.637   0.290  -2.815  1.00  0.00     0.135 A 
ATOM     86  F   UNL     1      -3.862   0.062  -6.433  1.00  0.00    -0.206 F 
ATOM     87  C   UNL     1      -2.469  -1.087  -4.945  1.00  0.00     0.059 A 
ATOM     88  C   UNL     1      -2.610  -0.640  -2.574  1.00  0.00     0.059 A 
ATOM     89  F   UNL     1      -4.105   0.993  -1.772  1.00  0.00    -0.206 F 
ATOM     90  C   UNL     1      -1.992  -1.276  -3.652  1.00  0.00     0.060 A 
BRANCH  90  91
ATOM     91  S   UNL     1      -0.458  -2.225  -3.457  1.00  0.00     0.124 S 
ATOM     92  O   UNL     1      -0.861  -3.553  -3.904  1.00  0.00    -0.237 OA
ATOM     93  O   UNL     1       0.455  -1.507  -4.348  1.00  0.00    -0.237 OA
ATOM     94  O   UNL     1      -0.155  -2.114  -2.036  1.00  0.00    -0.744 OA
ENDBRANCH  90  91
ENDBRANCH  58  83
BRANCH  70  95
ATOM     95  C   UNL     1      -8.782   5.753  -1.932  1.00  0.00     0.058 A 
ATOM     96  C   UNL     1      -9.467   4.851  -1.105  1.00  0.00     0.135 A 
ATOM     97  C   UNL     1      -9.192   7.110  -1.829  1.00  0.00     0.135 A 
ATOM     98  F   UNL     1      -9.102   3.565  -1.018  1.00  0.00    -0.206 F 
ATOM     99  C   UNL     1     -10.531   5.246  -0.296  1.00  0.00     0.059 A 
ATOM    100  C   UNL     1     -10.196   7.536  -0.970  1.00  0.00     0.059 A 
ATOM    101  F   UNL     1      -8.613   8.080  -2.553  1.00  0.00    -0.206 F 
ATOM    102  C   UNL     1     -10.890   6.589  -0.237  1.00  0.00     0.060 A 
BRANCH 102 103
ATOM    103  S   UNL     1     -12.261   7.114   0.801  1.00  0.00     0.124 S 
ATOM    104  O   UNL     1     -13.363   7.108  -0.157  1.00  0.00    -0.237 OA
ATOM    105  O   UNL     1     -12.314   6.076   1.826  1.00  0.00    -0.237 OA
ATOM    106  O   UNL     1     -11.836   8.428   1.271  1.00  0.00    -0.744 OA
ENDBRANCH 102 103
ENDBRANCH  70  95
ENDBRANCH  44  45
ENDBRANCH  37  39
ENDBRANCH  36  37
ENDBRANCH  35  36
ENDBRANCH  34  35
ENDBRANCH  33  34
ENDBRANCH   1  33
TORSDOF 23
