REMARK SMILES Cc1nn(-c2cc(Cl)ccc2Cl)nc1C(=O)OCCOCCOCCOC(=O)c1ccc(-c2c3nc(c(-c4c(F)cc(S(=O)(=O)[O-])cc4F)c4ccc([nH]4)c(-c4c(F)cc(S(=O)(=O)[O-])cc4F)c4nc(c(-c5c(F)cc(S(=O)(=O)[O-])cc5F)c5ccc2[nH]5)C=C4)C=C3)cc1
REMARK SMILES IDX 22 1 21 2 20 3 19 4 18 5 17 6 15 7 16 8 14 9 1 10 2 11 3 12
REMARK SMILES IDX 4 13 13 14 5 15 6 16 11 17 7 18 10 19 12 20 8 21 9 22 23 23
REMARK SMILES IDX 24 24 25 25 26 26 27 27 28 28 29 29 30 30 94 31 31 32 93 33
REMARK SMILES IDX 32 34 33 35 34 36 87 37 35 38 92 39 86 40 88 41 36 42 91 43
REMARK SMILES IDX 85 44 84 45 37 47 71 48 50 49 70 50 51 51 54 52 69 53 89 54
REMARK SMILES IDX 52 55 53 56 68 58 90 59 55 60 38 61 39 62 48 63 40 64 41 65
REMARK SMILES IDX 47 66 49 67 42 68 43 69 44 70 45 71 46 72 72 73 73 74 82 75
REMARK SMILES IDX 74 76 75 77 81 78 83 79 76 80 77 81 78 82 79 83 80 84 56 85
REMARK SMILES IDX 57 86 66 87 58 88 59 89 65 90 67 91 60 92 61 93 62 94 63 95
REMARK SMILES IDX 64 96
REMARK H PARENT 88 46 54 57
REMARK Flexibility Score: inf
ROOT
ATOM      1  C   UNL     1       1.042   2.633  -2.657  1.00  0.00     0.188 C 
ENDROOT
BRANCH   1   2
ATOM      2  C   UNL     1       1.896   3.915  -2.504  1.00  0.00     0.188 C 
BRANCH   2   3
ATOM      3  O   UNL     1       3.213   3.990  -3.035  1.00  0.00    -0.376 OA
BRANCH   3   4
ATOM      4  C   UNL     1       4.075   2.864  -3.001  1.00  0.00     0.202 C 
BRANCH   4   5
ATOM      5  C   UNL     1       4.328   2.098  -1.685  1.00  0.00     0.261 C 
BRANCH   5   6
ATOM      6  O   UNL     1       3.178   1.883  -0.851  1.00  0.00    -0.458 OA
BRANCH   6   7
ATOM      7  C   UNL     1       3.090   2.654   0.269  1.00  0.00     0.360 C 
ATOM      8  O   UNL     1       4.012   3.342   0.704  1.00  0.00    -0.244 OA
BRANCH   7   9
ATOM      9  C   UNL     1       1.736   2.678   0.827  1.00  0.00     0.193 A 
ATOM     10  C   UNL     1       0.782   0.257   0.429  1.00  0.00     0.071 C 
ATOM     11  C   UNL     1       0.738   1.665   0.887  1.00  0.00     0.095 A 
ATOM     12  N   UNL     1      -0.386   2.169   1.422  1.00  0.00    -0.153 NA
ATOM     13  N   UNL     1      -0.040   3.453   1.648  1.00  0.00    -0.149 N 
ATOM     14  N   UNL     1       1.200   3.825   1.287  1.00  0.00    -0.141 NA
BRANCH  13  15
ATOM     15  C   UNL     1      -0.923   4.387   2.201  1.00  0.00     0.106 A 
ATOM     16  C   UNL     1      -1.537   5.322   1.354  1.00  0.00     0.052 A 
ATOM     17  C   UNL     1      -1.066   4.463   3.588  1.00  0.00     0.068 A 
ATOM     18  C   UNL     1      -2.311   6.335   1.917  1.00  0.00     0.043 A 
ATOM     19  C   UNL     1      -1.831   5.496   4.136  1.00  0.00     0.024 A 
ATOM     20  Cl  UNL     1      -0.284   3.371   4.674  1.00  0.00    -0.082 Cl
ATOM     21  Cl  UNL     1      -3.084   7.490   0.905  1.00  0.00    -0.084 Cl
ATOM     22  C   UNL     1      -2.453   6.431   3.302  1.00  0.00     0.022 A 
ENDBRANCH  13  15
ENDBRANCH   7   9
ENDBRANCH   6   7
ENDBRANCH   5   6
ENDBRANCH   4   5
ENDBRANCH   3   4
ENDBRANCH   2   3
ENDBRANCH   1   2
BRANCH   1  23
ATOM     23  O   UNL     1       1.752   1.500  -3.120  1.00  0.00    -0.376 OA
BRANCH  23  24
ATOM     24  C   UNL     1       1.470   0.971  -4.409  1.00  0.00     0.202 C 
BRANCH  24  25
ATOM     25  C   UNL     1       1.489   1.869  -5.647  1.00  0.00     0.261 C 
BRANCH  25  26
ATOM     26  O   UNL     1       1.207   3.230  -5.401  1.00  0.00    -0.460 OA
BRANCH  26  27
ATOM     27  C   UNL     1      -0.104   3.520  -5.308  1.00  0.00     0.338 C 
ATOM     28  O   UNL     1      -1.026   2.724  -5.225  1.00  0.00    -0.246 OA
BRANCH  27  29
ATOM     29  C   UNL     1      -0.258   4.974  -5.379  1.00  0.00     0.060 A 
ATOM     30  C   UNL     1      -1.548   5.461  -5.171  1.00  0.00     0.016 A 
ATOM     31  C   UNL     1       0.738   5.711  -6.038  1.00  0.00     0.016 A 
ATOM     32  C   UNL     1      -1.938   6.538  -5.923  1.00  0.00     0.010 A 
ATOM     33  C   UNL     1       0.341   6.771  -6.806  1.00  0.00     0.010 A 
ATOM     34  C   UNL     1      -1.015   7.079  -6.824  1.00  0.00    -0.014 A 
BRANCH  34  35
ATOM     35  C   UNL     1      -1.523   7.982  -7.825  1.00  0.00     0.031 A 
ATOM     36  C   UNL     1      -1.790   9.329  -7.292  1.00  0.00     0.074 A 
ATOM     37  C   UNL     1      -1.648   7.599  -9.109  1.00  0.00     0.049 A 
ATOM     38  N   UNL     1      -2.930   9.914  -7.142  1.00  0.00    -0.248 NA
ATOM     39  C   UNL     1      -0.659  10.028  -6.660  1.00  0.00     0.031 C 
ATOM     40  C   UNL     1      -1.145   6.381  -9.756  1.00  0.00     0.029 A 
ATOM     41  N   UNL     1      -2.180   8.292 -10.145  1.00  0.00    -0.354 N 
ATOM     42  C   UNL     1      -2.628  11.157  -6.600  1.00  0.00     0.074 A 
ATOM     43  C   UNL     1      -1.270  11.085  -6.131  1.00  0.00     0.031 C 
ATOM     44  C   UNL     1      -1.192   6.541 -11.099  1.00  0.00     0.029 A 
ATOM     45  C   UNL     1      -1.840   7.806 -11.399  1.00  0.00     0.049 A 
ATOM     46  H   UNL     1      -2.761   9.076 -10.017  1.00  0.00     0.167 HD
ATOM     47  C   UNL     1      -3.426  12.236  -6.815  1.00  0.00     0.037 A 
ATOM     48  C   UNL     1      -1.995   8.480 -12.568  1.00  0.00     0.037 A 
ATOM     49  C   UNL     1      -4.750  11.841  -7.220  1.00  0.00     0.049 A 
ATOM     50  C   UNL     1      -2.997   9.557 -12.314  1.00  0.00     0.074 A 
ATOM     51  C   UNL     1      -5.747  11.090  -6.625  1.00  0.00     0.029 A 
ATOM     52  N   UNL     1      -5.057  11.878  -8.559  1.00  0.00    -0.354 N 
ATOM     53  N   UNL     1      -4.253   9.331 -12.036  1.00  0.00    -0.248 NA
ATOM     54  C   UNL     1      -2.496  10.858 -11.891  1.00  0.00     0.031 C 
ATOM     55  C   UNL     1      -6.323  10.330  -7.684  1.00  0.00     0.029 A 
ATOM     56  C   UNL     1      -5.690  10.699  -8.872  1.00  0.00     0.049 A 
ATOM     57  H   UNL     1      -4.860  12.616  -9.181  1.00  0.00     0.167 HD
ATOM     58  C   UNL     1      -4.586  10.266 -11.063  1.00  0.00     0.074 A 
ATOM     59  C   UNL     1      -3.482  11.223 -11.067  1.00  0.00     0.031 C 
ATOM     60  C   UNL     1      -5.576  10.027 -10.151  1.00  0.00     0.037 A 
BRANCH  47  61
ATOM     61  C   UNL     1      -2.879  13.629  -6.979  1.00  0.00     0.058 A 
ATOM     62  C   UNL     1      -3.755  14.729  -6.963  1.00  0.00     0.135 A 
ATOM     63  C   UNL     1      -1.554  13.908  -7.392  1.00  0.00     0.135 A 
ATOM     64  F   UNL     1      -5.042  14.572  -6.616  1.00  0.00    -0.206 F 
ATOM     65  C   UNL     1      -3.353  16.003  -7.367  1.00  0.00     0.059 A 
ATOM     66  C   UNL     1      -1.117  15.178  -7.736  1.00  0.00     0.059 A 
ATOM     67  F   UNL     1      -0.642  12.946  -7.581  1.00  0.00    -0.206 F 
ATOM     68  C   UNL     1      -2.033  16.214  -7.759  1.00  0.00     0.060 A 
BRANCH  68  69
ATOM     69  S   UNL     1      -1.533  17.829  -8.373  1.00  0.00     0.124 S 
ATOM     70  O   UNL     1      -2.236  17.884  -9.650  1.00  0.00    -0.237 OA
ATOM     71  O   UNL     1      -2.030  18.717  -7.328  1.00  0.00    -0.237 OA
ATOM     72  O   UNL     1      -0.079  17.721  -8.457  1.00  0.00    -0.744 OA
ENDBRANCH  68  69
ENDBRANCH  47  61
BRANCH  48  73
ATOM     73  C   UNL     1      -1.040   8.522 -13.710  1.00  0.00     0.058 A 
ATOM     74  C   UNL     1      -1.406   9.085 -14.945  1.00  0.00     0.135 A 
ATOM     75  C   UNL     1       0.336   8.263 -13.533  1.00  0.00     0.135 A 
ATOM     76  F   UNL     1      -2.690   9.388 -15.192  1.00  0.00    -0.206 F 
ATOM     77  C   UNL     1      -0.463   9.413 -15.926  1.00  0.00     0.059 A 
ATOM     78  C   UNL     1       1.292   8.570 -14.499  1.00  0.00     0.059 A 
ATOM     79  F   UNL     1       0.811   7.787 -12.373  1.00  0.00    -0.206 F 
ATOM     80  C   UNL     1       0.889   9.169 -15.685  1.00  0.00     0.060 A 
BRANCH  80  81
ATOM     81  S   UNL     1       2.128   9.748 -16.869  1.00  0.00     0.124 S 
ATOM     82  O   UNL     1       1.905   8.855 -18.000  1.00  0.00    -0.237 OA
ATOM     83  O   UNL     1       1.739  11.140 -17.067  1.00  0.00    -0.237 OA
ATOM     84  O   UNL     1       3.391   9.552 -16.160  1.00  0.00    -0.744 OA
ENDBRANCH  80  81
ENDBRANCH  48  73
BRANCH  60  85
ATOM     85  C   UNL     1      -6.475   8.833 -10.373  1.00  0.00     0.058 A 
ATOM     86  C   UNL     1      -6.037   7.496 -10.355  1.00  0.00     0.135 A 
ATOM     87  C   UNL     1      -7.860   9.046 -10.444  1.00  0.00     0.135 A 
ATOM     88  F   UNL     1      -4.742   7.199 -10.181  1.00  0.00    -0.206 F 
ATOM     89  C   UNL     1      -6.928   6.424 -10.448  1.00  0.00     0.059 A 
ATOM     90  C   UNL     1      -8.770   7.992 -10.505  1.00  0.00     0.059 A 
ATOM     91  F   UNL     1      -8.351  10.295 -10.399  1.00  0.00    -0.206 F 
ATOM     92  C   UNL     1      -8.296   6.682 -10.521  1.00  0.00     0.060 A 
BRANCH  92  93
ATOM     93  S   UNL     1      -9.455   5.296 -10.563  1.00  0.00     0.124 S 
ATOM     94  O   UNL     1      -9.250   4.766 -11.906  1.00  0.00    -0.237 OA
ATOM     95  O   UNL     1      -8.983   4.452  -9.469  1.00  0.00    -0.237 OA
ATOM     96  O   UNL     1     -10.752   5.929 -10.334  1.00  0.00    -0.744 OA
ENDBRANCH  92  93
ENDBRANCH  60  85
ENDBRANCH  34  35
ENDBRANCH  27  29
ENDBRANCH  26  27
ENDBRANCH  25  26
ENDBRANCH  24  25
ENDBRANCH  23  24
ENDBRANCH   1  23
TORSDOF 21
