REMARK SMILES C=CCOc1cccc(NS(=O)(=O)c2c[nH]c(C(=O)OCCOCCOCCOC(=O)c3ccc(-c4c5nc(c(-c6c(F)cc(S(=O)(=O)[O-])cc6F)c6ccc([nH]6)c(-c6c(F)cc(S(=O)(=O)[O-])cc6F)c6nc(c(-c7c(F)cc(S(=O)(=O)[O-])cc7F)c7ccc4[nH]7)C=C6)C=C5)cc3)c2)c1
REMARK SMILES IDX 23 1 22 2 21 3 20 4 18 5 19 6 17 7 14 8 15 9 98 10 16 11
REMARK SMILES IDX 11 13 12 14 13 15 10 16 9 18 5 19 6 20 99 21 7 22 8 23 4 24
REMARK SMILES IDX 3 25 2 26 1 27 24 28 25 29 26 30 27 31 28 32 29 33 30 34
REMARK SMILES IDX 31 35 32 36 33 37 97 38 34 39 96 40 35 41 36 42 37 43 90 44
REMARK SMILES IDX 38 45 95 46 89 47 91 48 39 49 94 50 88 51 87 52 40 54 74 55
REMARK SMILES IDX 53 56 73 57 54 58 57 59 72 60 92 61 55 62 56 63 71 65 93 66
REMARK SMILES IDX 58 67 41 68 42 69 51 70 43 71 44 72 50 73 52 74 45 75 46 76
REMARK SMILES IDX 47 77 48 78 49 79 75 80 76 81 85 82 77 83 78 84 84 85 86 86
REMARK SMILES IDX 79 87 80 88 81 89 82 90 83 91 59 92 60 93 69 94 61 95 62 96
REMARK SMILES IDX 68 97 70 98 63 99 64 100 65 101 66 102 67 103
REMARK H PARENT 16 12 10 17 91 53 57 64
REMARK Flexibility Score: inf
ROOT
ATOM      1  O   UNL     1      -3.685 -11.576  -1.120  1.00  0.00    -0.376 OA
ENDROOT
BRANCH   1   2
ATOM      2  C   UNL     1      -2.799 -12.608  -1.518  1.00  0.00     0.202 C 
BRANCH   2   3
ATOM      3  C   UNL     1      -1.703 -12.307  -2.557  1.00  0.00     0.261 C 
BRANCH   3   4
ATOM      4  O   UNL     1      -0.990 -11.070  -2.390  1.00  0.00    -0.459 OA
BRANCH   4   5
ATOM      5  C   UNL     1      -1.409 -10.046  -3.186  1.00  0.00     0.354 C 
ATOM      6  O   UNL     1      -2.252 -10.126  -4.052  1.00  0.00    -0.244 OA
BRANCH   5   7
ATOM      7  C   UNL     1      -0.802  -8.790  -2.776  1.00  0.00     0.126 A 
ATOM      8  C   UNL     1       0.416  -7.041  -1.971  1.00  0.00     0.106 A 
ATOM      9  C   UNL     1      -0.681  -6.539  -2.642  1.00  0.00     0.105 A 
ATOM     10  C   UNL     1       0.336  -8.465  -2.051  1.00  0.00     0.057 A 
ATOM     11  N   UNL     1      -1.411  -7.596  -3.107  1.00  0.00    -0.354 N 
ATOM     12  H   UNL     1      -2.255  -7.518  -3.608  1.00  0.00     0.166 HD
BRANCH   8  13
ATOM     13  S   UNL     1       1.700  -6.105  -1.286  1.00  0.00     0.263 S 
ATOM     14  O   UNL     1       2.106  -5.245  -2.379  1.00  0.00    -0.201 OA
ATOM     15  O   UNL     1       2.620  -7.087  -0.752  1.00  0.00    -0.201 OA
BRANCH  13  16
ATOM     16  N   UNL     1       1.292  -5.080  -0.010  1.00  0.00    -0.279 N 
ATOM     17  H   UNL     1       2.003  -4.836   0.626  1.00  0.00     0.180 HD
BRANCH  16  18
ATOM     18  C   UNL     1      -0.016  -4.541   0.213  1.00  0.00     0.052 A 
ATOM     19  C   UNL     1      -1.343  -2.694   1.084  1.00  0.00     0.121 A 
ATOM     20  C   UNL     1      -2.467  -3.514   1.123  1.00  0.00     0.046 A 
ATOM     21  C   UNL     1      -0.123  -3.204   0.627  1.00  0.00     0.073 A 
ATOM     22  C   UNL     1      -2.364  -4.850   0.741  1.00  0.00     0.006 A 
ATOM     23  C   UNL     1      -1.133  -5.368   0.331  1.00  0.00     0.027 A 
BRANCH  19  24
ATOM     24  O   UNL     1      -1.451  -1.479   1.708  1.00  0.00    -0.489 OA
BRANCH  24  25
ATOM     25  C   UNL     1      -1.158  -0.339   0.899  1.00  0.00     0.257 C 
BRANCH  25  26
ATOM     26  C   UNL     1       0.287   0.046   1.028  1.00  0.00     0.006 C 
ATOM     27  C   UNL     1       1.092   0.305  -0.011  1.00  0.00     0.007 C 
ENDBRANCH  25  26
ENDBRANCH  24  25
ENDBRANCH  19  24
ENDBRANCH  16  18
ENDBRANCH  13  16
ENDBRANCH   8  13
ENDBRANCH   5   7
ENDBRANCH   4   5
ENDBRANCH   3   4
ENDBRANCH   2   3
ENDBRANCH   1   2
BRANCH   1  28
ATOM     28  C   UNL     1      -3.193 -10.391  -0.505  1.00  0.00     0.188 C 
BRANCH  28  29
ATOM     29  C   UNL     1      -1.881 -10.365   0.308  1.00  0.00     0.188 C 
BRANCH  29  30
ATOM     30  O   UNL     1      -1.167 -11.588   0.352  1.00  0.00    -0.376 OA
BRANCH  30  31
ATOM     31  C   UNL     1      -1.072 -12.251   1.606  1.00  0.00     0.202 C 
BRANCH  31  32
ATOM     32  C   UNL     1      -2.383 -12.782   2.197  1.00  0.00     0.261 C 
BRANCH  32  33
ATOM     33  O   UNL     1      -3.433 -11.827   2.318  1.00  0.00    -0.460 OA
BRANCH  33  34
ATOM     34  C   UNL     1      -3.142 -10.822   3.162  1.00  0.00     0.338 C 
ATOM     35  O   UNL     1      -2.053 -10.499   3.605  1.00  0.00    -0.246 OA
BRANCH  34  36
ATOM     36  C   UNL     1      -4.365 -10.182   3.601  1.00  0.00     0.060 A 
ATOM     37  C   UNL     1      -4.303  -8.809   3.852  1.00  0.00     0.016 A 
ATOM     38  C   UNL     1      -5.340 -11.026   4.142  1.00  0.00     0.016 A 
ATOM     39  C   UNL     1      -5.147  -8.294   4.805  1.00  0.00     0.010 A 
ATOM     40  C   UNL     1      -6.144 -10.521   5.132  1.00  0.00     0.010 A 
ATOM     41  C   UNL     1      -6.007  -9.171   5.479  1.00  0.00    -0.014 A 
BRANCH  41  42
ATOM     42  C   UNL     1      -6.878  -8.609   6.509  1.00  0.00     0.031 A 
ATOM     43  C   UNL     1      -8.188  -8.103   5.856  1.00  0.00     0.074 A 
ATOM     44  C   UNL     1      -6.337  -8.631   7.769  1.00  0.00     0.049 A 
ATOM     45  N   UNL     1      -9.038  -7.203   6.245  1.00  0.00    -0.248 NA
ATOM     46  C   UNL     1      -8.575  -8.636   4.510  1.00  0.00     0.031 C 
ATOM     47  C   UNL     1      -5.015  -9.211   8.143  1.00  0.00     0.029 A 
ATOM     48  N   UNL     1      -6.765  -8.177   8.991  1.00  0.00    -0.354 N 
ATOM     49  C   UNL     1     -10.142  -7.258   5.359  1.00  0.00     0.074 A 
ATOM     50  C   UNL     1      -9.743  -8.053   4.245  1.00  0.00     0.031 C 
ATOM     51  C   UNL     1      -4.731  -8.988   9.448  1.00  0.00     0.029 A 
ATOM     52  C   UNL     1      -5.829  -8.272  10.063  1.00  0.00     0.049 A 
ATOM     53  H   UNL     1      -7.668  -7.807   9.121  1.00  0.00     0.167 HD
ATOM     54  C   UNL     1     -11.377  -6.766   5.666  1.00  0.00     0.037 A 
ATOM     55  C   UNL     1      -5.939  -7.750  11.328  1.00  0.00     0.037 A 
ATOM     56  C   UNL     1     -11.346  -6.155   6.949  1.00  0.00     0.049 A 
ATOM     57  C   UNL     1      -7.300  -7.198  11.344  1.00  0.00     0.074 A 
ATOM     58  C   UNL     1     -10.926  -4.931   7.386  1.00  0.00     0.029 A 
ATOM     59  N   UNL     1     -11.529  -6.981   8.030  1.00  0.00    -0.354 N 
ATOM     60  N   UNL     1      -8.387  -7.907  11.379  1.00  0.00    -0.248 NA
ATOM     61  C   UNL     1      -7.462  -5.752  11.170  1.00  0.00     0.031 C 
ATOM     62  C   UNL     1     -10.481  -5.171   8.703  1.00  0.00     0.029 A 
ATOM     63  C   UNL     1     -10.748  -6.499   9.053  1.00  0.00     0.049 A 
ATOM     64  H   UNL     1     -12.113  -7.773   8.066  1.00  0.00     0.167 HD
ATOM     65  C   UNL     1      -9.338  -7.032  10.917  1.00  0.00     0.074 A 
ATOM     66  C   UNL     1      -8.787  -5.704  11.086  1.00  0.00     0.031 C 
ATOM     67  C   UNL     1     -10.287  -7.450  10.041  1.00  0.00     0.037 A 
BRANCH  54  68
ATOM     68  C   UNL     1     -12.733  -6.960   5.042  1.00  0.00     0.058 A 
ATOM     69  C   UNL     1     -13.736  -6.011   5.358  1.00  0.00     0.135 A 
ATOM     70  C   UNL     1     -13.180  -8.175   4.501  1.00  0.00     0.135 A 
ATOM     71  F   UNL     1     -13.407  -4.782   5.790  1.00  0.00    -0.206 F 
ATOM     72  C   UNL     1     -15.091  -6.315   5.324  1.00  0.00     0.059 A 
ATOM     73  C   UNL     1     -14.542  -8.483   4.409  1.00  0.00     0.059 A 
ATOM     74  F   UNL     1     -12.312  -9.126   4.127  1.00  0.00    -0.206 F 
ATOM     75  C   UNL     1     -15.483  -7.574   4.890  1.00  0.00     0.060 A 
BRANCH  75  76
ATOM     76  S   UNL     1     -17.231  -8.008   5.015  1.00  0.00     0.124 S 
ATOM     77  O   UNL     1     -17.382  -8.220   6.450  1.00  0.00    -0.237 OA
ATOM     78  O   UNL     1     -17.886  -6.817   4.481  1.00  0.00    -0.237 OA
ATOM     79  O   UNL     1     -17.341  -9.200   4.180  1.00  0.00    -0.744 OA
ENDBRANCH  75  76
ENDBRANCH  54  68
BRANCH  55  80
ATOM     80  C   UNL     1      -5.095  -7.459  12.558  1.00  0.00     0.058 A 
ATOM     81  C   UNL     1      -3.748  -7.789  12.752  1.00  0.00     0.135 A 
ATOM     82  C   UNL     1      -5.637  -6.629  13.587  1.00  0.00     0.135 A 
ATOM     83  F   UNL     1      -3.135  -8.672  11.953  1.00  0.00    -0.206 F 
ATOM     84  C   UNL     1      -2.966  -7.202  13.773  1.00  0.00     0.059 A 
ATOM     85  C   UNL     1      -4.878  -5.993  14.566  1.00  0.00     0.059 A 
ATOM     86  F   UNL     1      -6.949  -6.355  13.654  1.00  0.00    -0.206 F 
ATOM     87  C   UNL     1      -3.526  -6.254  14.632  1.00  0.00     0.060 A 
BRANCH  87  88
ATOM     88  S   UNL     1      -2.497  -5.251  15.731  1.00  0.00     0.124 S 
ATOM     89  O   UNL     1      -2.397  -6.095  16.915  1.00  0.00    -0.237 OA
ATOM     90  O   UNL     1      -1.270  -5.090  14.957  1.00  0.00    -0.237 OA
ATOM     91  O   UNL     1      -3.280  -4.027  15.894  1.00  0.00    -0.744 OA
ENDBRANCH  87  88
ENDBRANCH  55  80
BRANCH  67  92
ATOM     92  C   UNL     1     -10.458  -8.967   9.973  1.00  0.00     0.058 A 
ATOM     93  C   UNL     1     -10.954  -9.679  11.075  1.00  0.00     0.135 A 
ATOM     94  C   UNL     1     -10.052  -9.757   8.880  1.00  0.00     0.135 A 
ATOM     95  F   UNL     1     -11.367  -9.015  12.166  1.00  0.00    -0.206 F 
ATOM     96  C   UNL     1     -11.044 -11.078  11.085  1.00  0.00     0.059 A 
ATOM     97  C   UNL     1     -10.133 -11.151   8.857  1.00  0.00     0.059 A 
ATOM     98  F   UNL     1      -9.563  -9.186   7.782  1.00  0.00    -0.206 F 
ATOM     99  C   UNL     1     -10.633 -11.809   9.969  1.00  0.00     0.060 A 
BRANCH  99 100
ATOM    100  S   UNL     1     -10.777 -13.611   9.982  1.00  0.00     0.124 S 
ATOM    101  O   UNL     1      -9.960 -13.984  11.133  1.00  0.00    -0.237 OA
ATOM    102  O   UNL     1     -12.215 -13.801  10.140  1.00  0.00    -0.237 OA
ATOM    103  O   UNL     1     -10.236 -14.012   8.685  1.00  0.00    -0.744 OA
ENDBRANCH  99 100
ENDBRANCH  67  92
ENDBRANCH  41  42
ENDBRANCH  34  36
ENDBRANCH  33  34
ENDBRANCH  32  33
ENDBRANCH  31  32
ENDBRANCH  30  31
ENDBRANCH  29  30
ENDBRANCH  28  29
ENDBRANCH   1  28
TORSDOF 26
