REMARK SMILES C[C@@H](NC(=O)NCCC(=O)NC1CC1)C(=O)OCCOCCOCCOC(=O)c1ccc(-c2c3nc(c(-c4c(F)cc(S(=O)(=O)[O-])cc4F)c4ccc([nH]4)c(-c4c(F)cc(S(=O)(=O)[O-])cc4F)c4nc(c(-c5c(F)cc(S(=O)(=O)[O-])cc5F)c5ccc2[nH]5)C=C4)C=C3)cc1
REMARK SMILES IDX 21 1 20 2 19 3 18 4 17 5 15 6 16 7 2 8 1 9 3 10 4 11 5 13
REMARK SMILES IDX 6 14 7 16 8 17 9 18 10 19 11 20 12 22 13 23 14 24 22 25
REMARK SMILES IDX 23 26 24 27 25 28 26 29 27 30 28 31 29 32 30 33 94 34 31 35
REMARK SMILES IDX 93 36 32 37 33 38 34 39 87 40 35 41 92 42 86 43 88 44 36 45
REMARK SMILES IDX 91 46 85 47 84 48 37 50 71 51 50 52 70 53 51 54 54 55 69 56
REMARK SMILES IDX 89 57 52 58 53 59 68 61 90 62 55 63 38 64 39 65 48 66 40 67
REMARK SMILES IDX 41 68 47 69 49 70 42 71 43 72 44 73 45 74 46 75 72 76 73 77
REMARK SMILES IDX 82 78 74 79 75 80 81 81 83 82 76 83 77 84 78 85 79 86 80 87
REMARK SMILES IDX 56 88 57 89 66 90 58 91 59 92 65 93 67 94 60 95 61 96 62 97
REMARK SMILES IDX 63 98 64 99
REMARK H PARENT 3 12 6 15 11 21 88 49 54 60
REMARK Flexibility Score: inf
ROOT
ATOM      1  C   UNL     1      -2.726  -1.023   1.649  1.00  0.00     0.188 C 
ENDROOT
BRANCH   1   2
ATOM      2  O   UNL     1      -3.722  -0.645   0.709  1.00  0.00    -0.376 OA
BRANCH   2   3
ATOM      3  C   UNL     1      -3.562   0.682   0.227  1.00  0.00     0.202 C 
BRANCH   3   4
ATOM      4  C   UNL     1      -2.521   0.847  -0.885  1.00  0.00     0.261 C 
BRANCH   4   5
ATOM      5  O   UNL     1      -1.084   0.908  -0.660  1.00  0.00    -0.462 OA
BRANCH   5   6
ATOM      6  C   UNL     1      -0.377   1.094   0.482  1.00  0.00     0.328 C 
ATOM      7  O   UNL     1      -0.793   1.058   1.633  1.00  0.00    -0.250 OA
BRANCH   6   8
ATOM      8  C   UNL     1       1.051   1.491   0.163  1.00  0.00     0.190 C 
ATOM      9  C   UNL     1       1.670   0.503  -0.827  1.00  0.00     0.043 C 
BRANCH   8  10
ATOM     10  N   UNL     1       1.197   2.903  -0.210  1.00  0.00    -0.325 N 
ATOM     11  C   UNL     1       0.264   3.683  -0.792  1.00  0.00     0.315 C 
ATOM     12  H   UNL     1       2.066   3.324  -0.015  1.00  0.00     0.166 HD
ATOM     13  O   UNL     1       0.533   4.259  -1.846  1.00  0.00    -0.249 OA
ATOM     14  N   UNL     1      -0.941   3.889  -0.218  1.00  0.00    -0.338 N 
ATOM     15  H   UNL     1      -1.603   4.287  -0.828  1.00  0.00     0.165 HD
BRANCH  14  16
ATOM     16  C   UNL     1      -1.461   3.643   1.125  1.00  0.00     0.127 C 
BRANCH  16  17
ATOM     17  C   UNL     1      -2.526   4.563   1.699  1.00  0.00     0.121 C 
BRANCH  17  18
ATOM     18  C   UNL     1      -3.729   4.689   0.792  1.00  0.00     0.221 C 
ATOM     19  O   UNL     1      -4.708   3.949   0.883  1.00  0.00    -0.275 OA
ATOM     20  N   UNL     1      -3.689   5.644  -0.191  1.00  0.00    -0.353 N 
ATOM     21  H   UNL     1      -4.533   5.823  -0.665  1.00  0.00     0.163 HD
BRANCH  20  22
ATOM     22  C   UNL     1      -2.554   6.405  -0.599  1.00  0.00     0.082 C 
ATOM     23  C   UNL     1      -2.210   6.391  -2.067  1.00  0.00     0.027 C 
ATOM     24  C   UNL     1      -2.637   7.662  -1.397  1.00  0.00     0.027 C 
ENDBRANCH  20  22
ENDBRANCH  17  18
ENDBRANCH  16  17
ENDBRANCH  14  16
ENDBRANCH   8  10
ENDBRANCH   6   8
ENDBRANCH   5   6
ENDBRANCH   4   5
ENDBRANCH   3   4
ENDBRANCH   2   3
ENDBRANCH   1   2
BRANCH   1  25
ATOM     25  C   UNL     1      -1.531  -1.695   0.968  1.00  0.00     0.188 C 
BRANCH  25  26
ATOM     26  O   UNL     1      -1.745  -2.212  -0.322  1.00  0.00    -0.376 OA
BRANCH  26  27
ATOM     27  C   UNL     1      -2.665  -3.274  -0.482  1.00  0.00     0.202 C 
BRANCH  27  28
ATOM     28  C   UNL     1      -3.360  -4.032   0.678  1.00  0.00     0.261 C 
BRANCH  28  29
ATOM     29  O   UNL     1      -2.879  -3.923   2.031  1.00  0.00    -0.460 OA
BRANCH  29  30
ATOM     30  C   UNL     1      -1.678  -4.458   2.369  1.00  0.00     0.338 C 
ATOM     31  O   UNL     1      -0.965  -5.123   1.659  1.00  0.00    -0.246 OA
BRANCH  30  32
ATOM     32  C   UNL     1      -1.265  -3.815   3.665  1.00  0.00     0.060 A 
ATOM     33  C   UNL     1      -0.041  -3.121   3.724  1.00  0.00     0.016 A 
ATOM     34  C   UNL     1      -2.093  -3.837   4.788  1.00  0.00     0.016 A 
ATOM     35  C   UNL     1       0.370  -2.487   4.903  1.00  0.00     0.010 A 
ATOM     36  C   UNL     1      -1.659  -3.244   5.984  1.00  0.00     0.010 A 
ATOM     37  C   UNL     1      -0.407  -2.602   6.060  1.00  0.00    -0.014 A 
BRANCH  37  38
ATOM     38  C   UNL     1       0.207  -2.336   7.390  1.00  0.00     0.031 A 
ATOM     39  C   UNL     1       0.790  -3.517   8.127  1.00  0.00     0.074 A 
ATOM     40  C   UNL     1       0.268  -1.110   7.942  1.00  0.00     0.049 A 
ATOM     41  N   UNL     1       1.280  -3.589   9.336  1.00  0.00    -0.248 NA
ATOM     42  C   UNL     1       0.813  -4.794   7.392  1.00  0.00     0.031 C 
ATOM     43  C   UNL     1      -0.195   0.128   7.320  1.00  0.00     0.029 A 
ATOM     44  N   UNL     1       0.738  -0.712   9.173  1.00  0.00    -0.354 N 
ATOM     45  C   UNL     1       1.646  -4.919   9.515  1.00  0.00     0.074 A 
ATOM     46  C   UNL     1       1.304  -5.622   8.299  1.00  0.00     0.031 C 
ATOM     47  C   UNL     1      -0.014   1.144   8.185  1.00  0.00     0.029 A 
ATOM     48  C   UNL     1       0.545   0.625   9.434  1.00  0.00     0.049 A 
ATOM     49  H   UNL     1       1.171  -1.327   9.807  1.00  0.00     0.167 HD
ATOM     50  C   UNL     1       2.217  -5.505  10.593  1.00  0.00     0.037 A 
ATOM     51  C   UNL     1       0.763   1.337  10.561  1.00  0.00     0.037 A 
ATOM     52  C   UNL     1       2.564  -4.806  11.800  1.00  0.00     0.049 A 
ATOM     53  C   UNL     1       1.339   0.652  11.778  1.00  0.00     0.074 A 
ATOM     54  C   UNL     1       3.166  -5.309  12.940  1.00  0.00     0.029 A 
ATOM     55  N   UNL     1       2.334  -3.458  12.030  1.00  0.00    -0.354 N 
ATOM     56  N   UNL     1       1.690  -0.604  11.932  1.00  0.00    -0.248 NA
ATOM     57  C   UNL     1       1.550   1.480  12.976  1.00  0.00     0.031 C 
ATOM     58  C   UNL     1       3.248  -4.278  13.881  1.00  0.00     0.029 A 
ATOM     59  C   UNL     1       2.757  -3.118  13.304  1.00  0.00     0.049 A 
ATOM     60  H   UNL     1       1.930  -2.835  11.383  1.00  0.00     0.167 HD
ATOM     61  C   UNL     1       2.189  -0.706  13.229  1.00  0.00     0.074 A 
ATOM     62  C   UNL     1       2.104   0.615  13.814  1.00  0.00     0.031 C 
ATOM     63  C   UNL     1       2.677  -1.796  13.875  1.00  0.00     0.037 A 
BRANCH  50  64
ATOM     64  C   UNL     1       2.467  -6.986  10.529  1.00  0.00     0.058 A 
ATOM     65  C   UNL     1       3.463  -7.539   9.708  1.00  0.00     0.135 A 
ATOM     66  C   UNL     1       1.716  -7.864  11.328  1.00  0.00     0.135 A 
ATOM     67  F   UNL     1       4.194  -6.748   8.905  1.00  0.00    -0.206 F 
ATOM     68  C   UNL     1       3.691  -8.910   9.666  1.00  0.00     0.059 A 
ATOM     69  C   UNL     1       1.948  -9.235  11.325  1.00  0.00     0.059 A 
ATOM     70  F   UNL     1       0.745  -7.389  12.125  1.00  0.00    -0.206 F 
ATOM     71  C   UNL     1       2.930  -9.750  10.481  1.00  0.00     0.060 A 
BRANCH  71  72
ATOM     72  S   UNL     1       3.252 -11.525  10.429  1.00  0.00     0.124 S 
ATOM     73  O   UNL     1       2.717 -11.880   9.118  1.00  0.00    -0.237 OA
ATOM     74  O   UNL     1       4.705 -11.581  10.556  1.00  0.00    -0.237 OA
ATOM     75  O   UNL     1       2.505 -12.041  11.571  1.00  0.00    -0.744 OA
ENDBRANCH  71  72
ENDBRANCH  50  64
BRANCH  51  76
ATOM     76  C   UNL     1       0.412   2.785  10.608  1.00  0.00     0.058 A 
ATOM     77  C   UNL     1       1.403   3.774  10.703  1.00  0.00     0.135 A 
ATOM     78  C   UNL     1      -0.926   3.209  10.571  1.00  0.00     0.135 A 
ATOM     79  F   UNL     1       2.697   3.423  10.765  1.00  0.00    -0.206 F 
ATOM     80  C   UNL     1       1.082   5.127  10.765  1.00  0.00     0.059 A 
ATOM     81  C   UNL     1      -1.271   4.557  10.603  1.00  0.00     0.059 A 
ATOM     82  F   UNL     1      -1.915   2.305  10.482  1.00  0.00    -0.206 F 
ATOM     83  C   UNL     1      -0.259   5.510  10.706  1.00  0.00     0.060 A 
BRANCH  83  84
ATOM     84  S   UNL     1      -0.660   7.271  10.717  1.00  0.00     0.124 S 
ATOM     85  O   UNL     1      -0.363   7.633  12.098  1.00  0.00    -0.237 OA
ATOM     86  O   UNL     1       0.254   7.798   9.708  1.00  0.00    -0.237 OA
ATOM     87  O   UNL     1      -2.072   7.297  10.347  1.00  0.00    -0.744 OA
ENDBRANCH  83  84
ENDBRANCH  51  76
BRANCH  63  88
ATOM     88  C   UNL     1       3.204  -1.610  15.274  1.00  0.00     0.058 A 
ATOM     89  C   UNL     1       2.351  -1.379  16.365  1.00  0.00     0.135 A 
ATOM     90  C   UNL     1       4.579  -1.733  15.536  1.00  0.00     0.135 A 
ATOM     91  F   UNL     1       1.029  -1.250  16.174  1.00  0.00    -0.206 F 
ATOM     92  C   UNL     1       2.845  -1.252  17.661  1.00  0.00     0.059 A 
ATOM     93  C   UNL     1       5.092  -1.641  16.826  1.00  0.00     0.059 A 
ATOM     94  F   UNL     1       5.439  -1.969  14.532  1.00  0.00    -0.206 F 
ATOM     95  C   UNL     1       4.218  -1.387  17.881  1.00  0.00     0.060 A 
BRANCH  95  96
ATOM     96  S   UNL     1       4.841  -1.252  19.571  1.00  0.00     0.124 S 
ATOM     97  O   UNL     1       4.705   0.179  19.821  1.00  0.00    -0.237 OA
ATOM     98  O   UNL     1       3.927  -2.116  20.311  1.00  0.00    -0.237 OA
ATOM     99  O   UNL     1       6.213  -1.743  19.468  1.00  0.00    -0.744 OA
ENDBRANCH  95  96
ENDBRANCH  63  88
ENDBRANCH  37  38
ENDBRANCH  30  32
ENDBRANCH  29  30
ENDBRANCH  28  29
ENDBRANCH  27  28
ENDBRANCH  26  27
ENDBRANCH  25  26
ENDBRANCH   1  25
TORSDOF 25
