REMARK SMILES Cc1ccccc1NC(=S)NN1C(=O)CS[C@H]1c1ccccc1C(=O)OCCOCCOCCOC(=O)c1ccc(-c2c3nc(c(-c4c(F)cc(S(=O)(=O)[O-])cc4F)c4ccc([nH]4)c(-c4c(F)cc(S(=O)(=O)[O-])cc4F)c4nc(c(-c5c(F)cc(S(=O)(=O)[O-])cc5F)c5ccc2[nH]5)C=C4)C=C3)cc1
REMARK SMILES IDX 30 1 29 2 28 3 27 4 26 5 24 6 25 7 23 8 18 9 19 10 20 11
REMARK SMILES IDX 22 12 21 13 17 14 12 15 13 16 14 17 15 18 16 19 11 20 9 22
REMARK SMILES IDX 10 23 8 24 7 26 1 27 2 28 3 29 4 30 6 31 5 32 31 33 32 34
REMARK SMILES IDX 33 35 34 36 35 37 36 38 37 39 38 40 39 41 103 42 40 43
REMARK SMILES IDX 102 44 41 45 42 46 43 47 96 48 44 49 101 50 95 51 97 52
REMARK SMILES IDX 45 53 100 54 94 55 93 56 46 58 80 59 59 60 79 61 60 62 63 63
REMARK SMILES IDX 78 64 98 65 61 66 62 67 77 69 99 70 64 71 47 72 48 73 57 74
REMARK SMILES IDX 49 75 50 76 56 77 58 78 51 79 52 80 53 81 54 82 55 83 81 84
REMARK SMILES IDX 82 85 91 86 83 87 84 88 90 89 92 90 85 91 86 92 87 93 88 94
REMARK SMILES IDX 89 95 65 96 66 97 75 98 67 99 68 100 74 101 76 102 69 103
REMARK SMILES IDX 70 104 71 105 72 106 73 107
REMARK H PARENT 11 21 8 25 97 57 63 68
REMARK Flexibility Score: inf
ROOT
ATOM      1  C   UNL     1       1.490   6.017  -2.926  1.00  0.00     0.188 C 
ENDROOT
BRANCH   1   2
ATOM      2  O   UNL     1       2.508   5.061  -2.717  1.00  0.00    -0.376 OA
BRANCH   2   3
ATOM      3  C   UNL     1       2.261   4.272  -1.568  1.00  0.00     0.202 C 
BRANCH   3   4
ATOM      4  C   UNL     1       0.837   4.174  -0.927  1.00  0.00     0.261 C 
BRANCH   4   5
ATOM      5  O   UNL     1      -0.309   5.447  -1.042  1.00  0.00    -0.460 OA
BRANCH   5   6
ATOM      6  C   UNL     1      -1.595   6.199  -0.468  1.00  0.00     0.338 C 
ATOM      7  O   UNL     1      -1.671   7.309  -0.887  1.00  0.00    -0.246 OA
BRANCH   6   8
ATOM      8  C   UNL     1      -3.168   5.660   0.403  1.00  0.00     0.066 A 
ATOM      9  C   UNL     1      -3.991   4.206   0.359  1.00  0.00     0.001 A 
ATOM     10  C   UNL     1      -5.391   4.334   0.236  1.00  0.00     0.008 A 
ATOM     11  C   UNL     1      -5.992   5.612   0.271  1.00  0.00     0.000 A 
ATOM     12  C   UNL     1      -3.893   6.846   0.578  1.00  0.00     0.016 A 
ATOM     13  C   UNL     1      -5.280   6.813   0.469  1.00  0.00     0.001 A 
BRANCH   9  14
ATOM     14  C   UNL     1      -3.402   2.418   0.280  1.00  0.00     0.197 C 
ATOM     15  N   UNL     1      -1.962   1.552   0.807  1.00  0.00    -0.236 N 
ATOM     16  C   UNL     1      -2.083   0.192   1.016  1.00  0.00     0.252 C 
ATOM     17  O   UNL     1      -1.209  -0.542   1.463  1.00  0.00    -0.272 OA
ATOM     18  C   UNL     1      -3.381  -0.304   0.451  1.00  0.00     0.174 C 
ATOM     19  S   UNL     1      -4.655   1.025   0.562  1.00  0.00    -0.120 SA
BRANCH  15  20
ATOM     20  N   UNL     1      -0.462   2.073   0.987  1.00  0.00    -0.270 N 
ATOM     21  H   UNL     1      -0.427   3.056   0.947  1.00  0.00     0.191 HD
BRANCH  20  22
ATOM     22  C   UNL     1       0.810   1.542   1.185  1.00  0.00     0.189 C 
ATOM     23  S   UNL     1       2.100   2.149   2.116  1.00  0.00    -0.039 S 
BRANCH  22  24
ATOM     24  N   UNL     1       1.535   1.077   0.133  1.00  0.00    -0.331 N 
ATOM     25  H   UNL     1       2.369   1.552  -0.086  1.00  0.00     0.169 HD
BRANCH  24  26
ATOM     26  C   UNL     1       1.202   0.006  -0.646  1.00  0.00     0.043 A 
ATOM     27  C   UNL     1       3.305  -1.185  -0.005  1.00  0.00     0.046 C 
ATOM     28  C   UNL     1       1.866  -1.180  -0.428  1.00  0.00    -0.028 A 
ATOM     29  C   UNL     1       1.083  -2.313  -0.581  1.00  0.00     0.005 A 
ATOM     30  C   UNL     1      -0.188  -2.218  -1.178  1.00  0.00     0.000 A 
ATOM     31  C   UNL     1       0.118   0.101  -1.470  1.00  0.00     0.026 A 
ATOM     32  C   UNL     1      -0.620  -1.020  -1.735  1.00  0.00     0.002 A 
ENDBRANCH  24  26
ENDBRANCH  22  24
ENDBRANCH  20  22
ENDBRANCH  15  20
ENDBRANCH   9  14
ENDBRANCH   6   8
ENDBRANCH   5   6
ENDBRANCH   4   5
ENDBRANCH   3   4
ENDBRANCH   2   3
ENDBRANCH   1   2
BRANCH   1  33
ATOM     33  C   UNL     1       0.265   5.382  -3.562  1.00  0.00     0.188 C 
BRANCH  33  34
ATOM     34  O   UNL     1       0.156   3.979  -3.291  1.00  0.00    -0.376 OA
BRANCH  34  35
ATOM     35  C   UNL     1       0.653   2.987  -4.155  1.00  0.00     0.202 C 
BRANCH  35  36
ATOM     36  C   UNL     1       0.483   3.415  -5.569  1.00  0.00     0.261 C 
BRANCH  36  37
ATOM     37  O   UNL     1      -0.917   3.567  -5.997  1.00  0.00    -0.460 OA
BRANCH  37  38
ATOM     38  C   UNL     1      -2.017   4.120  -5.404  1.00  0.00     0.338 C 
ATOM     39  O   UNL     1      -2.748   4.851  -6.072  1.00  0.00    -0.246 OA
BRANCH  38  40
ATOM     40  C   UNL     1      -2.421   3.826  -3.986  1.00  0.00     0.060 A 
ATOM     41  C   UNL     1      -3.021   4.826  -3.302  1.00  0.00     0.016 A 
ATOM     42  C   UNL     1      -2.124   2.713  -3.206  1.00  0.00     0.016 A 
ATOM     43  C   UNL     1      -2.845   4.831  -1.909  1.00  0.00     0.010 A 
ATOM     44  C   UNL     1      -1.827   2.823  -1.770  1.00  0.00     0.010 A 
ATOM     45  C   UNL     1      -2.006   3.946  -0.946  1.00  0.00    -0.014 A 
BRANCH  45  46
ATOM     46  C   UNL     1      -1.467   4.254   0.907  1.00  0.00     0.031 A 
ATOM     47  C   UNL     1      -2.405   3.665   2.326  1.00  0.00     0.074 A 
ATOM     48  C   UNL     1      -0.348   5.095   1.425  1.00  0.00     0.049 A 
ATOM     49  N   UNL     1      -1.704   3.163   3.272  1.00  0.00    -0.248 NA
ATOM     50  C   UNL     1      -3.844   3.205   2.686  1.00  0.00     0.031 C 
ATOM     51  C   UNL     1       0.628   4.932   2.525  1.00  0.00     0.029 A 
ATOM     52  N   UNL     1       0.362   6.209   0.857  1.00  0.00    -0.354 N 
ATOM     53  C   UNL     1      -2.352   2.066   3.848  1.00  0.00     0.074 A 
ATOM     54  C   UNL     1      -3.700   2.105   3.442  1.00  0.00     0.031 C 
ATOM     55  C   UNL     1       1.587   5.903   2.579  1.00  0.00     0.029 A 
ATOM     56  C   UNL     1       1.219   6.928   1.645  1.00  0.00     0.049 A 
ATOM     57  H   UNL     1       0.234   6.452  -0.089  1.00  0.00     0.167 HD
ATOM     58  C   UNL     1      -1.543   1.242   4.551  1.00  0.00     0.037 A 
ATOM     59  C   UNL     1       0.866   8.222   1.892  1.00  0.00     0.037 A 
ATOM     60  C   UNL     1      -0.458   2.102   5.040  1.00  0.00     0.049 A 
ATOM     61  C   UNL     1       0.212   8.093   3.281  1.00  0.00     0.074 A 
ATOM     62  C   UNL     1       0.909   2.161   5.016  1.00  0.00     0.029 A 
ATOM     63  N   UNL     1      -0.849   3.369   5.462  1.00  0.00    -0.354 N 
ATOM     64  N   UNL     1      -0.496   7.049   3.694  1.00  0.00    -0.248 NA
ATOM     65  C   UNL     1       0.767   8.862   4.391  1.00  0.00     0.031 C 
ATOM     66  C   UNL     1       1.290   3.542   5.274  1.00  0.00     0.029 A 
ATOM     67  C   UNL     1       0.140   4.320   5.448  1.00  0.00     0.049 A 
ATOM     68  H   UNL     1      -1.769   3.569   5.750  1.00  0.00     0.167 HD
ATOM     69  C   UNL     1      -0.223   6.828   5.038  1.00  0.00     0.074 A 
ATOM     70  C   UNL     1       0.529   8.031   5.417  1.00  0.00     0.031 C 
ATOM     71  C   UNL     1      -0.263   5.687   5.826  1.00  0.00     0.037 A 
BRANCH  58  72
ATOM     72  C   UNL     1      -1.644  -0.258   4.725  1.00  0.00     0.058 A 
ATOM     73  C   UNL     1      -0.666  -0.869   5.528  1.00  0.00     0.135 A 
ATOM     74  C   UNL     1      -2.504  -1.173   4.061  1.00  0.00     0.135 A 
ATOM     75  F   UNL     1       0.190  -0.138   6.252  1.00  0.00    -0.206 F 
ATOM     76  C   UNL     1      -0.520  -2.244   5.658  1.00  0.00     0.059 A 
ATOM     77  C   UNL     1      -2.369  -2.578   4.166  1.00  0.00     0.059 A 
ATOM     78  F   UNL     1      -3.510  -0.742   3.282  1.00  0.00    -0.206 F 
ATOM     79  C   UNL     1      -1.377  -3.100   4.989  1.00  0.00     0.060 A 
BRANCH  79  80
ATOM     80  S   UNL     1      -1.207  -4.862   5.338  1.00  0.00     0.124 S 
ATOM     81  O   UNL     1       0.186  -5.124   4.990  1.00  0.00    -0.237 OA
ATOM     82  O   UNL     1      -1.518  -4.909   6.764  1.00  0.00    -0.237 OA
ATOM     83  O   UNL     1      -2.195  -5.490   4.466  1.00  0.00    -0.744 OA
ENDBRANCH  79  80
ENDBRANCH  58  72
BRANCH  59  84
ATOM     84  C   UNL     1       0.526   9.007   0.615  1.00  0.00     0.058 A 
ATOM     85  C   UNL     1       1.458   8.987  -0.470  1.00  0.00     0.135 A 
ATOM     86  C   UNL     1      -0.743   9.479   0.266  1.00  0.00     0.135 A 
ATOM     87  F   UNL     1       2.740   8.646  -0.238  1.00  0.00    -0.206 F 
ATOM     88  C   UNL     1       1.096   9.163  -1.824  1.00  0.00     0.059 A 
ATOM     89  C   UNL     1      -1.128   9.688  -1.094  1.00  0.00     0.059 A 
ATOM     90  F   UNL     1      -1.708   9.522   1.198  1.00  0.00    -0.206 F 
ATOM     91  C   UNL     1      -0.237   9.401  -2.136  1.00  0.00     0.060 A 
BRANCH  91  92
ATOM     92  S   UNL     1      -0.893   8.967  -3.810  1.00  0.00     0.124 S 
ATOM     93  O   UNL     1      -1.201  10.278  -4.369  1.00  0.00    -0.237 OA
ATOM     94  O   UNL     1       0.228   8.280  -4.450  1.00  0.00    -0.237 OA
ATOM     95  O   UNL     1      -2.047   8.114  -3.549  1.00  0.00    -0.744 OA
ENDBRANCH  91  92
ENDBRANCH  59  84
BRANCH  71  96
ATOM     96  C   UNL     1      -0.969   5.809   7.178  1.00  0.00     0.058 A 
ATOM     97  C   UNL     1      -1.409   7.033   7.698  1.00  0.00     0.135 A 
ATOM     98  C   UNL     1      -1.306   4.674   7.977  1.00  0.00     0.135 A 
ATOM     99  F   UNL     1      -1.375   8.175   7.001  1.00  0.00    -0.206 F 
ATOM    100  C   UNL     1      -1.934   7.140   8.972  1.00  0.00     0.059 A 
ATOM    101  C   UNL     1      -1.963   4.751   9.182  1.00  0.00     0.059 A 
ATOM    102  F   UNL     1      -1.041   3.403   7.659  1.00  0.00    -0.206 F 
ATOM    103  C   UNL     1      -2.197   5.995   9.706  1.00  0.00     0.060 A 
BRANCH 103 104
ATOM    104  S   UNL     1      -2.843   6.150  11.354  1.00  0.00     0.124 S 
ATOM    105  O   UNL     1      -1.686   6.695  12.057  1.00  0.00    -0.237 OA
ATOM    106  O   UNL     1      -3.959   7.067  11.149  1.00  0.00    -0.237 OA
ATOM    107  O   UNL     1      -3.212   4.784  11.709  1.00  0.00    -0.744 OA
ENDBRANCH 103 104
ENDBRANCH  71  96
ENDBRANCH  45  46
ENDBRANCH  38  40
ENDBRANCH  37  38
ENDBRANCH  36  37
ENDBRANCH  35  36
ENDBRANCH  34  35
ENDBRANCH  33  34
ENDBRANCH   1  33
TORSDOF 25
