REMARK SMILES Cc1cccc(-n2c(C)cc(/C=N\c3ccc(O)c(C(=O)OCCOCCOCCOC(=O)c4ccc(-c5c6nc(c(-c7c(F)cc(S(=O)(=O)[O-])cc7F)c7ccc([nH]7)c(-c7c(F)cc(S(=O)(=O)[O-])cc7F)c7nc(c(-c8c(F)cc(S(=O)(=O)[O-])cc8F)c8ccc5[nH]8)C=C7)C=C6)cc4)c3)c2C)c1
REMARK SMILES IDX 26 1 25 2 24 3 23 4 22 5 20 6 21 7 19 8 14 9 15 10 100 11
REMARK SMILES IDX 16 12 17 13 13 14 12 15 11 16 7 17 8 18 101 19 9 20 10 21
REMARK SMILES IDX 102 22 6 23 1 24 2 25 3 26 103 27 4 28 5 29 18 30 27 32
REMARK SMILES IDX 28 33 29 34 30 35 31 36 32 37 33 38 34 39 35 40 99 41 36 42
REMARK SMILES IDX 98 43 37 44 38 45 39 46 92 47 40 48 97 49 91 50 93 51 41 52
REMARK SMILES IDX 96 53 90 54 89 55 42 57 76 58 55 59 75 60 56 61 59 62 74 63
REMARK SMILES IDX 94 64 57 65 58 66 73 68 95 69 60 70 43 71 44 72 53 73 45 74
REMARK SMILES IDX 46 75 52 76 54 77 47 78 48 79 49 80 50 81 51 82 77 83 78 84
REMARK SMILES IDX 87 85 79 86 80 87 86 88 88 89 81 90 82 91 83 92 84 93 85 94
REMARK SMILES IDX 61 95 62 96 71 97 63 98 64 99 70 100 72 101 65 102 66 103
REMARK SMILES IDX 67 104 68 105 69 106
REMARK H PARENT 18 31 93 56 59 67
REMARK Flexibility Score: inf
ROOT
ATOM      1  C   UNL     1      -8.006  -0.997   7.808  1.00  0.00     0.188 C 
ENDROOT
BRANCH   1   2
ATOM      2  O   UNL     1      -7.565  -2.159   7.075  1.00  0.00    -0.376 OA
BRANCH   2   3
ATOM      3  C   UNL     1      -6.360  -2.884   7.367  1.00  0.00     0.202 C 
BRANCH   3   4
ATOM      4  C   UNL     1      -5.117  -3.038   6.327  1.00  0.00     0.261 C 
BRANCH   4   5
ATOM      5  O   UNL     1      -4.449  -1.824   5.711  1.00  0.00    -0.460 OA
BRANCH   5   6
ATOM      6  C   UNL     1      -3.139  -1.520   5.494  1.00  0.00     0.342 C 
ATOM      7  O   UNL     1      -2.256  -2.327   5.777  1.00  0.00    -0.246 OA
BRANCH   6   8
ATOM      8  C   UNL     1      -2.694  -0.041   5.024  1.00  0.00     0.103 A 
ATOM      9  C   UNL     1      -2.837   2.268   3.884  1.00  0.00     0.064 A 
ATOM     10  C   UNL     1      -1.579   2.576   4.357  1.00  0.00     0.032 A 
ATOM     11  C   UNL     1      -3.372   0.987   4.279  1.00  0.00     0.048 A 
ATOM     12  C   UNL     1      -0.873   1.625   5.103  1.00  0.00     0.049 A 
ATOM     13  C   UNL     1      -1.403   0.349   5.398  1.00  0.00     0.130 A 
BRANCH   9  14
ATOM     14  N   UNL     1      -3.608   3.258   3.217  1.00  0.00    -0.256 NA
ATOM     15  C   UNL     1      -3.471   3.796   2.028  1.00  0.00     0.121 C 
BRANCH  15  16
ATOM     16  C   UNL     1      -2.622   3.477   0.868  1.00  0.00     0.014 A 
ATOM     17  N   UNL     1      -1.445   2.295  -0.674  1.00  0.00    -0.318 N 
ATOM     18  C   UNL     1      -1.483   3.592  -1.143  1.00  0.00     0.021 A 
ATOM     19  C   UNL     1      -2.152   2.230   0.510  1.00  0.00     0.029 A 
ATOM     20  C   UNL     1      -0.847   3.981  -2.436  1.00  0.00     0.065 C 
ATOM     21  C   UNL     1      -2.241   4.327  -0.234  1.00  0.00     0.033 A 
ATOM     22  C   UNL     1      -2.343   0.966   1.234  1.00  0.00     0.065 C 
BRANCH  17  23
ATOM     23  C   UNL     1      -0.655   1.216  -1.142  1.00  0.00     0.046 A 
ATOM     24  C   UNL     1       2.747  -0.029  -0.023  1.00  0.00     0.044 C 
ATOM     25  C   UNL     1       1.355   0.003  -0.576  1.00  0.00    -0.049 A 
ATOM     26  C   UNL     1       0.674  -1.199  -0.825  1.00  0.00     0.003 A 
ATOM     27  C   UNL     1       0.687   1.220  -0.749  1.00  0.00     0.030 A 
ATOM     28  C   UNL     1      -0.639  -1.191  -1.300  1.00  0.00     0.002 A 
ATOM     29  C   UNL     1      -1.302   0.020  -1.482  1.00  0.00     0.026 A 
ENDBRANCH  17  23
ENDBRANCH  15  16
ENDBRANCH   9  14
BRANCH  13  30
ATOM     30  O   UNL     1      -0.549  -0.475   6.089  1.00  0.00    -0.507 OA
ATOM     31  H   UNL     1       0.308  -0.175   6.319  1.00  0.00     0.293 HD
ENDBRANCH  13  30
ENDBRANCH   6   8
ENDBRANCH   5   6
ENDBRANCH   4   5
ENDBRANCH   3   4
ENDBRANCH   2   3
ENDBRANCH   1   2
BRANCH   1  32
ATOM     32  C   UNL     1      -7.628  -0.702   9.256  1.00  0.00     0.188 C 
BRANCH  32  33
ATOM     33  O   UNL     1      -6.224  -0.783   9.431  1.00  0.00    -0.376 OA
BRANCH  33  34
ATOM     34  C   UNL     1      -5.737  -0.367  10.695  1.00  0.00     0.202 C 
BRANCH  34  35
ATOM     35  C   UNL     1      -5.784   1.159  10.923  1.00  0.00     0.261 C 
BRANCH  35  36
ATOM     36  O   UNL     1      -4.780   1.860  10.144  1.00  0.00    -0.460 OA
BRANCH  36  37
ATOM     37  C   UNL     1      -5.209   2.823   9.239  1.00  0.00     0.338 C 
ATOM     38  O   UNL     1      -5.297   3.980   9.524  1.00  0.00    -0.246 OA
BRANCH  37  39
ATOM     39  C   UNL     1      -5.343   2.233   7.850  1.00  0.00     0.060 A 
ATOM     40  C   UNL     1      -6.013   2.775   6.742  1.00  0.00     0.016 A 
ATOM     41  C   UNL     1      -4.867   0.974   7.686  1.00  0.00     0.016 A 
ATOM     42  C   UNL     1      -6.318   1.978   5.553  1.00  0.00     0.010 A 
ATOM     43  C   UNL     1      -5.410   0.210   6.660  1.00  0.00     0.010 A 
ATOM     44  C   UNL     1      -6.075   0.603   5.492  1.00  0.00    -0.014 A 
BRANCH  44  45
ATOM     45  C   UNL     1      -6.531  -0.493   4.448  1.00  0.00     0.031 A 
ATOM     46  C   UNL     1      -5.670  -1.430   3.527  1.00  0.00     0.074 A 
ATOM     47  C   UNL     1      -7.809  -0.913   4.491  1.00  0.00     0.049 A 
ATOM     48  N   UNL     1      -5.603  -2.740   3.551  1.00  0.00    -0.248 NA
ATOM     49  C   UNL     1      -4.809  -0.928   2.458  1.00  0.00     0.031 C 
ATOM     50  C   UNL     1      -8.400  -2.120   3.914  1.00  0.00     0.029 A 
ATOM     51  N   UNL     1      -8.913  -0.170   4.889  1.00  0.00    -0.354 N 
ATOM     52  C   UNL     1      -4.569  -3.197   2.731  1.00  0.00     0.074 A 
ATOM     53  C   UNL     1      -4.042  -1.977   2.131  1.00  0.00     0.031 C 
ATOM     54  C   UNL     1      -9.689  -1.867   3.639  1.00  0.00     0.029 A 
ATOM     55  C   UNL     1      -9.906  -0.462   3.932  1.00  0.00     0.049 A 
ATOM     56  H   UNL     1      -8.986   0.429   5.667  1.00  0.00     0.167 HD
ATOM     57  C   UNL     1      -4.700  -4.309   1.942  1.00  0.00     0.037 A 
ATOM     58  C   UNL     1     -10.188   0.530   3.038  1.00  0.00     0.037 A 
ATOM     59  C   UNL     1      -6.010  -4.347   1.339  1.00  0.00     0.049 A 
ATOM     60  C   UNL     1      -9.652   0.196   1.654  1.00  0.00     0.074 A 
ATOM     61  C   UNL     1      -7.230  -4.910   1.650  1.00  0.00     0.029 A 
ATOM     62  N   UNL     1      -6.252  -3.413   0.354  1.00  0.00    -0.354 N 
ATOM     63  N   UNL     1      -8.940  -0.871   1.385  1.00  0.00    -0.248 NA
ATOM     64  C   UNL     1      -9.883   1.000   0.457  1.00  0.00     0.031 C 
ATOM     65  C   UNL     1      -8.229  -4.116   0.998  1.00  0.00     0.029 A 
ATOM     66  C   UNL     1      -7.596  -3.123   0.265  1.00  0.00     0.049 A 
ATOM     67  H   UNL     1      -5.556  -3.006  -0.211  1.00  0.00     0.167 HD
ATOM     68  C   UNL     1      -8.669  -0.939   0.053  1.00  0.00     0.074 A 
ATOM     69  C   UNL     1      -9.255   0.275  -0.489  1.00  0.00     0.031 C 
ATOM     70  C   UNL     1      -8.009  -1.979  -0.532  1.00  0.00     0.037 A 
BRANCH  57  71
ATOM     71  C   UNL     1      -3.557  -5.272   1.663  1.00  0.00     0.058 A 
ATOM     72  C   UNL     1      -3.796  -6.542   1.090  1.00  0.00     0.135 A 
ATOM     73  C   UNL     1      -2.213  -5.032   2.029  1.00  0.00     0.135 A 
ATOM     74  F   UNL     1      -5.033  -6.902   0.714  1.00  0.00    -0.206 F 
ATOM     75  C   UNL     1      -2.792  -7.509   0.921  1.00  0.00     0.059 A 
ATOM     76  C   UNL     1      -1.190  -5.983   1.866  1.00  0.00     0.059 A 
ATOM     77  F   UNL     1      -1.850  -3.858   2.570  1.00  0.00    -0.206 F 
ATOM     78  C   UNL     1      -1.491  -7.230   1.327  1.00  0.00     0.060 A 
BRANCH  78  79
ATOM     79  S   UNL     1      -0.228  -8.522   1.181  1.00  0.00     0.124 S 
ATOM     80  O   UNL     1      -0.736  -9.549   2.085  1.00  0.00    -0.237 OA
ATOM     81  O   UNL     1      -0.279  -8.851  -0.240  1.00  0.00    -0.237 OA
ATOM     82  O   UNL     1       0.997  -7.859   1.620  1.00  0.00    -0.744 OA
ENDBRANCH  78  79
ENDBRANCH  57  71
BRANCH  58  83
ATOM     83  C   UNL     1     -10.301   1.843   3.775  1.00  0.00     0.058 A 
ATOM     84  C   UNL     1     -11.169   1.840   4.902  1.00  0.00     0.135 A 
ATOM     85  C   UNL     1      -9.329   2.850   3.748  1.00  0.00     0.135 A 
ATOM     86  F   UNL     1     -12.136   0.910   4.997  1.00  0.00    -0.206 F 
ATOM     87  C   UNL     1     -10.942   2.626   6.028  1.00  0.00     0.059 A 
ATOM     88  C   UNL     1      -9.129   3.705   4.851  1.00  0.00     0.059 A 
ATOM     89  F   UNL     1      -8.463   2.927   2.726  1.00  0.00    -0.206 F 
ATOM     90  C   UNL     1      -9.880   3.518   6.015  1.00  0.00     0.060 A 
BRANCH  90  91
ATOM     91  S   UNL     1      -9.430   4.299   7.589  1.00  0.00     0.124 S 
ATOM     92  O   UNL     1     -10.694   4.902   8.003  1.00  0.00    -0.237 OA
ATOM     93  O   UNL     1      -8.996   3.147   8.379  1.00  0.00    -0.237 OA
ATOM     94  O   UNL     1      -8.385   5.240   7.206  1.00  0.00    -0.744 OA
ENDBRANCH  90  91
ENDBRANCH  58  83
BRANCH  70  95
ATOM     95  C   UNL     1      -7.730  -1.971  -1.993  1.00  0.00     0.058 A 
ATOM     96  C   UNL     1      -8.779  -1.972  -2.919  1.00  0.00     0.135 A 
ATOM     97  C   UNL     1      -6.417  -2.057  -2.491  1.00  0.00     0.135 A 
ATOM     98  F   UNL     1     -10.054  -1.920  -2.500  1.00  0.00    -0.206 F 
ATOM     99  C   UNL     1      -8.539  -2.012  -4.285  1.00  0.00     0.059 A 
ATOM    100  C   UNL     1      -6.154  -2.143  -3.851  1.00  0.00     0.059 A 
ATOM    101  F   UNL     1      -5.362  -2.046  -1.658  1.00  0.00    -0.206 F 
ATOM    102  C   UNL     1      -7.223  -2.090  -4.741  1.00  0.00     0.060 A 
BRANCH 102 103
ATOM    103  S   UNL     1      -6.902  -2.115  -6.513  1.00  0.00     0.124 S 
ATOM    104  O   UNL     1      -8.101  -2.748  -7.053  1.00  0.00    -0.237 OA
ATOM    105  O   UNL     1      -6.759  -0.690  -6.794  1.00  0.00    -0.237 OA
ATOM    106  O   UNL     1      -5.681  -2.907  -6.615  1.00  0.00    -0.744 OA
ENDBRANCH 102 103
ENDBRANCH  70  95
ENDBRANCH  44  45
ENDBRANCH  37  39
ENDBRANCH  36  37
ENDBRANCH  35  36
ENDBRANCH  34  35
ENDBRANCH  33  34
ENDBRANCH  32  33
ENDBRANCH   1  32
TORSDOF 24
