REMARK SMILES Cc1ncccc1OC1(C(=O)OCCOCCOCCOC(=O)c2ccc(-c3c4nc(c(-c5c(F)cc(S(=O)(=O)[O-])cc5F)c5ccc([nH]5)c(-c5c(F)cc(S(=O)(=O)[O-])cc5F)c5nc(c(-c6c(F)cc(S(=O)(=O)[O-])cc6F)c6ccc3[nH]6)C=C5)C=C4)cc2)CCN(C(=O)c2ccc(O)nn2)CC1
REMARK SMILES IDX 17 1 16 2 15 3 14 4 13 5 12 6 10 7 11 8 9 9 90 10 103 11
REMARK SMILES IDX 91 12 102 13 92 14 93 15 94 16 8 17 7 18 1 19 2 20 3 21 4 22
REMARK SMILES IDX 6 23 5 24 95 25 96 26 101 27 97 28 100 29 98 30 99 31 18 33
REMARK SMILES IDX 19 34 20 35 21 36 22 37 23 38 24 39 25 40 89 41 26 42 88 43
REMARK SMILES IDX 27 44 28 45 29 46 82 47 30 48 87 49 81 50 83 51 31 52 86 53
REMARK SMILES IDX 80 54 79 55 32 57 66 58 45 59 65 60 46 61 49 62 64 63 84 64
REMARK SMILES IDX 47 65 48 66 63 68 85 69 50 70 33 71 34 72 43 73 35 74 36 75
REMARK SMILES IDX 42 76 44 77 37 78 38 79 39 80 40 81 41 82 67 83 68 84 77 85
REMARK SMILES IDX 69 86 70 87 76 88 78 89 71 90 72 91 73 92 74 93 75 94 51 95
REMARK SMILES IDX 52 96 61 97 53 98 54 99 60 100 62 101 55 102 56 103 57 104
REMARK SMILES IDX 58 105 59 106
REMARK H PARENT 99 32 83 56 49 67
REMARK Flexibility Score: inf
ROOT
ATOM      1  C   UNL     1       2.564  -5.097   2.309  1.00  0.00     0.188 C 
ENDROOT
BRANCH   1   2
ATOM      2  C   UNL     1       1.788  -5.955   1.306  1.00  0.00     0.188 C 
BRANCH   2   3
ATOM      3  O   UNL     1       2.471  -7.013   0.656  1.00  0.00    -0.376 OA
BRANCH   3   4
ATOM      4  C   UNL     1       3.748  -6.748   0.095  1.00  0.00     0.202 C 
BRANCH   4   5
ATOM      5  C   UNL     1       3.856  -5.605  -0.921  1.00  0.00     0.261 C 
BRANCH   5   6
ATOM      6  O   UNL     1       3.584  -4.279  -0.410  1.00  0.00    -0.460 OA
BRANCH   6   7
ATOM      7  C   UNL     1       2.474  -3.640  -0.903  1.00  0.00     0.350 C 
ATOM      8  O   UNL     1       1.664  -4.197  -1.639  1.00  0.00    -0.247 OA
BRANCH   7   9
ATOM      9  C   UNL     1       2.443  -2.097  -0.583  1.00  0.00     0.209 C 
ATOM     10  C   UNL     1       3.036  -1.799   0.792  1.00  0.00     0.082 C 
ATOM     11  C   UNL     1       3.275  -1.588  -1.754  1.00  0.00     0.082 C 
ATOM     12  C   UNL     1       3.833  -0.514   0.951  1.00  0.00     0.124 C 
ATOM     13  C   UNL     1       3.858  -0.219  -1.585  1.00  0.00     0.124 C 
ATOM     14  N   UNL     1       4.371   0.111  -0.253  1.00  0.00    -0.337 N 
ATOM     15  C   UNL     1       5.086   1.310  -0.044  1.00  0.00     0.274 C 
ATOM     16  O   UNL     1       5.423   1.728   1.060  1.00  0.00    -0.267 OA
BRANCH   9  17
ATOM     17  O   UNL     1       1.034  -1.842  -0.736  1.00  0.00    -0.474 OA
BRANCH  17  18
ATOM     18  C   UNL     1       0.091  -0.952  -0.359  1.00  0.00     0.142 A 
ATOM     19  C   UNL     1       1.240   1.345  -0.190  1.00  0.00     0.071 C 
ATOM     20  C   UNL     1       0.085   0.423  -0.123  1.00  0.00     0.079 A 
ATOM     21  N   UNL     1      -1.057   1.139   0.120  1.00  0.00    -0.258 NA
ATOM     22  C   UNL     1      -2.239   0.502   0.127  1.00  0.00     0.111 A 
ATOM     23  C   UNL     1      -1.175  -1.567  -0.320  1.00  0.00     0.050 A 
ATOM     24  C   UNL     1      -2.348  -0.850  -0.078  1.00  0.00     0.024 A 
ENDBRANCH  17  18
ENDBRANCH   9  17
BRANCH  15  25
ATOM     25  C   UNL     1       5.507   2.058  -1.248  1.00  0.00     0.151 A 
ATOM     26  C   UNL     1       6.797   1.874  -1.712  1.00  0.00     0.042 A 
ATOM     27  N   UNL     1       4.532   2.672  -1.967  1.00  0.00    -0.142 NA
ATOM     28  C   UNL     1       7.082   2.318  -2.994  1.00  0.00     0.072 A 
ATOM     29  N   UNL     1       4.822   3.115  -3.218  1.00  0.00    -0.112 NA
ATOM     30  C   UNL     1       6.063   2.918  -3.701  1.00  0.00     0.230 A 
BRANCH  30  31
ATOM     31  O   UNL     1       6.260   3.313  -4.986  1.00  0.00    -0.492 OA
ATOM     32  H   UNL     1       7.101   3.205  -5.386  1.00  0.00     0.295 HD
ENDBRANCH  30  31
ENDBRANCH  15  25
ENDBRANCH   7   9
ENDBRANCH   6   7
ENDBRANCH   5   6
ENDBRANCH   4   5
ENDBRANCH   3   4
ENDBRANCH   2   3
ENDBRANCH   1   2
BRANCH   1  33
ATOM     33  O   UNL     1       3.862  -5.569   2.618  1.00  0.00    -0.376 OA
BRANCH  33  34
ATOM     34  C   UNL     1       4.329  -5.285   3.932  1.00  0.00     0.202 C 
BRANCH  34  35
ATOM     35  C   UNL     1       3.753  -6.254   4.980  1.00  0.00     0.261 C 
BRANCH  35  36
ATOM     36  O   UNL     1       2.315  -6.238   5.109  1.00  0.00    -0.460 OA
BRANCH  36  37
ATOM     37  C   UNL     1       1.740  -5.070   5.491  1.00  0.00     0.338 C 
ATOM     38  O   UNL     1       2.328  -4.072   5.877  1.00  0.00    -0.246 OA
BRANCH  37  39
ATOM     39  C   UNL     1       0.312  -5.094   5.060  1.00  0.00     0.060 A 
ATOM     40  C   UNL     1      -0.197  -3.984   4.364  1.00  0.00     0.016 A 
ATOM     41  C   UNL     1      -0.492  -6.221   5.247  1.00  0.00     0.016 A 
ATOM     42  C   UNL     1      -1.516  -3.982   3.896  1.00  0.00     0.010 A 
ATOM     43  C   UNL     1      -1.818  -6.209   4.797  1.00  0.00     0.010 A 
ATOM     44  C   UNL     1      -2.352  -5.077   4.151  1.00  0.00    -0.014 A 
BRANCH  44  45
ATOM     45  C   UNL     1      -3.824  -4.961   3.963  1.00  0.00     0.031 A 
ATOM     46  C   UNL     1      -4.663  -4.637   5.174  1.00  0.00     0.074 A 
ATOM     47  C   UNL     1      -4.422  -5.133   2.769  1.00  0.00     0.049 A 
ATOM     48  N   UNL     1      -5.964  -4.562   5.293  1.00  0.00    -0.248 NA
ATOM     49  C   UNL     1      -3.929  -4.366   6.420  1.00  0.00     0.031 C 
ATOM     50  C   UNL     1      -3.740  -5.406   1.506  1.00  0.00     0.029 A 
ATOM     51  N   UNL     1      -5.756  -5.118   2.432  1.00  0.00    -0.354 N 
ATOM     52  C   UNL     1      -6.203  -4.252   6.627  1.00  0.00     0.074 A 
ATOM     53  C   UNL     1      -4.915  -4.179   7.282  1.00  0.00     0.031 C 
ATOM     54  C   UNL     1      -4.661  -5.549   0.535  1.00  0.00     0.029 A 
ATOM     55  C   UNL     1      -6.000  -5.412   1.111  1.00  0.00     0.049 A 
ATOM     56  H   UNL     1      -6.471  -4.914   3.078  1.00  0.00     0.167 HD
ATOM     57  C   UNL     1      -7.385  -4.039   7.254  1.00  0.00     0.037 A 
ATOM     58  C   UNL     1      -7.166  -5.578   0.449  1.00  0.00     0.037 A 
ATOM     59  C   UNL     1      -8.669  -4.109   6.608  1.00  0.00     0.049 A 
ATOM     60  C   UNL     1      -8.476  -5.414   1.184  1.00  0.00     0.074 A 
ATOM     61  C   UNL     1      -9.919  -3.883   7.157  1.00  0.00     0.029 A 
ATOM     62  N   UNL     1      -8.871  -4.438   5.276  1.00  0.00    -0.354 N 
ATOM     63  N   UNL     1      -8.688  -5.094   2.439  1.00  0.00    -0.248 NA
ATOM     64  C   UNL     1      -9.709  -5.632   0.410  1.00  0.00     0.031 C 
ATOM     65  C   UNL     1     -10.881  -4.133   6.173  1.00  0.00     0.029 A 
ATOM     66  C   UNL     1     -10.227  -4.452   4.994  1.00  0.00     0.049 A 
ATOM     67  H   UNL     1      -8.157  -4.634   4.628  1.00  0.00     0.167 HD
ATOM     68  C   UNL     1     -10.072  -5.041   2.594  1.00  0.00     0.074 A 
ATOM     69  C   UNL     1     -10.648  -5.354   1.304  1.00  0.00     0.031 C 
ATOM     70  C   UNL     1     -10.798  -4.752   3.703  1.00  0.00     0.037 A 
BRANCH  57  71
ATOM     71  C   UNL     1      -7.345  -3.745   8.728  1.00  0.00     0.058 A 
ATOM     72  C   UNL     1      -6.855  -2.528   9.230  1.00  0.00     0.135 A 
ATOM     73  C   UNL     1      -7.826  -4.687   9.651  1.00  0.00     0.135 A 
ATOM     74  F   UNL     1      -6.364  -1.600   8.393  1.00  0.00    -0.206 F 
ATOM     75  C   UNL     1      -6.816  -2.269  10.596  1.00  0.00     0.059 A 
ATOM     76  C   UNL     1      -7.826  -4.437  11.020  1.00  0.00     0.059 A 
ATOM     77  F   UNL     1      -8.302  -5.868   9.226  1.00  0.00    -0.206 F 
ATOM     78  C   UNL     1      -7.304  -3.230  11.483  1.00  0.00     0.060 A 
BRANCH  78  79
ATOM     79  S   UNL     1      -7.244  -2.880  13.253  1.00  0.00     0.124 S 
ATOM     80  O   UNL     1      -5.814  -2.989  13.523  1.00  0.00    -0.237 OA
ATOM     81  O   UNL     1      -7.801  -1.532  13.322  1.00  0.00    -0.237 OA
ATOM     82  O   UNL     1      -8.075  -3.929  13.836  1.00  0.00    -0.744 OA
ENDBRANCH  78  79
ENDBRANCH  57  71
BRANCH  58  83
ATOM     83  C   UNL     1      -7.161  -5.933  -0.998  1.00  0.00     0.058 A 
ATOM     84  C   UNL     1      -7.613  -5.026  -1.969  1.00  0.00     0.135 A 
ATOM     85  C   UNL     1      -6.725  -7.193  -1.439  1.00  0.00     0.135 A 
ATOM     86  F   UNL     1      -8.061  -3.816  -1.598  1.00  0.00    -0.206 F 
ATOM     87  C   UNL     1      -7.642  -5.355  -3.321  1.00  0.00     0.059 A 
ATOM     88  C   UNL     1      -6.718  -7.536  -2.788  1.00  0.00     0.059 A 
ATOM     89  F   UNL     1      -6.284  -8.099  -0.553  1.00  0.00    -0.206 F 
ATOM     90  C   UNL     1      -7.186  -6.612  -3.721  1.00  0.00     0.060 A 
BRANCH  90  91
ATOM     91  S   UNL     1      -7.177  -7.008  -5.484  1.00  0.00     0.124 S 
ATOM     92  O   UNL     1      -8.600  -7.163  -5.760  1.00  0.00    -0.237 OA
ATOM     93  O   UNL     1      -6.541  -5.826  -6.058  1.00  0.00    -0.237 OA
ATOM     94  O   UNL     1      -6.384  -8.232  -5.550  1.00  0.00    -0.744 OA
ENDBRANCH  90  91
ENDBRANCH  58  83
BRANCH  70  95
ATOM     95  C   UNL     1     -12.299  -4.710   3.576  1.00  0.00     0.058 A 
ATOM     96  C   UNL     1     -13.066  -5.875   3.412  1.00  0.00     0.135 A 
ATOM     97  C   UNL     1     -12.986  -3.489   3.686  1.00  0.00     0.135 A 
ATOM     98  F   UNL     1     -12.464  -7.069   3.298  1.00  0.00    -0.206 F 
ATOM     99  C   UNL     1     -14.456  -5.828   3.339  1.00  0.00     0.059 A 
ATOM    100  C   UNL     1     -14.376  -3.422   3.646  1.00  0.00     0.059 A 
ATOM    101  F   UNL     1     -12.306  -2.344   3.858  1.00  0.00    -0.206 F 
ATOM    102  C   UNL     1     -15.102  -4.596   3.460  1.00  0.00     0.060 A 
BRANCH 102 103
ATOM    103  S   UNL     1     -16.907  -4.553   3.398  1.00  0.00     0.124 S 
ATOM    104  O   UNL     1     -17.159  -4.806   1.983  1.00  0.00    -0.237 OA
ATOM    105  O   UNL     1     -17.276  -5.632   4.310  1.00  0.00    -0.237 OA
ATOM    106  O   UNL     1     -17.232  -3.208   3.863  1.00  0.00    -0.744 OA
ENDBRANCH 102 103
ENDBRANCH  70  95
ENDBRANCH  44  45
ENDBRANCH  37  39
ENDBRANCH  36  37
ENDBRANCH  35  36
ENDBRANCH  34  35
ENDBRANCH  33  34
ENDBRANCH   1  33
TORSDOF 24
