REMARK SMILES O=C(/C=C\c1ccc(OCc2ccc(Br)cc2)cc1)OCCOCCOCCOC(=O)c1ccc(-c2c3nc(c(-c4c(F)cc(S(=O)(=O)[O-])cc4F)c4ccc([nH]4)c(-c4c(F)cc(S(=O)(=O)[O-])cc4F)c4nc(c(-c5c(F)cc(S(=O)(=O)[O-])cc5F)c5ccc2[nH]5)C=C4)C=C3)cc1
REMARK SMILES IDX 24 1 23 2 22 3 21 4 20 5 2 6 1 7 3 8 4 9 5 10 6 11 19 12
REMARK SMILES IDX 7 13 18 14 8 15 9 16 10 17 11 18 12 19 17 20 13 21 16 22
REMARK SMILES IDX 14 23 15 24 25 25 26 26 27 27 28 28 29 29 30 30 31 31 32 32
REMARK SMILES IDX 33 33 97 34 34 35 96 36 35 37 36 38 37 39 90 40 38 41 95 42
REMARK SMILES IDX 89 43 91 44 39 45 94 46 88 47 87 48 40 50 74 51 53 52 73 53
REMARK SMILES IDX 54 54 57 55 72 56 92 57 55 58 56 59 71 61 93 62 58 63 41 64
REMARK SMILES IDX 42 65 51 66 43 67 44 68 50 69 52 70 45 71 46 72 47 73 48 74
REMARK SMILES IDX 49 75 75 76 76 77 85 78 77 79 78 80 84 81 86 82 79 83 80 84
REMARK SMILES IDX 81 85 82 86 83 87 59 88 60 89 69 90 61 91 62 92 68 93 70 94
REMARK SMILES IDX 63 95 64 96 65 97 66 98 67 99
REMARK H PARENT 91 49 57 60
REMARK Flexibility Score: inf
ROOT
ATOM      1  C   UNL     1       1.124   0.360   1.828  1.00  0.00     0.188 C 
ENDROOT
BRANCH   1   2
ATOM      2  O   UNL     1       2.147  -0.634   1.777  1.00  0.00    -0.376 OA
BRANCH   2   3
ATOM      3  C   UNL     1       3.403  -0.242   1.222  1.00  0.00     0.202 C 
BRANCH   3   4
ATOM      4  C   UNL     1       3.351   0.514  -0.111  1.00  0.00     0.261 C 
BRANCH   4   5
ATOM      5  O   UNL     1       2.935  -0.271  -1.240  1.00  0.00    -0.460 OA
BRANCH   5   6
ATOM      6  C   UNL     1       3.503  -1.386  -1.730  1.00  0.00     0.330 C 
ATOM      7  O   UNL     1       2.948  -1.998  -2.641  1.00  0.00    -0.247 OA
BRANCH   6   8
ATOM      8  C   UNL     1       4.708  -1.996  -1.137  1.00  0.00     0.094 C 
ATOM      9  C   UNL     1       5.959  -1.592  -0.851  1.00  0.00     0.015 C 
BRANCH   9  10
ATOM     10  C   UNL     1       6.615  -0.295  -1.014  1.00  0.00    -0.025 A 
ATOM     11  C   UNL     1       7.272   0.021  -2.203  1.00  0.00     0.012 A 
ATOM     12  C   UNL     1       6.672   0.613   0.051  1.00  0.00     0.012 A 
ATOM     13  C   UNL     1       7.878   1.272  -2.357  1.00  0.00     0.047 A 
ATOM     14  C   UNL     1       7.222   1.887  -0.123  1.00  0.00     0.047 A 
ATOM     15  C   UNL     1       7.782   2.235  -1.348  1.00  0.00     0.119 A 
BRANCH  15  16
ATOM     16  O   UNL     1       8.198   3.485  -1.710  1.00  0.00    -0.489 OA
BRANCH  16  17
ATOM     17  C   UNL     1       7.554   4.611  -1.099  1.00  0.00     0.265 C 
BRANCH  17  18
ATOM     18  C   UNL     1       6.140   4.940  -1.564  1.00  0.00    -0.011 A 
ATOM     19  C   UNL     1       5.271   4.002  -2.141  1.00  0.00     0.008 A 
ATOM     20  C   UNL     1       5.648   6.239  -1.343  1.00  0.00     0.008 A 
ATOM     21  C   UNL     1       3.954   4.335  -2.469  1.00  0.00     0.016 A 
ATOM     22  C   UNL     1       4.335   6.582  -1.683  1.00  0.00     0.016 A 
ATOM     23  C   UNL     1       3.491   5.624  -2.238  1.00  0.00     0.017 A 
ATOM     24  Br  UNL     1       1.708   6.073  -2.673  1.00  0.00    -0.051 Br
ENDBRANCH  17  18
ENDBRANCH  16  17
ENDBRANCH  15  16
ENDBRANCH   9  10
ENDBRANCH   6   8
ENDBRANCH   5   6
ENDBRANCH   4   5
ENDBRANCH   3   4
ENDBRANCH   2   3
ENDBRANCH   1   2
BRANCH   1  25
ATOM     25  C   UNL     1       1.433   1.593   2.689  1.00  0.00     0.188 C 
BRANCH  25  26
ATOM     26  O   UNL     1       2.670   2.215   2.329  1.00  0.00    -0.376 OA
BRANCH  26  27
ATOM     27  C   UNL     1       3.276   2.917   3.414  1.00  0.00     0.202 C 
BRANCH  27  28
ATOM     28  C   UNL     1       4.192   2.063   4.317  1.00  0.00     0.261 C 
BRANCH  28  29
ATOM     29  O   UNL     1       3.805   0.689   4.473  1.00  0.00    -0.460 OA
BRANCH  29  30
ATOM     30  C   UNL     1       2.962   0.423   5.498  1.00  0.00     0.338 C 
ATOM     31  O   UNL     1       2.490   1.233   6.275  1.00  0.00    -0.246 OA
BRANCH  30  32
ATOM     32  C   UNL     1       2.575  -1.002   5.458  1.00  0.00     0.060 A 
ATOM     33  C   UNL     1       1.240  -1.317   5.182  1.00  0.00     0.016 A 
ATOM     34  C   UNL     1       3.483  -2.005   5.809  1.00  0.00     0.016 A 
ATOM     35  C   UNL     1       0.797  -2.633   5.299  1.00  0.00     0.010 A 
ATOM     36  C   UNL     1       3.029  -3.323   5.950  1.00  0.00     0.010 A 
ATOM     37  C   UNL     1       1.675  -3.631   5.738  1.00  0.00    -0.014 A 
BRANCH  37  38
ATOM     38  C   UNL     1       1.105  -4.917   6.209  1.00  0.00     0.031 A 
ATOM     39  C   UNL     1       0.655  -5.005   7.644  1.00  0.00     0.074 A 
ATOM     40  C   UNL     1       0.934  -5.959   5.378  1.00  0.00     0.049 A 
ATOM     41  N   UNL     1       0.053  -5.981   8.271  1.00  0.00    -0.248 NA
ATOM     42  C   UNL     1       0.911  -3.820   8.482  1.00  0.00     0.031 C 
ATOM     43  C   UNL     1       1.292  -5.977   3.961  1.00  0.00     0.029 A 
ATOM     44  N   UNL     1       0.405  -7.204   5.609  1.00  0.00    -0.354 N 
ATOM     45  C   UNL     1      -0.154  -5.526   9.568  1.00  0.00     0.074 A 
ATOM     46  C   UNL     1       0.413  -4.198   9.648  1.00  0.00     0.031 C 
ATOM     47  C   UNL     1       0.973  -7.179   3.447  1.00  0.00     0.029 A 
ATOM     48  C   UNL     1       0.401  -8.017   4.501  1.00  0.00     0.049 A 
ATOM     49  H   UNL     1       0.060  -7.487   6.486  1.00  0.00     0.167 HD
ATOM     50  C   UNL     1      -0.767  -6.154  10.600  1.00  0.00     0.037 A 
ATOM     51  C   UNL     1      -0.018  -9.290   4.360  1.00  0.00     0.037 A 
ATOM     52  C   UNL     1      -1.298  -7.488  10.525  1.00  0.00     0.049 A 
ATOM     53  C   UNL     1      -0.632  -9.998   5.541  1.00  0.00     0.074 A 
ATOM     54  C   UNL     1      -1.928  -8.224  11.512  1.00  0.00     0.029 A 
ATOM     55  N   UNL     1      -1.244  -8.294   9.397  1.00  0.00    -0.354 N 
ATOM     56  N   UNL     1      -0.853  -9.544   6.753  1.00  0.00    -0.248 NA
ATOM     57  C   UNL     1      -1.064 -11.387   5.333  1.00  0.00     0.031 C 
ATOM     58  C   UNL     1      -2.216  -9.492  10.993  1.00  0.00     0.029 A 
ATOM     59  C   UNL     1      -1.809  -9.528   9.668  1.00  0.00     0.049 A 
ATOM     60  H   UNL     1      -0.860  -8.027   8.530  1.00  0.00     0.167 HD
ATOM     61  C   UNL     1      -1.483 -10.578   7.440  1.00  0.00     0.074 A 
ATOM     62  C   UNL     1      -1.605 -11.681   6.508  1.00  0.00     0.031 C 
ATOM     63  C   UNL     1      -1.929 -10.609   8.721  1.00  0.00     0.037 A 
BRANCH  50  64
ATOM     64  C   UNL     1      -0.845  -5.408  11.902  1.00  0.00     0.058 A 
ATOM     65  C   UNL     1      -1.706  -4.311  12.074  1.00  0.00     0.135 A 
ATOM     66  C   UNL     1      -0.027  -5.774  12.982  1.00  0.00     0.135 A 
ATOM     67  F   UNL     1      -2.494  -3.905  11.066  1.00  0.00    -0.206 F 
ATOM     68  C   UNL     1      -1.723  -3.579  13.258  1.00  0.00     0.059 A 
ATOM     69  C   UNL     1      -0.045  -5.071  14.183  1.00  0.00     0.059 A 
ATOM     70  F   UNL     1       0.818  -6.811  12.868  1.00  0.00    -0.206 F 
ATOM     71  C   UNL     1      -0.880  -3.962  14.303  1.00  0.00     0.060 A 
BRANCH  71  72
ATOM     72  S   UNL     1      -0.880  -2.982  15.820  1.00  0.00     0.124 S 
ATOM     73  O   UNL     1      -0.119  -1.807  15.406  1.00  0.00    -0.237 OA
ATOM     74  O   UNL     1      -2.303  -2.763  16.055  1.00  0.00    -0.237 OA
ATOM     75  O   UNL     1      -0.215  -3.852  16.785  1.00  0.00    -0.744 OA
ENDBRANCH  71  72
ENDBRANCH  50  64
BRANCH  51  76
ATOM     76  C   UNL     1       0.111  -9.973   3.045  1.00  0.00     0.058 A 
ATOM     77  C   UNL     1      -1.017 -10.256   2.261  1.00  0.00     0.135 A 
ATOM     78  C   UNL     1       1.367 -10.348   2.543  1.00  0.00     0.135 A 
ATOM     79  F   UNL     1      -2.240  -9.929   2.704  1.00  0.00    -0.206 F 
ATOM     80  C   UNL     1      -0.907 -10.894   1.029  1.00  0.00     0.059 A 
ATOM     81  C   UNL     1       1.504 -10.968   1.304  1.00  0.00     0.059 A 
ATOM     82  F   UNL     1       2.478 -10.094   3.252  1.00  0.00    -0.206 F 
ATOM     83  C   UNL     1       0.359 -11.244   0.557  1.00  0.00     0.060 A 
BRANCH  83  84
ATOM     84  S   UNL     1       0.498 -12.023  -1.067  1.00  0.00     0.124 S 
ATOM     85  O   UNL     1       0.017 -13.371  -0.787  1.00  0.00    -0.237 OA
ATOM     86  O   UNL     1      -0.377 -11.189  -1.884  1.00  0.00    -0.237 OA
ATOM     87  O   UNL     1       1.921 -11.912  -1.371  1.00  0.00    -0.744 OA
ENDBRANCH  83  84
ENDBRANCH  51  76
BRANCH  63  88
ATOM     88  C   UNL     1      -2.633 -11.856   9.178  1.00  0.00     0.058 A 
ATOM     89  C   UNL     1      -1.937 -13.043   9.452  1.00  0.00     0.135 A 
ATOM     90  C   UNL     1      -4.021 -11.844   9.393  1.00  0.00     0.135 A 
ATOM     91  F   UNL     1      -0.610 -13.107   9.261  1.00  0.00    -0.206 F 
ATOM     92  C   UNL     1      -2.596 -14.184   9.899  1.00  0.00     0.059 A 
ATOM     93  C   UNL     1      -4.697 -12.966   9.863  1.00  0.00     0.059 A 
ATOM     94  F   UNL     1      -4.732 -10.730   9.160  1.00  0.00    -0.206 F 
ATOM     95  C   UNL     1      -3.977 -14.136  10.100  1.00  0.00     0.060 A 
BRANCH  95  96
ATOM     96  S   UNL     1      -4.821 -15.613  10.704  1.00  0.00     0.124 S 
ATOM     97  O   UNL     1      -4.891 -16.427   9.495  1.00  0.00    -0.237 OA
ATOM     98  O   UNL     1      -3.912 -16.094  11.740  1.00  0.00    -0.237 OA
ATOM     99  O   UNL     1      -6.097 -15.099  11.191  1.00  0.00    -0.744 OA
ENDBRANCH  95  96
ENDBRANCH  63  88
ENDBRANCH  37  38
ENDBRANCH  30  32
ENDBRANCH  29  30
ENDBRANCH  28  29
ENDBRANCH  27  28
ENDBRANCH  26  27
ENDBRANCH  25  26
ENDBRANCH   1  25
TORSDOF 24
