REMARK SMILES O=C(OCCOCCOCCOC(=O)[C@@H]1CCCC[C@H]1C(=O)Nc1ccc(NC(=O)c2ccco2)cc1)c1ccc(-c2c3nc(c(-c4c(F)cc(S(=O)(=O)[O-])cc4F)c4ccc([nH]4)c(-c4c(F)cc(S(=O)(=O)[O-])cc4F)c4nc(c(-c5c(F)cc(S(=O)(=O)[O-])cc5F)c5ccc2[nH]5)C=C4)C=C3)cc1
REMARK SMILES IDX 8 1 7 2 6 3 5 4 4 5 3 6 2 7 1 8 38 9 39 10 103 11 40 12
REMARK SMILES IDX 102 13 41 14 42 15 43 16 96 17 44 18 101 19 95 20 97 21
REMARK SMILES IDX 45 22 100 23 94 24 93 25 46 27 80 28 59 29 79 30 60 31 63 32
REMARK SMILES IDX 78 33 98 34 61 35 62 36 77 38 99 39 64 40 47 41 48 42 57 43
REMARK SMILES IDX 49 44 50 45 56 46 58 47 51 48 52 49 53 50 54 51 55 52 81 53
REMARK SMILES IDX 82 54 91 55 83 56 84 57 90 58 92 59 85 60 86 61 87 62 88 63
REMARK SMILES IDX 89 64 65 65 66 66 75 67 67 68 68 69 74 70 76 71 69 72 70 73
REMARK SMILES IDX 71 74 72 75 73 76 9 77 10 78 11 79 12 80 13 81 14 82 15 83
REMARK SMILES IDX 16 84 20 85 17 86 19 87 18 88 21 89 22 90 23 91 24 93 25 94
REMARK SMILES IDX 37 95 26 96 36 97 27 98 28 99 29 100 30 102 31 103 32 104
REMARK SMILES IDX 35 105 33 106 34 107
REMARK H PARENT 97 26 63 37 23 92 28 101
REMARK Flexibility Score: inf
ROOT
ATOM      1  C   UNL     1       2.526   2.708   1.400  1.00  0.00     0.188 C 
ENDROOT
BRANCH   1   2
ATOM      2  C   UNL     1       3.313   1.435   1.068  1.00  0.00     0.188 C 
BRANCH   2   3
ATOM      3  O   UNL     1       4.593   1.643   0.460  1.00  0.00    -0.376 OA
BRANCH   3   4
ATOM      4  C   UNL     1       4.565   2.019  -0.912  1.00  0.00     0.202 C 
BRANCH   4   5
ATOM      5  C   UNL     1       4.493   0.836  -1.883  1.00  0.00     0.261 C 
BRANCH   5   6
ATOM      6  O   UNL     1       3.217   0.174  -1.807  1.00  0.00    -0.460 OA
BRANCH   6   7
ATOM      7  C   UNL     1       2.913  -1.077  -1.385  1.00  0.00     0.338 C 
ATOM      8  O   UNL     1       1.877  -1.581  -1.822  1.00  0.00    -0.246 OA
BRANCH   7   9
ATOM      9  C   UNL     1       3.701  -1.855  -0.365  1.00  0.00     0.060 A 
ATOM     10  C   UNL     1       4.937  -1.504   0.181  1.00  0.00     0.016 A 
ATOM     11  C   UNL     1       3.113  -3.051   0.096  1.00  0.00     0.016 A 
ATOM     12  C   UNL     1       5.609  -2.350   1.070  1.00  0.00     0.010 A 
ATOM     13  C   UNL     1       3.755  -3.877   1.029  1.00  0.00     0.010 A 
ATOM     14  C   UNL     1       5.036  -3.551   1.485  1.00  0.00    -0.014 A 
BRANCH  14  15
ATOM     15  C   UNL     1       5.841  -4.508   2.281  1.00  0.00     0.031 A 
ATOM     16  C   UNL     1       6.376  -5.739   1.607  1.00  0.00     0.074 A 
ATOM     17  C   UNL     1       6.178  -4.240   3.557  1.00  0.00     0.049 A 
ATOM     18  N   UNL     1       7.147  -6.675   2.096  1.00  0.00    -0.248 NA
ATOM     19  C   UNL     1       6.035  -5.921   0.186  1.00  0.00     0.031 C 
ATOM     20  C   UNL     1       5.812  -3.031   4.291  1.00  0.00     0.029 A 
ATOM     21  N   UNL     1       6.894  -4.974   4.468  1.00  0.00    -0.354 N 
ATOM     22  C   UNL     1       7.447  -7.507   1.027  1.00  0.00     0.074 A 
ATOM     23  C   UNL     1       6.695  -7.030  -0.112  1.00  0.00     0.031 C 
ATOM     24  C   UNL     1       6.240  -3.141   5.561  1.00  0.00     0.029 A 
ATOM     25  C   UNL     1       6.899  -4.427   5.729  1.00  0.00     0.049 A 
ATOM     26  H   UNL     1       7.359  -5.812   4.242  1.00  0.00     0.167 HD
ATOM     27  C   UNL     1       8.320  -8.540   0.981  1.00  0.00     0.037 A 
ATOM     28  C   UNL     1       7.356  -4.919   6.895  1.00  0.00     0.037 A 
ATOM     29  C   UNL     1       9.042  -9.035   2.120  1.00  0.00     0.049 A 
ATOM     30  C   UNL     1       8.139  -6.198   6.877  1.00  0.00     0.074 A 
ATOM     31  C   UNL     1       9.932 -10.091   2.188  1.00  0.00     0.029 A 
ATOM     32  N   UNL     1       8.943  -8.510   3.401  1.00  0.00    -0.354 N 
ATOM     33  N   UNL     1       8.433  -6.961   5.852  1.00  0.00    -0.248 NA
ATOM     34  C   UNL     1       8.695  -6.658   8.155  1.00  0.00     0.031 C 
ATOM     35  C   UNL     1      10.349 -10.224   3.519  1.00  0.00     0.029 A 
ATOM     36  C   UNL     1       9.740  -9.232   4.272  1.00  0.00     0.049 A 
ATOM     37  H   UNL     1       8.387  -7.737   3.653  1.00  0.00     0.167 HD
ATOM     38  C   UNL     1       9.258  -7.959   6.349  1.00  0.00     0.074 A 
ATOM     39  C   UNL     1       9.397  -7.716   7.772  1.00  0.00     0.031 C 
ATOM     40  C   UNL     1       9.869  -8.969   5.682  1.00  0.00     0.037 A 
BRANCH  27  41
ATOM     41  C   UNL     1       8.551  -9.166  -0.361  1.00  0.00     0.058 A 
ATOM     42  C   UNL     1       9.319  -8.509  -1.337  1.00  0.00     0.135 A 
ATOM     43  C   UNL     1       7.990 -10.408  -0.690  1.00  0.00     0.135 A 
ATOM     44  F   UNL     1       9.856  -7.305  -1.079  1.00  0.00    -0.206 F 
ATOM     45  C   UNL     1       9.503  -9.051  -2.604  1.00  0.00     0.059 A 
ATOM     46  C   UNL     1       8.174 -10.977  -1.947  1.00  0.00     0.059 A 
ATOM     47  F   UNL     1       7.237 -11.067   0.204  1.00  0.00    -0.206 F 
ATOM     48  C   UNL     1       8.919 -10.283  -2.901  1.00  0.00     0.060 A 
BRANCH  48  49
ATOM     49  S   UNL     1       9.147 -10.965  -4.558  1.00  0.00     0.124 S 
ATOM     50  O   UNL     1       8.252 -10.122  -5.344  1.00  0.00    -0.237 OA
ATOM     51  O   UNL     1      10.574 -10.760  -4.788  1.00  0.00    -0.237 OA
ATOM     52  O   UNL     1       8.732 -12.357  -4.411  1.00  0.00    -0.744 OA
ENDBRANCH  48  49
ENDBRANCH  27  41
BRANCH  28  53
ATOM     53  C   UNL     1       7.058  -4.222   8.173  1.00  0.00     0.058 A 
ATOM     54  C   UNL     1       8.041  -3.521   8.884  1.00  0.00     0.135 A 
ATOM     55  C   UNL     1       5.767  -4.278   8.723  1.00  0.00     0.135 A 
ATOM     56  F   UNL     1       9.290  -3.443   8.400  1.00  0.00    -0.206 F 
ATOM     57  C   UNL     1       7.763  -2.920  10.108  1.00  0.00     0.059 A 
ATOM     58  C   UNL     1       5.461  -3.673   9.937  1.00  0.00     0.059 A 
ATOM     59  F   UNL     1       4.785  -4.921   8.071  1.00  0.00    -0.206 F 
ATOM     60  C   UNL     1       6.470  -3.007  10.630  1.00  0.00     0.060 A 
BRANCH  60  61
ATOM     61  S   UNL     1       6.110  -2.212  12.212  1.00  0.00     0.124 S 
ATOM     62  O   UNL     1       6.728  -3.139  13.152  1.00  0.00    -0.237 OA
ATOM     63  O   UNL     1       6.768  -0.918  12.062  1.00  0.00    -0.237 OA
ATOM     64  O   UNL     1       4.651  -2.164  12.235  1.00  0.00    -0.744 OA
ENDBRANCH  60  61
ENDBRANCH  28  53
BRANCH  40  65
ATOM     65  C   UNL     1      10.785  -9.846   6.479  1.00  0.00     0.058 A 
ATOM     66  C   UNL     1      10.291 -10.828   7.350  1.00  0.00     0.135 A 
ATOM     67  C   UNL     1      12.176  -9.710   6.354  1.00  0.00     0.135 A 
ATOM     68  F   UNL     1       8.967 -10.984   7.511  1.00  0.00    -0.206 F 
ATOM     69  C   UNL     1      11.148 -11.633   8.091  1.00  0.00     0.059 A 
ATOM     70  C   UNL     1      13.052 -10.519   7.069  1.00  0.00     0.059 A 
ATOM     71  F   UNL     1      12.695  -8.787   5.529  1.00  0.00    -0.206 F 
ATOM     72  C   UNL     1      12.527 -11.468   7.946  1.00  0.00     0.060 A 
BRANCH  72  73
ATOM     73  S   UNL     1      13.636 -12.531   8.893  1.00  0.00     0.124 S 
ATOM     74  O   UNL     1      13.631 -11.872  10.195  1.00  0.00    -0.237 OA
ATOM     75  O   UNL     1      12.964 -13.825   8.834  1.00  0.00    -0.237 OA
ATOM     76  O   UNL     1      14.892 -12.451   8.151  1.00  0.00    -0.744 OA
ENDBRANCH  72  73
ENDBRANCH  40  65
ENDBRANCH  14  15
ENDBRANCH   7   9
ENDBRANCH   6   7
ENDBRANCH   5   6
ENDBRANCH   4   5
ENDBRANCH   3   4
ENDBRANCH   2   3
ENDBRANCH   1   2
BRANCH   1  77
ATOM     77  O   UNL     1       2.905   3.442   2.562  1.00  0.00    -0.376 OA
BRANCH  77  78
ATOM     78  C   UNL     1       4.290   3.538   2.847  1.00  0.00     0.202 C 
BRANCH  78  79
ATOM     79  C   UNL     1       4.656   2.796   4.137  1.00  0.00     0.261 C 
BRANCH  79  80
ATOM     80  O   UNL     1       4.100   1.471   4.260  1.00  0.00    -0.463 OA
BRANCH  80  81
ATOM     81  C   UNL     1       2.891   1.418   4.883  1.00  0.00     0.309 C 
ATOM     82  O   UNL     1       2.187   2.388   5.141  1.00  0.00    -0.252 OA
BRANCH  81  83
ATOM     83  C   UNL     1       2.539   0.031   5.380  1.00  0.00     0.111 C 
ATOM     84  C   UNL     1       3.582  -0.459   6.388  1.00  0.00     0.016 C 
ATOM     85  C   UNL     1       2.250  -1.036   4.326  1.00  0.00     0.093 C 
ATOM     86  C   UNL     1       3.048  -1.688   7.116  1.00  0.00     0.001 C 
ATOM     87  C   UNL     1       1.804  -2.362   4.978  1.00  0.00     0.014 C 
ATOM     88  C   UNL     1       2.667  -2.812   6.157  1.00  0.00     0.001 C 
BRANCH  85  89
ATOM     89  C   UNL     1       1.331  -0.688   3.145  1.00  0.00     0.228 C 
ATOM     90  O   UNL     1       1.783  -0.777   1.996  1.00  0.00    -0.274 OA
ATOM     91  N   UNL     1      -0.006  -0.446   3.205  1.00  0.00    -0.326 N 
ATOM     92  H   UNL     1      -0.429  -0.234   2.341  1.00  0.00     0.169 HD
BRANCH  91  93
ATOM     93  C   UNL     1      -0.870  -0.452   4.294  1.00  0.00     0.041 A 
ATOM     94  C   UNL     1      -1.966  -1.303   4.252  1.00  0.00     0.028 A 
ATOM     95  C   UNL     1      -0.682   0.352   5.405  1.00  0.00     0.028 A 
ATOM     96  C   UNL     1      -2.720  -1.513   5.407  1.00  0.00     0.028 A 
ATOM     97  C   UNL     1      -1.403   0.108   6.574  1.00  0.00     0.028 A 
ATOM     98  C   UNL     1      -2.375  -0.894   6.608  1.00  0.00     0.041 A 
BRANCH  98  99
ATOM     99  N   UNL     1      -2.918  -1.197   7.867  1.00  0.00    -0.319 N 
ATOM    100  C   UNL     1      -3.730  -2.219   8.328  1.00  0.00     0.291 C 
ATOM    101  H   UNL     1      -2.670  -0.549   8.566  1.00  0.00     0.170 HD
ATOM    102  O   UNL     1      -4.081  -2.176   9.498  1.00  0.00    -0.265 OA
BRANCH 100 103
ATOM    103  C   UNL     1      -4.107  -3.294   7.441  1.00  0.00     0.191 A 
ATOM    104  C   UNL     1      -3.409  -4.376   6.937  1.00  0.00     0.056 A 
ATOM    105  O   UNL     1      -5.382  -3.298   6.944  1.00  0.00    -0.459 OA
ATOM    106  C   UNL     1      -4.293  -5.050   6.056  1.00  0.00     0.043 A 
ATOM    107  C   UNL     1      -5.480  -4.358   6.101  1.00  0.00     0.196 A 
ENDBRANCH 100 103
ENDBRANCH  98  99
ENDBRANCH  91  93
ENDBRANCH  85  89
ENDBRANCH  81  83
ENDBRANCH  80  81
ENDBRANCH  79  80
ENDBRANCH  78  79
ENDBRANCH  77  78
ENDBRANCH   1  77
TORSDOF 24
