REMARK SMILES Cc1ccc(S(=O)(=O)n2cc(C(=O)C(=O)NCC(=O)N[C@H](Cc3c[nH]c4ccccc34)C(=O)OCCOCCOCCOC(=O)c3ccc(-c4c5nc(c(-c6c(F)cc(S(=O)(=O)[O-])cc6F)c6ccc([nH]6)c(-c6c(F)cc(S(=O)(=O)[O-])cc6F)c6nc(c(-c7c(F)cc(S(=O)(=O)[O-])cc7F)c7ccc4[nH]7)C=C6)C=C5)cc3)c3ccccc32)cc1
REMARK SMILES IDX 36 1 35 2 34 3 32 4 33 5 21 6 20 7 18 8 19 9 17 11 16 12
REMARK SMILES IDX 14 13 15 14 12 16 13 17 11 18 9 19 10 20 117 21 112 22
REMARK SMILES IDX 116 23 113 24 115 25 114 26 6 27 7 28 8 29 5 30 1 31 2 32
REMARK SMILES IDX 3 33 119 34 4 35 118 36 22 37 23 38 24 39 31 40 25 41 26 42
REMARK SMILES IDX 30 43 27 45 29 46 28 47 37 48 38 49 39 50 40 51 41 52 42 53
REMARK SMILES IDX 43 54 44 55 45 56 46 57 47 58 111 59 48 60 110 61 49 62
REMARK SMILES IDX 50 63 51 64 104 65 52 66 109 67 103 68 105 69 53 70 108 71
REMARK SMILES IDX 102 72 101 73 54 75 88 76 67 77 87 78 68 79 71 80 86 81
REMARK SMILES IDX 106 82 69 83 70 84 85 86 107 87 72 88 55 89 56 90 65 91
REMARK SMILES IDX 57 92 58 93 64 94 66 95 59 96 60 97 61 98 62 99 63 100
REMARK SMILES IDX 89 101 90 102 99 103 91 104 92 105 98 106 100 107 93 108
REMARK SMILES IDX 94 109 95 110 96 111 97 112 73 113 74 114 83 115 75 116
REMARK SMILES IDX 76 117 82 118 84 119 77 120 78 121 79 122 80 123 81 124
REMARK H PARENT 20 10 16 15 25 44 105 74 71 85
REMARK Flexibility Score: inf
ROOT
ATOM      1  C   UNL     1      -9.602  -3.547   5.484  1.00  0.00     0.202 C 
ENDROOT
BRANCH   1   2
ATOM      2  C   UNL     1      -9.727  -2.031   5.439  1.00  0.00     0.261 C 
BRANCH   2   3
ATOM      3  O   UNL     1      -9.779  -1.185   4.195  1.00  0.00    -0.462 OA
BRANCH   3   4
ATOM      4  C   UNL     1      -9.464  -0.652   2.994  1.00  0.00     0.329 C 
ATOM      5  O   UNL     1      -8.558  -1.058   2.304  1.00  0.00    -0.250 OA
BRANCH   4   6
ATOM      6  C   UNL     1     -10.110   0.636   2.432  1.00  0.00     0.196 C 
BRANCH   6   7
ATOM      7  N   UNL     1      -8.401   1.557   2.241  1.00  0.00    -0.341 N 
ATOM      8  C   UNL     1      -7.503   2.619   2.376  1.00  0.00     0.240 C 
ATOM      9  O   UNL     1      -7.940   3.657   2.920  1.00  0.00    -0.273 OA
ATOM     10  H   UNL     1      -7.853   0.881   1.782  1.00  0.00     0.164 HD
BRANCH   8  11
ATOM     11  C   UNL     1      -6.080   2.728   1.881  1.00  0.00     0.216 C 
BRANCH  11  12
ATOM     12  N   UNL     1      -5.428   1.470   1.768  1.00  0.00    -0.340 N 
ATOM     13  C   UNL     1      -5.355   0.751   0.595  1.00  0.00     0.292 C 
ATOM     14  O   UNL     1      -4.438  -0.021   0.342  1.00  0.00    -0.265 OA
ATOM     15  H   UNL     1      -5.005   1.092   2.573  1.00  0.00     0.164 HD
BRANCH  13  16
ATOM     16  C   UNL     1      -6.557   0.864  -0.344  1.00  0.00     0.252 C 
ATOM     17  O   UNL     1      -7.170   1.937  -0.316  1.00  0.00    -0.283 OA
BRANCH  16  18
ATOM     18  C   UNL     1      -7.056  -0.132  -1.286  1.00  0.00     0.054 A 
ATOM     19  N   UNL     1      -8.187  -1.781  -2.330  1.00  0.00    -0.240 N 
ATOM     20  C   UNL     1      -6.973  -1.479  -1.639  1.00  0.00     0.117 A 
ATOM     21  C   UNL     1      -8.790  -0.524  -2.584  1.00  0.00     0.065 A 
ATOM     22  C   UNL     1      -7.752   0.358  -2.386  1.00  0.00     0.012 A 
ATOM     23  C   UNL     1      -9.880  -0.154  -3.378  1.00  0.00     0.028 A 
ATOM     24  C   UNL     1      -7.602   1.498  -3.171  1.00  0.00     0.011 A 
ATOM     25  C   UNL     1      -9.558   0.785  -4.365  1.00  0.00     0.002 A 
ATOM     26  C   UNL     1      -8.420   1.584  -4.279  1.00  0.00     0.001 A 
BRANCH  19  27
ATOM     27  S   UNL     1      -8.282  -2.809  -3.716  1.00  0.00     0.268 S 
ATOM     28  O   UNL     1      -7.185  -2.288  -4.527  1.00  0.00    -0.201 OA
ATOM     29  O   UNL     1      -9.659  -2.601  -4.163  1.00  0.00    -0.201 OA
BRANCH  27  30
ATOM     30  C   UNL     1      -8.169  -4.539  -3.979  1.00  0.00     0.088 A 
ATOM     31  C   UNL     1      -9.017  -8.412  -5.635  1.00  0.00     0.044 C 
ATOM     32  C   UNL     1      -8.710  -7.097  -5.001  1.00  0.00    -0.051 A 
ATOM     33  C   UNL     1      -8.963  -5.989  -5.785  1.00  0.00     0.005 A 
ATOM     34  C   UNL     1      -8.184  -6.929  -3.702  1.00  0.00     0.005 A 
ATOM     35  C   UNL     1      -8.657  -4.753  -5.290  1.00  0.00     0.022 A 
ATOM     36  C   UNL     1      -7.892  -5.642  -3.184  1.00  0.00     0.022 A 
ENDBRANCH  27  30
ENDBRANCH  19  27
ENDBRANCH  16  18
ENDBRANCH  13  16
ENDBRANCH  11  12
ENDBRANCH   8  11
ENDBRANCH   6   7
BRANCH   6  37
ATOM     37  C   UNL     1     -11.938   1.738   2.959  1.00  0.00     0.074 C 
BRANCH  37  38
ATOM     38  C   UNL     1     -13.231   1.564   4.143  1.00  0.00    -0.020 A 
ATOM     39  C   UNL     1     -13.206   1.765   5.518  1.00  0.00     0.087 A 
ATOM     40  C   UNL     1     -14.457   0.872   3.871  1.00  0.00     0.003 A 
ATOM     41  N   UNL     1     -13.909   0.695   6.023  1.00  0.00    -0.361 N 
ATOM     42  C   UNL     1     -14.728   0.178   5.051  1.00  0.00     0.046 A 
ATOM     43  C   UNL     1     -15.100   0.490   2.681  1.00  0.00     0.010 A 
ATOM     44  H   UNL     1     -13.835   0.352   6.943  1.00  0.00     0.166 HD
ATOM     45  C   UNL     1     -15.550  -0.946   5.084  1.00  0.00     0.026 A 
ATOM     46  C   UNL     1     -15.917  -0.639   2.697  1.00  0.00     0.001 A 
ATOM     47  C   UNL     1     -16.124  -1.351   3.877  1.00  0.00     0.002 A 
ENDBRANCH  37  38
ENDBRANCH   6  37
ENDBRANCH   4   6
ENDBRANCH   3   4
ENDBRANCH   2   3
ENDBRANCH   1   2
BRANCH   1  48
ATOM     48  O   UNL     1      -9.459  -4.376   4.365  1.00  0.00    -0.376 OA
BRANCH  48  49
ATOM     49  C   UNL     1      -9.623  -3.808   3.101  1.00  0.00     0.188 C 
BRANCH  49  50
ATOM     50  C   UNL     1     -10.901  -3.115   2.765  1.00  0.00     0.188 C 
BRANCH  50  51
ATOM     51  O   UNL     1     -11.555  -2.726   3.947  1.00  0.00    -0.376 OA
BRANCH  51  52
ATOM     52  C   UNL     1     -12.812  -3.230   4.235  1.00  0.00     0.202 C 
BRANCH  52  53
ATOM     53  C   UNL     1     -13.512  -3.523   2.938  1.00  0.00     0.261 C 
BRANCH  53  54
ATOM     54  O   UNL     1     -13.501  -2.399   1.804  1.00  0.00    -0.460 OA
BRANCH  54  55
ATOM     55  C   UNL     1     -13.009  -1.269   1.114  1.00  0.00     0.338 C 
ATOM     56  O   UNL     1     -13.427  -1.100  -0.033  1.00  0.00    -0.246 OA
BRANCH  55  57
ATOM     57  C   UNL     1     -12.115  -0.089   1.679  1.00  0.00     0.060 A 
ATOM     58  C   UNL     1     -11.385   1.412   0.975  1.00  0.00     0.016 A 
ATOM     59  C   UNL     1     -11.942  -0.343   3.315  1.00  0.00     0.016 A 
ATOM     60  C   UNL     1     -10.393   2.509   2.083  1.00  0.00     0.010 A 
ATOM     61  C   UNL     1     -11.008   0.600   4.435  1.00  0.00     0.010 A 
ATOM     62  C   UNL     1     -10.082   1.903   3.873  1.00  0.00    -0.014 A 
BRANCH  62  63
ATOM     63  C   UNL     1      -8.635   1.264   4.848  1.00  0.00     0.031 A 
ATOM     64  C   UNL     1      -8.812   2.490   5.742  1.00  0.00     0.074 A 
ATOM     65  C   UNL     1      -7.690  -0.008   4.985  1.00  0.00     0.049 A 
ATOM     66  N   UNL     1      -7.941   3.368   6.120  1.00  0.00    -0.248 NA
ATOM     67  C   UNL     1     -10.174   3.139   5.985  1.00  0.00     0.031 C 
ATOM     68  C   UNL     1      -6.949  -0.792   6.129  1.00  0.00     0.029 A 
ATOM     69  N   UNL     1      -7.310  -1.153   4.107  1.00  0.00    -0.354 N 
ATOM     70  C   UNL     1      -8.582   3.847   7.254  1.00  0.00     0.074 A 
ATOM     71  C   UNL     1      -9.904   4.124   6.826  1.00  0.00     0.031 C 
ATOM     72  C   UNL     1      -6.062  -1.785   5.780  1.00  0.00     0.029 A 
ATOM     73  C   UNL     1      -6.261  -2.074   4.394  1.00  0.00     0.049 A 
ATOM     74  H   UNL     1      -7.819  -1.282   3.274  1.00  0.00     0.167 HD
ATOM     75  C   UNL     1      -8.327   3.167   8.414  1.00  0.00     0.037 A 
ATOM     76  C   UNL     1      -5.292  -2.434   3.487  1.00  0.00     0.037 A 
ATOM     77  C   UNL     1      -7.265   2.143   8.248  1.00  0.00     0.049 A 
ATOM     78  C   UNL     1      -4.446  -1.091   3.664  1.00  0.00     0.074 A 
ATOM     79  C   UNL     1      -7.024   0.866   8.693  1.00  0.00     0.029 A 
ATOM     80  N   UNL     1      -6.267   2.356   7.287  1.00  0.00    -0.354 N 
ATOM     81  N   UNL     1      -4.966   0.012   4.200  1.00  0.00    -0.248 NA
ATOM     82  C   UNL     1      -2.986  -1.030   3.717  1.00  0.00     0.031 C 
ATOM     83  C   UNL     1      -5.746   0.458   8.131  1.00  0.00     0.029 A 
ATOM     84  C   UNL     1      -5.397   1.314   7.079  1.00  0.00     0.049 A 
ATOM     85  H   UNL     1      -6.194   3.203   6.790  1.00  0.00     0.167 HD
ATOM     86  C   UNL     1      -4.051   0.612   5.026  1.00  0.00     0.074 A 
ATOM     87  C   UNL     1      -2.800  -0.005   4.576  1.00  0.00     0.031 C 
ATOM     88  C   UNL     1      -4.292   1.474   6.088  1.00  0.00     0.037 A 
BRANCH  75  89
ATOM     89  C   UNL     1      -9.088   3.451   9.687  1.00  0.00     0.058 A 
ATOM     90  C   UNL     1      -8.367   3.240  10.868  1.00  0.00     0.135 A 
ATOM     91  C   UNL     1     -10.376   4.032   9.859  1.00  0.00     0.135 A 
ATOM     92  F   UNL     1      -7.167   2.647  10.850  1.00  0.00    -0.206 F 
ATOM     93  C   UNL     1      -8.818   3.665  12.106  1.00  0.00     0.059 A 
ATOM     94  C   UNL     1     -10.831   4.509  11.090  1.00  0.00     0.059 A 
ATOM     95  F   UNL     1     -11.272   4.140   8.867  1.00  0.00    -0.206 F 
ATOM     96  C   UNL     1     -10.030   4.332  12.205  1.00  0.00     0.060 A 
BRANCH  96  97
ATOM     97  S   UNL     1     -10.521   4.933  13.822  1.00  0.00     0.124 S 
ATOM     98  O   UNL     1     -10.615   3.688  14.578  1.00  0.00    -0.237 OA
ATOM     99  O   UNL     1      -9.407   5.809  14.169  1.00  0.00    -0.237 OA
ATOM    100  O   UNL     1     -11.791   5.606  13.567  1.00  0.00    -0.744 OA
ENDBRANCH  96  97
ENDBRANCH  75  89
BRANCH  76 101
ATOM    101  C   UNL     1      -5.909  -3.096   2.195  1.00  0.00     0.058 A 
ATOM    102  C   UNL     1      -6.320  -4.443   1.933  1.00  0.00     0.135 A 
ATOM    103  C   UNL     1      -6.594  -2.231   1.400  1.00  0.00     0.135 A 
ATOM    104  F   UNL     1      -5.700  -5.461   2.551  1.00  0.00    -0.206 F 
ATOM    105  C   UNL     1      -7.430  -4.818   1.056  1.00  0.00     0.059 A 
ATOM    106  C   UNL     1      -7.756  -2.558   0.666  1.00  0.00     0.059 A 
ATOM    107  F   UNL     1      -6.347  -0.950   1.593  1.00  0.00    -0.206 F 
ATOM    108  C   UNL     1      -8.202  -3.832   0.463  1.00  0.00     0.060 A 
BRANCH 108 109
ATOM    109  S   UNL     1      -9.887  -3.999  -0.276  1.00  0.00     0.124 S 
ATOM    110  O   UNL     1      -9.571  -4.383  -1.628  1.00  0.00    -0.237 OA
ATOM    111  O   UNL     1     -10.545  -5.026   0.517  1.00  0.00    -0.237 OA
ATOM    112  O   UNL     1     -10.438  -2.653  -0.158  1.00  0.00    -0.744 OA
ENDBRANCH 108 109
ENDBRANCH  76 101
BRANCH  88 113
ATOM    113  C   UNL     1      -3.350   2.640   6.313  1.00  0.00     0.058 A 
ATOM    114  C   UNL     1      -2.313   2.954   5.425  1.00  0.00     0.135 A 
ATOM    115  C   UNL     1      -3.518   3.563   7.380  1.00  0.00     0.135 A 
ATOM    116  F   UNL     1      -2.201   2.388   4.217  1.00  0.00    -0.206 F 
ATOM    117  C   UNL     1      -1.362   3.911   5.715  1.00  0.00     0.059 A 
ATOM    118  C   UNL     1      -2.665   4.627   7.601  1.00  0.00     0.059 A 
ATOM    119  F   UNL     1      -4.526   3.513   8.257  1.00  0.00    -0.206 F 
ATOM    120  C   UNL     1      -1.546   4.741   6.808  1.00  0.00     0.060 A 
BRANCH 120 121
ATOM    121  S   UNL     1      -0.324   6.000   7.121  1.00  0.00     0.124 S 
ATOM    122  O   UNL     1       0.818   5.191   7.536  1.00  0.00    -0.237 OA
ATOM    123  O   UNL     1      -0.210   6.636   5.813  1.00  0.00    -0.237 OA
ATOM    124  O   UNL     1      -0.931   6.817   8.166  1.00  0.00    -0.744 OA
ENDBRANCH 120 121
ENDBRANCH  88 113
ENDBRANCH  62  63
ENDBRANCH  55  57
ENDBRANCH  54  55
ENDBRANCH  53  54
ENDBRANCH  52  53
ENDBRANCH  51  52
ENDBRANCH  50  51
ENDBRANCH  49  50
ENDBRANCH  48  49
ENDBRANCH   1  48
TORSDOF 29
