REMARK SMILES C[NH+]1CCN(C(=O)c2ccc3c(c2)N(CC(=O)OCCOCCOCCOC(=O)c2ccc(-c4c5nc(c(-c6c(F)cc(S(=O)(=O)[O-])cc6F)c6ccc([nH]6)c(-c6c(F)cc(S(=O)(=O)[O-])cc6F)c6nc(c(-c7c(F)cc(S(=O)(=O)[O-])cc7F)c7ccc4[nH]7)C=C6)C=C5)cc2)C(=O)CO3)CC1
REMARK SMILES IDX 23 1 22 2 21 3 20 4 19 5 18 6 16 7 17 8 15 9 14 10 8 11 9 12
REMARK SMILES IDX 13 13 10 14 12 15 11 16 99 17 96 18 98 19 97 20 6 21 1 22
REMARK SMILES IDX 2 23 3 24 101 25 4 27 100 28 5 29 7 30 24 31 25 32 26 33
REMARK SMILES IDX 27 34 28 35 29 36 30 37 31 38 95 39 32 40 94 41 33 42 34 43
REMARK SMILES IDX 35 44 88 45 36 46 93 47 87 48 89 49 37 50 92 51 86 52 85 53
REMARK SMILES IDX 38 55 72 56 51 57 71 58 52 59 55 60 70 61 90 62 53 63 54 64
REMARK SMILES IDX 69 66 91 67 56 68 39 69 40 70 49 71 41 72 42 73 48 74 50 75
REMARK SMILES IDX 43 76 44 77 45 78 46 79 47 80 73 81 74 82 83 83 75 84 76 85
REMARK SMILES IDX 82 86 84 87 77 88 78 89 79 90 80 91 81 92 57 93 58 94 67 95
REMARK SMILES IDX 59 96 60 97 66 98 68 99 61 100 62 101 63 102 64 103 65 104
REMARK H PARENT 2 26 89 54 55 65
REMARK Flexibility Score: inf
ROOT
ATOM      1  C   UNL     1       0.063  -3.858  -0.205  1.00  0.00     0.188 C 
ENDROOT
BRANCH   1   2
ATOM      2  C   UNL     1       1.331  -4.158   0.547  1.00  0.00     0.188 C 
BRANCH   2   3
ATOM      3  O   UNL     1       1.791  -5.485   0.473  1.00  0.00    -0.376 OA
BRANCH   3   4
ATOM      4  C   UNL     1       0.807  -6.510   0.614  1.00  0.00     0.202 C 
BRANCH   4   5
ATOM      5  C   UNL     1      -0.070  -6.514   1.897  1.00  0.00     0.261 C 
BRANCH   5   6
ATOM      6  O   UNL     1      -1.321  -5.728   1.863  1.00  0.00    -0.462 OA
BRANCH   6   7
ATOM      7  C   UNL     1      -1.601  -5.015   3.002  1.00  0.00     0.326 C 
ATOM      8  O   UNL     1      -0.812  -4.965   3.949  1.00  0.00    -0.250 OA
BRANCH   7   9
ATOM      9  C   UNL     1      -2.945  -4.168   3.073  1.00  0.00     0.248 C 
BRANCH   9  10
ATOM     10  N   UNL     1      -4.196  -4.284   2.308  1.00  0.00    -0.295 N 
ATOM     11  C   UNL     1      -4.651  -1.320  -0.211  1.00  0.00     0.042 A 
ATOM     12  C   UNL     1      -5.848  -1.762  -0.774  1.00  0.00     0.018 A 
ATOM     13  C   UNL     1      -4.377  -1.994   1.053  1.00  0.00     0.044 A 
ATOM     14  C   UNL     1      -6.550  -2.877  -0.245  1.00  0.00     0.049 A 
ATOM     15  C   UNL     1      -4.870  -3.284   1.450  1.00  0.00     0.087 A 
ATOM     16  C   UNL     1      -6.036  -3.667   0.800  1.00  0.00     0.143 A 
ATOM     17  O   UNL     1      -6.729  -4.815   1.076  1.00  0.00    -0.482 OA
ATOM     18  C   UNL     1      -4.867  -5.475   2.600  1.00  0.00     0.265 C 
ATOM     19  C   UNL     1      -6.345  -5.448   2.283  1.00  0.00     0.330 C 
ATOM     20  O   UNL     1      -4.346  -6.425   3.187  1.00  0.00    -0.270 OA
BRANCH  11  21
ATOM     21  C   UNL     1      -3.960  -0.034  -0.914  1.00  0.00     0.254 C 
ATOM     22  C   UNL     1       1.502   1.241  -0.652  1.00  0.00     0.332 C 
ATOM     23  N   UNL     1       0.342   1.024  -1.549  1.00  0.00    -0.334 N 
ATOM     24  C   UNL     1      -0.740   1.995  -1.266  1.00  0.00     0.283 C 
ATOM     25  C   UNL     1      -0.135  -0.361  -1.416  1.00  0.00     0.283 C 
ATOM     26  H   UNL     1       0.639   1.177  -2.513  1.00  0.00     0.347 HD
ATOM     27  C   UNL     1      -2.201   1.632  -1.796  1.00  0.00     0.181 C 
ATOM     28  C   UNL     1      -1.519  -0.637  -2.099  1.00  0.00     0.181 C 
ATOM     29  N   UNL     1      -2.626   0.206  -1.552  1.00  0.00    -0.327 N 
ATOM     30  O   UNL     1      -4.741   0.932  -0.917  1.00  0.00    -0.269 OA
ENDBRANCH  11  21
ENDBRANCH   9  10
ENDBRANCH   7   9
ENDBRANCH   6   7
ENDBRANCH   5   6
ENDBRANCH   4   5
ENDBRANCH   3   4
ENDBRANCH   2   3
ENDBRANCH   1   2
BRANCH   1  31
ATOM     31  O   UNL     1      -0.276  -4.441  -1.434  1.00  0.00    -0.376 OA
BRANCH  31  32
ATOM     32  C   UNL     1      -1.685  -4.290  -1.613  1.00  0.00     0.202 C 
BRANCH  32  33
ATOM     33  C   UNL     1      -2.501  -3.297  -0.712  1.00  0.00     0.261 C 
BRANCH  33  34
ATOM     34  O   UNL     1      -1.989  -2.051   0.068  1.00  0.00    -0.460 OA
BRANCH  34  35
ATOM     35  C   UNL     1      -1.453  -1.823   1.317  1.00  0.00     0.338 C 
ATOM     36  O   UNL     1      -0.817  -2.647   1.965  1.00  0.00    -0.246 OA
BRANCH  35  37
ATOM     37  C   UNL     1      -1.810  -0.538   2.064  1.00  0.00     0.060 A 
ATOM     38  C   UNL     1      -1.984  -0.569   3.449  1.00  0.00     0.016 A 
ATOM     39  C   UNL     1      -2.150   0.649   1.448  1.00  0.00     0.016 A 
ATOM     40  C   UNL     1      -2.515   0.532   4.143  1.00  0.00     0.010 A 
ATOM     41  C   UNL     1      -2.605   1.789   2.112  1.00  0.00     0.010 A 
ATOM     42  C   UNL     1      -2.760   1.753   3.487  1.00  0.00    -0.014 A 
BRANCH  42  43
ATOM     43  C   UNL     1      -2.814   3.044   4.220  1.00  0.00     0.031 A 
ATOM     44  C   UNL     1      -3.912   4.061   4.035  1.00  0.00     0.074 A 
ATOM     45  C   UNL     1      -1.691   3.354   4.900  1.00  0.00     0.049 A 
ATOM     46  N   UNL     1      -4.024   5.250   4.571  1.00  0.00    -0.248 NA
ATOM     47  C   UNL     1      -4.982   3.744   3.075  1.00  0.00     0.031 C 
ATOM     48  C   UNL     1      -0.472   2.530   4.916  1.00  0.00     0.029 A 
ATOM     49  N   UNL     1      -1.365   4.417   5.694  1.00  0.00    -0.354 N 
ATOM     50  C   UNL     1      -5.146   5.838   3.989  1.00  0.00     0.074 A 
ATOM     51  C   UNL     1      -5.660   4.886   3.029  1.00  0.00     0.031 C 
ATOM     52  C   UNL     1       0.417   3.056   5.762  1.00  0.00     0.029 A 
ATOM     53  C   UNL     1      -0.135   4.287   6.295  1.00  0.00     0.049 A 
ATOM     54  H   UNL     1      -1.952   5.197   5.823  1.00  0.00     0.167 HD
ATOM     55  C   UNL     1      -5.685   7.057   4.251  1.00  0.00     0.037 A 
ATOM     56  C   UNL     1       0.480   5.067   7.199  1.00  0.00     0.037 A 
ATOM     57  C   UNL     1      -5.146   7.944   5.259  1.00  0.00     0.049 A 
ATOM     58  C   UNL     1      -0.250   6.288   7.646  1.00  0.00     0.074 A 
ATOM     59  C   UNL     1      -5.659   9.140   5.731  1.00  0.00     0.029 A 
ATOM     60  N   UNL     1      -3.967   7.714   5.962  1.00  0.00    -0.354 N 
ATOM     61  N   UNL     1      -1.377   6.776   7.179  1.00  0.00    -0.248 NA
ATOM     62  C   UNL     1       0.346   7.056   8.739  1.00  0.00     0.031 C 
ATOM     63  C   UNL     1      -4.781   9.640   6.701  1.00  0.00     0.029 A 
ATOM     64  C   UNL     1      -3.741   8.738   6.865  1.00  0.00     0.049 A 
ATOM     65  H   UNL     1      -3.379   6.935   5.834  1.00  0.00     0.167 HD
ATOM     66  C   UNL     1      -1.626   7.918   7.917  1.00  0.00     0.074 A 
ATOM     67  C   UNL     1      -0.550   8.023   8.889  1.00  0.00     0.031 C 
ATOM     68  C   UNL     1      -2.641   8.809   7.796  1.00  0.00     0.037 A 
BRANCH  55  69
ATOM     69  C   UNL     1      -6.920   7.496   3.493  1.00  0.00     0.058 A 
ATOM     70  C   UNL     1      -8.155   6.842   3.644  1.00  0.00     0.135 A 
ATOM     71  C   UNL     1      -6.900   8.638   2.669  1.00  0.00     0.135 A 
ATOM     72  F   UNL     1      -8.249   5.748   4.415  1.00  0.00    -0.206 F 
ATOM     73  C   UNL     1      -9.308   7.282   2.995  1.00  0.00     0.059 A 
ATOM     74  C   UNL     1      -8.049   9.114   2.033  1.00  0.00     0.059 A 
ATOM     75  F   UNL     1      -5.757   9.317   2.483  1.00  0.00    -0.206 F 
ATOM     76  C   UNL     1      -9.248   8.422   2.194  1.00  0.00     0.060 A 
BRANCH  76  77
ATOM     77  S   UNL     1     -10.764   9.002   1.398  1.00  0.00     0.124 S 
ATOM     78  O   UNL     1     -10.938   8.010   0.342  1.00  0.00    -0.237 OA
ATOM     79  O   UNL     1     -11.733   8.940   2.488  1.00  0.00    -0.237 OA
ATOM     80  O   UNL     1     -10.420  10.346   0.945  1.00  0.00    -0.744 OA
ENDBRANCH  76  77
ENDBRANCH  55  69
BRANCH  56  81
ATOM     81  C   UNL     1       1.773   4.622   7.776  1.00  0.00     0.058 A 
ATOM     82  C   UNL     1       1.821   4.067   9.064  1.00  0.00     0.135 A 
ATOM     83  C   UNL     1       2.947   4.590   7.007  1.00  0.00     0.135 A 
ATOM     84  F   UNL     1       0.718   4.052   9.827  1.00  0.00    -0.206 F 
ATOM     85  C   UNL     1       2.984   3.500   9.570  1.00  0.00     0.059 A 
ATOM     86  C   UNL     1       4.117   4.004   7.482  1.00  0.00     0.059 A 
ATOM     87  F   UNL     1       2.939   5.059   5.748  1.00  0.00    -0.206 F 
ATOM     88  C   UNL     1       4.127   3.466   8.768  1.00  0.00     0.060 A 
BRANCH  88  89
ATOM     89  S   UNL     1       5.606   2.646   9.402  1.00  0.00     0.124 S 
ATOM     90  O   UNL     1       6.106   3.638  10.347  1.00  0.00    -0.237 OA
ATOM     91  O   UNL     1       5.058   1.426   9.987  1.00  0.00    -0.237 OA
ATOM     92  O   UNL     1       6.417   2.447   8.204  1.00  0.00    -0.744 OA
ENDBRANCH  88  89
ENDBRANCH  56  81
BRANCH  68  93
ATOM     93  C   UNL     1      -2.603   9.967   8.742  1.00  0.00     0.058 A 
ATOM     94  C   UNL     1      -1.684  11.013   8.570  1.00  0.00     0.135 A 
ATOM     95  C   UNL     1      -3.486  10.024   9.830  1.00  0.00     0.135 A 
ATOM     96  F   UNL     1      -0.814  10.988   7.549  1.00  0.00    -0.206 F 
ATOM     97  C   UNL     1      -1.615  12.064   9.473  1.00  0.00     0.059 A 
ATOM     98  C   UNL     1      -3.451  11.080  10.731  1.00  0.00     0.059 A 
ATOM     99  F   UNL     1      -4.383   9.046  10.027  1.00  0.00    -0.206 F 
ATOM    100  C   UNL     1      -2.500  12.085  10.553  1.00  0.00     0.060 A 
BRANCH 100 101
ATOM    101  S   UNL     1      -2.399  13.455  11.721  1.00  0.00     0.124 S 
ATOM    102  O   UNL     1      -1.212  13.096  12.489  1.00  0.00    -0.237 OA
ATOM    103  O   UNL     1      -2.260  14.609  10.838  1.00  0.00    -0.237 OA
ATOM    104  O   UNL     1      -3.665  13.376  12.444  1.00  0.00    -0.744 OA
ENDBRANCH 100 101
ENDBRANCH  68  93
ENDBRANCH  42  43
ENDBRANCH  35  37
ENDBRANCH  34  35
ENDBRANCH  33  34
ENDBRANCH  32  33
ENDBRANCH  31  32
ENDBRANCH   1  31
TORSDOF 22
