REMARK SMILES O=C(OCCOCCOCCOC(=O)[C@H]1C[C@H]2CCCC[C@@H]2[N@@H+]1C1CCS(=O)(=O)CC1)c1ccc(-c2c3nc(c(-c4c(F)cc(S(=O)(=O)[O-])cc4F)c4ccc([nH]4)c(-c4c(F)cc(S(=O)(=O)[O-])cc4F)c4nc(c(-c5c(F)cc(S(=O)(=O)[O-])cc5F)c5ccc2[nH]5)C=C4)C=C3)cc1
REMARK SMILES IDX 7 1 6 2 5 3 4 4 3 5 2 6 1 7 32 8 33 9 97 10 34 11 96 12
REMARK SMILES IDX 35 13 36 14 37 15 90 16 38 17 95 18 89 19 91 20 39 21 94 22
REMARK SMILES IDX 88 23 87 24 40 26 74 27 53 28 73 29 54 30 57 31 72 32 92 33
REMARK SMILES IDX 55 34 56 35 71 37 93 38 58 39 41 40 42 41 51 42 43 43 44 44
REMARK SMILES IDX 50 45 52 46 45 47 46 48 47 49 48 50 49 51 75 52 76 53 85 54
REMARK SMILES IDX 77 55 78 56 84 57 86 58 79 59 80 60 81 61 82 62 83 63 59 64
REMARK SMILES IDX 60 65 69 66 61 67 62 68 68 69 70 70 63 71 64 72 65 73 66 74
REMARK SMILES IDX 67 75 8 76 9 77 10 78 11 79 12 80 13 81 14 82 15 83 16 84
REMARK SMILES IDX 23 85 17 86 22 87 18 89 21 90 19 91 20 92 24 93 25 94 31 95
REMARK SMILES IDX 26 96 30 97 27 98 28 99 29 100
REMARK H PARENT 91 25 57 36 23 88
REMARK Flexibility Score: inf
ROOT
ATOM      1  C   UNL     1      -1.019   4.268   4.017  1.00  0.00     0.188 C 
ENDROOT
BRANCH   1   2
ATOM      2  O   UNL     1      -0.604   2.906   3.942  1.00  0.00    -0.376 OA
BRANCH   2   3
ATOM      3  C   UNL     1      -1.160   2.071   4.963  1.00  0.00     0.202 C 
BRANCH   3   4
ATOM      4  C   UNL     1      -0.722   2.375   6.412  1.00  0.00     0.261 C 
BRANCH   4   5
ATOM      5  O   UNL     1      -0.270   3.727   6.628  1.00  0.00    -0.460 OA
BRANCH   5   6
ATOM      6  C   UNL     1       0.989   4.226   6.531  1.00  0.00     0.338 C 
ATOM      7  O   UNL     1       1.177   5.418   6.773  1.00  0.00    -0.246 OA
BRANCH   6   8
ATOM      8  C   UNL     1       2.164   3.394   6.151  1.00  0.00     0.060 A 
ATOM      9  C   UNL     1       2.098   2.275   5.327  1.00  0.00     0.016 A 
ATOM     10  C   UNL     1       3.428   3.803   6.600  1.00  0.00     0.016 A 
ATOM     11  C   UNL     1       3.205   1.484   5.080  1.00  0.00     0.010 A 
ATOM     12  C   UNL     1       4.571   3.067   6.271  1.00  0.00     0.010 A 
ATOM     13  C   UNL     1       4.455   1.873   5.543  1.00  0.00    -0.014 A 
BRANCH  13  14
ATOM     14  C   UNL     1       5.591   0.944   5.376  1.00  0.00     0.031 A 
ATOM     15  C   UNL     1       6.144   0.290   6.599  1.00  0.00     0.074 A 
ATOM     16  C   UNL     1       6.018   0.567   4.155  1.00  0.00     0.049 A 
ATOM     17  N   UNL     1       7.134  -0.550   6.699  1.00  0.00    -0.248 NA
ATOM     18  C   UNL     1       5.459   0.579   7.870  1.00  0.00     0.031 C 
ATOM     19  C   UNL     1       5.372   0.939   2.901  1.00  0.00     0.029 A 
ATOM     20  N   UNL     1       7.056  -0.235   3.756  1.00  0.00    -0.354 N 
ATOM     21  C   UNL     1       7.186  -0.897   8.039  1.00  0.00     0.074 A 
ATOM     22  C   UNL     1       6.168  -0.137   8.726  1.00  0.00     0.031 C 
ATOM     23  C   UNL     1       6.043   0.392   1.879  1.00  0.00     0.029 A 
ATOM     24  C   UNL     1       7.200  -0.301   2.389  1.00  0.00     0.049 A 
ATOM     25  H   UNL     1       7.641  -0.716   4.385  1.00  0.00     0.167 HD
ATOM     26  C   UNL     1       8.001  -1.798   8.629  1.00  0.00     0.037 A 
ATOM     27  C   UNL     1       8.152  -0.839   1.608  1.00  0.00     0.037 A 
ATOM     28  C   UNL     1       9.007  -2.533   7.913  1.00  0.00     0.049 A 
ATOM     29  C   UNL     1       9.183  -1.665   2.303  1.00  0.00     0.074 A 
ATOM     30  C   UNL     1       9.939  -3.423   8.408  1.00  0.00     0.029 A 
ATOM     31  N   UNL     1       9.215  -2.453   6.539  1.00  0.00    -0.354 N 
ATOM     32  N   UNL     1       9.267  -1.934   3.584  1.00  0.00    -0.248 NA
ATOM     33  C   UNL     1      10.208  -2.298   1.472  1.00  0.00     0.031 C 
ATOM     34  C   UNL     1      10.752  -3.831   7.344  1.00  0.00     0.029 A 
ATOM     35  C   UNL     1      10.287  -3.247   6.174  1.00  0.00     0.049 A 
ATOM     36  H   UNL     1       8.677  -1.910   5.918  1.00  0.00     0.167 HD
ATOM     37  C   UNL     1      10.320  -2.819   3.713  1.00  0.00     0.074 A 
ATOM     38  C   UNL     1      10.847  -3.030   2.375  1.00  0.00     0.031 C 
ATOM     39  C   UNL     1      10.791  -3.419   4.832  1.00  0.00     0.037 A 
BRANCH  26  40
ATOM     40  C   UNL     1       7.864  -1.946  10.115  1.00  0.00     0.058 A 
ATOM     41  C   UNL     1       6.738  -2.542  10.709  1.00  0.00     0.135 A 
ATOM     42  C   UNL     1       8.842  -1.402  10.961  1.00  0.00     0.135 A 
ATOM     43  F   UNL     1       5.750  -3.034   9.945  1.00  0.00    -0.206 F 
ATOM     44  C   UNL     1       6.570  -2.558  12.090  1.00  0.00     0.059 A 
ATOM     45  C   UNL     1       8.708  -1.433  12.345  1.00  0.00     0.059 A 
ATOM     46  F   UNL     1       9.924  -0.799  10.444  1.00  0.00    -0.206 F 
ATOM     47  C   UNL     1       7.559  -1.995  12.899  1.00  0.00     0.060 A 
BRANCH  47  48
ATOM     48  S   UNL     1       7.315  -1.993  14.686  1.00  0.00     0.124 S 
ATOM     49  O   UNL     1       6.268  -0.987  14.836  1.00  0.00    -0.237 OA
ATOM     50  O   UNL     1       6.912  -3.371  14.946  1.00  0.00    -0.237 OA
ATOM     51  O   UNL     1       8.626  -1.616  15.207  1.00  0.00    -0.744 OA
ENDBRANCH  47  48
ENDBRANCH  26  40
BRANCH  27  52
ATOM     52  C   UNL     1       8.150  -0.624   0.130  1.00  0.00     0.058 A 
ATOM     53  C   UNL     1       7.912  -1.673  -0.768  1.00  0.00     0.135 A 
ATOM     54  C   UNL     1       8.371   0.655  -0.419  1.00  0.00     0.135 A 
ATOM     55  F   UNL     1       7.669  -2.908  -0.303  1.00  0.00    -0.206 F 
ATOM     56  C   UNL     1       7.938  -1.479  -2.148  1.00  0.00     0.059 A 
ATOM     57  C   UNL     1       8.381   0.879  -1.795  1.00  0.00     0.059 A 
ATOM     58  F   UNL     1       8.566   1.709   0.391  1.00  0.00    -0.206 F 
ATOM     59  C   UNL     1       8.184  -0.200  -2.653  1.00  0.00     0.060 A 
BRANCH  59  60
ATOM     60  S   UNL     1       8.278   0.012  -4.447  1.00  0.00     0.124 S 
ATOM     61  O   UNL     1       9.446  -0.803  -4.773  1.00  0.00    -0.237 OA
ATOM     62  O   UNL     1       6.995  -0.524  -4.889  1.00  0.00    -0.237 OA
ATOM     63  O   UNL     1       8.462   1.449  -4.620  1.00  0.00    -0.744 OA
ENDBRANCH  59  60
ENDBRANCH  27  52
BRANCH  39  64
ATOM     64  C   UNL     1      11.918  -4.383   4.636  1.00  0.00     0.058 A 
ATOM     65  C   UNL     1      13.210  -3.946   4.308  1.00  0.00     0.135 A 
ATOM     66  C   UNL     1      11.701  -5.759   4.802  1.00  0.00     0.135 A 
ATOM     67  F   UNL     1      13.456  -2.639   4.123  1.00  0.00    -0.206 F 
ATOM     68  C   UNL     1      14.247  -4.848   4.122  1.00  0.00     0.059 A 
ATOM     69  C   UNL     1      12.732  -6.676   4.657  1.00  0.00     0.059 A 
ATOM     70  F   UNL     1      10.480  -6.220   5.120  1.00  0.00    -0.206 F 
ATOM     71  C   UNL     1      13.998  -6.210   4.303  1.00  0.00     0.060 A 
BRANCH  71  72
ATOM     72  S   UNL     1      15.365  -7.367   4.099  1.00  0.00     0.124 S 
ATOM     73  O   UNL     1      15.521  -7.381   2.649  1.00  0.00    -0.237 OA
ATOM     74  O   UNL     1      16.436  -6.716   4.848  1.00  0.00    -0.237 OA
ATOM     75  O   UNL     1      14.855  -8.600   4.690  1.00  0.00    -0.744 OA
ENDBRANCH  71  72
ENDBRANCH  39  64
ENDBRANCH  13  14
ENDBRANCH   6   8
ENDBRANCH   5   6
ENDBRANCH   4   5
ENDBRANCH   3   4
ENDBRANCH   2   3
ENDBRANCH   1   2
BRANCH   1  76
ATOM     76  C   UNL     1      -1.373   4.913   2.680  1.00  0.00     0.188 C 
BRANCH  76  77
ATOM     77  O   UNL     1      -2.269   4.233   1.817  1.00  0.00    -0.376 OA
BRANCH  77  78
ATOM     78  C   UNL     1      -1.954   2.889   1.476  1.00  0.00     0.202 C 
BRANCH  78  79
ATOM     79  C   UNL     1      -0.629   2.556   0.756  1.00  0.00     0.261 C 
BRANCH  79  80
ATOM     80  O   UNL     1       0.556   3.278   1.140  1.00  0.00    -0.459 OA
BRANCH  80  81
ATOM     81  C   UNL     1       0.844   4.346   0.348  1.00  0.00     0.365 C 
ATOM     82  O   UNL     1       0.086   4.768  -0.525  1.00  0.00    -0.245 OA
BRANCH  81  83
ATOM     83  C   UNL     1       2.197   5.021   0.586  1.00  0.00     0.296 C 
ATOM     84  C   UNL     1       2.032   6.436   1.143  1.00  0.00     0.087 C 
ATOM     85  N   UNL     1       3.175   4.328   1.471  1.00  0.00    -0.318 N 
ATOM     86  C   UNL     1       3.340   6.650   1.872  1.00  0.00     0.054 C 
ATOM     87  C   UNL     1       3.544   5.295   2.538  1.00  0.00     0.188 C 
ATOM     88  H   UNL     1       2.723   3.510   1.878  1.00  0.00     0.349 HD
ATOM     89  C   UNL     1       3.368   7.792   2.875  1.00  0.00     0.010 C 
ATOM     90  C   UNL     1       4.895   5.268   3.273  1.00  0.00     0.065 C 
ATOM     91  C   UNL     1       4.702   7.790   3.624  1.00  0.00     0.001 C 
ATOM     92  C   UNL     1       4.996   6.433   4.271  1.00  0.00     0.006 C 
BRANCH  85  93
ATOM     93  C   UNL     1       4.294   3.619   0.824  1.00  0.00     0.186 C 
ATOM     94  C   UNL     1       3.833   2.345   0.091  1.00  0.00     0.081 C 
ATOM     95  C   UNL     1       5.330   4.385  -0.027  1.00  0.00     0.081 C 
ATOM     96  C   UNL     1       3.225   2.514  -1.281  1.00  0.00     0.143 C 
ATOM     97  C   UNL     1       4.930   4.755  -1.440  1.00  0.00     0.143 C 
ATOM     98  S   UNL     1       4.312   3.383  -2.384  1.00  0.00     0.150 S 
ATOM     99  O   UNL     1       3.495   3.927  -3.449  1.00  0.00    -0.229 OA
ATOM    100  O   UNL     1       5.435   2.507  -2.647  1.00  0.00    -0.229 OA
ENDBRANCH  85  93
ENDBRANCH  81  83
ENDBRANCH  80  81
ENDBRANCH  79  80
ENDBRANCH  78  79
ENDBRANCH  77  78
ENDBRANCH  76  77
ENDBRANCH   1  76
TORSDOF 21
