REMARK SMILES Cc1ccc(NC(=O)c2cnn3c2NC2=C(C(=O)CCC2)[C@H]3c2ccc(C(=O)OCCOCCOCCOC(=O)c3ccc(-c4c5nc(c(-c6c(F)cc(S(=O)(=O)[O-])cc6F)c6ccc([nH]6)c(-c6c(F)cc(S(=O)(=O)[O-])cc6F)c6nc(c(-c7c(F)cc(S(=O)(=O)[O-])cc7F)c7ccc4[nH]7)C=C6)C=C5)cc3)cc2)cc1
REMARK SMILES IDX 33 1 32 2 31 3 30 4 29 5 27 6 28 7 26 8 23 9 24 10 108 11
REMARK SMILES IDX 25 12 107 13 22 14 9 15 10 16 13 17 11 18 12 19 14 20 15 21
REMARK SMILES IDX 16 23 21 24 17 25 20 26 18 27 19 28 7 29 6 30 8 32 5 33 1 34
REMARK SMILES IDX 2 35 3 36 110 37 4 38 109 39 34 40 35 41 36 42 37 43 38 44
REMARK SMILES IDX 39 45 40 46 41 47 42 48 106 49 43 50 105 51 44 52 45 53
REMARK SMILES IDX 46 54 99 55 47 56 104 57 98 58 100 59 48 60 103 61 97 62
REMARK SMILES IDX 96 63 49 65 83 66 62 67 82 68 63 69 66 70 81 71 101 72 64 73
REMARK SMILES IDX 65 74 80 76 102 77 67 78 50 79 51 80 60 81 52 82 53 83 59 84
REMARK SMILES IDX 61 85 54 86 55 87 56 88 57 89 58 90 84 91 85 92 94 93 86 94
REMARK SMILES IDX 87 95 93 96 95 97 88 98 89 99 90 100 91 101 92 102 68 103
REMARK SMILES IDX 69 104 78 105 70 106 71 107 77 108 79 109 72 110 73 111
REMARK SMILES IDX 74 112 75 113 76 114
REMARK H PARENT 14 22 6 31 100 64 66 75
REMARK Flexibility Score: inf
ROOT
ATOM      1  C   UNL     1       0.867  -5.588  -9.682  1.00  0.00     0.188 C 
ENDROOT
BRANCH   1   2
ATOM      2  O   UNL     1      -0.077  -4.511  -9.817  1.00  0.00    -0.376 OA
BRANCH   2   3
ATOM      3  C   UNL     1       0.333  -3.146  -9.689  1.00  0.00     0.202 C 
BRANCH   3   4
ATOM      4  C   UNL     1      -0.233  -2.275  -8.460  1.00  0.00     0.261 C 
BRANCH   4   5
ATOM      5  O   UNL     1       0.086  -2.604  -7.001  1.00  0.00    -0.460 OA
BRANCH   5   6
ATOM      6  C   UNL     1      -0.979  -2.626  -6.074  1.00  0.00     0.338 C 
ATOM      7  O   UNL     1      -2.003  -2.040  -6.408  1.00  0.00    -0.246 OA
BRANCH   6   8
ATOM      8  C   UNL     1      -0.935  -3.551  -4.646  1.00  0.00     0.060 A 
ATOM      9  C   UNL     1      -1.532  -5.101  -2.087  1.00  0.00    -0.019 A 
ATOM     10  C   UNL     1      -2.023  -5.500  -3.278  1.00  0.00     0.007 A 
ATOM     11  C   UNL     1      -0.586  -4.032  -2.224  1.00  0.00     0.007 A 
ATOM     12  C   UNL     1      -1.749  -4.705  -4.405  1.00  0.00     0.016 A 
ATOM     13  C   UNL     1      -0.309  -3.251  -3.463  1.00  0.00     0.016 A 
BRANCH   9  14
ATOM     14  C   UNL     1      -2.203  -5.671  -0.772  1.00  0.00     0.175 C 
ATOM     15  C   UNL     1      -3.748  -2.620  -0.037  1.00  0.00     0.102 A 
ATOM     16  C   UNL     1      -2.926  -2.844   1.112  1.00  0.00     0.151 A 
ATOM     17  C   UNL     1      -3.893  -3.882  -0.575  1.00  0.00     0.142 A 
ATOM     18  N   UNL     1      -2.303  -4.025   1.077  1.00  0.00    -0.178 NA
ATOM     19  N   UNL     1      -2.760  -4.518  -0.082  1.00  0.00    -0.237 N 
ATOM     20  N   UNL     1      -4.688  -4.579  -1.458  1.00  0.00    -0.343 N 
ATOM     21  C   UNL     1      -4.581  -5.988  -1.513  1.00  0.00     0.026 C 
ATOM     22  H   UNL     1      -5.321  -4.103  -2.042  1.00  0.00     0.168 HD
ATOM     23  C   UNL     1      -3.484  -6.542  -0.928  1.00  0.00     0.044 C 
ATOM     24  C   UNL     1      -5.794  -6.865  -1.763  1.00  0.00     0.055 C 
ATOM     25  C   UNL     1      -3.969  -7.250   0.330  1.00  0.00     0.163 C 
ATOM     26  C   UNL     1      -6.373  -7.394  -0.450  1.00  0.00     0.014 C 
ATOM     27  O   UNL     1      -3.167  -7.791   1.089  1.00  0.00    -0.294 OA
ATOM     28  C   UNL     1      -5.454  -7.076   0.723  1.00  0.00     0.081 C 
BRANCH  15  29
ATOM     29  C   UNL     1      -4.254  -1.363  -0.501  1.00  0.00     0.261 C 
ATOM     30  N   UNL     1      -3.421  -0.257  -0.489  1.00  0.00    -0.322 N 
ATOM     31  H   UNL     1      -3.896   0.602  -0.572  1.00  0.00     0.170 HD
ATOM     32  O   UNL     1      -5.439  -1.236  -0.866  1.00  0.00    -0.269 OA
BRANCH  30  33
ATOM     33  C   UNL     1      -2.009  -0.126  -0.380  1.00  0.00     0.041 A 
ATOM     34  C   UNL     1       2.291   0.374   0.050  1.00  0.00     0.044 C 
ATOM     35  C   UNL     1       0.807   0.230  -0.106  1.00  0.00    -0.051 A 
ATOM     36  C   UNL     1       0.273  -1.016  -0.400  1.00  0.00     0.005 A 
ATOM     37  C   UNL     1      -0.075   1.305   0.035  1.00  0.00     0.005 A 
ATOM     38  C   UNL     1      -1.109  -1.169  -0.567  1.00  0.00     0.026 A 
ATOM     39  C   UNL     1      -1.467   1.129  -0.106  1.00  0.00     0.026 A 
ENDBRANCH  30  33
ENDBRANCH  15  29
ENDBRANCH   9  14
ENDBRANCH   6   8
ENDBRANCH   5   6
ENDBRANCH   4   5
ENDBRANCH   3   4
ENDBRANCH   2   3
ENDBRANCH   1   2
BRANCH   1  40
ATOM     40  C   UNL     1       2.324  -5.321  -9.316  1.00  0.00     0.188 C 
BRANCH  40  41
ATOM     41  O   UNL     1       2.378  -4.250  -8.391  1.00  0.00    -0.376 OA
BRANCH  41  42
ATOM     42  C   UNL     1       3.651  -3.833  -7.950  1.00  0.00     0.202 C 
BRANCH  42  43
ATOM     43  C   UNL     1       4.367  -4.883  -7.088  1.00  0.00     0.261 C 
BRANCH  43  44
ATOM     44  O   UNL     1       3.686  -5.056  -5.813  1.00  0.00    -0.460 OA
BRANCH  44  45
ATOM     45  C   UNL     1       3.144  -6.288  -5.532  1.00  0.00     0.338 C 
ATOM     46  O   UNL     1       3.838  -7.212  -5.090  1.00  0.00    -0.246 OA
BRANCH  45  47
ATOM     47  C   UNL     1       1.642  -6.306  -5.706  1.00  0.00     0.060 A 
ATOM     48  C   UNL     1       0.731  -7.360  -5.551  1.00  0.00     0.016 A 
ATOM     49  C   UNL     1       1.089  -5.175  -6.223  1.00  0.00     0.016 A 
ATOM     50  C   UNL     1      -0.682  -7.237  -5.942  1.00  0.00     0.010 A 
ATOM     51  C   UNL     1      -0.174  -5.211  -6.833  1.00  0.00     0.010 A 
ATOM     52  C   UNL     1      -1.186  -6.108  -6.608  1.00  0.00    -0.014 A 
BRANCH  52  53
ATOM     53  C   UNL     1      -2.576  -5.626  -7.197  1.00  0.00     0.031 A 
ATOM     54  C   UNL     1      -3.755  -4.518  -6.699  1.00  0.00     0.074 A 
ATOM     55  C   UNL     1      -2.656  -6.041  -8.475  1.00  0.00     0.049 A 
ATOM     56  N   UNL     1      -4.928  -4.446  -7.280  1.00  0.00    -0.248 NA
ATOM     57  C   UNL     1      -3.869  -3.553  -5.533  1.00  0.00     0.031 C 
ATOM     58  C   UNL     1      -3.481  -5.535  -9.548  1.00  0.00     0.029 A 
ATOM     59  N   UNL     1      -2.069  -7.197  -8.994  1.00  0.00    -0.354 N 
ATOM     60  C   UNL     1      -5.594  -3.291  -6.822  1.00  0.00     0.074 A 
ATOM     61  C   UNL     1      -5.056  -2.967  -5.577  1.00  0.00     0.031 C 
ATOM     62  C   UNL     1      -3.591  -6.495 -10.480  1.00  0.00     0.029 A 
ATOM     63  C   UNL     1      -2.942  -7.691  -9.962  1.00  0.00     0.049 A 
ATOM     64  H   UNL     1      -1.206  -7.588  -8.728  1.00  0.00     0.167 HD
ATOM     65  C   UNL     1      -6.399  -2.556  -7.632  1.00  0.00     0.037 A 
ATOM     66  C   UNL     1      -3.511  -8.914  -9.764  1.00  0.00     0.037 A 
ATOM     67  C   UNL     1      -6.765  -3.398  -8.735  1.00  0.00     0.049 A 
ATOM     68  C   UNL     1      -5.007  -8.806  -9.637  1.00  0.00     0.074 A 
ATOM     69  C   UNL     1      -6.429  -3.458 -10.067  1.00  0.00     0.029 A 
ATOM     70  N   UNL     1      -7.350  -4.600  -8.399  1.00  0.00    -0.354 N 
ATOM     71  N   UNL     1      -5.615  -7.675  -9.400  1.00  0.00    -0.248 NA
ATOM     72  C   UNL     1      -5.952  -9.899  -9.834  1.00  0.00     0.031 C 
ATOM     73  C   UNL     1      -6.734  -4.781 -10.504  1.00  0.00     0.029 A 
ATOM     74  C   UNL     1      -7.285  -5.484  -9.441  1.00  0.00     0.049 A 
ATOM     75  H   UNL     1      -7.760  -4.796  -7.526  1.00  0.00     0.167 HD
ATOM     76  C   UNL     1      -6.967  -7.850  -9.422  1.00  0.00     0.074 A 
ATOM     77  C   UNL     1      -7.131  -9.265  -9.683  1.00  0.00     0.031 C 
ATOM     78  C   UNL     1      -7.827  -6.813  -9.216  1.00  0.00     0.037 A 
BRANCH  65  79
ATOM     79  C   UNL     1      -6.766  -1.077  -7.519  1.00  0.00     0.058 A 
ATOM     80  C   UNL     1      -7.707  -0.548  -8.430  1.00  0.00     0.135 A 
ATOM     81  C   UNL     1      -6.171  -0.100  -6.678  1.00  0.00     0.135 A 
ATOM     82  F   UNL     1      -8.347  -1.343  -9.300  1.00  0.00    -0.206 F 
ATOM     83  C   UNL     1      -8.022   0.813  -8.516  1.00  0.00     0.059 A 
ATOM     84  C   UNL     1      -6.511   1.265  -6.713  1.00  0.00     0.059 A 
ATOM     85  F   UNL     1      -5.190  -0.395  -5.817  1.00  0.00    -0.206 F 
ATOM     86  C   UNL     1      -7.427   1.717  -7.649  1.00  0.00     0.060 A 
BRANCH  86  87
ATOM     87  S   UNL     1      -7.860   3.464  -7.783  1.00  0.00     0.124 S 
ATOM     88  O   UNL     1      -7.353   3.805  -9.109  1.00  0.00    -0.237 OA
ATOM     89  O   UNL     1      -9.313   3.435  -7.650  1.00  0.00    -0.237 OA
ATOM     90  O   UNL     1      -7.148   4.085  -6.669  1.00  0.00    -0.744 OA
ENDBRANCH  86  87
ENDBRANCH  65  79
BRANCH  66  91
ATOM     91  C   UNL     1      -2.542  -9.895  -9.170  1.00  0.00     0.058 A 
ATOM     92  C   UNL     1      -1.457 -10.248 -10.005  1.00  0.00     0.135 A 
ATOM     93  C   UNL     1      -2.337 -10.039  -7.786  1.00  0.00     0.135 A 
ATOM     94  F   UNL     1      -1.589 -10.155 -11.339  1.00  0.00    -0.206 F 
ATOM     95  C   UNL     1      -0.186 -10.521  -9.505  1.00  0.00     0.059 A 
ATOM     96  C   UNL     1      -1.070 -10.355  -7.261  1.00  0.00     0.059 A 
ATOM     97  F   UNL     1      -3.311  -9.723  -6.919  1.00  0.00    -0.206 F 
ATOM     98  C   UNL     1       0.014 -10.496  -8.130  1.00  0.00     0.060 A 
BRANCH  98  99
ATOM     99  S   UNL     1       1.724 -10.450  -7.527  1.00  0.00     0.124 S 
ATOM    100  O   UNL     1       2.329 -11.586  -8.228  1.00  0.00    -0.237 OA
ATOM    101  O   UNL     1       2.157  -9.131  -7.995  1.00  0.00    -0.237 OA
ATOM    102  O   UNL     1       1.581 -10.605  -6.092  1.00  0.00    -0.744 OA
ENDBRANCH  98  99
ENDBRANCH  66  91
BRANCH  78 103
ATOM    103  C   UNL     1      -9.249  -6.925  -8.701  1.00  0.00     0.058 A 
ATOM    104  C   UNL     1      -9.736  -8.039  -8.003  1.00  0.00     0.135 A 
ATOM    105  C   UNL     1     -10.105  -5.787  -8.699  1.00  0.00     0.135 A 
ATOM    106  F   UNL     1      -8.993  -9.139  -7.824  1.00  0.00    -0.206 F 
ATOM    107  C   UNL     1     -11.001  -8.055  -7.415  1.00  0.00     0.059 A 
ATOM    108  C   UNL     1     -11.325  -5.751  -8.037  1.00  0.00     0.059 A 
ATOM    109  F   UNL     1      -9.770  -4.647  -9.323  1.00  0.00    -0.206 F 
ATOM    110  C   UNL     1     -11.788  -6.909  -7.440  1.00  0.00     0.060 A 
BRANCH 110 111
ATOM    111  S   UNL     1     -13.430  -6.938  -6.711  1.00  0.00     0.124 S 
ATOM    112  O   UNL     1     -14.226  -7.428  -7.832  1.00  0.00    -0.237 OA
ATOM    113  O   UNL     1     -13.271  -7.867  -5.596  1.00  0.00    -0.237 OA
ATOM    114  O   UNL     1     -13.656  -5.548  -6.332  1.00  0.00    -0.744 OA
ENDBRANCH 110 111
ENDBRANCH  78 103
ENDBRANCH  52  53
ENDBRANCH  45  47
ENDBRANCH  44  45
ENDBRANCH  43  44
ENDBRANCH  42  43
ENDBRANCH  41  42
ENDBRANCH  40  41
ENDBRANCH   1  40
TORSDOF 23
