REMARK SMILES CC1(C)S[C@H](c2ccc(-c3cccc([N+](=O)[O-])c3)o2)[NH2+][C@@H]1C(=O)OCCOCCOCCOC(=O)c1ccc(-c2c3nc(c(-c4c(F)cc(S(=O)(=O)[O-])cc4F)c4ccc([nH]4)c(-c4c(F)cc(S(=O)(=O)[O-])cc4F)c4nc(c(-c5c(F)cc(S(=O)(=O)[O-])cc5F)c5ccc2[nH]5)C=C4)C=C3)cc1
REMARK SMILES IDX 28 1 27 2 26 3 25 4 24 5 22 6 23 7 21 8 1 9 2 10 3 11 4 12
REMARK SMILES IDX 5 13 20 14 6 17 7 18 19 19 8 20 9 21 10 22 11 23 18 24 12 25
REMARK SMILES IDX 14 26 13 27 15 28 16 29 17 30 29 31 30 32 31 33 32 34 33 35
REMARK SMILES IDX 34 36 35 37 36 38 37 39 101 40 38 41 100 42 39 43 40 44
REMARK SMILES IDX 41 45 94 46 42 47 99 48 93 49 95 50 43 51 98 52 92 53 91 54
REMARK SMILES IDX 44 56 78 57 57 58 77 59 58 60 61 61 76 62 96 63 59 64 60 65
REMARK SMILES IDX 75 67 97 68 62 69 45 70 46 71 55 72 47 73 48 74 54 75 56 76
REMARK SMILES IDX 49 77 50 78 51 79 52 80 53 81 79 82 80 83 89 84 81 85 82 86
REMARK SMILES IDX 88 87 90 88 83 89 84 90 85 91 86 92 87 93 63 94 64 95 73 96
REMARK SMILES IDX 65 97 66 98 72 99 74 100 67 101 68 102 69 103 70 104 71 105
REMARK H PARENT 20 15 20 16 95 55 61 66
REMARK Flexibility Score: inf
ROOT
ATOM      1  C   UNL     1       1.344   2.790  -3.338  1.00  0.00     0.188 C 
ENDROOT
BRANCH   1   2
ATOM      2  O   UNL     1       0.966   2.733  -4.701  1.00  0.00    -0.376 OA
BRANCH   2   3
ATOM      3  C   UNL     1       0.164   1.627  -5.075  1.00  0.00     0.202 C 
BRANCH   3   4
ATOM      4  C   UNL     1      -1.070   1.299  -4.232  1.00  0.00     0.261 C 
BRANCH   4   5
ATOM      5  O   UNL     1      -0.933   1.391  -2.819  1.00  0.00    -0.459 OA
BRANCH   5   6
ATOM      6  C   UNL     1      -0.422   0.302  -2.181  1.00  0.00     0.366 C 
ATOM      7  O   UNL     1      -0.040  -0.710  -2.747  1.00  0.00    -0.245 OA
BRANCH   6   8
ATOM      8  C   UNL     1      -0.383   0.605  -0.667  1.00  0.00     0.310 C 
ATOM      9  C   UNL     1       0.756   0.263   1.576  1.00  0.00     0.030 C 
ATOM     10  C   UNL     1       0.411  -0.376   0.210  1.00  0.00     0.079 C 
ATOM     11  C   UNL     1       1.735  -0.845  -0.408  1.00  0.00     0.030 C 
ATOM     12  S   UNL     1      -0.821  -1.706   0.470  1.00  0.00    -0.078 SA
ATOM     13  C   UNL     1      -2.272  -0.681  -0.042  1.00  0.00     0.311 C 
ATOM     14  N   UNL     1      -1.778   0.699  -0.144  1.00  0.00    -0.316 N 
ATOM     15  H   UNL     1      -1.782   1.144   0.773  1.00  0.00     0.348 HD
ATOM     16  H   UNL     1      -2.368   1.260  -0.759  1.00  0.00     0.348 HD
BRANCH  13  17
ATOM     17  C   UNL     1      -2.950  -1.195  -1.297  1.00  0.00     0.172 A 
ATOM     18  C   UNL     1      -3.233  -2.478  -1.733  1.00  0.00     0.054 A 
ATOM     19  O   UNL     1      -3.437  -0.296  -2.233  1.00  0.00    -0.454 OA
ATOM     20  C   UNL     1      -3.862  -2.365  -2.995  1.00  0.00     0.051 A 
ATOM     21  C   UNL     1      -3.959  -1.021  -3.275  1.00  0.00     0.134 A 
BRANCH  21  22
ATOM     22  C   UNL     1      -4.430  -0.292  -4.451  1.00  0.00     0.024 A 
ATOM     23  C   UNL     1      -3.605  -0.182  -5.583  1.00  0.00     0.012 A 
ATOM     24  C   UNL     1      -5.728   0.218  -4.533  1.00  0.00     0.097 A 
ATOM     25  C   UNL     1      -3.982   0.558  -6.707  1.00  0.00     0.008 A 
ATOM     26  C   UNL     1      -6.149   0.862  -5.714  1.00  0.00     0.270 A 
ATOM     27  C   UNL     1      -5.264   1.084  -6.778  1.00  0.00     0.085 A 
BRANCH  26  28
ATOM     28  N   UNL     1      -7.559   1.235  -5.880  1.00  0.00     0.062 N 
ATOM     29  O   UNL     1      -7.871   1.882  -6.891  1.00  0.00    -0.258 OA
ATOM     30  O   UNL     1      -8.364   0.847  -5.021  1.00  0.00    -0.258 OA
ENDBRANCH  26  28
ENDBRANCH  21  22
ENDBRANCH  13  17
ENDBRANCH   6   8
ENDBRANCH   5   6
ENDBRANCH   4   5
ENDBRANCH   3   4
ENDBRANCH   2   3
ENDBRANCH   1   2
BRANCH   1  31
ATOM     31  C   UNL     1       0.515   3.806  -2.516  1.00  0.00     0.188 C 
BRANCH  31  32
ATOM     32  O   UNL     1      -0.628   4.418  -3.091  1.00  0.00    -0.376 OA
BRANCH  32  33
ATOM     33  C   UNL     1      -0.523   5.029  -4.368  1.00  0.00     0.202 C 
BRANCH  33  34
ATOM     34  C   UNL     1       0.697   5.887  -4.769  1.00  0.00     0.261 C 
BRANCH  34  35
ATOM     35  O   UNL     1       1.996   5.401  -4.390  1.00  0.00    -0.460 OA
BRANCH  35  36
ATOM     36  C   UNL     1       2.600   6.043  -3.355  1.00  0.00     0.338 C 
ATOM     37  O   UNL     1       2.174   6.999  -2.738  1.00  0.00    -0.246 OA
BRANCH  36  38
ATOM     38  C   UNL     1       3.774   5.246  -2.920  1.00  0.00     0.060 A 
ATOM     39  C   UNL     1       3.800   4.743  -1.608  1.00  0.00     0.016 A 
ATOM     40  C   UNL     1       4.820   4.968  -3.799  1.00  0.00     0.016 A 
ATOM     41  C   UNL     1       4.875   3.969  -1.169  1.00  0.00     0.010 A 
ATOM     42  C   UNL     1       5.919   4.232  -3.345  1.00  0.00     0.010 A 
ATOM     43  C   UNL     1       5.963   3.752  -2.022  1.00  0.00    -0.014 A 
BRANCH  43  44
ATOM     44  C   UNL     1       7.244   3.248  -1.470  1.00  0.00     0.031 A 
ATOM     45  C   UNL     1       8.260   4.265  -1.025  1.00  0.00     0.074 A 
ATOM     46  C   UNL     1       7.513   1.933  -1.373  1.00  0.00     0.049 A 
ATOM     47  N   UNL     1       9.484   4.090  -0.604  1.00  0.00    -0.248 NA
ATOM     48  C   UNL     1       7.832   5.674  -1.069  1.00  0.00     0.031 C 
ATOM     49  C   UNL     1       6.596   0.851  -1.725  1.00  0.00     0.029 A 
ATOM     50  N   UNL     1       8.654   1.288  -0.963  1.00  0.00    -0.354 N 
ATOM     51  C   UNL     1       9.977   5.363  -0.345  1.00  0.00     0.074 A 
ATOM     52  C   UNL     1       8.929   6.303  -0.676  1.00  0.00     0.031 C 
ATOM     53  C   UNL     1       7.222  -0.326  -1.541  1.00  0.00     0.029 A 
ATOM     54  C   UNL     1       8.593  -0.079  -1.092  1.00  0.00     0.049 A 
ATOM     55  H   UNL     1       9.442   1.761  -0.609  1.00  0.00     0.167 HD
ATOM     56  C   UNL     1      11.194   5.719   0.128  1.00  0.00     0.037 A 
ATOM     57  C   UNL     1       9.545  -1.016  -0.901  1.00  0.00     0.037 A 
ATOM     58  C   UNL     1      12.239   4.782   0.444  1.00  0.00     0.049 A 
ATOM     59  C   UNL     1      10.922  -0.592  -0.448  1.00  0.00     0.074 A 
ATOM     60  C   UNL     1      13.503   5.040   0.941  1.00  0.00     0.029 A 
ATOM     61  N   UNL     1      12.145   3.408   0.282  1.00  0.00    -0.354 N 
ATOM     62  N   UNL     1      11.371   0.613  -0.184  1.00  0.00    -0.248 NA
ATOM     63  C   UNL     1      11.922  -1.654  -0.267  1.00  0.00     0.031 C 
ATOM     64  C   UNL     1      14.194   3.828   1.028  1.00  0.00     0.029 A 
ATOM     65  C   UNL     1      13.338   2.807   0.644  1.00  0.00     0.049 A 
ATOM     66  H   UNL     1      11.348   2.930  -0.043  1.00  0.00     0.167 HD
ATOM     67  C   UNL     1      12.692   0.449   0.225  1.00  0.00     0.074 A 
ATOM     68  C   UNL     1      12.968  -0.972   0.179  1.00  0.00     0.031 C 
ATOM     69  C   UNL     1      13.594   1.388   0.607  1.00  0.00     0.037 A 
BRANCH  56  70
ATOM     70  C   UNL     1      11.471   7.186   0.298  1.00  0.00     0.058 A 
ATOM     71  C   UNL     1      10.854   7.944   1.306  1.00  0.00     0.135 A 
ATOM     72  C   UNL     1      12.382   7.839  -0.548  1.00  0.00     0.135 A 
ATOM     73  F   UNL     1       9.957   7.375   2.127  1.00  0.00    -0.206 F 
ATOM     74  C   UNL     1      11.114   9.302   1.455  1.00  0.00     0.059 A 
ATOM     75  C   UNL     1      12.678   9.190  -0.399  1.00  0.00     0.059 A 
ATOM     76  F   UNL     1      12.993   7.163  -1.534  1.00  0.00    -0.206 F 
ATOM     77  C   UNL     1      12.028   9.916   0.598  1.00  0.00     0.060 A 
BRANCH  77  78
ATOM     78  S   UNL     1      12.360  11.678   0.810  1.00  0.00     0.124 S 
ATOM     79  O   UNL     1      11.117  12.268   0.322  1.00  0.00    -0.237 OA
ATOM     80  O   UNL     1      12.587  11.780   2.248  1.00  0.00    -0.237 OA
ATOM     81  O   UNL     1      13.534  11.907  -0.026  1.00  0.00    -0.744 OA
ENDBRANCH  77  78
ENDBRANCH  56  70
BRANCH  57  82
ATOM     82  C   UNL     1       9.244  -2.452  -1.155  1.00  0.00     0.058 A 
ATOM     83  C   UNL     1       9.194  -3.380  -0.104  1.00  0.00     0.135 A 
ATOM     84  C   UNL     1       9.014  -2.928  -2.455  1.00  0.00     0.135 A 
ATOM     85  F   UNL     1       9.423  -2.979   1.156  1.00  0.00    -0.206 F 
ATOM     86  C   UNL     1       8.941  -4.729  -0.332  1.00  0.00     0.059 A 
ATOM     87  C   UNL     1       8.732  -4.268  -2.707  1.00  0.00     0.059 A 
ATOM     88  F   UNL     1       9.046  -2.083  -3.497  1.00  0.00    -0.206 F 
ATOM     89  C   UNL     1       8.707  -5.163  -1.638  1.00  0.00     0.060 A 
BRANCH  89  90
ATOM     90  S   UNL     1       8.332  -6.908  -1.917  1.00  0.00     0.124 S 
ATOM     91  O   UNL     1       9.630  -7.530  -1.685  1.00  0.00    -0.237 OA
ATOM     92  O   UNL     1       7.311  -7.165  -0.906  1.00  0.00    -0.237 OA
ATOM     93  O   UNL     1       7.856  -6.933  -3.297  1.00  0.00    -0.744 OA
ENDBRANCH  89  90
ENDBRANCH  57  82
BRANCH  69  94
ATOM     94  C   UNL     1      14.953   0.917   1.054  1.00  0.00     0.058 A 
ATOM     95  C   UNL     1      15.905   0.425   0.148  1.00  0.00     0.135 A 
ATOM     96  C   UNL     1      15.332   1.031   2.403  1.00  0.00     0.135 A 
ATOM     97  F   UNL     1      15.595   0.292  -1.152  1.00  0.00    -0.206 F 
ATOM     98  C   UNL     1      17.176   0.043   0.565  1.00  0.00     0.059 A 
ATOM     99  C   UNL     1      16.607   0.683   2.837  1.00  0.00     0.059 A 
ATOM    100  F   UNL     1      14.466   1.508   3.311  1.00  0.00    -0.206 F 
ATOM    101  C   UNL     1      17.520   0.179   1.912  1.00  0.00     0.060 A 
BRANCH 101 102
ATOM    102  S   UNL     1      19.187  -0.281   2.432  1.00  0.00     0.124 S 
ATOM    103  O   UNL     1      19.125  -1.737   2.361  1.00  0.00    -0.237 OA
ATOM    104  O   UNL     1      20.019   0.369   1.424  1.00  0.00    -0.237 OA
ATOM    105  O   UNL     1      19.290   0.278   3.777  1.00  0.00    -0.744 OA
ENDBRANCH 101 102
ENDBRANCH  69  94
ENDBRANCH  43  44
ENDBRANCH  36  38
ENDBRANCH  35  36
ENDBRANCH  34  35
ENDBRANCH  33  34
ENDBRANCH  32  33
ENDBRANCH  31  32
ENDBRANCH   1  31
TORSDOF 23
