REMARK SMILES Cc1cc(N2N=C(C(=O)OCCOCCOCCOC(=O)c3ccc(-c4c5nc(c(-c6c(F)cc(S(=O)(=O)[O-])cc6F)c6ccc([nH]6)c(-c6c(F)cc(S(=O)(=O)[O-])cc6F)c6nc(c(-c7c(F)cc(S(=O)(=O)[O-])cc7F)c7ccc4[nH]7)C=C6)C=C5)cc3)C[C@H]2c2ccccc2)c([N+](=O)[O-])cc1C
REMARK SMILES IDX 15 1 14 2 13 3 12 4 11 5 10 6 8 7 9 8 7 9 5 10 6 11 89 12
REMARK SMILES IDX 88 13 4 14 1 15 2 16 3 17 101 18 100 19 102 20 96 21 97 22
REMARK SMILES IDX 98 23 99 24 90 25 91 26 95 27 92 28 94 29 93 30 16 31 17 32
REMARK SMILES IDX 18 33 19 34 20 35 21 36 22 37 23 38 87 39 24 40 86 41 25 42
REMARK SMILES IDX 26 43 27 44 80 45 28 46 85 47 79 48 81 49 29 50 84 51 78 52
REMARK SMILES IDX 77 53 30 55 64 56 43 57 63 58 44 59 47 60 62 61 82 62 45 63
REMARK SMILES IDX 46 64 61 66 83 67 48 68 31 69 32 70 41 71 33 72 34 73 40 74
REMARK SMILES IDX 42 75 35 76 36 77 37 78 38 79 39 80 65 81 66 82 75 83 67 84
REMARK SMILES IDX 68 85 74 86 76 87 69 88 70 89 71 90 72 91 73 92 49 93 50 94
REMARK SMILES IDX 59 95 51 96 52 97 58 98 60 99 53 100 54 101 55 102 56 103
REMARK SMILES IDX 57 104
REMARK H PARENT 81 54 47 65
REMARK Flexibility Score: inf
ROOT
ATOM      1  C   UNL     1      -7.545   0.399   0.929  1.00  0.00     0.188 C 
ENDROOT
BRANCH   1   2
ATOM      2  C   UNL     1      -7.231   0.374   2.439  1.00  0.00     0.188 C 
BRANCH   2   3
ATOM      3  O   UNL     1      -8.172   0.934   3.354  1.00  0.00    -0.376 OA
BRANCH   3   4
ATOM      4  C   UNL     1      -8.729   2.216   3.086  1.00  0.00     0.202 C 
BRANCH   4   5
ATOM      5  C   UNL     1      -7.758   3.373   2.823  1.00  0.00     0.261 C 
BRANCH   5   6
ATOM      6  O   UNL     1      -6.850   3.093   1.746  1.00  0.00    -0.459 OA
BRANCH   6   7
ATOM      7  C   UNL     1      -5.576   3.472   1.956  1.00  0.00     0.354 C 
ATOM      8  O   UNL     1      -5.153   4.209   2.828  1.00  0.00    -0.245 OA
BRANCH   7   9
ATOM      9  C   UNL     1      -4.669   2.821   0.943  1.00  0.00     0.148 C 
ATOM     10  N   UNL     1      -3.026   1.806   0.092  1.00  0.00    -0.250 N 
ATOM     11  N   UNL     1      -3.635   2.105   1.274  1.00  0.00    -0.169 NA
ATOM     12  C   UNL     1      -3.526   2.612  -1.033  1.00  0.00     0.144 C 
ATOM     13  C   UNL     1      -4.935   2.949  -0.528  1.00  0.00     0.098 C 
BRANCH  10  14
ATOM     14  C   UNL     1      -1.912   0.980   0.059  1.00  0.00     0.138 A 
ATOM     15  C   UNL     1       1.851   1.540   0.458  1.00  0.00     0.045 C 
ATOM     16  C   UNL     1       0.550   0.811   0.265  1.00  0.00    -0.046 A 
ATOM     17  C   UNL     1      -0.653   1.541   0.346  1.00  0.00     0.039 A 
ATOM     18  C   UNL     1       0.499  -0.563  -0.008  1.00  0.00    -0.041 A 
ATOM     19  C   UNL     1      -0.750  -1.154  -0.253  1.00  0.00     0.091 A 
ATOM     20  C   UNL     1       1.716  -1.451  -0.000  1.00  0.00     0.045 C 
ATOM     21  C   UNL     1      -1.937  -0.387  -0.257  1.00  0.00     0.294 A 
BRANCH  21  22
ATOM     22  N   UNL     1      -3.180  -1.078  -0.630  1.00  0.00     0.065 N 
ATOM     23  O   UNL     1      -3.145  -2.315  -0.706  1.00  0.00    -0.258 OA
ATOM     24  O   UNL     1      -4.192  -0.416  -0.910  1.00  0.00    -0.258 OA
ENDBRANCH  21  22
ENDBRANCH  10  14
BRANCH  12  25
ATOM     25  C   UNL     1      -2.642   3.829  -1.303  1.00  0.00    -0.023 A 
ATOM     26  C   UNL     1      -2.940   5.121  -0.837  1.00  0.00     0.006 A 
ATOM     27  C   UNL     1      -1.448   3.655  -2.027  1.00  0.00     0.006 A 
ATOM     28  C   UNL     1      -2.084   6.196  -1.088  1.00  0.00     0.000 A 
ATOM     29  C   UNL     1      -0.575   4.723  -2.246  1.00  0.00     0.000 A 
ATOM     30  C   UNL     1      -0.897   5.994  -1.783  1.00  0.00     0.000 A 
ENDBRANCH  12  25
ENDBRANCH   7   9
ENDBRANCH   6   7
ENDBRANCH   5   6
ENDBRANCH   4   5
ENDBRANCH   3   4
ENDBRANCH   2   3
ENDBRANCH   1   2
BRANCH   1  31
ATOM     31  O   UNL     1      -8.812   0.943   0.601  1.00  0.00    -0.376 OA
BRANCH  31  32
ATOM     32  C   UNL     1      -9.754   0.025   0.059  1.00  0.00     0.202 C 
BRANCH  32  33
ATOM     33  C   UNL     1     -10.214  -1.110   0.989  1.00  0.00     0.261 C 
BRANCH  33  34
ATOM     34  O   UNL     1      -9.163  -1.908   1.561  1.00  0.00    -0.460 OA
BRANCH  34  35
ATOM     35  C   UNL     1      -8.553  -2.799   0.745  1.00  0.00     0.338 C 
ATOM     36  O   UNL     1      -8.805  -3.004  -0.428  1.00  0.00    -0.246 OA
BRANCH  35  37
ATOM     37  C   UNL     1      -7.402  -3.368   1.482  1.00  0.00     0.060 A 
ATOM     38  C   UNL     1      -6.106  -3.034   1.078  1.00  0.00     0.016 A 
ATOM     39  C   UNL     1      -7.599  -4.224   2.569  1.00  0.00     0.016 A 
ATOM     40  C   UNL     1      -5.005  -3.562   1.756  1.00  0.00     0.010 A 
ATOM     41  C   UNL     1      -6.490  -4.772   3.230  1.00  0.00     0.010 A 
ATOM     42  C   UNL     1      -5.184  -4.459   2.814  1.00  0.00    -0.014 A 
BRANCH  42  43
ATOM     43  C   UNL     1      -4.004  -5.176   3.366  1.00  0.00     0.031 A 
ATOM     44  C   UNL     1      -3.720  -6.576   2.889  1.00  0.00     0.074 A 
ATOM     45  C   UNL     1      -3.166  -4.580   4.237  1.00  0.00     0.049 A 
ATOM     46  N   UNL     1      -2.780  -7.406   3.263  1.00  0.00    -0.248 NA
ATOM     47  C   UNL     1      -4.614  -7.111   1.848  1.00  0.00     0.031 C 
ATOM     48  C   UNL     1      -3.293  -3.211   4.734  1.00  0.00     0.029 A 
ATOM     49  N   UNL     1      -2.039  -5.059   4.863  1.00  0.00    -0.354 N 
ATOM     50  C   UNL     1      -2.983  -8.566   2.525  1.00  0.00     0.074 A 
ATOM     51  C   UNL     1      -4.138  -8.337   1.684  1.00  0.00     0.031 C 
ATOM     52  C   UNL     1      -2.295  -2.966   5.602  1.00  0.00     0.029 A 
ATOM     53  C   UNL     1      -1.477  -4.169   5.748  1.00  0.00     0.049 A 
ATOM     54  H   UNL     1      -1.669  -5.955   4.693  1.00  0.00     0.167 HD
ATOM     55  C   UNL     1      -2.270  -9.716   2.545  1.00  0.00     0.037 A 
ATOM     56  C   UNL     1      -0.442  -4.319   6.600  1.00  0.00     0.037 A 
ATOM     57  C   UNL     1      -1.100  -9.932   3.354  1.00  0.00     0.049 A 
ATOM     58  C   UNL     1       0.303  -5.631   6.638  1.00  0.00     0.074 A 
ATOM     59  C   UNL     1      -0.285 -11.050   3.404  1.00  0.00     0.029 A 
ATOM     60  N   UNL     1      -0.580  -9.018   4.256  1.00  0.00    -0.354 N 
ATOM     61  N   UNL     1       0.116  -6.710   5.914  1.00  0.00    -0.248 NA
ATOM     62  C   UNL     1       1.401  -5.749   7.611  1.00  0.00     0.031 C 
ATOM     63  C   UNL     1       0.699 -10.832   4.373  1.00  0.00     0.029 A 
ATOM     64  C   UNL     1       0.527  -9.558   4.890  1.00  0.00     0.049 A 
ATOM     65  H   UNL     1      -0.942  -8.118   4.422  1.00  0.00     0.167 HD
ATOM     66  C   UNL     1       1.086  -7.620   6.326  1.00  0.00     0.074 A 
ATOM     67  C   UNL     1       1.869  -6.961   7.350  1.00  0.00     0.031 C 
ATOM     68  C   UNL     1       1.307  -8.887   5.898  1.00  0.00     0.037 A 
BRANCH  55  69
ATOM     69  C   UNL     1      -2.744 -10.855   1.688  1.00  0.00     0.058 A 
ATOM     70  C   UNL     1      -2.548 -10.873   0.299  1.00  0.00     0.135 A 
ATOM     71  C   UNL     1      -3.329 -11.985   2.284  1.00  0.00     0.135 A 
ATOM     72  F   UNL     1      -2.011  -9.811  -0.322  1.00  0.00    -0.206 F 
ATOM     73  C   UNL     1      -2.916 -11.973  -0.470  1.00  0.00     0.059 A 
ATOM     74  C   UNL     1      -3.684 -13.104   1.538  1.00  0.00     0.059 A 
ATOM     75  F   UNL     1      -3.543 -12.014   3.609  1.00  0.00    -0.206 F 
ATOM     76  C   UNL     1      -3.475 -13.087   0.160  1.00  0.00     0.060 A 
BRANCH  76  77
ATOM     77  S   UNL     1      -3.895 -14.528  -0.844  1.00  0.00     0.124 S 
ATOM     78  O   UNL     1      -5.080 -14.055  -1.554  1.00  0.00    -0.237 OA
ATOM     79  O   UNL     1      -2.696 -14.701  -1.658  1.00  0.00    -0.237 OA
ATOM     80  O   UNL     1      -4.133 -15.574   0.145  1.00  0.00    -0.744 OA
ENDBRANCH  76  77
ENDBRANCH  55  69
BRANCH  56  81
ATOM     81  C   UNL     1      -0.063  -3.221   7.534  1.00  0.00     0.058 A 
ATOM     82  C   UNL     1       1.169  -2.559   7.424  1.00  0.00     0.135 A 
ATOM     83  C   UNL     1      -0.905  -2.856   8.597  1.00  0.00     0.135 A 
ATOM     84  F   UNL     1       2.017  -2.881   6.435  1.00  0.00    -0.206 F 
ATOM     85  C   UNL     1       1.569  -1.602   8.353  1.00  0.00     0.059 A 
ATOM     86  C   UNL     1      -0.540  -1.883   9.521  1.00  0.00     0.059 A 
ATOM     87  F   UNL     1      -2.098  -3.454   8.746  1.00  0.00    -0.206 F 
ATOM     88  C   UNL     1       0.709  -1.276   9.403  1.00  0.00     0.060 A 
BRANCH  88  89
ATOM     89  S   UNL     1       1.235  -0.039  10.610  1.00  0.00     0.124 S 
ATOM     90  O   UNL     1       2.183  -0.801  11.415  1.00  0.00    -0.237 OA
ATOM     91  O   UNL     1       1.810   0.999   9.761  1.00  0.00    -0.237 OA
ATOM     92  O   UNL     1      -0.010   0.326  11.279  1.00  0.00    -0.744 OA
ENDBRANCH  88  89
ENDBRANCH  56  81
BRANCH  68  93
ATOM     93  C   UNL     1       2.463  -9.635   6.505  1.00  0.00     0.058 A 
ATOM     94  C   UNL     1       2.420 -10.123   7.820  1.00  0.00     0.135 A 
ATOM     95  C   UNL     1       3.613  -9.905   5.744  1.00  0.00     0.135 A 
ATOM     96  F   UNL     1       1.346  -9.890   8.591  1.00  0.00    -0.206 F 
ATOM     97  C   UNL     1       3.487 -10.826   8.370  1.00  0.00     0.059 A 
ATOM     98  C   UNL     1       4.680 -10.630   6.265  1.00  0.00     0.059 A 
ATOM     99  F   UNL     1       3.702  -9.474   4.476  1.00  0.00    -0.206 F 
ATOM    100  C   UNL     1       4.614 -11.074   7.585  1.00  0.00     0.060 A 
BRANCH 100 101
ATOM    101  S   UNL     1       5.986 -12.004   8.302  1.00  0.00     0.124 S 
ATOM    102  O   UNL     1       6.601 -11.001   9.164  1.00  0.00    -0.237 OA
ATOM    103  O   UNL     1       5.301 -13.096   8.988  1.00  0.00    -0.237 OA
ATOM    104  O   UNL     1       6.773 -12.400   7.138  1.00  0.00    -0.744 OA
ENDBRANCH 100 101
ENDBRANCH  68  93
ENDBRANCH  42  43
ENDBRANCH  35  37
ENDBRANCH  34  35
ENDBRANCH  33  34
ENDBRANCH  32  33
ENDBRANCH  31  32
ENDBRANCH   1  31
TORSDOF 23
