REMARK SMILES CCSc1cccc(-c2ccc([C@@H](C)C(=O)OCCOCCOCCOC(=O)c3ccc(-c4c5nc(c(-c6c(F)cc(S(=O)(=O)[O-])cc6F)c6ccc([nH]6)c(-c6c(F)cc(S(=O)(=O)[O-])cc6F)c6nc(c(-c7c(F)cc(S(=O)(=O)[O-])cc7F)c7ccc4[nH]7)C=C6)C=C5)cc3)cc2)c1
REMARK SMILES IDX 21 1 20 2 19 3 18 4 17 5 15 6 16 7 13 8 14 9 12 10 9 11
REMARK SMILES IDX 10 12 96 13 11 14 95 15 8 16 4 17 5 18 97 19 6 20 7 21 3 22
REMARK SMILES IDX 2 23 1 24 22 25 23 26 24 27 25 28 26 29 27 30 28 31 29 32
REMARK SMILES IDX 30 33 94 34 31 35 93 36 32 37 33 38 34 39 87 40 35 41 92 42
REMARK SMILES IDX 86 43 88 44 36 45 91 46 85 47 84 48 37 50 71 51 50 52 70 53
REMARK SMILES IDX 51 54 54 55 69 56 89 57 52 58 53 59 68 61 90 62 55 63 38 64
REMARK SMILES IDX 39 65 48 66 40 67 41 68 47 69 49 70 42 71 43 72 44 73 45 74
REMARK SMILES IDX 46 75 72 76 73 77 82 78 74 79 75 80 81 81 83 82 76 83 77 84
REMARK SMILES IDX 78 85 79 86 80 87 56 88 57 89 66 90 58 91 59 92 65 93 67 94
REMARK SMILES IDX 60 95 61 96 62 97 63 98 64 99
REMARK H PARENT 88 49 54 60
REMARK Flexibility Score: inf
ROOT
ATOM      1  C   UNL     1       5.578   7.216  -3.754  1.00  0.00     0.188 C 
ENDROOT
BRANCH   1   2
ATOM      2  O   UNL     1       6.084   8.046  -4.793  1.00  0.00    -0.376 OA
BRANCH   2   3
ATOM      3  C   UNL     1       7.106   7.549  -5.646  1.00  0.00     0.202 C 
BRANCH   3   4
ATOM      4  C   UNL     1       8.412   7.052  -5.008  1.00  0.00     0.261 C 
BRANCH   4   5
ATOM      5  O   UNL     1       8.261   6.033  -3.993  1.00  0.00    -0.463 OA
BRANCH   5   6
ATOM      6  C   UNL     1       8.762   6.327  -2.766  1.00  0.00     0.313 C 
ATOM      7  O   UNL     1       9.381   7.362  -2.527  1.00  0.00    -0.252 OA
BRANCH   6   8
ATOM      8  C   UNL     1       8.511   5.297  -1.659  1.00  0.00     0.126 C 
ATOM      9  C   UNL     1       9.861   4.871  -1.083  1.00  0.00     0.025 C 
BRANCH   8  10
ATOM     10  C   UNL     1       7.629   4.070  -1.890  1.00  0.00    -0.034 A 
ATOM     11  C   UNL     1       5.927   1.786  -2.203  1.00  0.00    -0.018 A 
ATOM     12  C   UNL     1       6.985   2.046  -3.092  1.00  0.00     0.009 A 
ATOM     13  C   UNL     1       5.735   2.689  -1.151  1.00  0.00     0.009 A 
ATOM     14  C   UNL     1       7.831   3.160  -2.935  1.00  0.00     0.005 A 
ATOM     15  C   UNL     1       6.574   3.804  -0.993  1.00  0.00     0.005 A 
BRANCH  11  16
ATOM     16  C   UNL     1       5.096   0.570  -2.330  1.00  0.00    -0.017 A 
ATOM     17  C   UNL     1       2.927  -0.548  -2.549  1.00  0.00     0.008 A 
ATOM     18  C   UNL     1       3.568  -1.791  -2.534  1.00  0.00     0.015 A 
ATOM     19  C   UNL     1       3.693   0.626  -2.458  1.00  0.00     0.023 A 
ATOM     20  C   UNL     1       4.952  -1.867  -2.407  1.00  0.00     0.002 A 
ATOM     21  C   UNL     1       5.705  -0.698  -2.304  1.00  0.00     0.009 A 
BRANCH  17  22
ATOM     22  S   UNL     1       1.151  -0.544  -2.748  1.00  0.00    -0.126 SA
BRANCH  22  23
ATOM     23  C   UNL     1       0.611   0.502  -1.351  1.00  0.00     0.071 C 
ATOM     24  C   UNL     1       0.984  -0.080   0.002  1.00  0.00     0.016 C 
ENDBRANCH  22  23
ENDBRANCH  17  22
ENDBRANCH  11  16
ENDBRANCH   8  10
ENDBRANCH   6   8
ENDBRANCH   5   6
ENDBRANCH   4   5
ENDBRANCH   3   4
ENDBRANCH   2   3
ENDBRANCH   1   2
BRANCH   1  25
ATOM     25  C   UNL     1       5.434   5.707  -3.998  1.00  0.00     0.188 C 
BRANCH  25  26
ATOM     26  O   UNL     1       5.574   5.312  -5.348  1.00  0.00    -0.376 OA
BRANCH  26  27
ATOM     27  C   UNL     1       4.498   4.577  -5.897  1.00  0.00     0.202 C 
BRANCH  27  28
ATOM     28  C   UNL     1       3.221   5.402  -6.104  1.00  0.00     0.261 C 
BRANCH  28  29
ATOM     29  O   UNL     1       2.721   6.078  -4.933  1.00  0.00    -0.460 OA
BRANCH  29  30
ATOM     30  C   UNL     1       2.209   5.302  -3.952  1.00  0.00     0.338 C 
ATOM     31  O   UNL     1       2.096   4.082  -3.971  1.00  0.00    -0.246 OA
BRANCH  30  32
ATOM     32  C   UNL     1       2.012   6.133  -2.744  1.00  0.00     0.060 A 
ATOM     33  C   UNL     1       2.644   5.752  -1.552  1.00  0.00     0.016 A 
ATOM     34  C   UNL     1       1.202   7.271  -2.775  1.00  0.00     0.016 A 
ATOM     35  C   UNL     1       2.426   6.477  -0.379  1.00  0.00     0.010 A 
ATOM     36  C   UNL     1       0.972   7.987  -1.594  1.00  0.00     0.010 A 
ATOM     37  C   UNL     1       1.550   7.571  -0.381  1.00  0.00    -0.014 A 
BRANCH  37  38
ATOM     38  C   UNL     1       1.101   8.155   0.912  1.00  0.00     0.031 A 
ATOM     39  C   UNL     1      -0.244   7.749   1.460  1.00  0.00     0.074 A 
ATOM     40  C   UNL     1       1.883   8.996   1.614  1.00  0.00     0.049 A 
ATOM     41  N   UNL     1      -0.839   8.120   2.565  1.00  0.00    -0.248 NA
ATOM     42  C   UNL     1      -1.020   6.795   0.651  1.00  0.00     0.031 C 
ATOM     43  C   UNL     1       3.215   9.447   1.213  1.00  0.00     0.029 A 
ATOM     44  N   UNL     1       1.665   9.623   2.817  1.00  0.00    -0.354 N 
ATOM     45  C   UNL     1      -2.058   7.451   2.582  1.00  0.00     0.074 A 
ATOM     46  C   UNL     1      -2.133   6.679   1.360  1.00  0.00     0.031 C 
ATOM     47  C   UNL     1       3.693  10.283   2.152  1.00  0.00     0.029 A 
ATOM     48  C   UNL     1       2.693  10.449   3.206  1.00  0.00     0.049 A 
ATOM     49  H   UNL     1       0.848   9.493   3.351  1.00  0.00     0.167 HD
ATOM     50  C   UNL     1      -3.023   7.466   3.533  1.00  0.00     0.037 A 
ATOM     51  C   UNL     1       2.808  11.258   4.280  1.00  0.00     0.037 A 
ATOM     52  C   UNL     1      -2.951   8.238   4.747  1.00  0.00     0.049 A 
ATOM     53  C   UNL     1       1.694  11.304   5.297  1.00  0.00     0.074 A 
ATOM     54  C   UNL     1      -3.872   8.305   5.779  1.00  0.00     0.029 A 
ATOM     55  N   UNL     1      -1.907   9.084   5.090  1.00  0.00    -0.354 N 
ATOM     56  N   UNL     1       0.560  10.642   5.315  1.00  0.00    -0.248 NA
ATOM     57  C   UNL     1       1.881  12.200   6.447  1.00  0.00     0.031 C 
ATOM     58  C   UNL     1      -3.410   9.234   6.719  1.00  0.00     0.029 A 
ATOM     59  C   UNL     1      -2.172   9.697   6.305  1.00  0.00     0.049 A 
ATOM     60  H   UNL     1      -1.097   9.228   4.550  1.00  0.00     0.167 HD
ATOM     61  C   UNL     1      -0.085  11.020   6.490  1.00  0.00     0.074 A 
ATOM     62  C   UNL     1       0.793  11.954   7.164  1.00  0.00     0.031 C 
ATOM     63  C   UNL     1      -1.292  10.627   6.970  1.00  0.00     0.037 A 
BRANCH  50  64
ATOM     64  C   UNL     1      -4.258   6.640   3.285  1.00  0.00     0.058 A 
ATOM     65  C   UNL     1      -4.230   5.236   3.318  1.00  0.00     0.135 A 
ATOM     66  C   UNL     1      -5.494   7.263   3.045  1.00  0.00     0.135 A 
ATOM     67  F   UNL     1      -3.073   4.586   3.523  1.00  0.00    -0.206 F 
ATOM     68  C   UNL     1      -5.377   4.480   3.094  1.00  0.00     0.059 A 
ATOM     69  C   UNL     1      -6.659   6.527   2.849  1.00  0.00     0.059 A 
ATOM     70  F   UNL     1      -5.578   8.602   3.000  1.00  0.00    -0.206 F 
ATOM     71  C   UNL     1      -6.587   5.135   2.862  1.00  0.00     0.060 A 
BRANCH  71  72
ATOM     72  S   UNL     1      -8.066   4.139   2.581  1.00  0.00     0.124 S 
ATOM     73  O   UNL     1      -7.799   3.591   1.255  1.00  0.00    -0.237 OA
ATOM     74  O   UNL     1      -8.012   3.185   3.684  1.00  0.00    -0.237 OA
ATOM     75  O   UNL     1      -9.151   5.113   2.650  1.00  0.00    -0.744 OA
ENDBRANCH  71  72
ENDBRANCH  50  64
BRANCH  51  76
ATOM     76  C   UNL     1       4.024  12.099   4.455  1.00  0.00     0.058 A 
ATOM     77  C   UNL     1       4.934  11.857   5.495  1.00  0.00     0.135 A 
ATOM     78  C   UNL     1       4.294  13.172   3.590  1.00  0.00     0.135 A 
ATOM     79  F   UNL     1       4.715  10.854   6.359  1.00  0.00    -0.206 F 
ATOM     80  C   UNL     1       6.058  12.656   5.683  1.00  0.00     0.059 A 
ATOM     81  C   UNL     1       5.427  13.966   3.739  1.00  0.00     0.059 A 
ATOM     82  F   UNL     1       3.459  13.444   2.575  1.00  0.00    -0.206 F 
ATOM     83  C   UNL     1       6.298  13.707   4.795  1.00  0.00     0.060 A 
BRANCH  83  84
ATOM     84  S   UNL     1       7.787  14.705   5.019  1.00  0.00     0.124 S 
ATOM     85  O   UNL     1       7.453  15.467   6.216  1.00  0.00    -0.237 OA
ATOM     86  O   UNL     1       8.818  13.684   5.178  1.00  0.00    -0.237 OA
ATOM     87  O   UNL     1       7.863  15.476   3.781  1.00  0.00    -0.744 OA
ENDBRANCH  83  84
ENDBRANCH  51  76
BRANCH  63  88
ATOM     88  C   UNL     1      -1.720  11.174   8.308  1.00  0.00     0.058 A 
ATOM     89  C   UNL     1      -2.064  12.524   8.486  1.00  0.00     0.135 A 
ATOM     90  C   UNL     1      -1.806  10.328   9.426  1.00  0.00     0.135 A 
ATOM     91  F   UNL     1      -2.001  13.379   7.452  1.00  0.00    -0.206 F 
ATOM     92  C   UNL     1      -2.430  13.025   9.732  1.00  0.00     0.059 A 
ATOM     93  C   UNL     1      -2.204  10.800  10.674  1.00  0.00     0.059 A 
ATOM     94  F   UNL     1      -1.507   9.024   9.313  1.00  0.00    -0.206 F 
ATOM     95  C   UNL     1      -2.493  12.155  10.822  1.00  0.00     0.060 A 
BRANCH  95  96
ATOM     96  S   UNL     1      -2.963  12.817  12.434  1.00  0.00     0.124 S 
ATOM     97  O   UNL     1      -1.761  13.554  12.811  1.00  0.00    -0.237 OA
ATOM     98  O   UNL     1      -4.130  13.631  12.111  1.00  0.00    -0.237 OA
ATOM     99  O   UNL     1      -3.240  11.622  13.226  1.00  0.00    -0.744 OA
ENDBRANCH  95  96
ENDBRANCH  63  88
ENDBRANCH  37  38
ENDBRANCH  30  32
ENDBRANCH  29  30
ENDBRANCH  28  29
ENDBRANCH  27  28
ENDBRANCH  26  27
ENDBRANCH  25  26
ENDBRANCH   1  25
TORSDOF 24
