REMARK SMILES O=C(OCCOCCOCCOC(=O)[C@H](c1c[nH]c2cc(F)ccc12)[NH+]1CC[NH+](CC(=O)N2CCOCC2)CC1)c1ccc(-c2c3nc(c(-c4c(F)cc(S(=O)(=O)[O-])cc4F)c4ccc([nH]4)c(-c4c(F)cc(S(=O)(=O)[O-])cc4F)c4nc(c(-c5c(F)cc(S(=O)(=O)[O-])cc5F)c5ccc2[nH]5)C=C4)C=C3)cc1
REMARK SMILES IDX 7 1 6 2 5 3 4 4 3 5 2 6 1 7 41 8 42 9 106 10 43 11 105 12
REMARK SMILES IDX 44 13 45 14 46 15 99 16 47 17 104 18 98 19 100 20 48 21
REMARK SMILES IDX 103 22 97 23 96 24 49 26 83 27 62 28 82 29 63 30 66 31 81 32
REMARK SMILES IDX 101 33 64 34 65 35 80 37 102 38 67 39 50 40 51 41 60 42
REMARK SMILES IDX 52 43 53 44 59 45 61 46 54 47 55 48 56 49 57 50 58 51 84 52
REMARK SMILES IDX 85 53 94 54 86 55 87 56 93 57 95 58 88 59 89 60 90 61 91 62
REMARK SMILES IDX 92 63 68 64 69 65 78 66 70 67 71 68 77 69 79 70 72 71 73 72
REMARK SMILES IDX 74 73 75 74 76 75 8 76 9 77 10 78 11 79 12 80 13 81 14 82
REMARK SMILES IDX 15 83 26 84 27 85 40 86 28 88 39 89 29 90 30 92 31 93 32 94
REMARK SMILES IDX 33 95 34 96 38 97 35 98 37 99 36 100 16 101 17 102 25 103
REMARK SMILES IDX 18 104 19 105 24 106 20 108 23 109 21 110 22 111
REMARK H PARENT 100 25 66 36 26 87 29 91 18 107
REMARK Flexibility Score: inf
ROOT
ATOM      1  C   UNL     1       6.080   2.304   3.656  1.00  0.00     0.188 C 
ENDROOT
BRANCH   1   2
ATOM      2  O   UNL     1       6.159   1.345   2.601  1.00  0.00    -0.376 OA
BRANCH   2   3
ATOM      3  C   UNL     1       7.410   0.655   2.558  1.00  0.00     0.202 C 
BRANCH   3   4
ATOM      4  C   UNL     1       8.501   1.383   1.757  1.00  0.00     0.261 C 
BRANCH   4   5
ATOM      5  O   UNL     1       8.451   2.803   1.913  1.00  0.00    -0.460 OA
BRANCH   5   6
ATOM      6  C   UNL     1       7.748   3.690   1.174  1.00  0.00     0.338 C 
ATOM      7  O   UNL     1       7.779   4.871   1.526  1.00  0.00    -0.246 OA
BRANCH   6   8
ATOM      8  C   UNL     1       6.917   3.353  -0.035  1.00  0.00     0.060 A 
ATOM      9  C   UNL     1       6.333   2.117  -0.366  1.00  0.00     0.016 A 
ATOM     10  C   UNL     1       6.559   4.449  -0.822  1.00  0.00     0.016 A 
ATOM     11  C   UNL     1       5.349   1.981  -1.373  1.00  0.00     0.010 A 
ATOM     12  C   UNL     1       5.556   4.322  -1.788  1.00  0.00     0.010 A 
ATOM     13  C   UNL     1       4.885   3.095  -2.053  1.00  0.00    -0.014 A 
BRANCH  13  14
ATOM     14  C   UNL     1       3.741   3.099  -3.042  1.00  0.00     0.031 A 
ATOM     15  C   UNL     1       4.035   3.865  -4.305  1.00  0.00     0.074 A 
ATOM     16  C   UNL     1       2.472   2.652  -2.809  1.00  0.00     0.049 A 
ATOM     17  N   UNL     1       3.226   4.448  -5.142  1.00  0.00    -0.248 NA
ATOM     18  C   UNL     1       5.471   4.108  -4.590  1.00  0.00     0.031 C 
ATOM     19  C   UNL     1       1.999   1.883  -1.653  1.00  0.00     0.029 A 
ATOM     20  N   UNL     1       1.291   2.886  -3.503  1.00  0.00    -0.354 N 
ATOM     21  C   UNL     1       4.075   5.069  -6.044  1.00  0.00     0.074 A 
ATOM     22  C   UNL     1       5.391   5.099  -5.459  1.00  0.00     0.031 C 
ATOM     23  C   UNL     1       0.648   1.840  -1.640  1.00  0.00     0.029 A 
ATOM     24  C   UNL     1       0.133   2.537  -2.808  1.00  0.00     0.049 A 
ATOM     25  H   UNL     1       1.273   3.266  -4.411  1.00  0.00     0.167 HD
ATOM     26  C   UNL     1       3.855   5.340  -7.348  1.00  0.00     0.037 A 
ATOM     27  C   UNL     1      -1.174   2.779  -3.088  1.00  0.00     0.037 A 
ATOM     28  C   UNL     1       2.580   5.155  -7.961  1.00  0.00     0.049 A 
ATOM     29  C   UNL     1      -1.468   3.368  -4.448  1.00  0.00     0.074 A 
ATOM     30  C   UNL     1       2.234   5.259  -9.291  1.00  0.00     0.029 A 
ATOM     31  N   UNL     1       1.435   4.801  -7.260  1.00  0.00    -0.354 N 
ATOM     32  N   UNL     1      -0.629   3.808  -5.356  1.00  0.00    -0.248 NA
ATOM     33  C   UNL     1      -2.877   3.393  -4.868  1.00  0.00     0.031 C 
ATOM     34  C   UNL     1       0.864   4.998  -9.391  1.00  0.00     0.029 A 
ATOM     35  C   UNL     1       0.371   4.694  -8.129  1.00  0.00     0.049 A 
ATOM     36  H   UNL     1       1.391   4.650  -6.289  1.00  0.00     0.167 HD
ATOM     37  C   UNL     1      -1.390   4.031  -6.496  1.00  0.00     0.074 A 
ATOM     38  C   UNL     1      -2.768   3.762  -6.137  1.00  0.00     0.031 C 
ATOM     39  C   UNL     1      -0.977   4.360  -7.744  1.00  0.00     0.037 A 
BRANCH  26  40
ATOM     40  C   UNL     1       5.071   5.666  -8.166  1.00  0.00     0.058 A 
ATOM     41  C   UNL     1       6.088   4.705  -8.350  1.00  0.00     0.135 A 
ATOM     42  C   UNL     1       5.283   6.948  -8.683  1.00  0.00     0.135 A 
ATOM     43  F   UNL     1       5.948   3.465  -7.850  1.00  0.00    -0.206 F 
ATOM     44  C   UNL     1       7.298   5.027  -8.945  1.00  0.00     0.059 A 
ATOM     45  C   UNL     1       6.474   7.280  -9.324  1.00  0.00     0.059 A 
ATOM     46  F   UNL     1       4.351   7.902  -8.532  1.00  0.00    -0.206 F 
ATOM     47  C   UNL     1       7.484   6.322  -9.425  1.00  0.00     0.060 A 
BRANCH  47  48
ATOM     48  S   UNL     1       9.075   6.721 -10.175  1.00  0.00     0.124 S 
ATOM     49  O   UNL     1       9.941   6.791  -9.003  1.00  0.00    -0.237 OA
ATOM     50  O   UNL     1       9.296   5.593 -11.063  1.00  0.00    -0.237 OA
ATOM     51  O   UNL     1       8.818   8.003 -10.840  1.00  0.00    -0.744 OA
ENDBRANCH  47  48
ENDBRANCH  26  40
BRANCH  27  52
ATOM     52  C   UNL     1      -2.341   2.430  -2.194  1.00  0.00     0.058 A 
ATOM     53  C   UNL     1      -3.031   1.212  -2.291  1.00  0.00     0.135 A 
ATOM     54  C   UNL     1      -2.936   3.394  -1.363  1.00  0.00     0.135 A 
ATOM     55  F   UNL     1      -2.612   0.280  -3.159  1.00  0.00    -0.206 F 
ATOM     56  C   UNL     1      -4.217   0.963  -1.578  1.00  0.00     0.059 A 
ATOM     57  C   UNL     1      -4.074   3.156  -0.589  1.00  0.00     0.059 A 
ATOM     58  F   UNL     1      -2.494   4.651  -1.387  1.00  0.00    -0.206 F 
ATOM     59  C   UNL     1      -4.724   1.938  -0.716  1.00  0.00     0.060 A 
BRANCH  59  60
ATOM     60  S   UNL     1      -6.252   1.633   0.208  1.00  0.00     0.124 S 
ATOM     61  O   UNL     1      -7.266   1.837  -0.819  1.00  0.00    -0.237 OA
ATOM     62  O   UNL     1      -6.071   0.259   0.664  1.00  0.00    -0.237 OA
ATOM     63  O   UNL     1      -6.211   2.644   1.262  1.00  0.00    -0.744 OA
ENDBRANCH  59  60
ENDBRANCH  27  52
BRANCH  39  64
ATOM     64  C   UNL     1      -1.987   4.295  -8.846  1.00  0.00     0.058 A 
ATOM     65  C   UNL     1      -2.964   5.280  -9.023  1.00  0.00     0.135 A 
ATOM     66  C   UNL     1      -1.889   3.271  -9.805  1.00  0.00     0.135 A 
ATOM     67  F   UNL     1      -3.102   6.267  -8.124  1.00  0.00    -0.206 F 
ATOM     68  C   UNL     1      -3.814   5.256 -10.121  1.00  0.00     0.059 A 
ATOM     69  C   UNL     1      -2.704   3.248 -10.927  1.00  0.00     0.059 A 
ATOM     70  F   UNL     1      -0.959   2.310  -9.678  1.00  0.00    -0.206 F 
ATOM     71  C   UNL     1      -3.666   4.244 -11.073  1.00  0.00     0.060 A 
BRANCH  71  72
ATOM     72  S   UNL     1      -4.716   4.277 -12.539  1.00  0.00     0.124 S 
ATOM     73  O   UNL     1      -5.997   3.844 -11.992  1.00  0.00    -0.237 OA
ATOM     74  O   UNL     1      -4.639   5.677 -12.945  1.00  0.00    -0.237 OA
ATOM     75  O   UNL     1      -4.066   3.333 -13.443  1.00  0.00    -0.744 OA
ENDBRANCH  71  72
ENDBRANCH  39  64
ENDBRANCH  13  14
ENDBRANCH   6   8
ENDBRANCH   5   6
ENDBRANCH   4   5
ENDBRANCH   3   4
ENDBRANCH   2   3
ENDBRANCH   1   2
BRANCH   1  76
ATOM     76  C   UNL     1       5.340   1.881   4.934  1.00  0.00     0.188 C 
BRANCH  76  77
ATOM     77  O   UNL     1       5.293   0.503   5.258  1.00  0.00    -0.376 OA
BRANCH  77  78
ATOM     78  C   UNL     1       4.657  -0.370   4.330  1.00  0.00     0.202 C 
BRANCH  78  79
ATOM     79  C   UNL     1       3.256  -0.042   3.781  1.00  0.00     0.261 C 
BRANCH  79  80
ATOM     80  O   UNL     1       3.085   1.222   3.090  1.00  0.00    -0.459 OA
BRANCH  80  81
ATOM     81  C   UNL     1       2.156   2.052   3.649  1.00  0.00     0.370 C 
ATOM     82  O   UNL     1       1.655   1.819   4.754  1.00  0.00    -0.245 OA
BRANCH  81  83
ATOM     83  C   UNL     1       1.728   3.305   2.862  1.00  0.00     0.328 C 
BRANCH  83  84
ATOM     84  N   UNL     1       2.094   4.529   3.635  1.00  0.00    -0.310 N 
ATOM     85  C   UNL     1       3.420   5.168   3.477  1.00  0.00     0.325 C 
ATOM     86  C   UNL     1       0.990   5.474   3.667  1.00  0.00     0.325 C 
ATOM     87  H   UNL     1       2.260   4.128   4.558  1.00  0.00     0.349 HD
ATOM     88  C   UNL     1       3.511   6.572   2.799  1.00  0.00     0.325 C 
ATOM     89  C   UNL     1       1.127   6.816   2.941  1.00  0.00     0.325 C 
ATOM     90  N   UNL     1       2.410   7.483   3.092  1.00  0.00    -0.318 N 
ATOM     91  H   UNL     1       2.458   8.199   2.367  1.00  0.00     0.348 HD
BRANCH  90  92
ATOM     92  C   UNL     1       2.548   8.358   4.255  1.00  0.00     0.364 C 
BRANCH  92  93
ATOM     93  C   UNL     1       3.254   7.785   5.489  1.00  0.00     0.277 C 
ATOM     94  O   UNL     1       4.489   7.708   5.509  1.00  0.00    -0.268 OA
ATOM     95  N   UNL     1       2.506   7.471   6.618  1.00  0.00    -0.333 N 
ATOM     96  C   UNL     1       1.151   6.931   6.597  1.00  0.00     0.148 C 
ATOM     97  C   UNL     1       3.225   7.166   7.847  1.00  0.00     0.148 C 
ATOM     98  C   UNL     1       0.354   7.115   7.884  1.00  0.00     0.181 C 
ATOM     99  C   UNL     1       2.355   7.484   9.063  1.00  0.00     0.181 C 
ATOM    100  O   UNL     1       1.125   6.747   9.033  1.00  0.00    -0.378 OA
ENDBRANCH  92  93
ENDBRANCH  90  92
ENDBRANCH  83  84
BRANCH  83 101
ATOM    101  C   UNL     1       2.081   3.568   1.445  1.00  0.00     0.046 A 
ATOM    102  C   UNL     1       3.345   3.438   0.923  1.00  0.00     0.094 A 
ATOM    103  C   UNL     1       1.325   4.374   0.502  1.00  0.00     0.009 A 
ATOM    104  N   UNL     1       3.467   4.516   0.104  1.00  0.00    -0.361 N 
ATOM    105  C   UNL     1       2.261   4.947  -0.353  1.00  0.00     0.049 A 
ATOM    106  C   UNL     1      -0.005   4.825   0.381  1.00  0.00     0.014 A 
ATOM    107  H   UNL     1       4.326   4.935  -0.131  1.00  0.00     0.166 HD
ATOM    108  C   UNL     1       1.972   5.862  -1.368  1.00  0.00     0.065 A 
ATOM    109  C   UNL     1      -0.303   5.807  -0.584  1.00  0.00     0.040 A 
ATOM    110  C   UNL     1       0.657   6.269  -1.470  1.00  0.00     0.125 A 
ATOM    111  F   UNL     1       0.319   7.167  -2.405  1.00  0.00    -0.207 F 
ENDBRANCH  83 101
ENDBRANCH  81  83
ENDBRANCH  80  81
ENDBRANCH  79  80
ENDBRANCH  78  79
ENDBRANCH  77  78
ENDBRANCH  76  77
ENDBRANCH   1  76
TORSDOF 24
