REMARK SMILES N#CCS(=O)(=O)NC[C@H]1CC[C@H](C(=O)OCCOCCOCCOC(=O)c2ccc(-c3c4nc(c(-c5c(F)cc(S(=O)(=O)[O-])cc5F)c5ccc([nH]5)c(-c5c(F)cc(S(=O)(=O)[O-])cc5F)c5nc(c(-c6c(F)cc(S(=O)(=O)[O-])cc6F)c6ccc3[nH]6)C=C5)C=C4)cc2)O1
REMARK SMILES IDX 19 1 18 2 17 3 16 4 15 5 13 6 14 7 12 8 9 9 10 10 93 11
REMARK SMILES IDX 11 12 8 13 7 14 4 16 5 17 6 18 3 19 2 20 1 21 20 22 21 23
REMARK SMILES IDX 22 24 23 25 24 26 25 27 26 28 27 29 28 30 92 31 29 32 91 33
REMARK SMILES IDX 30 34 31 35 32 36 85 37 33 38 90 39 84 40 86 41 34 42 89 43
REMARK SMILES IDX 83 44 82 45 35 47 69 48 48 49 68 50 49 51 52 52 67 53 87 54
REMARK SMILES IDX 50 55 51 56 66 58 88 59 53 60 36 61 37 62 46 63 38 64 39 65
REMARK SMILES IDX 45 66 47 67 40 68 41 69 42 70 43 71 44 72 70 73 71 74 80 75
REMARK SMILES IDX 72 76 73 77 79 78 81 79 74 80 75 81 76 82 77 83 78 84 54 85
REMARK SMILES IDX 55 86 64 87 56 88 57 89 63 90 65 91 58 92 59 93 60 94 61 95
REMARK SMILES IDX 62 96
REMARK H PARENT 7 15 86 46 52 57
REMARK Flexibility Score: inf
ROOT
ATOM      1  C   UNL     1       4.169   4.080  -2.111  1.00  0.00     0.188 C 
ENDROOT
BRANCH   1   2
ATOM      2  O   UNL     1       5.181   4.188  -1.126  1.00  0.00    -0.376 OA
BRANCH   2   3
ATOM      3  C   UNL     1       5.863   2.994  -0.753  1.00  0.00     0.202 C 
BRANCH   3   4
ATOM      4  C   UNL     1       5.048   1.709  -0.508  1.00  0.00     0.261 C 
BRANCH   4   5
ATOM      5  O   UNL     1       4.300   1.253  -1.659  1.00  0.00    -0.461 OA
BRANCH   5   6
ATOM      6  C   UNL     1       2.957   1.165  -1.484  1.00  0.00     0.335 C 
ATOM      7  O   UNL     1       2.410   1.308  -0.393  1.00  0.00    -0.249 OA
BRANCH   6   8
ATOM      8  C   UNL     1       2.150   0.968  -2.776  1.00  0.00     0.228 C 
ATOM      9  C   UNL     1       1.889  -1.311  -3.189  1.00  0.00     0.134 C 
ATOM     10  C   UNL     1       2.970  -0.806  -4.128  1.00  0.00     0.037 C 
ATOM     11  O   UNL     1       1.327  -0.174  -2.523  1.00  0.00    -0.362 OA
ATOM     12  C   UNL     1       2.747   0.678  -4.140  1.00  0.00     0.047 C 
BRANCH   9  13
ATOM     13  C   UNL     1       0.708  -2.021  -3.847  1.00  0.00     0.130 C 
BRANCH  13  14
ATOM     14  N   UNL     1       0.483  -3.393  -3.353  1.00  0.00    -0.212 NA
ATOM     15  H   UNL     1      -0.377  -3.709  -3.800  1.00  0.00     0.141 HD
BRANCH  14  16
ATOM     16  S   UNL     1       0.329  -3.796  -1.736  1.00  0.00     0.225 S 
ATOM     17  O   UNL     1       1.451  -3.282  -0.988  1.00  0.00    -0.211 OA
ATOM     18  O   UNL     1       0.135  -5.235  -1.781  1.00  0.00    -0.211 OA
BRANCH  16  19
ATOM     19  C   UNL     1      -1.196  -3.101  -1.143  1.00  0.00     0.273 C 
BRANCH  19  20
ATOM     20  C   UNL     1      -1.120  -1.658  -1.072  1.00  0.00     0.080 C 
ATOM     21  N   UNL     1      -1.210  -0.500  -0.992  1.00  0.00    -0.197 NA
ENDBRANCH  19  20
ENDBRANCH  16  19
ENDBRANCH  14  16
ENDBRANCH  13  14
ENDBRANCH   9  13
ENDBRANCH   6   8
ENDBRANCH   5   6
ENDBRANCH   4   5
ENDBRANCH   3   4
ENDBRANCH   2   3
ENDBRANCH   1   2
BRANCH   1  22
ATOM     22  C   UNL     1       4.613   3.590  -3.487  1.00  0.00     0.188 C 
BRANCH  22  23
ATOM     23  O   UNL     1       5.550   2.539  -3.533  1.00  0.00    -0.376 OA
BRANCH  23  24
ATOM     24  C   UNL     1       6.814   2.669  -4.171  1.00  0.00     0.202 C 
BRANCH  24  25
ATOM     25  C   UNL     1       7.436   3.984  -4.707  1.00  0.00     0.261 C 
BRANCH  25  26
ATOM     26  O   UNL     1       6.587   5.072  -5.098  1.00  0.00    -0.460 OA
BRANCH  26  27
ATOM     27  C   UNL     1       5.737   4.859  -6.135  1.00  0.00     0.338 C 
ATOM     28  O   UNL     1       5.756   3.901  -6.888  1.00  0.00    -0.246 OA
BRANCH  27  29
ATOM     29  C   UNL     1       4.593   5.815  -6.002  1.00  0.00     0.060 A 
ATOM     30  C   UNL     1       3.290   5.292  -6.054  1.00  0.00     0.016 A 
ATOM     31  C   UNL     1       4.776   7.173  -5.726  1.00  0.00     0.016 A 
ATOM     32  C   UNL     1       2.177   6.123  -5.884  1.00  0.00     0.010 A 
ATOM     33  C   UNL     1       3.658   8.011  -5.586  1.00  0.00     0.010 A 
ATOM     34  C   UNL     1       2.350   7.500  -5.700  1.00  0.00    -0.014 A 
BRANCH  34  35
ATOM     35  C   UNL     1       1.190   8.428  -5.833  1.00  0.00     0.031 A 
ATOM     36  C   UNL     1       1.022   9.171  -7.136  1.00  0.00     0.074 A 
ATOM     37  C   UNL     1       0.291   8.609  -4.845  1.00  0.00     0.049 A 
ATOM     38  N   UNL     1       0.152  10.091  -7.466  1.00  0.00    -0.248 NA
ATOM     39  C   UNL     1       1.970   8.830  -8.209  1.00  0.00     0.031 C 
ATOM     40  C   UNL     1       0.297   7.920  -3.557  1.00  0.00     0.029 A 
ATOM     41  N   UNL     1      -0.799   9.446  -4.771  1.00  0.00    -0.354 N 
ATOM     42  C   UNL     1       0.459  10.450  -8.775  1.00  0.00     0.074 A 
ATOM     43  C   UNL     1       1.611   9.669  -9.169  1.00  0.00     0.031 C 
ATOM     44  C   UNL     1      -0.727   8.376  -2.812  1.00  0.00     0.029 A 
ATOM     45  C   UNL     1      -1.438   9.419  -3.552  1.00  0.00     0.049 A 
ATOM     46  H   UNL     1      -1.094  10.012  -5.520  1.00  0.00     0.167 HD
ATOM     47  C   UNL     1      -0.165  11.344  -9.580  1.00  0.00     0.037 A 
ATOM     48  C   UNL     1      -2.456  10.169  -3.075  1.00  0.00     0.037 A 
ATOM     49  C   UNL     1      -1.313  12.120  -9.187  1.00  0.00     0.049 A 
ATOM     50  C   UNL     1      -3.084  11.220  -3.962  1.00  0.00     0.074 A 
ATOM     51  C   UNL     1      -2.026  13.037  -9.940  1.00  0.00     0.029 A 
ATOM     52  N   UNL     1      -1.910  12.082  -7.936  1.00  0.00    -0.354 N 
ATOM     53  N   UNL     1      -2.797  11.533  -5.204  1.00  0.00    -0.248 NA
ATOM     54  C   UNL     1      -4.175  12.019  -3.384  1.00  0.00     0.031 C 
ATOM     55  C   UNL     1      -3.007  13.605  -9.123  1.00  0.00     0.029 A 
ATOM     56  C   UNL     1      -2.961  12.984  -7.886  1.00  0.00     0.049 A 
ATOM     57  H   UNL     1      -1.630  11.499  -7.193  1.00  0.00     0.167 HD
ATOM     58  C   UNL     1      -3.697  12.536  -5.564  1.00  0.00     0.074 A 
ATOM     59  C   UNL     1      -4.544  12.767  -4.414  1.00  0.00     0.031 C 
ATOM     60  C   UNL     1      -3.811  13.201  -6.741  1.00  0.00     0.037 A 
BRANCH  47  61
ATOM     61  C   UNL     1       0.397  11.563 -10.960  1.00  0.00     0.058 A 
ATOM     62  C   UNL     1       0.311  10.586 -11.964  1.00  0.00     0.135 A 
ATOM     63  C   UNL     1       0.980  12.796 -11.299  1.00  0.00     0.135 A 
ATOM     64  F   UNL     1      -0.218   9.382 -11.694  1.00  0.00    -0.206 F 
ATOM     65  C   UNL     1       0.798  10.816 -13.247  1.00  0.00     0.059 A 
ATOM     66  C   UNL     1       1.443  13.060 -12.584  1.00  0.00     0.059 A 
ATOM     67  F   UNL     1       1.094  13.766 -10.377  1.00  0.00    -0.206 F 
ATOM     68  C   UNL     1       1.356  12.059 -13.549  1.00  0.00     0.060 A 
BRANCH  68  69
ATOM     69  S   UNL     1       1.959  12.347 -15.226  1.00  0.00     0.124 S 
ATOM     70  O   UNL     1       3.118  11.462 -15.276  1.00  0.00    -0.237 OA
ATOM     71  O   UNL     1       0.817  11.941 -16.039  1.00  0.00    -0.237 OA
ATOM     72  O   UNL     1       2.260  13.775 -15.241  1.00  0.00    -0.744 OA
ENDBRANCH  68  69
ENDBRANCH  47  61
BRANCH  48  73
ATOM     73  C   UNL     1      -2.938   9.984  -1.675  1.00  0.00     0.058 A 
ATOM     74  C   UNL     1      -4.236   9.522  -1.403  1.00  0.00     0.135 A 
ATOM     75  C   UNL     1      -2.122  10.302  -0.577  1.00  0.00     0.135 A 
ATOM     76  F   UNL     1      -5.066   9.223  -2.414  1.00  0.00    -0.206 F 
ATOM     77  C   UNL     1      -4.713   9.402  -0.101  1.00  0.00     0.059 A 
ATOM     78  C   UNL     1      -2.563  10.157   0.735  1.00  0.00     0.059 A 
ATOM     79  F   UNL     1      -0.872  10.749  -0.776  1.00  0.00    -0.206 F 
ATOM     80  C   UNL     1      -3.866   9.719   0.963  1.00  0.00     0.060 A 
BRANCH  80  81
ATOM     81  S   UNL     1      -4.486   9.529   2.649  1.00  0.00     0.124 S 
ATOM     82  O   UNL     1      -5.465  10.608   2.727  1.00  0.00    -0.237 OA
ATOM     83  O   UNL     1      -5.030   8.175   2.623  1.00  0.00    -0.237 OA
ATOM     84  O   UNL     1      -3.291   9.703   3.469  1.00  0.00    -0.744 OA
ENDBRANCH  80  81
ENDBRANCH  48  73
BRANCH  60  85
ATOM     85  C   UNL     1      -4.925  14.210  -6.877  1.00  0.00     0.058 A 
ATOM     86  C   UNL     1      -4.921  15.428  -6.179  1.00  0.00     0.135 A 
ATOM     87  C   UNL     1      -5.986  13.975  -7.769  1.00  0.00     0.135 A 
ATOM     88  F   UNL     1      -3.935  15.706  -5.311  1.00  0.00    -0.206 F 
ATOM     89  C   UNL     1      -5.941  16.362  -6.338  1.00  0.00     0.059 A 
ATOM     90  C   UNL     1      -6.996  14.911  -7.972  1.00  0.00     0.059 A 
ATOM     91  F   UNL     1      -6.037  12.834  -8.475  1.00  0.00    -0.206 F 
ATOM     92  C   UNL     1      -6.972  16.097  -7.241  1.00  0.00     0.060 A 
BRANCH  92  93
ATOM     93  S   UNL     1      -8.268  17.334  -7.463  1.00  0.00     0.124 S 
ATOM     94  O   UNL     1      -8.978  17.249  -6.190  1.00  0.00    -0.237 OA
ATOM     95  O   UNL     1      -7.498  18.555  -7.679  1.00  0.00    -0.237 OA
ATOM     96  O   UNL     1      -9.007  16.851  -8.625  1.00  0.00    -0.744 OA
ENDBRANCH  92  93
ENDBRANCH  60  85
ENDBRANCH  34  35
ENDBRANCH  27  29
ENDBRANCH  26  27
ENDBRANCH  25  26
ENDBRANCH  24  25
ENDBRANCH  23  24
ENDBRANCH  22  23
ENDBRANCH   1  22
TORSDOF 25
