REMARK SMILES O=C(OCCOCCOCCOC(=O)c1ccc(-c2c3nc(c(-c4c(F)cc(S(=O)(=O)[O-])cc4F)c4ccc([nH]4)c(-c4c(F)cc(S(=O)(=O)[O-])cc4F)c4nc(c(-c5c(F)cc(S(=O)(=O)[O-])cc5F)c5ccc2[nH]5)C=C4)C=C3)cc1)C1=Cc2cc(Cl)cc(C#Cc3ccccc3)c2O[C@@H]1C(F)(F)F
REMARK SMILES IDX 8 1 7 2 6 3 5 4 4 5 3 6 2 7 1 8 81 9 82 10 99 11 83 12 98 13
REMARK SMILES IDX 84 14 97 15 85 16 88 17 86 18 87 19 100 20 101 21 102 22
REMARK SMILES IDX 103 23 89 24 90 25 91 26 92 27 96 28 93 29 95 30 94 31 9 32
REMARK SMILES IDX 10 33 11 34 12 35 13 36 14 37 15 38 16 39 80 40 17 41 79 42
REMARK SMILES IDX 18 43 19 44 20 45 73 46 21 47 78 48 72 49 74 50 22 51 77 52
REMARK SMILES IDX 71 53 70 54 23 56 57 57 36 58 56 59 37 60 40 61 55 62 75 63
REMARK SMILES IDX 38 64 39 65 54 67 76 68 41 69 24 70 25 71 34 72 26 73 27 74
REMARK SMILES IDX 33 75 35 76 28 77 29 78 30 79 31 80 32 81 58 82 59 83 68 84
REMARK SMILES IDX 60 85 61 86 67 87 69 88 62 89 63 90 64 91 65 92 66 93 42 94
REMARK SMILES IDX 43 95 52 96 44 97 45 98 51 99 53 100 46 101 47 102 48 103
REMARK SMILES IDX 49 104 50 105
REMARK H PARENT 74 55 40 66
REMARK Flexibility Score: inf
ROOT
ATOM      1  C   UNL     1       2.079  -1.046  -3.277  1.00  0.00     0.188 C 
ENDROOT
BRANCH   1   2
ATOM      2  C   UNL     1       2.345   0.102  -2.298  1.00  0.00     0.188 C 
BRANCH   2   3
ATOM      3  O   UNL     1       3.703   0.568  -1.931  1.00  0.00    -0.376 OA
BRANCH   3   4
ATOM      4  C   UNL     1       4.428   0.659  -0.389  1.00  0.00     0.202 C 
BRANCH   4   5
ATOM      5  C   UNL     1       3.712  -0.335   1.411  1.00  0.00     0.261 C 
BRANCH   5   6
ATOM      6  O   UNL     1       2.783   0.266   2.464  1.00  0.00    -0.460 OA
BRANCH   6   7
ATOM      7  C   UNL     1       2.986   1.581   2.632  1.00  0.00     0.338 C 
ATOM      8  O   UNL     1       2.325   2.368   3.261  1.00  0.00    -0.246 OA
BRANCH   7   9
ATOM      9  C   UNL     1       3.854   1.753   1.483  1.00  0.00     0.087 C 
ATOM     10  C   UNL     1       5.236   1.316   1.671  1.00  0.00     0.027 C 
ATOM     11  C   UNL     1       2.607   0.961   0.255  1.00  0.00     0.316 C 
ATOM     12  C   UNL     1       5.902  -0.218   1.002  1.00  0.00     0.020 A 
ATOM     13  O   UNL     1       3.248  -0.779  -0.362  1.00  0.00    -0.474 OA
ATOM     14  C   UNL     1       7.177  -0.573   1.351  1.00  0.00     0.032 A 
ATOM     15  C   UNL     1       4.948  -1.316   0.049  1.00  0.00     0.143 A 
ATOM     16  C   UNL     1       7.602  -1.810   0.849  1.00  0.00     0.043 A 
ATOM     17  C   UNL     1       5.462  -2.509  -0.402  1.00  0.00     0.069 A 
ATOM     18  Cl  UNL     1       9.212  -2.311   1.261  1.00  0.00    -0.084 Cl
ATOM     19  C   UNL     1       6.808  -2.707   0.024  1.00  0.00     0.041 A 
BRANCH  11  20
ATOM     20  C   UNL     1       2.325   2.415  -0.534  1.00  0.00     0.430 C 
ATOM     21  F   UNL     1       2.247   2.493  -1.860  1.00  0.00    -0.167 F 
ATOM     22  F   UNL     1       1.153   2.922  -0.066  1.00  0.00    -0.167 F 
ATOM     23  F   UNL     1       3.265   3.353  -0.208  1.00  0.00    -0.167 F 
ENDBRANCH  11  20
BRANCH  17  24
ATOM     24  C   UNL     1       4.877  -3.504  -1.234  1.00  0.00    -0.058 C 
ATOM     25  C   UNL     1       4.588  -4.404  -1.989  1.00  0.00    -0.062 C 
BRANCH  25  26
ATOM     26  C   UNL     1       4.330  -5.445  -2.942  1.00  0.00     0.025 A 
ATOM     27  C   UNL     1       3.438  -5.223  -3.994  1.00  0.00     0.017 A 
ATOM     28  C   UNL     1       4.976  -6.681  -2.849  1.00  0.00     0.017 A 
ATOM     29  C   UNL     1       3.178  -6.222  -4.934  1.00  0.00     0.001 A 
ATOM     30  C   UNL     1       4.708  -7.688  -3.785  1.00  0.00     0.001 A 
ATOM     31  C   UNL     1       3.807  -7.458  -4.825  1.00  0.00     0.000 A 
ENDBRANCH  25  26
ENDBRANCH  17  24
ENDBRANCH   7   9
ENDBRANCH   6   7
ENDBRANCH   5   6
ENDBRANCH   4   5
ENDBRANCH   3   4
ENDBRANCH   2   3
ENDBRANCH   1   2
BRANCH   1  32
ATOM     32  O   UNL     1       3.074  -1.996  -3.536  1.00  0.00    -0.376 OA
BRANCH  32  33
ATOM     33  C   UNL     1       4.365  -1.514  -3.869  1.00  0.00     0.202 C 
BRANCH  33  34
ATOM     34  C   UNL     1       4.495  -0.597  -5.085  1.00  0.00     0.261 C 
BRANCH  34  35
ATOM     35  O   UNL     1       3.961   0.719  -4.873  1.00  0.00    -0.460 OA
BRANCH  35  36
ATOM     36  C   UNL     1       2.866   1.057  -5.594  1.00  0.00     0.338 C 
ATOM     37  O   UNL     1       2.253   0.362  -6.385  1.00  0.00    -0.246 OA
BRANCH  36  38
ATOM     38  C   UNL     1       2.425   2.396  -5.169  1.00  0.00     0.060 A 
ATOM     39  C   UNL     1       1.134   2.569  -4.648  1.00  0.00     0.016 A 
ATOM     40  C   UNL     1       3.289   3.481  -5.314  1.00  0.00     0.016 A 
ATOM     41  C   UNL     1       0.709   3.836  -4.253  1.00  0.00     0.010 A 
ATOM     42  C   UNL     1       2.847   4.754  -4.965  1.00  0.00     0.010 A 
ATOM     43  C   UNL     1       1.549   4.938  -4.456  1.00  0.00    -0.014 A 
BRANCH  43  44
ATOM     44  C   UNL     1       0.991   6.306  -4.399  1.00  0.00     0.031 A 
ATOM     45  C   UNL     1       0.455   6.880  -5.680  1.00  0.00     0.074 A 
ATOM     46  C   UNL     1       0.985   7.019  -3.260  1.00  0.00     0.049 A 
ATOM     47  N   UNL     1      -0.013   8.074  -5.923  1.00  0.00    -0.248 NA
ATOM     48  C   UNL     1       0.459   5.984  -6.851  1.00  0.00     0.031 C 
ATOM     49  C   UNL     1       1.453   6.543  -1.960  1.00  0.00     0.029 A 
ATOM     50  N   UNL     1       0.582   8.309  -3.024  1.00  0.00    -0.354 N 
ATOM     51  C   UNL     1      -0.354   8.074  -7.270  1.00  0.00     0.074 A 
ATOM     52  C   UNL     1      -0.011   6.775  -7.801  1.00  0.00     0.031 C 
ATOM     53  C   UNL     1       1.328   7.538  -1.063  1.00  0.00     0.029 A 
ATOM     54  C   UNL     1       0.804   8.728  -1.733  1.00  0.00     0.049 A 
ATOM     55  H   UNL     1       0.173   8.881  -3.713  1.00  0.00     0.167 HD
ATOM     56  C   UNL     1      -0.910   9.070  -7.996  1.00  0.00     0.037 A 
ATOM     57  C   UNL     1       0.626   9.942  -1.174  1.00  0.00     0.037 A 
ATOM     58  C   UNL     1      -1.222  10.366  -7.456  1.00  0.00     0.049 A 
ATOM     59  C   UNL     1       0.075  11.062  -2.025  1.00  0.00     0.074 A 
ATOM     60  C   UNL     1      -1.797  11.447  -8.098  1.00  0.00     0.029 A 
ATOM     61  N   UNL     1      -0.970  10.760  -6.150  1.00  0.00    -0.354 N 
ATOM     62  N   UNL     1      -0.282  11.043  -3.289  1.00  0.00    -0.248 NA
ATOM     63  C   UNL     1      -0.103  12.368  -1.375  1.00  0.00     0.031 C 
ATOM     64  C   UNL     1      -1.827  12.518  -7.200  1.00  0.00     0.029 A 
ATOM     65  C   UNL     1      -1.348  12.080  -5.974  1.00  0.00     0.049 A 
ATOM     66  H   UNL     1      -0.579  10.187  -5.452  1.00  0.00     0.167 HD
ATOM     67  C   UNL     1      -0.762  12.319  -3.572  1.00  0.00     0.074 A 
ATOM     68  C   UNL     1      -0.658  13.081  -2.345  1.00  0.00     0.031 C 
ATOM     69  C   UNL     1      -1.248  12.816  -4.738  1.00  0.00     0.037 A 
BRANCH  56  70
ATOM     70  C   UNL     1      -1.178   8.809  -9.452  1.00  0.00     0.058 A 
ATOM     71  C   UNL     1      -2.169   7.908  -9.875  1.00  0.00     0.135 A 
ATOM     72  C   UNL     1      -0.456   9.497 -10.440  1.00  0.00     0.135 A 
ATOM     73  F   UNL     1      -2.872   7.202  -8.974  1.00  0.00    -0.206 F 
ATOM     74  C   UNL     1      -2.423   7.687 -11.224  1.00  0.00     0.059 A 
ATOM     75  C   UNL     1      -0.717   9.318 -11.795  1.00  0.00     0.059 A 
ATOM     76  F   UNL     1       0.512  10.360 -10.093  1.00  0.00    -0.206 F 
ATOM     77  C   UNL     1      -1.697   8.404 -12.177  1.00  0.00     0.060 A 
BRANCH  77  78
ATOM     78  S   UNL     1      -2.065   8.130 -13.922  1.00  0.00     0.124 S 
ATOM     79  O   UNL     1      -1.574   6.770 -14.116  1.00  0.00    -0.237 OA
ATOM     80  O   UNL     1      -3.515   8.292 -13.960  1.00  0.00    -0.237 OA
ATOM     81  O   UNL     1      -1.302   9.174 -14.600  1.00  0.00    -0.744 OA
ENDBRANCH  77  78
ENDBRANCH  56  70
BRANCH  57  82
ATOM     82  C   UNL     1       0.982  10.175   0.254  1.00  0.00     0.058 A 
ATOM     83  C   UNL     1       0.002  10.485   1.209  1.00  0.00     0.135 A 
ATOM     84  C   UNL     1       2.316  10.115   0.691  1.00  0.00     0.135 A 
ATOM     85  F   UNL     1      -1.287  10.570   0.844  1.00  0.00    -0.206 F 
ATOM     86  C   UNL     1       0.329  10.750   2.536  1.00  0.00     0.059 A 
ATOM     87  C   UNL     1       2.665  10.342   2.019  1.00  0.00     0.059 A 
ATOM     88  F   UNL     1       3.296   9.818  -0.176  1.00  0.00    -0.206 F 
ATOM     89  C   UNL     1       1.665  10.672   2.933  1.00  0.00     0.060 A 
BRANCH  89  90
ATOM     90  S   UNL     1       2.075  10.987   4.663  1.00  0.00     0.124 S 
ATOM     91  O   UNL     1       1.819  12.418   4.772  1.00  0.00    -0.237 OA
ATOM     92  O   UNL     1       1.136  10.115   5.362  1.00  0.00    -0.237 OA
ATOM     93  O   UNL     1       3.477  10.589   4.755  1.00  0.00    -0.744 OA
ENDBRANCH  89  90
ENDBRANCH  57  82
BRANCH  69  94
ATOM     94  C   UNL     1      -1.762  14.233  -4.736  1.00  0.00     0.058 A 
ATOM     95  C   UNL     1      -0.905  15.338  -4.619  1.00  0.00     0.135 A 
ATOM     96  C   UNL     1      -3.132  14.485  -4.926  1.00  0.00     0.135 A 
ATOM     97  F   UNL     1       0.412  15.157  -4.434  1.00  0.00    -0.206 F 
ATOM     98  C   UNL     1      -1.391  16.642  -4.660  1.00  0.00     0.059 A 
ATOM     99  C   UNL     1      -3.634  15.779  -5.009  1.00  0.00     0.059 A 
ATOM    100  F   UNL     1      -3.995  13.466  -5.059  1.00  0.00    -0.206 F 
ATOM    101  C   UNL     1      -2.757  16.852  -4.862  1.00  0.00     0.060 A 
BRANCH 101 102
ATOM    102  S   UNL     1      -3.366  18.548  -4.952  1.00  0.00     0.124 S 
ATOM    103  O   UNL     1      -3.213  18.990  -3.570  1.00  0.00    -0.237 OA
ATOM    104  O   UNL     1      -2.453  19.154  -5.917  1.00  0.00    -0.237 OA
ATOM    105  O   UNL     1      -4.743  18.393  -5.412  1.00  0.00    -0.744 OA
ENDBRANCH 101 102
ENDBRANCH  69  94
ENDBRANCH  43  44
ENDBRANCH  36  38
ENDBRANCH  35  36
ENDBRANCH  34  35
ENDBRANCH  33  34
ENDBRANCH  32  33
ENDBRANCH   1  32
TORSDOF 23
