REMARK SMILES O=C(OCCOCCOCCOC(=O)c1cc(-c2ccn(C(F)F)c(=O)c2)ccc1O)c1ccc(-c2c3nc(c(-c4c(F)cc(S(=O)(=O)[O-])cc4F)c4ccc([nH]4)c(-c4c(F)cc(S(=O)(=O)[O-])cc4F)c4nc(c(-c5c(F)cc(S(=O)(=O)[O-])cc5F)c5ccc2[nH]5)C=C4)C=C3)cc1
REMARK SMILES IDX 7 1 6 2 5 3 4 4 3 5 2 6 1 7 32 8 33 9 97 10 34 11 96 12
REMARK SMILES IDX 35 13 36 14 37 15 90 16 38 17 95 18 89 19 91 20 39 21 94 22
REMARK SMILES IDX 88 23 87 24 40 26 74 27 53 28 73 29 54 30 57 31 72 32 92 33
REMARK SMILES IDX 55 34 56 35 71 37 93 38 58 39 41 40 42 41 51 42 43 43 44 44
REMARK SMILES IDX 50 45 52 46 45 47 46 48 47 49 48 50 49 51 75 52 76 53 85 54
REMARK SMILES IDX 77 55 78 56 84 57 86 58 79 59 80 60 81 61 82 62 83 63 59 64
REMARK SMILES IDX 60 65 69 66 61 67 62 68 68 69 70 70 63 71 64 72 65 73 66 74
REMARK SMILES IDX 67 75 8 76 9 77 10 78 11 79 12 80 13 81 14 82 15 83 16 84
REMARK SMILES IDX 30 85 17 86 29 87 28 88 31 89 18 91 19 92 27 93 20 94 25 95
REMARK SMILES IDX 21 96 26 97 22 98 23 99 24 100
REMARK H PARENT 91 25 57 36 31 90
REMARK Flexibility Score: inf
ROOT
ATOM      1  C   UNL     1       2.439   0.610  -1.712  1.00  0.00     0.188 C 
ENDROOT
BRANCH   1   2
ATOM      2  O   UNL     1       3.720   0.701  -1.075  1.00  0.00    -0.376 OA
BRANCH   2   3
ATOM      3  C   UNL     1       4.644  -0.294  -1.519  1.00  0.00     0.202 C 
BRANCH   3   4
ATOM      4  C   UNL     1       4.620  -1.574  -0.680  1.00  0.00     0.261 C 
BRANCH   4   5
ATOM      5  O   UNL     1       3.312  -1.892  -0.188  1.00  0.00    -0.460 OA
BRANCH   5   6
ATOM      6  C   UNL     1       2.666  -1.415   0.904  1.00  0.00     0.338 C 
ATOM      7  O   UNL     1       1.507  -1.800   1.070  1.00  0.00    -0.246 OA
BRANCH   6   8
ATOM      8  C   UNL     1       3.237  -0.465   1.927  1.00  0.00     0.060 A 
ATOM      9  C   UNL     1       2.426  -0.211   3.050  1.00  0.00     0.016 A 
ATOM     10  C   UNL     1       4.472   0.191   1.880  1.00  0.00     0.016 A 
ATOM     11  C   UNL     1       2.845   0.634   4.086  1.00  0.00     0.010 A 
ATOM     12  C   UNL     1       4.911   1.013   2.927  1.00  0.00     0.010 A 
ATOM     13  C   UNL     1       4.104   1.240   4.041  1.00  0.00    -0.014 A 
BRANCH  13  14
ATOM     14  C   UNL     1       4.631   1.982   5.207  1.00  0.00     0.031 A 
ATOM     15  C   UNL     1       4.831   3.467   5.185  1.00  0.00     0.074 A 
ATOM     16  C   UNL     1       5.005   1.270   6.287  1.00  0.00     0.049 A 
ATOM     17  N   UNL     1       5.177   4.258   6.169  1.00  0.00    -0.248 NA
ATOM     18  C   UNL     1       4.644   4.155   3.899  1.00  0.00     0.031 C 
ATOM     19  C   UNL     1       4.955  -0.190   6.385  1.00  0.00     0.029 A 
ATOM     20  N   UNL     1       5.511   1.670   7.495  1.00  0.00    -0.354 N 
ATOM     21  C   UNL     1       5.207   5.538   5.637  1.00  0.00     0.074 A 
ATOM     22  C   UNL     1       4.929   5.411   4.223  1.00  0.00     0.031 C 
ATOM     23  C   UNL     1       5.398  -0.563   7.593  1.00  0.00     0.029 A 
ATOM     24  C   UNL     1       5.768   0.628   8.351  1.00  0.00     0.049 A 
ATOM     25  H   UNL     1       5.674   2.613   7.728  1.00  0.00     0.167 HD
ATOM     26  C   UNL     1       5.410   6.712   6.281  1.00  0.00     0.037 A 
ATOM     27  C   UNL     1       6.237   0.628   9.613  1.00  0.00     0.037 A 
ATOM     28  C   UNL     1       5.723   6.824   7.677  1.00  0.00     0.049 A 
ATOM     29  C   UNL     1       6.507   1.935  10.294  1.00  0.00     0.074 A 
ATOM     30  C   UNL     1       5.855   7.969   8.442  1.00  0.00     0.029 A 
ATOM     31  N   UNL     1       5.993   5.749   8.509  1.00  0.00    -0.354 N 
ATOM     32  N   UNL     1       6.350   3.149   9.825  1.00  0.00    -0.248 NA
ATOM     33  C   UNL     1       7.006   1.878  11.674  1.00  0.00     0.031 C 
ATOM     34  C   UNL     1       6.251   7.587   9.729  1.00  0.00     0.029 A 
ATOM     35  C   UNL     1       6.341   6.204   9.768  1.00  0.00     0.049 A 
ATOM     36  H   UNL     1       5.945   4.802   8.243  1.00  0.00     0.167 HD
ATOM     37  C   UNL     1       6.723   4.004  10.854  1.00  0.00     0.074 A 
ATOM     38  C   UNL     1       7.106   3.168  11.974  1.00  0.00     0.031 C 
ATOM     39  C   UNL     1       6.740   5.359  10.865  1.00  0.00     0.037 A 
BRANCH  26  40
ATOM     40  C   UNL     1       5.241   7.973   5.494  1.00  0.00     0.058 A 
ATOM     41  C   UNL     1       3.958   8.485   5.249  1.00  0.00     0.135 A 
ATOM     42  C   UNL     1       6.343   8.694   5.012  1.00  0.00     0.135 A 
ATOM     43  F   UNL     1       2.870   7.825   5.678  1.00  0.00    -0.206 F 
ATOM     44  C   UNL     1       3.769   9.643   4.507  1.00  0.00     0.059 A 
ATOM     45  C   UNL     1       6.178   9.862   4.272  1.00  0.00     0.059 A 
ATOM     46  F   UNL     1       7.590   8.252   5.236  1.00  0.00    -0.206 F 
ATOM     47  C   UNL     1       4.885  10.310   4.003  1.00  0.00     0.060 A 
BRANCH  47  48
ATOM     48  S   UNL     1       4.609  11.721   2.916  1.00  0.00     0.124 S 
ATOM     49  O   UNL     1       4.224  11.031   1.686  1.00  0.00    -0.237 OA
ATOM     50  O   UNL     1       3.540  12.442   3.598  1.00  0.00    -0.237 OA
ATOM     51  O   UNL     1       5.904  12.390   2.892  1.00  0.00    -0.744 OA
ENDBRANCH  47  48
ENDBRANCH  26  40
BRANCH  27  52
ATOM     52  C   UNL     1       6.414  -0.674  10.300  1.00  0.00     0.058 A 
ATOM     53  C   UNL     1       5.456  -1.134  11.213  1.00  0.00     0.135 A 
ATOM     54  C   UNL     1       7.465  -1.538   9.953  1.00  0.00     0.135 A 
ATOM     55  F   UNL     1       4.436  -0.341  11.571  1.00  0.00    -0.206 F 
ATOM     56  C   UNL     1       5.519  -2.418  11.742  1.00  0.00     0.059 A 
ATOM     57  C   UNL     1       7.542  -2.831  10.459  1.00  0.00     0.059 A 
ATOM     58  F   UNL     1       8.393  -1.145   9.066  1.00  0.00    -0.206 F 
ATOM     59  C   UNL     1       6.558  -3.264  11.348  1.00  0.00     0.060 A 
BRANCH  59  60
ATOM     60  S   UNL     1       6.559  -4.969  11.947  1.00  0.00     0.124 S 
ATOM     61  O   UNL     1       6.962  -4.792  13.337  1.00  0.00    -0.237 OA
ATOM     62  O   UNL     1       5.173  -5.371  11.730  1.00  0.00    -0.237 OA
ATOM     63  O   UNL     1       7.536  -5.627  11.085  1.00  0.00    -0.744 OA
ENDBRANCH  59  60
ENDBRANCH  27  52
BRANCH  39  64
ATOM     64  C   UNL     1       7.222   6.038  12.111  1.00  0.00     0.058 A 
ATOM     65  C   UNL     1       8.592   6.144  12.386  1.00  0.00     0.135 A 
ATOM     66  C   UNL     1       6.320   6.681  12.973  1.00  0.00     0.135 A 
ATOM     67  F   UNL     1       9.490   5.541  11.590  1.00  0.00    -0.206 F 
ATOM     68  C   UNL     1       9.057   6.874  13.473  1.00  0.00     0.059 A 
ATOM     69  C   UNL     1       6.763   7.430  14.057  1.00  0.00     0.059 A 
ATOM     70  F   UNL     1       5.000   6.615  12.742  1.00  0.00    -0.206 F 
ATOM     71  C   UNL     1       8.135   7.522  14.298  1.00  0.00     0.060 A 
BRANCH  71  72
ATOM     72  S   UNL     1       8.756   8.535  15.656  1.00  0.00     0.124 S 
ATOM     73  O   UNL     1       9.178   7.517  16.613  1.00  0.00    -0.237 OA
ATOM     74  O   UNL     1       9.831   9.289  15.017  1.00  0.00    -0.237 OA
ATOM     75  O   UNL     1       7.593   9.325  16.049  1.00  0.00    -0.744 OA
ENDBRANCH  71  72
ENDBRANCH  39  64
ENDBRANCH  13  14
ENDBRANCH   6   8
ENDBRANCH   5   6
ENDBRANCH   4   5
ENDBRANCH   3   4
ENDBRANCH   2   3
ENDBRANCH   1   2
BRANCH   1  76
ATOM     76  C   UNL     1       1.985   1.974  -2.234  1.00  0.00     0.188 C 
BRANCH  76  77
ATOM     77  O   UNL     1       2.743   2.477  -3.334  1.00  0.00    -0.376 OA
BRANCH  77  78
ATOM     78  C   UNL     1       4.052   2.965  -3.039  1.00  0.00     0.202 C 
BRANCH  78  79
ATOM     79  C   UNL     1       4.143   4.342  -2.372  1.00  0.00     0.261 C 
BRANCH  79  80
ATOM     80  O   UNL     1       3.633   4.393  -1.030  1.00  0.00    -0.460 OA
BRANCH  80  81
ATOM     81  C   UNL     1       2.455   5.058  -0.903  1.00  0.00     0.342 C 
ATOM     82  O   UNL     1       1.705   5.408  -1.798  1.00  0.00    -0.246 OA
BRANCH  81  83
ATOM     83  C   UNL     1       2.123   5.243   0.515  1.00  0.00     0.102 A 
ATOM     84  C   UNL     1       1.130   4.435   1.094  1.00  0.00     0.028 A 
ATOM     85  C   UNL     1       2.646   6.336   1.206  1.00  0.00     0.130 A 
ATOM     86  C   UNL     1       0.664   4.723   2.383  1.00  0.00    -0.017 A 
ATOM     87  C   UNL     1       2.181   6.623   2.483  1.00  0.00     0.048 A 
ATOM     88  C   UNL     1       1.206   5.816   3.074  1.00  0.00     0.012 A 
BRANCH  85  89
ATOM     89  O   UNL     1       3.592   7.132   0.627  1.00  0.00    -0.507 OA
ATOM     90  H   UNL     1       3.904   6.938  -0.234  1.00  0.00     0.293 HD
ENDBRANCH  85  89
BRANCH  86  91
ATOM     91  C   UNL     1      -0.440   3.968   3.007  1.00  0.00    -0.011 A 
ATOM     92  C   UNL     1      -1.741   4.563   3.243  1.00  0.00     0.027 A 
ATOM     93  C   UNL     1      -0.214   2.716   3.435  1.00  0.00     0.080 A 
ATOM     94  C   UNL     1      -2.680   3.902   3.929  1.00  0.00     0.095 A 
ATOM     95  C   UNL     1      -1.257   1.954   4.180  1.00  0.00     0.255 A 
ATOM     96  N   UNL     1      -2.447   2.627   4.409  1.00  0.00    -0.258 N 
ATOM     97  O   UNL     1      -1.003   0.810   4.545  1.00  0.00    -0.269 OA
BRANCH  96  98
ATOM     98  C   UNL     1      -3.450   1.948   5.189  1.00  0.00     0.451 C 
ATOM     99  F   UNL     1      -3.857   0.806   4.584  1.00  0.00    -0.185 F 
ATOM    100  F   UNL     1      -2.986   1.629   6.421  1.00  0.00    -0.185 F 
ENDBRANCH  96  98
ENDBRANCH  86  91
ENDBRANCH  81  83
ENDBRANCH  80  81
ENDBRANCH  79  80
ENDBRANCH  78  79
ENDBRANCH  77  78
ENDBRANCH  76  77
ENDBRANCH   1  76
TORSDOF 23
