REMARK SMILES Cc1cccc2c1N=CN1C2=[NH+]NC(=O)[C@@H]1CC(=O)OCCOCCOCCOC(=O)c1ccc(-c2c3nc(c(-c4c(F)cc(S(=O)(=O)[O-])cc4F)c4ccc([nH]4)c(-c4c(F)cc(S(=O)(=O)[O-])cc4F)c4nc(c(-c5c(F)cc(S(=O)(=O)[O-])cc5F)c5ccc2[nH]5)C=C4)C=C3)cc1
REMARK SMILES IDX 25 1 24 2 23 3 22 4 21 5 20 6 18 7 19 8 17 9 16 10 1 11 2 12
REMARK SMILES IDX 3 13 7 14 4 15 6 16 8 17 5 18 11 19 9 20 10 21 12 22 13 23
REMARK SMILES IDX 14 25 15 27 26 28 27 29 28 30 29 31 30 32 31 33 32 34 33 35
REMARK SMILES IDX 97 36 34 37 96 38 35 39 36 40 37 41 90 42 38 43 95 44 89 45
REMARK SMILES IDX 91 46 39 47 94 48 88 49 87 50 40 52 74 53 53 54 73 55 54 56
REMARK SMILES IDX 57 57 72 58 92 59 55 60 56 61 71 63 93 64 58 65 41 66 42 67
REMARK SMILES IDX 51 68 43 69 44 70 50 71 52 72 45 73 46 74 47 75 48 76 49 77
REMARK SMILES IDX 75 78 76 79 85 80 77 81 78 82 84 83 86 84 79 85 80 86 81 87
REMARK SMILES IDX 82 88 83 89 59 90 60 91 69 92 61 93 62 94 68 95 70 96 63 97
REMARK SMILES IDX 64 98 65 99 66 100 67 101
REMARK H PARENT 12 24 13 26 91 51 57 62
REMARK Flexibility Score: inf
ROOT
ATOM      1  C   UNL     1      -3.675   5.838   4.882  1.00  0.00     0.188 C 
ENDROOT
BRANCH   1   2
ATOM      2  C   UNL     1      -3.868   6.713   3.640  1.00  0.00     0.188 C 
BRANCH   2   3
ATOM      3  O   UNL     1      -4.911   6.305   2.763  1.00  0.00    -0.376 OA
BRANCH   3   4
ATOM      4  C   UNL     1      -4.791   4.988   2.226  1.00  0.00     0.202 C 
BRANCH   4   5
ATOM      5  C   UNL     1      -3.522   4.710   1.395  1.00  0.00     0.261 C 
BRANCH   5   6
ATOM      6  O   UNL     1      -2.290   4.781   2.160  1.00  0.00    -0.463 OA
BRANCH   6   7
ATOM      7  C   UNL     1      -1.239   5.368   1.540  1.00  0.00     0.310 C 
ATOM      8  O   UNL     1      -1.207   5.635   0.342  1.00  0.00    -0.252 OA
BRANCH   7   9
ATOM      9  C   UNL     1      -0.148   5.846   2.471  1.00  0.00     0.183 C 
BRANCH   9  10
ATOM     10  C   UNL     1       0.744   4.879   3.248  1.00  0.00     0.286 C 
ATOM     11  C   UNL     1       0.892  -0.259  -0.532  1.00  0.00     0.047 C 
ATOM     12  C   UNL     1       0.836  -0.112   0.960  1.00  0.00    -0.024 A 
ATOM     13  C   UNL     1       0.376  -1.178   1.757  1.00  0.00     0.006 A 
ATOM     14  C   UNL     1       1.194   1.103   1.563  1.00  0.00     0.085 A 
ATOM     15  C   UNL     1       0.326  -1.072   3.148  1.00  0.00     0.001 A 
ATOM     16  C   UNL     1       1.152   1.174   2.965  1.00  0.00     0.092 A 
ATOM     17  N   UNL     1       1.446   2.241   0.752  1.00  0.00    -0.215 NA
ATOM     18  C   UNL     1       0.747   0.097   3.761  1.00  0.00     0.019 A 
ATOM     19  C   UNL     1       1.204   2.521   3.569  1.00  0.00     0.309 C 
ATOM     20  C   UNL     1       1.294   3.389   1.335  1.00  0.00     0.317 C 
ATOM     21  N   UNL     1       1.025   3.569   2.671  1.00  0.00    -0.202 N 
ATOM     22  N   UNL     1       1.300   2.601   4.864  1.00  0.00    -0.169 N 
ATOM     23  N   UNL     1       0.949   3.790   5.421  1.00  0.00    -0.193 N 
ATOM     24  H   UNL     1       1.610   1.843   5.411  1.00  0.00     0.340 HD
ATOM     25  C   UNL     1       0.276   4.737   4.687  1.00  0.00     0.300 C 
ATOM     26  H   UNL     1       1.180   3.974   6.360  1.00  0.00     0.216 HD
ATOM     27  O   UNL     1      -0.562   5.469   5.193  1.00  0.00    -0.267 OA
ENDBRANCH   9  10
ENDBRANCH   7   9
ENDBRANCH   6   7
ENDBRANCH   5   6
ENDBRANCH   4   5
ENDBRANCH   3   4
ENDBRANCH   2   3
ENDBRANCH   1   2
BRANCH   1  28
ATOM     28  O   UNL     1      -3.275   4.489   4.626  1.00  0.00    -0.376 OA
BRANCH  28  29
ATOM     29  C   UNL     1      -3.800   3.527   5.540  1.00  0.00     0.202 C 
BRANCH  29  30
ATOM     30  C   UNL     1      -3.285   3.592   6.987  1.00  0.00     0.261 C 
BRANCH  30  31
ATOM     31  O   UNL     1      -3.293   4.928   7.505  1.00  0.00    -0.460 OA
BRANCH  31  32
ATOM     32  C   UNL     1      -2.068   5.451   7.806  1.00  0.00     0.338 C 
ATOM     33  O   UNL     1      -1.021   4.859   7.921  1.00  0.00    -0.246 OA
BRANCH  32  34
ATOM     34  C   UNL     1      -2.220   6.931   7.843  1.00  0.00     0.060 A 
ATOM     35  C   UNL     1      -1.392   7.729   7.040  1.00  0.00     0.016 A 
ATOM     36  C   UNL     1      -3.204   7.524   8.633  1.00  0.00     0.016 A 
ATOM     37  C   UNL     1      -1.534   9.114   7.025  1.00  0.00     0.010 A 
ATOM     38  C   UNL     1      -3.319   8.915   8.655  1.00  0.00     0.010 A 
ATOM     39  C   UNL     1      -2.466   9.714   7.875  1.00  0.00    -0.014 A 
BRANCH  39  40
ATOM     40  C   UNL     1      -2.394  11.169   8.133  1.00  0.00     0.031 A 
ATOM     41  C   UNL     1      -1.571  11.628   9.304  1.00  0.00     0.074 A 
ATOM     42  C   UNL     1      -3.046  12.057   7.363  1.00  0.00     0.049 A 
ATOM     43  N   UNL     1      -1.421  12.831   9.790  1.00  0.00    -0.248 NA
ATOM     44  C   UNL     1      -0.820  10.586  10.028  1.00  0.00     0.031 C 
ATOM     45  C   UNL     1      -3.833  11.734   6.175  1.00  0.00     0.029 A 
ATOM     46  N   UNL     1      -3.156  13.420   7.482  1.00  0.00    -0.354 N 
ATOM     47  C   UNL     1      -0.560  12.693  10.871  1.00  0.00     0.074 A 
ATOM     48  C   UNL     1      -0.246  11.287  10.994  1.00  0.00     0.031 C 
ATOM     49  C   UNL     1      -4.362  12.870   5.683  1.00  0.00     0.029 A 
ATOM     50  C   UNL     1      -3.977  13.992   6.540  1.00  0.00     0.049 A 
ATOM     51  H   UNL     1      -2.691  13.939   8.177  1.00  0.00     0.167 HD
ATOM     52  C   UNL     1      -0.066  13.655  11.682  1.00  0.00     0.037 A 
ATOM     53  C   UNL     1      -4.387  15.270   6.404  1.00  0.00     0.037 A 
ATOM     54  C   UNL     1      -0.392  15.050  11.565  1.00  0.00     0.049 A 
ATOM     55  C   UNL     1      -3.901  16.311   7.385  1.00  0.00     0.074 A 
ATOM     56  C   UNL     1       0.062  16.104  12.337  1.00  0.00     0.029 A 
ATOM     57  N   UNL     1      -1.258  15.586  10.624  1.00  0.00    -0.354 N 
ATOM     58  N   UNL     1      -3.069  16.175   8.391  1.00  0.00    -0.248 NA
ATOM     59  C   UNL     1      -4.413  17.679   7.215  1.00  0.00     0.031 C 
ATOM     60  C   UNL     1      -0.573  17.269  11.900  1.00  0.00     0.029 A 
ATOM     61  C   UNL     1      -1.375  16.951  10.815  1.00  0.00     0.049 A 
ATOM     62  H   UNL     1      -1.721  15.071   9.924  1.00  0.00     0.167 HD
ATOM     63  C   UNL     1      -2.937  17.442   8.953  1.00  0.00     0.074 A 
ATOM     64  C   UNL     1      -3.766  18.334   8.170  1.00  0.00     0.031 C 
ATOM     65  C   UNL     1      -2.196  17.831  10.021  1.00  0.00     0.037 A 
BRANCH  52  66
ATOM     66  C   UNL     1       0.872  13.234  12.777  1.00  0.00     0.058 A 
ATOM     67  C   UNL     1       2.183  12.817  12.499  1.00  0.00     0.135 A 
ATOM     68  C   UNL     1       0.477  13.309  14.122  1.00  0.00     0.135 A 
ATOM     69  F   UNL     1       2.602  12.704  11.228  1.00  0.00    -0.206 F 
ATOM     70  C   UNL     1       3.068  12.482  13.516  1.00  0.00     0.059 A 
ATOM     71  C   UNL     1       1.355  13.005  15.158  1.00  0.00     0.059 A 
ATOM     72  F   UNL     1      -0.769  13.692  14.441  1.00  0.00    -0.206 F 
ATOM     73  C   UNL     1       2.648  12.588  14.843  1.00  0.00     0.060 A 
BRANCH  73  74
ATOM     74  S   UNL     1       3.825  12.182  16.149  1.00  0.00     0.124 S 
ATOM     75  O   UNL     1       3.982  10.742  15.965  1.00  0.00    -0.237 OA
ATOM     76  O   UNL     1       4.981  12.996  15.786  1.00  0.00    -0.237 OA
ATOM     77  O   UNL     1       3.134  12.585  17.370  1.00  0.00    -0.744 OA
ENDBRANCH  73  74
ENDBRANCH  52  66
BRANCH  53  78
ATOM     78  C   UNL     1      -5.312  15.644   5.300  1.00  0.00     0.058 A 
ATOM     79  C   UNL     1      -4.883  16.467   4.248  1.00  0.00     0.135 A 
ATOM     80  C   UNL     1      -6.642  15.196   5.275  1.00  0.00     0.135 A 
ATOM     81  F   UNL     1      -3.626  16.936   4.234  1.00  0.00    -0.206 F 
ATOM     82  C   UNL     1      -5.739  16.841   3.218  1.00  0.00     0.059 A 
ATOM     83  C   UNL     1      -7.511  15.534   4.242  1.00  0.00     0.059 A 
ATOM     84  F   UNL     1      -7.104  14.403   6.256  1.00  0.00    -0.206 F 
ATOM     85  C   UNL     1      -7.051  16.364   3.220  1.00  0.00     0.060 A 
BRANCH  85  86
ATOM     86  S   UNL     1      -8.137  16.821   1.851  1.00  0.00     0.124 S 
ATOM     87  O   UNL     1      -8.324  18.248   2.086  1.00  0.00    -0.237 OA
ATOM     88  O   UNL     1      -7.327  16.464   0.691  1.00  0.00    -0.237 OA
ATOM     89  O   UNL     1      -9.317  15.988   2.064  1.00  0.00    -0.744 OA
ENDBRANCH  85  86
ENDBRANCH  53  78
BRANCH  65  90
ATOM     90  C   UNL     1      -2.215  19.287  10.405  1.00  0.00     0.058 A 
ATOM     91  C   UNL     1      -3.330  19.870  11.025  1.00  0.00     0.135 A 
ATOM     92  C   UNL     1      -1.065  20.079  10.248  1.00  0.00     0.135 A 
ATOM     93  F   UNL     1      -4.457  19.160  11.197  1.00  0.00    -0.206 F 
ATOM     94  C   UNL     1      -3.308  21.189  11.469  1.00  0.00     0.059 A 
ATOM     95  C   UNL     1      -1.010  21.390  10.710  1.00  0.00     0.059 A 
ATOM     96  F   UNL     1       0.035  19.567   9.673  1.00  0.00    -0.206 F 
ATOM     97  C   UNL     1      -2.140  21.938  11.316  1.00  0.00     0.060 A 
BRANCH  97  98
ATOM     98  S   UNL     1      -2.110  23.628  11.953  1.00  0.00     0.124 S 
ATOM     99  O   UNL     1      -3.025  24.304  11.038  1.00  0.00    -0.237 OA
ATOM    100  O   UNL     1      -2.594  23.452  13.318  1.00  0.00    -0.237 OA
ATOM    101  O   UNL     1      -0.707  24.013  11.835  1.00  0.00    -0.744 OA
ENDBRANCH  97  98
ENDBRANCH  65  90
ENDBRANCH  39  40
ENDBRANCH  32  34
ENDBRANCH  31  32
ENDBRANCH  30  31
ENDBRANCH  29  30
ENDBRANCH  28  29
ENDBRANCH   1  28
TORSDOF 21
