REMARK SMILES CC[C@@H]1CC[C@](C[C@@H]2CCCc3ccccc32)(C(=O)OCCOCCOCCOC(=O)c2ccc(-c3c4nc(c(-c5c(F)cc(S(=O)(=O)[O-])cc5F)c5ccc([nH]5)c(-c5c(F)cc(S(=O)(=O)[O-])cc5F)c5nc(c(-c6c(F)cc(S(=O)(=O)[O-])cc6F)c6ccc3[nH]6)C=C5)C=C4)cc2)C1
REMARK SMILES IDX 25 1 24 2 23 3 22 4 21 5 20 6 18 7 19 8 6 9 3 10 4 11 98 12
REMARK SMILES IDX 5 13 2 14 1 15 7 16 8 17 9 18 17 19 10 20 12 21 16 22 11 23
REMARK SMILES IDX 13 24 15 25 14 26 26 27 27 28 28 29 29 30 30 31 31 32 32 33
REMARK SMILES IDX 33 34 97 35 34 36 96 37 35 38 36 39 37 40 90 41 38 42 95 43
REMARK SMILES IDX 89 44 91 45 39 46 94 47 88 48 87 49 40 51 74 52 53 53 73 54
REMARK SMILES IDX 54 55 57 56 72 57 92 58 55 59 56 60 71 62 93 63 58 64 41 65
REMARK SMILES IDX 42 66 51 67 43 68 44 69 50 70 52 71 45 72 46 73 47 74 48 75
REMARK SMILES IDX 49 76 75 77 76 78 85 79 77 80 78 81 84 82 86 83 79 84 80 85
REMARK SMILES IDX 81 86 82 87 83 88 59 89 60 90 69 91 61 92 62 93 68 94 70 95
REMARK SMILES IDX 63 96 64 97 65 98 66 99 67 100
REMARK H PARENT 91 50 57 61
REMARK Flexibility Score: inf
ROOT
ATOM      1  C   UNL     1      -1.405   7.699  -0.415  1.00  0.00     0.188 C 
ENDROOT
BRANCH   1   2
ATOM      2  C   UNL     1      -0.436   7.602  -1.593  1.00  0.00     0.188 C 
BRANCH   2   3
ATOM      3  O   UNL     1      -0.964   7.712  -2.901  1.00  0.00    -0.376 OA
BRANCH   3   4
ATOM      4  C   UNL     1      -2.012   6.818  -3.243  1.00  0.00     0.202 C 
BRANCH   4   5
ATOM      5  C   UNL     1      -1.743   5.303  -3.178  1.00  0.00     0.261 C 
BRANCH   5   6
ATOM      6  O   UNL     1      -0.950   4.822  -2.070  1.00  0.00    -0.463 OA
BRANCH   6   7
ATOM      7  C   UNL     1       0.347   4.533  -2.395  1.00  0.00     0.312 C 
ATOM      8  O   UNL     1       0.809   4.722  -3.516  1.00  0.00    -0.252 OA
BRANCH   7   9
ATOM      9  C   UNL     1       1.156   3.852  -1.253  1.00  0.00     0.069 C 
ATOM     10  C   UNL     1       0.580   2.090   0.321  1.00  0.00    -0.010 C 
ATOM     11  C   UNL     1       0.153   3.401   0.958  1.00  0.00     0.005 C 
ATOM     12  C   UNL     1       0.576   2.421  -1.165  1.00  0.00     0.022 C 
ATOM     13  C   UNL     1       0.940   4.446   0.159  1.00  0.00     0.019 C 
BRANCH  10  14
ATOM     14  C   UNL     1      -0.219   0.863   0.739  1.00  0.00     0.000 C 
ATOM     15  C   UNL     1       0.273  -0.392   0.027  1.00  0.00     0.004 C 
ENDBRANCH  10  14
BRANCH   9  16
ATOM     16  C   UNL     1       2.660   3.975  -1.706  1.00  0.00     0.027 C 
BRANCH  16  17
ATOM     17  C   UNL     1       3.942   3.415  -1.001  1.00  0.00     0.020 C 
ATOM     18  C   UNL     1       3.925   1.898  -0.723  1.00  0.00     0.009 C 
ATOM     19  C   UNL     1       4.697   4.242   0.046  1.00  0.00    -0.042 A 
ATOM     20  C   UNL     1       4.128   1.535   0.743  1.00  0.00     0.005 C 
ATOM     21  C   UNL     1       5.443   3.607   1.069  1.00  0.00    -0.045 A 
ATOM     22  C   UNL     1       4.853   5.633  -0.104  1.00  0.00     0.004 A 
ATOM     23  C   UNL     1       5.431   2.111   1.247  1.00  0.00     0.036 C 
ATOM     24  C   UNL     1       6.301   4.350   1.897  1.00  0.00     0.004 A 
ATOM     25  C   UNL     1       5.712   6.362   0.728  1.00  0.00     0.000 A 
ATOM     26  C   UNL     1       6.436   5.721   1.726  1.00  0.00     0.000 A 
ENDBRANCH  16  17
ENDBRANCH   9  16
ENDBRANCH   7   9
ENDBRANCH   6   7
ENDBRANCH   5   6
ENDBRANCH   4   5
ENDBRANCH   3   4
ENDBRANCH   2   3
ENDBRANCH   1   2
BRANCH   1  27
ATOM     27  O   UNL     1      -2.704   7.133  -0.535  1.00  0.00    -0.376 OA
BRANCH  27  28
ATOM     28  C   UNL     1      -3.498   7.252   0.657  1.00  0.00     0.202 C 
BRANCH  28  29
ATOM     29  C   UNL     1      -3.735   8.691   1.178  1.00  0.00     0.261 C 
BRANCH  29  30
ATOM     30  O   UNL     1      -2.550   9.443   1.540  1.00  0.00    -0.460 OA
BRANCH  30  31
ATOM     31  C   UNL     1      -1.673   8.874   2.403  1.00  0.00     0.338 C 
ATOM     32  O   UNL     1      -1.900   7.904   3.110  1.00  0.00    -0.246 OA
BRANCH  31  33
ATOM     33  C   UNL     1      -0.304   9.428   2.158  1.00  0.00     0.060 A 
ATOM     34  C   UNL     1       0.791   8.553   2.246  1.00  0.00     0.016 A 
ATOM     35  C   UNL     1      -0.085  10.756   1.776  1.00  0.00     0.016 A 
ATOM     36  C   UNL     1       2.097   9.011   2.016  1.00  0.00     0.010 A 
ATOM     37  C   UNL     1       1.224  11.217   1.560  1.00  0.00     0.010 A 
ATOM     38  C   UNL     1       2.330  10.359   1.717  1.00  0.00    -0.014 A 
BRANCH  38  39
ATOM     39  C   UNL     1       3.712  10.919   1.787  1.00  0.00     0.031 A 
ATOM     40  C   UNL     1       4.133  11.616   3.059  1.00  0.00     0.074 A 
ATOM     41  C   UNL     1       4.597  10.812   0.777  1.00  0.00     0.049 A 
ATOM     42  N   UNL     1       5.252  12.233   3.343  1.00  0.00    -0.248 NA
ATOM     43  C   UNL     1       3.153  11.614   4.157  1.00  0.00     0.031 C 
ATOM     44  C   UNL     1       4.362  10.134  -0.494  1.00  0.00     0.029 A 
ATOM     45  N   UNL     1       5.883  11.294   0.666  1.00  0.00    -0.354 N 
ATOM     46  C   UNL     1       5.108  12.699   4.645  1.00  0.00     0.074 A 
ATOM     47  C   UNL     1       3.783  12.319   5.084  1.00  0.00     0.031 C 
ATOM     48  C   UNL     1       5.459  10.257  -1.264  1.00  0.00     0.029 A 
ATOM     49  C   UNL     1       6.466  11.051  -0.556  1.00  0.00     0.049 A 
ATOM     50  H   UNL     1       6.343  11.770   1.395  1.00  0.00     0.167 HD
ATOM     51  C   UNL     1       5.995  13.375   5.415  1.00  0.00     0.037 A 
ATOM     52  C   UNL     1       7.657  11.442  -1.058  1.00  0.00     0.037 A 
ATOM     53  C   UNL     1       7.316  13.763   4.992  1.00  0.00     0.049 A 
ATOM     54  C   UNL     1       8.600  12.270  -0.214  1.00  0.00     0.074 A 
ATOM     55  C   UNL     1       8.286  14.434   5.717  1.00  0.00     0.029 A 
ATOM     56  N   UNL     1       7.849  13.528   3.735  1.00  0.00    -0.354 N 
ATOM     57  N   UNL     1       8.459  12.684   1.023  1.00  0.00    -0.248 NA
ATOM     58  C   UNL     1       9.867  12.687  -0.839  1.00  0.00     0.031 C 
ATOM     59  C   UNL     1       9.387  14.651   4.881  1.00  0.00     0.029 A 
ATOM     60  C   UNL     1       9.124  14.066   3.653  1.00  0.00     0.049 A 
ATOM     61  H   UNL     1       7.390  13.050   3.007  1.00  0.00     0.167 HD
ATOM     62  C   UNL     1       9.625  13.382   1.330  1.00  0.00     0.074 A 
ATOM     63  C   UNL     1      10.467  13.329   0.154  1.00  0.00     0.031 C 
ATOM     64  C   UNL     1       9.967  14.008   2.485  1.00  0.00     0.037 A 
BRANCH  51  65
ATOM     65  C   UNL     1       5.550  13.768   6.797  1.00  0.00     0.058 A 
ATOM     66  C   UNL     1       5.396  12.821   7.821  1.00  0.00     0.135 A 
ATOM     67  C   UNL     1       5.295  15.114   7.104  1.00  0.00     0.135 A 
ATOM     68  F   UNL     1       5.610  11.518   7.576  1.00  0.00    -0.206 F 
ATOM     69  C   UNL     1       4.973  13.190   9.094  1.00  0.00     0.059 A 
ATOM     70  C   UNL     1       4.899  15.510   8.378  1.00  0.00     0.059 A 
ATOM     71  F   UNL     1       5.427  16.060   6.161  1.00  0.00    -0.206 F 
ATOM     72  C   UNL     1       4.724  14.537   9.361  1.00  0.00     0.060 A 
BRANCH  72  73
ATOM     73  S   UNL     1       4.165  14.999  11.014  1.00  0.00     0.124 S 
ATOM     74  O   UNL     1       2.791  14.506  11.004  1.00  0.00    -0.237 OA
ATOM     75  O   UNL     1       5.093  14.271  11.873  1.00  0.00    -0.237 OA
ATOM     76  O   UNL     1       4.309  16.452  11.029  1.00  0.00    -0.744 OA
ENDBRANCH  72  73
ENDBRANCH  51  65
BRANCH  52  77
ATOM     77  C   UNL     1       8.037  11.078  -2.452  1.00  0.00     0.058 A 
ATOM     78  C   UNL     1       9.076  10.171  -2.710  1.00  0.00     0.135 A 
ATOM     79  C   UNL     1       7.384  11.651  -3.555  1.00  0.00     0.135 A 
ATOM     80  F   UNL     1       9.749   9.616  -1.690  1.00  0.00    -0.206 F 
ATOM     81  C   UNL     1       9.461   9.851  -4.009  1.00  0.00     0.059 A 
ATOM     82  C   UNL     1       7.734  11.327  -4.863  1.00  0.00     0.059 A 
ATOM     83  F   UNL     1       6.386  12.528  -3.365  1.00  0.00    -0.206 F 
ATOM     84  C   UNL     1       8.780  10.431  -5.080  1.00  0.00     0.060 A 
BRANCH  84  85
ATOM     85  S   UNL     1       9.252   9.968  -6.761  1.00  0.00     0.124 S 
ATOM     86  O   UNL     1      10.529  10.657  -6.909  1.00  0.00    -0.237 OA
ATOM     87  O   UNL     1       9.319   8.513  -6.671  1.00  0.00    -0.237 OA
ATOM     88  O   UNL     1       8.156  10.489  -7.573  1.00  0.00    -0.744 OA
ENDBRANCH  84  85
ENDBRANCH  52  77
BRANCH  64  89
ATOM     89  C   UNL     1      11.323  14.660   2.563  1.00  0.00     0.058 A 
ATOM     90  C   UNL     1      11.616  15.850   1.879  1.00  0.00     0.135 A 
ATOM     91  C   UNL     1      12.326  14.122   3.388  1.00  0.00     0.135 A 
ATOM     92  F   UNL     1      10.697  16.409   1.074  1.00  0.00    -0.206 F 
ATOM     93  C   UNL     1      12.857  16.471   1.991  1.00  0.00     0.059 A 
ATOM     94  C   UNL     1      13.565  14.739   3.537  1.00  0.00     0.059 A 
ATOM     95  F   UNL     1      12.099  12.992   4.077  1.00  0.00    -0.206 F 
ATOM     96  C   UNL     1      13.826  15.909   2.825  1.00  0.00     0.060 A 
BRANCH  96  97
ATOM     97  S   UNL     1      15.420  16.744   2.992  1.00  0.00     0.124 S 
ATOM     98  O   UNL     1      16.047  16.440   1.710  1.00  0.00    -0.237 OA
ATOM     99  O   UNL     1      15.026  18.135   3.191  1.00  0.00    -0.237 OA
ATOM    100  O   UNL     1      16.023  16.097   4.154  1.00  0.00    -0.744 OA
ENDBRANCH  96  97
ENDBRANCH  64  89
ENDBRANCH  38  39
ENDBRANCH  31  33
ENDBRANCH  30  31
ENDBRANCH  29  30
ENDBRANCH  28  29
ENDBRANCH  27  28
ENDBRANCH   1  27
TORSDOF 23
