REMARK SMILES Cc1cccc(N2C(=O)/C(=C/c3ccc(C(=O)OCCOCCOCCOC(=O)c4ccc(-c5c6nc(c(-c7c(F)cc(S(=O)(=O)[O-])cc7F)c7ccc([nH]7)c(-c7c(F)cc(S(=O)(=O)[O-])cc7F)c7nc(c(-c8c(F)cc(S(=O)(=O)[O-])cc8F)c8ccc5[nH]8)C=C7)C=C6)cc4)cc3)c3ccccc3C2=O)c1
REMARK SMILES IDX 23 1 22 2 21 3 20 4 19 5 18 6 16 7 17 8 15 9 12 10 13 11
REMARK SMILES IDX 97 12 14 13 96 14 11 15 7 16 8 17 104 18 9 19 10 20 103 21
REMARK SMILES IDX 105 22 98 23 102 24 99 25 101 26 100 27 6 28 1 29 2 30 3 31
REMARK SMILES IDX 106 32 4 33 5 34 24 35 25 36 26 37 27 38 28 39 29 40 30 41
REMARK SMILES IDX 31 42 95 43 32 44 94 45 33 46 34 47 35 48 88 49 36 50 93 51
REMARK SMILES IDX 87 52 89 53 37 54 92 55 86 56 85 57 38 59 72 60 51 61 71 62
REMARK SMILES IDX 52 63 55 64 70 65 90 66 53 67 54 68 69 70 91 71 56 72 39 73
REMARK SMILES IDX 40 74 49 75 41 76 42 77 48 78 50 79 43 80 44 81 45 82 46 83
REMARK SMILES IDX 47 84 73 85 74 86 83 87 75 88 76 89 82 90 84 91 77 92 78 93
REMARK SMILES IDX 79 94 80 95 81 96 57 97 58 98 67 99 59 100 60 101 66 102
REMARK SMILES IDX 68 103 61 104 62 105 63 106 64 107 65 108
REMARK H PARENT 89 58 55 69
REMARK Flexibility Score: inf
ROOT
ATOM      1  C   UNL     1      -3.483  15.371   2.039  1.00  0.00     0.188 C 
ENDROOT
BRANCH   1   2
ATOM      2  C   UNL     1      -4.204  15.067   0.726  1.00  0.00     0.188 C 
BRANCH   2   3
ATOM      3  O   UNL     1      -5.421  14.289   0.685  1.00  0.00    -0.376 OA
BRANCH   3   4
ATOM      4  C   UNL     1      -5.915  13.497   1.768  1.00  0.00     0.202 C 
BRANCH   4   5
ATOM      5  C   UNL     1      -6.337  11.890   1.710  1.00  0.00     0.261 C 
BRANCH   5   6
ATOM      6  O   UNL     1      -5.467  10.407   1.391  1.00  0.00    -0.460 OA
BRANCH   6   7
ATOM      7  C   UNL     1      -4.986   9.639   0.289  1.00  0.00     0.338 C 
ATOM      8  O   UNL     1      -5.147   9.795  -0.921  1.00  0.00    -0.246 OA
BRANCH   7   9
ATOM      9  C   UNL     1      -4.081   8.497   0.281  1.00  0.00     0.060 A 
ATOM     10  C   UNL     1      -2.467   6.461  -0.764  1.00  0.00    -0.025 A 
ATOM     11  C   UNL     1      -1.931   7.732  -0.617  1.00  0.00     0.009 A 
ATOM     12  C   UNL     1      -3.851   6.261  -0.657  1.00  0.00     0.009 A 
ATOM     13  C   UNL     1      -2.744   8.741  -0.111  1.00  0.00     0.016 A 
ATOM     14  C   UNL     1      -4.652   7.275  -0.124  1.00  0.00     0.016 A 
BRANCH  10  15
ATOM     15  C   UNL     1      -1.543   5.339  -0.625  1.00  0.00     0.022 C 
ATOM     16  N   UNL     1      -1.474   2.276   0.758  1.00  0.00    -0.242 N 
ATOM     17  C   UNL     1      -0.698   3.437   0.552  1.00  0.00     0.265 C 
ATOM     18  C   UNL     1      -2.817   2.365   1.236  1.00  0.00     0.265 C 
ATOM     19  O   UNL     1       0.508   3.566   0.372  1.00  0.00    -0.268 OA
ATOM     20  C   UNL     1      -1.517   4.657   0.542  1.00  0.00     0.049 C 
ATOM     21  C   UNL     1      -3.263   3.662   1.830  1.00  0.00     0.048 A 
ATOM     22  O   UNL     1      -3.656   1.466   1.268  1.00  0.00    -0.268 OA
ATOM     23  C   UNL     1      -2.489   4.795   1.623  1.00  0.00    -0.000 A 
ATOM     24  C   UNL     1      -4.452   3.768   2.562  1.00  0.00     0.014 A 
ATOM     25  C   UNL     1      -2.795   5.990   2.285  1.00  0.00     0.010 A 
ATOM     26  C   UNL     1      -4.824   4.994   3.125  1.00  0.00     0.001 A 
ATOM     27  C   UNL     1      -3.980   6.096   3.014  1.00  0.00     0.001 A 
BRANCH  16  28
ATOM     28  C   UNL     1      -0.881   0.976   0.453  1.00  0.00     0.053 A 
ATOM     29  C   UNL     1       2.602  -0.527  -0.106  1.00  0.00     0.044 C 
ATOM     30  C   UNL     1       1.110  -0.426   0.012  1.00  0.00    -0.049 A 
ATOM     31  C   UNL     1       0.304  -1.547  -0.149  1.00  0.00     0.003 A 
ATOM     32  C   UNL     1       0.512   0.806   0.327  1.00  0.00     0.030 A 
ATOM     33  C   UNL     1      -1.074  -1.422  -0.029  1.00  0.00     0.002 A 
ATOM     34  C   UNL     1      -1.654  -0.178   0.257  1.00  0.00     0.027 A 
ENDBRANCH  16  28
ENDBRANCH  10  15
ENDBRANCH   7   9
ENDBRANCH   6   7
ENDBRANCH   5   6
ENDBRANCH   4   5
ENDBRANCH   3   4
ENDBRANCH   2   3
ENDBRANCH   1   2
BRANCH   1  35
ATOM     35  O   UNL     1      -3.439  14.200   2.829  1.00  0.00    -0.376 OA
BRANCH  35  36
ATOM     36  C   UNL     1      -2.885  14.324   4.120  1.00  0.00     0.202 C 
BRANCH  36  37
ATOM     37  C   UNL     1      -1.360  14.178   4.086  1.00  0.00     0.261 C 
BRANCH  37  38
ATOM     38  O   UNL     1      -0.974  12.876   3.580  1.00  0.00    -0.460 OA
BRANCH  38  39
ATOM     39  C   UNL     1      -0.374  12.841   2.336  1.00  0.00     0.338 C 
ATOM     40  O   UNL     1       0.794  13.150   2.171  1.00  0.00    -0.246 OA
BRANCH  39  41
ATOM     41  C   UNL     1      -1.343  12.335   1.298  1.00  0.00     0.060 A 
ATOM     42  C   UNL     1      -1.380  12.576  -0.082  1.00  0.00     0.016 A 
ATOM     43  C   UNL     1      -2.453  11.749   1.790  1.00  0.00     0.016 A 
ATOM     44  C   UNL     1      -2.604  12.406  -0.899  1.00  0.00     0.010 A 
ATOM     45  C   UNL     1      -3.619  11.878   1.029  1.00  0.00     0.010 A 
ATOM     46  C   UNL     1      -3.866  12.114  -0.351  1.00  0.00    -0.014 A 
BRANCH  46  47
ATOM     47  C   UNL     1      -5.392  12.244  -1.129  1.00  0.00     0.031 A 
ATOM     48  C   UNL     1      -6.820  11.223  -1.232  1.00  0.00     0.074 A 
ATOM     49  C   UNL     1      -5.526  13.248  -2.027  1.00  0.00     0.049 A 
ATOM     50  N   UNL     1      -7.422  10.895  -2.371  1.00  0.00    -0.248 NA
ATOM     51  C   UNL     1      -7.526  10.404  -0.173  1.00  0.00     0.031 C 
ATOM     52  C   UNL     1      -6.757  13.651  -2.702  1.00  0.00     0.029 A 
ATOM     53  N   UNL     1      -4.545  14.051  -2.606  1.00  0.00    -0.354 N 
ATOM     54  C   UNL     1      -8.467   9.980  -2.112  1.00  0.00     0.074 A 
ATOM     55  C   UNL     1      -8.393   9.615  -0.763  1.00  0.00     0.031 C 
ATOM     56  C   UNL     1      -6.446  14.419  -3.754  1.00  0.00     0.029 A 
ATOM     57  C   UNL     1      -5.002  14.462  -3.861  1.00  0.00     0.049 A 
ATOM     58  H   UNL     1      -3.680  14.288  -2.200  1.00  0.00     0.167 HD
ATOM     59  C   UNL     1      -9.507   9.653  -2.925  1.00  0.00     0.037 A 
ATOM     60  C   UNL     1      -4.276  14.285  -4.998  1.00  0.00     0.037 A 
ATOM     61  C   UNL     1      -9.466  10.486  -4.080  1.00  0.00     0.049 A 
ATOM     62  C   UNL     1      -5.005  13.502  -6.059  1.00  0.00     0.074 A 
ATOM     63  C   UNL     1      -9.941  11.769  -4.276  1.00  0.00     0.029 A 
ATOM     64  N   UNL     1      -8.515  10.237  -5.043  1.00  0.00    -0.354 N 
ATOM     65  N   UNL     1      -6.097  12.822  -5.841  1.00  0.00    -0.248 NA
ATOM     66  C   UNL     1      -4.567  13.404  -7.449  1.00  0.00     0.031 C 
ATOM     67  C   UNL     1      -9.229  12.320  -5.362  1.00  0.00     0.029 A 
ATOM     68  C   UNL     1      -8.376  11.345  -5.847  1.00  0.00     0.049 A 
ATOM     69  H   UNL     1      -8.012   9.396  -5.141  1.00  0.00     0.167 HD
ATOM     70  C   UNL     1      -6.458  12.150  -6.980  1.00  0.00     0.074 A 
ATOM     71  C   UNL     1      -5.495  12.581  -7.970  1.00  0.00     0.031 C 
ATOM     72  C   UNL     1      -7.506  11.277  -6.998  1.00  0.00     0.037 A 
BRANCH  59  73
ATOM     73  C   UNL     1     -10.724   8.901  -2.384  1.00  0.00     0.058 A 
ATOM     74  C   UNL     1     -12.019   9.422  -2.554  1.00  0.00     0.135 A 
ATOM     75  C   UNL     1     -10.649   7.749  -1.561  1.00  0.00     0.135 A 
ATOM     76  F   UNL     1     -12.247  10.457  -3.372  1.00  0.00    -0.206 F 
ATOM     77  C   UNL     1     -13.127   8.938  -1.851  1.00  0.00     0.059 A 
ATOM     78  C   UNL     1     -11.734   7.284  -0.799  1.00  0.00     0.059 A 
ATOM     79  F   UNL     1      -9.486   7.092  -1.407  1.00  0.00    -0.206 F 
ATOM     80  C   UNL     1     -12.970   7.901  -0.938  1.00  0.00     0.060 A 
BRANCH  80  81
ATOM     81  S   UNL     1     -14.374   7.439   0.106  1.00  0.00     0.124 S 
ATOM     82  O   UNL     1     -14.909   8.738   0.509  1.00  0.00    -0.237 OA
ATOM     83  O   UNL     1     -15.202   6.674  -0.819  1.00  0.00    -0.237 OA
ATOM     84  O   UNL     1     -13.758   6.672   1.185  1.00  0.00    -0.744 OA
ENDBRANCH  80  81
ENDBRANCH  59  73
BRANCH  60  85
ATOM     85  C   UNL     1      -2.804  14.364  -4.791  1.00  0.00     0.058 A 
ATOM     86  C   UNL     1      -2.279  15.608  -4.383  1.00  0.00     0.135 A 
ATOM     87  C   UNL     1      -1.998  13.233  -4.597  1.00  0.00     0.135 A 
ATOM     88  F   UNL     1      -3.003  16.727  -4.548  1.00  0.00    -0.206 F 
ATOM     89  C   UNL     1      -1.082  15.711  -3.686  1.00  0.00     0.059 A 
ATOM     90  C   UNL     1      -0.780  13.316  -3.906  1.00  0.00     0.059 A 
ATOM     91  F   UNL     1      -2.444  12.019  -4.950  1.00  0.00    -0.206 F 
ATOM     92  C   UNL     1      -0.363  14.553  -3.407  1.00  0.00     0.060 A 
BRANCH  92  93
ATOM     93  S   UNL     1       0.997  14.696  -2.219  1.00  0.00     0.124 S 
ATOM     94  O   UNL     1       1.917  15.591  -2.910  1.00  0.00    -0.237 OA
ATOM     95  O   UNL     1       0.306  15.269  -1.065  1.00  0.00    -0.237 OA
ATOM     96  O   UNL     1       1.449  13.318  -2.062  1.00  0.00    -0.744 OA
ENDBRANCH  92  93
ENDBRANCH  60  85
BRANCH  72  97
ATOM     97  C   UNL     1      -7.876  10.291  -8.083  1.00  0.00     0.058 A 
ATOM     98  C   UNL     1      -6.955   9.720  -8.970  1.00  0.00     0.135 A 
ATOM     99  C   UNL     1      -9.191   9.752  -8.135  1.00  0.00     0.135 A 
ATOM    100  F   UNL     1      -5.660  10.067  -8.952  1.00  0.00    -0.206 F 
ATOM    101  C   UNL     1      -7.319   8.731  -9.887  1.00  0.00     0.059 A 
ATOM    102  C   UNL     1      -9.557   8.721  -8.991  1.00  0.00     0.059 A 
ATOM    103  F   UNL     1     -10.172  10.201  -7.337  1.00  0.00    -0.206 F 
ATOM    104  C   UNL     1      -8.621   8.238  -9.890  1.00  0.00     0.060 A 
BRANCH 104 105
ATOM    105  S   UNL     1      -9.106   6.946 -11.045  1.00  0.00     0.124 S 
ATOM    106  O   UNL     1      -9.700   7.732 -12.122  1.00  0.00    -0.237 OA
ATOM    107  O   UNL     1      -7.838   6.298 -11.366  1.00  0.00    -0.237 OA
ATOM    108  O   UNL     1     -10.035   6.136 -10.264  1.00  0.00    -0.744 OA
ENDBRANCH 104 105
ENDBRANCH  72  97
ENDBRANCH  46  47
ENDBRANCH  39  41
ENDBRANCH  38  39
ENDBRANCH  37  38
ENDBRANCH  36  37
ENDBRANCH  35  36
ENDBRANCH   1  35
TORSDOF 22
