REMARK SMILES CC1=C(CC(=O)OCCOCCOCCOC(=O)c2ccc(-c3c4nc(c(-c5c(F)cc(S(=O)(=O)[O-])cc5F)c5ccc([nH]5)c(-c5c(F)cc(S(=O)(=O)[O-])cc5F)c5nc(c(-c6c(F)cc(S(=O)(=O)[O-])cc6F)c6ccc3[nH]6)C=C5)C=C4)cc2)c2cc(F)ccc2/C1=C\c1ccc([S@@+](C)[O-])cc1
REMARK SMILES IDX 11 1 10 2 9 3 8 4 7 5 5 6 6 7 4 8 3 9 1 10 2 11 92 12 85 13
REMARK SMILES IDX 91 14 93 15 86 16 90 17 87 18 89 19 88 20 94 21 95 22 102 23
REMARK SMILES IDX 96 24 101 25 97 26 98 27 99 28 100 29 12 30 13 31 14 32
REMARK SMILES IDX 15 33 16 34 17 35 18 36 19 37 20 38 84 39 21 40 83 41 22 42
REMARK SMILES IDX 23 43 24 44 77 45 25 46 82 47 76 48 78 49 26 50 81 51 75 52
REMARK SMILES IDX 74 53 27 55 61 56 40 57 60 58 41 59 44 60 59 61 79 62 42 63
REMARK SMILES IDX 43 64 58 66 80 67 45 68 28 69 29 70 38 71 30 72 31 73 37 74
REMARK SMILES IDX 39 75 32 76 33 77 34 78 35 79 36 80 62 81 63 82 72 83 64 84
REMARK SMILES IDX 65 85 71 86 73 87 66 88 67 89 68 90 69 91 70 92 46 93 47 94
REMARK SMILES IDX 56 95 48 96 49 97 55 98 57 99 50 100 51 101 52 102 53 103
REMARK SMILES IDX 54 104
REMARK H PARENT 78 54 44 65
REMARK Flexibility Score: inf
ROOT
ATOM      1  C   UNL     1      -2.167   2.539   4.690  1.00  0.00     0.188 C 
ENDROOT
BRANCH   1   2
ATOM      2  O   UNL     1      -2.035   1.645   5.795  1.00  0.00    -0.376 OA
BRANCH   2   3
ATOM      3  C   UNL     1      -0.913   0.769   5.804  1.00  0.00     0.202 C 
BRANCH   3   4
ATOM      4  C   UNL     1      -0.911  -0.272   4.684  1.00  0.00     0.261 C 
BRANCH   4   5
ATOM      5  O   UNL     1      -0.788   0.353   3.388  1.00  0.00    -0.463 OA
BRANCH   5   6
ATOM      6  C   UNL     1      -1.292  -0.360   2.350  1.00  0.00     0.310 C 
ATOM      7  O   UNL     1      -1.678  -1.521   2.443  1.00  0.00    -0.252 OA
BRANCH   6   8
ATOM      8  C   UNL     1      -1.474   0.462   1.073  1.00  0.00     0.159 C 
BRANCH   8   9
ATOM      9  C   UNL     1      -0.429   1.463   0.670  1.00  0.00    -0.025 C 
ATOM     10  C   UNL     1       1.554  -0.054   0.196  1.00  0.00     0.045 C 
ATOM     11  C   UNL     1       0.857   1.260   0.293  1.00  0.00    -0.039 C 
ATOM     12  C   UNL     1       1.480   2.539  -0.102  1.00  0.00    -0.014 C 
ATOM     13  C   UNL     1      -0.728   2.890   0.425  1.00  0.00    -0.011 A 
ATOM     14  C   UNL     1       0.439   3.576   0.044  1.00  0.00    -0.010 A 
ATOM     15  C   UNL     1       2.736   2.688  -0.575  1.00  0.00     0.017 C 
ATOM     16  C   UNL     1      -1.941   3.561   0.449  1.00  0.00     0.048 A 
ATOM     17  C   UNL     1       0.416   4.949  -0.185  1.00  0.00     0.012 A 
ATOM     18  C   UNL     1      -1.958   4.926   0.156  1.00  0.00     0.123 A 
ATOM     19  C   UNL     1      -0.793   5.632  -0.114  1.00  0.00     0.040 A 
ATOM     20  F   UNL     1      -3.124   5.581   0.146  1.00  0.00    -0.207 F 
BRANCH  15  21
ATOM     21  C   UNL     1       3.324   3.970  -0.988  1.00  0.00    -0.025 A 
ATOM     22  C   UNL     1       3.857   4.828  -0.019  1.00  0.00     0.013 A 
ATOM     23  C   UNL     1       3.194   4.421  -2.306  1.00  0.00     0.013 A 
ATOM     24  C   UNL     1       4.148   6.160  -0.338  1.00  0.00     0.061 A 
ATOM     25  C   UNL     1       3.505   5.749  -2.627  1.00  0.00     0.061 A 
ATOM     26  C   UNL     1       3.948   6.639  -1.639  1.00  0.00     0.152 A 
BRANCH  26  27
ATOM     27  S   UNL     1       4.046   8.408  -2.029  1.00  0.00    -0.018 S 
ATOM     28  C   UNL     1       5.552   8.859  -1.149  1.00  0.00     0.346 C 
ATOM     29  O   UNL     1       4.338   8.519  -3.568  1.00  0.00    -0.612 OA
ENDBRANCH  26  27
ENDBRANCH  15  21
ENDBRANCH   8   9
ENDBRANCH   6   8
ENDBRANCH   5   6
ENDBRANCH   4   5
ENDBRANCH   3   4
ENDBRANCH   2   3
ENDBRANCH   1   2
BRANCH   1  30
ATOM     30  C   UNL     1      -0.893   3.230   4.178  1.00  0.00     0.188 C 
BRANCH  30  31
ATOM     31  O   UNL     1      -0.021   3.589   5.245  1.00  0.00    -0.376 OA
BRANCH  31  32
ATOM     32  C   UNL     1       0.388   4.949   5.218  1.00  0.00     0.202 C 
BRANCH  32  33
ATOM     33  C   UNL     1      -0.613   5.829   5.968  1.00  0.00     0.261 C 
BRANCH  33  34
ATOM     34  O   UNL     1      -1.954   5.757   5.449  1.00  0.00    -0.460 OA
BRANCH  34  35
ATOM     35  C   UNL     1      -2.203   6.487   4.340  1.00  0.00     0.338 C 
ATOM     36  O   UNL     1      -1.409   7.162   3.714  1.00  0.00    -0.246 OA
BRANCH  35  37
ATOM     37  C   UNL     1      -3.608   6.257   3.950  1.00  0.00     0.060 A 
ATOM     38  C   UNL     1      -4.633   7.025   4.490  1.00  0.00     0.016 A 
ATOM     39  C   UNL     1      -3.893   5.299   2.979  1.00  0.00     0.016 A 
ATOM     40  C   UNL     1      -5.943   6.837   4.030  1.00  0.00     0.010 A 
ATOM     41  C   UNL     1      -5.188   5.149   2.478  1.00  0.00     0.010 A 
ATOM     42  C   UNL     1      -6.230   5.920   2.998  1.00  0.00    -0.014 A 
BRANCH  42  43
ATOM     43  C   UNL     1      -7.598   5.849   2.415  1.00  0.00     0.031 A 
ATOM     44  C   UNL     1      -8.459   4.622   2.558  1.00  0.00     0.074 A 
ATOM     45  C   UNL     1      -8.066   6.917   1.736  1.00  0.00     0.049 A 
ATOM     46  N   UNL     1      -9.724   4.469   2.258  1.00  0.00    -0.248 NA
ATOM     47  C   UNL     1      -7.820   3.405   3.081  1.00  0.00     0.031 C 
ATOM     48  C   UNL     1      -7.288   8.119   1.421  1.00  0.00     0.029 A 
ATOM     49  N   UNL     1      -9.306   7.179   1.210  1.00  0.00    -0.354 N 
ATOM     50  C   UNL     1     -10.040   3.155   2.582  1.00  0.00     0.074 A 
ATOM     51  C   UNL     1      -8.815   2.528   3.029  1.00  0.00     0.031 C 
ATOM     52  C   UNL     1      -8.088   9.017   0.825  1.00  0.00     0.029 A 
ATOM     53  C   UNL     1      -9.428   8.453   0.703  1.00  0.00     0.049 A 
ATOM     54  H   UNL     1     -10.037   6.520   1.197  1.00  0.00     0.167 HD
ATOM     55  C   UNL     1     -11.248   2.541   2.548  1.00  0.00     0.037 A 
ATOM     56  C   UNL     1     -10.507   9.108   0.232  1.00  0.00     0.037 A 
ATOM     57  C   UNL     1     -12.465   3.176   2.111  1.00  0.00     0.049 A 
ATOM     58  C   UNL     1     -11.844   8.420   0.240  1.00  0.00     0.074 A 
ATOM     59  C   UNL     1     -13.750   2.660   2.097  1.00  0.00     0.029 A 
ATOM     60  N   UNL     1     -12.549   4.467   1.610  1.00  0.00    -0.354 N 
ATOM     61  N   UNL     1     -12.146   7.213   0.656  1.00  0.00    -0.248 NA
ATOM     62  C   UNL     1     -12.989   9.185  -0.272  1.00  0.00     0.031 C 
ATOM     63  C   UNL     1     -14.605   3.628   1.561  1.00  0.00     0.029 A 
ATOM     64  C   UNL     1     -13.860   4.760   1.275  1.00  0.00     0.049 A 
ATOM     65  H   UNL     1     -11.788   5.084   1.508  1.00  0.00     0.167 HD
ATOM     66  C   UNL     1     -13.518   7.082   0.475  1.00  0.00     0.074 A 
ATOM     67  C   UNL     1     -13.990   8.338  -0.072  1.00  0.00     0.031 C 
ATOM     68  C   UNL     1     -14.314   6.017   0.734  1.00  0.00     0.037 A 
BRANCH  55  69
ATOM     69  C   UNL     1     -11.335   1.125   3.052  1.00  0.00     0.058 A 
ATOM     70  C   UNL     1     -11.230   0.841   4.424  1.00  0.00     0.135 A 
ATOM     71  C   UNL     1     -11.618   0.058   2.184  1.00  0.00     0.135 A 
ATOM     72  F   UNL     1     -10.952   1.822   5.297  1.00  0.00    -0.206 F 
ATOM     73  C   UNL     1     -11.392  -0.449   4.916  1.00  0.00     0.059 A 
ATOM     74  C   UNL     1     -11.806  -1.239   2.658  1.00  0.00     0.059 A 
ATOM     75  F   UNL     1     -11.731   0.272   0.864  1.00  0.00    -0.206 F 
ATOM     76  C   UNL     1     -11.686  -1.483   4.026  1.00  0.00     0.060 A 
BRANCH  76  77
ATOM     77  S   UNL     1     -11.934  -3.143   4.692  1.00  0.00     0.124 S 
ATOM     78  O   UNL     1     -10.577  -3.503   5.091  1.00  0.00    -0.237 OA
ATOM     79  O   UNL     1     -12.872  -2.902   5.784  1.00  0.00    -0.237 OA
ATOM     80  O   UNL     1     -12.473  -3.889   3.560  1.00  0.00    -0.744 OA
ENDBRANCH  76  77
ENDBRANCH  55  69
BRANCH  56  81
ATOM     81  C   UNL     1     -10.383  10.523  -0.206  1.00  0.00     0.058 A 
ATOM     82  C   UNL     1     -10.918  11.562   0.570  1.00  0.00     0.135 A 
ATOM     83  C   UNL     1      -9.717  10.868  -1.392  1.00  0.00     0.135 A 
ATOM     84  F   UNL     1     -11.563  11.281   1.713  1.00  0.00    -0.206 F 
ATOM     85  C   UNL     1     -10.816  12.892   0.178  1.00  0.00     0.059 A 
ATOM     86  C   UNL     1      -9.583  12.194  -1.794  1.00  0.00     0.059 A 
ATOM     87  F   UNL     1      -9.171   9.912  -2.159  1.00  0.00    -0.206 F 
ATOM     88  C   UNL     1     -10.146  13.198  -1.007  1.00  0.00     0.060 A 
BRANCH  88  89
ATOM     89  S   UNL     1      -9.988  14.932  -1.486  1.00  0.00     0.124 S 
ATOM     90  O   UNL     1     -11.347  15.243  -1.914  1.00  0.00    -0.237 OA
ATOM     91  O   UNL     1      -9.552  15.556  -0.241  1.00  0.00    -0.237 OA
ATOM     92  O   UNL     1      -8.984  14.897  -2.546  1.00  0.00    -0.744 OA
ENDBRANCH  88  89
ENDBRANCH  56  81
BRANCH  68  93
ATOM     93  C   UNL     1     -15.780   6.159   0.440  1.00  0.00     0.058 A 
ATOM     94  C   UNL     1     -16.266   6.129  -0.876  1.00  0.00     0.135 A 
ATOM     95  C   UNL     1     -16.713   6.259   1.484  1.00  0.00     0.135 A 
ATOM     96  F   UNL     1     -15.414   6.041  -1.909  1.00  0.00    -0.206 F 
ATOM     97  C   UNL     1     -17.627   6.206  -1.148  1.00  0.00     0.059 A 
ATOM     98  C   UNL     1     -18.081   6.314   1.236  1.00  0.00     0.059 A 
ATOM     99  F   UNL     1     -16.298   6.284   2.761  1.00  0.00    -0.206 F 
ATOM    100  C   UNL     1     -18.528   6.294  -0.084  1.00  0.00     0.060 A 
BRANCH 100 101
ATOM    101  S   UNL     1     -20.294   6.346  -0.452  1.00  0.00     0.124 S 
ATOM    102  O   UNL     1     -20.447   7.699  -0.977  1.00  0.00    -0.237 OA
ATOM    103  O   UNL     1     -20.442   5.268  -1.425  1.00  0.00    -0.237 OA
ATOM    104  O   UNL     1     -20.919   6.101   0.845  1.00  0.00    -0.744 OA
ENDBRANCH 100 101
ENDBRANCH  68  93
ENDBRANCH  42  43
ENDBRANCH  35  37
ENDBRANCH  34  35
ENDBRANCH  33  34
ENDBRANCH  32  33
ENDBRANCH  31  32
ENDBRANCH  30  31
ENDBRANCH   1  30
TORSDOF 23
