REMARK SMILES O=C(OCCOCCOCCOC(=O)[C@H]1CC2=c3ccccc3=N[C@H]2[C@@H](c2ccccc2)[NH2+]1)c1ccc(-c2c3nc(c(-c4c(F)cc(S(=O)(=O)[O-])cc4F)c4ccc([nH]4)c(-c4c(F)cc(S(=O)(=O)[O-])cc4F)c4nc(c(-c5c(F)cc(S(=O)(=O)[O-])cc5F)c5ccc2[nH]5)C=C4)C=C3)cc1
REMARK SMILES IDX 7 1 6 2 5 3 4 4 3 5 2 6 1 7 34 8 35 9 99 10 36 11 98 12
REMARK SMILES IDX 37 13 38 14 39 15 92 16 40 17 97 18 91 19 93 20 41 21 96 22
REMARK SMILES IDX 90 23 89 24 42 26 76 27 55 28 75 29 56 30 59 31 74 32 94 33
REMARK SMILES IDX 57 34 58 35 73 37 95 38 60 39 43 40 44 41 53 42 45 43 46 44
REMARK SMILES IDX 52 45 54 46 47 47 48 48 49 49 50 50 51 51 77 52 78 53 87 54
REMARK SMILES IDX 79 55 80 56 86 57 88 58 81 59 82 60 83 61 84 62 85 63 61 64
REMARK SMILES IDX 62 65 71 66 63 67 64 68 70 69 72 70 65 71 66 72 67 73 68 74
REMARK SMILES IDX 69 75 8 76 9 77 10 78 11 79 12 80 13 81 14 82 15 83 16 84
REMARK SMILES IDX 33 85 17 86 26 87 18 90 25 91 19 92 23 93 24 94 20 95 22 96
REMARK SMILES IDX 21 97 27 98 28 99 32 100 29 101 31 102 30 103
REMARK H PARENT 93 25 59 36 33 88 33 89
REMARK Flexibility Score: inf
ROOT
ATOM      1  C   UNL     1       2.756   1.913  -0.823  1.00  0.00     0.188 C 
ENDROOT
BRANCH   1   2
ATOM      2  O   UNL     1       3.922   2.067  -1.638  1.00  0.00    -0.376 OA
BRANCH   2   3
ATOM      3  C   UNL     1       4.961   1.110  -1.389  1.00  0.00     0.202 C 
BRANCH   3   4
ATOM      4  C   UNL     1       4.627  -0.366  -1.668  1.00  0.00     0.261 C 
BRANCH   4   5
ATOM      5  O   UNL     1       3.310  -0.787  -1.253  1.00  0.00    -0.460 OA
BRANCH   5   6
ATOM      6  C   UNL     1       2.869  -1.281  -0.080  1.00  0.00     0.338 C 
ATOM      7  O   UNL     1       1.702  -1.657   0.026  1.00  0.00    -0.246 OA
BRANCH   6   8
ATOM      8  C   UNL     1       3.750  -1.399   1.099  1.00  0.00     0.060 A 
ATOM      9  C   UNL     1       3.614  -2.534   1.881  1.00  0.00     0.016 A 
ATOM     10  C   UNL     1       4.540  -0.366   1.593  1.00  0.00     0.016 A 
ATOM     11  C   UNL     1       4.267  -2.596   3.117  1.00  0.00     0.010 A 
ATOM     12  C   UNL     1       5.300  -0.495   2.766  1.00  0.00     0.010 A 
ATOM     13  C   UNL     1       5.170  -1.601   3.592  1.00  0.00    -0.014 A 
BRANCH  13  14
ATOM     14  C   UNL     1       5.830  -1.757   4.949  1.00  0.00     0.031 A 
ATOM     15  C   UNL     1       6.008  -0.654   5.999  1.00  0.00     0.074 A 
ATOM     16  C   UNL     1       6.215  -3.003   5.307  1.00  0.00     0.049 A 
ATOM     17  N   UNL     1       6.028  -0.769   7.313  1.00  0.00    -0.248 NA
ATOM     18  C   UNL     1       6.261   0.728   5.563  1.00  0.00     0.031 C 
ATOM     19  C   UNL     1       6.273  -4.159   4.405  1.00  0.00     0.029 A 
ATOM     20  N   UNL     1       6.578  -3.526   6.521  1.00  0.00    -0.354 N 
ATOM     21  C   UNL     1       6.116   0.528   7.831  1.00  0.00     0.074 A 
ATOM     22  C   UNL     1       6.316   1.396   6.710  1.00  0.00     0.031 C 
ATOM     23  C   UNL     1       6.490  -5.268   5.115  1.00  0.00     0.029 A 
ATOM     24  C   UNL     1       6.763  -4.888   6.492  1.00  0.00     0.049 A 
ATOM     25  H   UNL     1       6.695  -2.981   7.333  1.00  0.00     0.167 HD
ATOM     26  C   UNL     1       6.070   0.949   9.121  1.00  0.00     0.037 A 
ATOM     27  C   UNL     1       7.167  -5.750   7.442  1.00  0.00     0.037 A 
ATOM     28  C   UNL     1       6.324   0.065  10.224  1.00  0.00     0.049 A 
ATOM     29  C   UNL     1       7.451  -5.224   8.810  1.00  0.00     0.074 A 
ATOM     30  C   UNL     1       6.420   0.382  11.568  1.00  0.00     0.029 A 
ATOM     31  N   UNL     1       6.691  -1.260  10.088  1.00  0.00    -0.354 N 
ATOM     32  N   UNL     1       7.206  -4.030   9.291  1.00  0.00    -0.248 NA
ATOM     33  C   UNL     1       8.103  -6.140   9.751  1.00  0.00     0.031 C 
ATOM     34  C   UNL     1       6.970  -0.719  12.224  1.00  0.00     0.029 A 
ATOM     35  C   UNL     1       7.131  -1.742  11.303  1.00  0.00     0.049 A 
ATOM     36  H   UNL     1       6.646  -1.779   9.253  1.00  0.00     0.167 HD
ATOM     37  C   UNL     1       7.685  -4.047  10.592  1.00  0.00     0.074 A 
ATOM     38  C   UNL     1       8.212  -5.375  10.829  1.00  0.00     0.031 C 
ATOM     39  C   UNL     1       7.687  -3.050  11.507  1.00  0.00     0.037 A 
BRANCH  26  40
ATOM     40  C   UNL     1       5.812   2.392   9.507  1.00  0.00     0.058 A 
ATOM     41  C   UNL     1       4.521   2.761   9.943  1.00  0.00     0.135 A 
ATOM     42  C   UNL     1       6.850   3.302   9.758  1.00  0.00     0.135 A 
ATOM     43  F   UNL     1       3.493   1.910   9.796  1.00  0.00    -0.206 F 
ATOM     44  C   UNL     1       4.270   3.968  10.599  1.00  0.00     0.059 A 
ATOM     45  C   UNL     1       6.626   4.507  10.436  1.00  0.00     0.059 A 
ATOM     46  F   UNL     1       8.106   3.004   9.392  1.00  0.00    -0.206 F 
ATOM     47  C   UNL     1       5.334   4.830  10.861  1.00  0.00     0.060 A 
BRANCH  47  48
ATOM     48  S   UNL     1       5.006   6.346  11.799  1.00  0.00     0.124 S 
ATOM     49  O   UNL     1       3.943   6.989  11.022  1.00  0.00    -0.237 OA
ATOM     50  O   UNL     1       4.610   5.831  13.091  1.00  0.00    -0.237 OA
ATOM     51  O   UNL     1       6.294   7.049  11.760  1.00  0.00    -0.744 OA
ENDBRANCH  47  48
ENDBRANCH  26  40
BRANCH  27  52
ATOM     52  C   UNL     1       7.431  -7.162   7.063  1.00  0.00     0.058 A 
ATOM     53  C   UNL     1       6.656  -8.219   7.554  1.00  0.00     0.135 A 
ATOM     54  C   UNL     1       8.429  -7.463   6.116  1.00  0.00     0.135 A 
ATOM     55  F   UNL     1       5.701  -7.985   8.466  1.00  0.00    -0.206 F 
ATOM     56  C   UNL     1       6.846  -9.523   7.104  1.00  0.00     0.059 A 
ATOM     57  C   UNL     1       8.608  -8.747   5.623  1.00  0.00     0.059 A 
ATOM     58  F   UNL     1       9.191  -6.482   5.605  1.00  0.00    -0.206 F 
ATOM     59  C   UNL     1       7.815  -9.772   6.128  1.00  0.00     0.060 A 
BRANCH  59  60
ATOM     60  S   UNL     1       7.997 -11.447   5.483  1.00  0.00     0.124 S 
ATOM     61  O   UNL     1       8.674 -12.113   6.589  1.00  0.00    -0.237 OA
ATOM     62  O   UNL     1       6.610 -11.839   5.250  1.00  0.00    -0.237 OA
ATOM     63  O   UNL     1       8.796 -11.255   4.275  1.00  0.00    -0.744 OA
ENDBRANCH  59  60
ENDBRANCH  27  52
BRANCH  39  64
ATOM     64  C   UNL     1       8.297  -3.332  12.841  1.00  0.00     0.058 A 
ATOM     65  C   UNL     1       9.687  -3.415  13.000  1.00  0.00     0.135 A 
ATOM     66  C   UNL     1       7.487  -3.417  13.983  1.00  0.00     0.135 A 
ATOM     67  F   UNL     1      10.498  -3.339  11.933  1.00  0.00    -0.206 F 
ATOM     68  C   UNL     1      10.256  -3.590  14.254  1.00  0.00     0.059 A 
ATOM     69  C   UNL     1       8.036  -3.558  15.249  1.00  0.00     0.059 A 
ATOM     70  F   UNL     1       6.152  -3.324  13.875  1.00  0.00    -0.206 F 
ATOM     71  C   UNL     1       9.421  -3.654  15.372  1.00  0.00     0.060 A 
BRANCH  71  72
ATOM     72  S   UNL     1      10.176  -3.842  16.998  1.00  0.00     0.124 S 
ATOM     73  O   UNL     1      10.615  -5.233  16.955  1.00  0.00    -0.237 OA
ATOM     74  O   UNL     1      11.237  -2.840  16.966  1.00  0.00    -0.237 OA
ATOM     75  O   UNL     1       9.078  -3.558  17.917  1.00  0.00    -0.744 OA
ENDBRANCH  71  72
ENDBRANCH  39  64
ENDBRANCH  13  14
ENDBRANCH   6   8
ENDBRANCH   5   6
ENDBRANCH   4   5
ENDBRANCH   3   4
ENDBRANCH   2   3
ENDBRANCH   1   2
BRANCH   1  76
ATOM     76  C   UNL     1       1.881   3.165  -0.707  1.00  0.00     0.188 C 
BRANCH  76  77
ATOM     77  O   UNL     1       2.510   4.421  -0.476  1.00  0.00    -0.376 OA
BRANCH  77  78
ATOM     78  C   UNL     1       3.612   4.460   0.418  1.00  0.00     0.202 C 
BRANCH  78  79
ATOM     79  C   UNL     1       3.295   4.341   1.915  1.00  0.00     0.261 C 
BRANCH  79  80
ATOM     80  O   UNL     1       2.521   3.176   2.263  1.00  0.00    -0.459 OA
BRANCH  80  81
ATOM     81  C   UNL     1       1.320   3.485   2.850  1.00  0.00     0.365 C 
ATOM     82  O   UNL     1       0.317   3.749   2.195  1.00  0.00    -0.245 OA
BRANCH  81  83
ATOM     83  C   UNL     1       1.329   3.474   4.387  1.00  0.00     0.298 C 
ATOM     84  C   UNL     1       0.602   2.245   5.071  1.00  0.00     0.111 C 
ATOM     85  N   UNL     1       2.700   3.741   4.851  1.00  0.00    -0.326 N 
ATOM     86  C   UNL     1       1.204   1.643   6.446  1.00  0.00    -0.024 C 
ATOM     87  C   UNL     1       2.646   3.612   6.306  1.00  0.00     0.243 C 
ATOM     88  H   UNL     1       2.991   4.682   4.586  1.00  0.00     0.347 HD
ATOM     89  H   UNL     1       3.375   3.098   4.437  1.00  0.00     0.347 HD
ATOM     90  C   UNL     1       1.230   0.308   6.550  1.00  0.00     0.002 A 
ATOM     91  C   UNL     1       2.660   2.091   6.600  1.00  0.00     0.196 C 
ATOM     92  C   UNL     1       1.400  -0.664   7.618  1.00  0.00     0.010 A 
ATOM     93  C   UNL     1       2.395   0.172   5.624  1.00  0.00     0.066 A 
ATOM     94  N   UNL     1       3.238   1.170   5.521  1.00  0.00    -0.270 NA
ATOM     95  C   UNL     1       1.802  -1.899   7.241  1.00  0.00     0.001 A 
ATOM     96  C   UNL     1       2.318  -1.153   4.986  1.00  0.00     0.028 A 
ATOM     97  C   UNL     1       2.015  -2.168   5.819  1.00  0.00     0.002 A 
BRANCH  87  98
ATOM     98  C   UNL     1       3.413   4.753   6.921  1.00  0.00     0.012 A 
ATOM     99  C   UNL     1       2.672   5.926   7.207  1.00  0.00     0.010 A 
ATOM    100  C   UNL     1       4.787   4.805   7.095  1.00  0.00     0.010 A 
ATOM    101  C   UNL     1       3.276   7.082   7.686  1.00  0.00     0.001 A 
ATOM    102  C   UNL     1       5.402   5.966   7.582  1.00  0.00     0.001 A 
ATOM    103  C   UNL     1       4.646   7.097   7.884  1.00  0.00     0.000 A 
ENDBRANCH  87  98
ENDBRANCH  81  83
ENDBRANCH  80  81
ENDBRANCH  79  80
ENDBRANCH  78  79
ENDBRANCH  77  78
ENDBRANCH  76  77
ENDBRANCH   1  76
TORSDOF 21
