REMARK SMILES Cc1ccccc1NC(=O)C[NH+]1CCC(CC(=O)OCCOCCOCCOC(=O)c2ccc(-c3c4nc(c(-c5c(F)cc(S(=O)(=O)[O-])cc5F)c5ccc([nH]5)c(-c5c(F)cc(S(=O)(=O)[O-])cc5F)c5nc(c(-c6c(F)cc(S(=O)(=O)[O-])cc6F)c6ccc3[nH]6)C=C5)C=C4)cc2)CC1
REMARK SMILES IDX 23 1 22 2 21 3 20 4 19 5 17 6 18 7 16 8 15 9 12 10 13 11
REMARK SMILES IDX 98 12 14 14 97 15 11 16 9 17 8 18 10 20 7 21 1 22 2 23 3 24
REMARK SMILES IDX 4 25 6 26 5 27 24 28 25 29 26 30 27 31 28 32 29 33 30 34
REMARK SMILES IDX 31 35 32 36 96 37 33 38 95 39 34 40 35 41 36 42 89 43 37 44
REMARK SMILES IDX 94 45 88 46 90 47 38 48 93 49 87 50 86 51 39 53 73 54 52 55
REMARK SMILES IDX 72 56 53 57 56 58 71 59 91 60 54 61 55 62 70 64 92 65 57 66
REMARK SMILES IDX 40 67 41 68 50 69 42 70 43 71 49 72 51 73 44 74 45 75 46 76
REMARK SMILES IDX 47 77 48 78 74 79 75 80 84 81 76 82 77 83 83 84 85 85 78 86
REMARK SMILES IDX 79 87 80 88 81 89 82 90 58 91 59 92 68 93 60 94 61 95 67 96
REMARK SMILES IDX 69 97 62 98 63 99 64 100 65 101 66 102
REMARK H PARENT 12 13 8 19 90 52 56 63
REMARK Flexibility Score: inf
ROOT
ATOM      1  C   UNL     1       3.268   1.233  -8.033  1.00  0.00     0.188 C 
ENDROOT
BRANCH   1   2
ATOM      2  O   UNL     1       2.851   1.800  -9.262  1.00  0.00    -0.376 OA
BRANCH   2   3
ATOM      3  C   UNL     1       1.696   2.572  -9.118  1.00  0.00     0.202 C 
BRANCH   3   4
ATOM      4  C   UNL     1       0.625   2.213  -8.060  1.00  0.00     0.261 C 
BRANCH   4   5
ATOM      5  O   UNL     1       0.644   0.978  -6.853  1.00  0.00    -0.463 OA
BRANCH   5   6
ATOM      6  C   UNL     1       0.026   0.089  -5.831  1.00  0.00     0.306 C 
ATOM      7  O   UNL     1       0.821  -0.725  -5.347  1.00  0.00    -0.252 OA
BRANCH   6   8
ATOM      8  C   UNL     1      -1.569   0.065  -4.999  1.00  0.00     0.126 C 
BRANCH   8   9
ATOM      9  C   UNL     1      -1.819   0.747  -3.447  1.00  0.00     0.011 C 
ATOM     10  N   UNL     1      -2.245   2.427  -0.962  1.00  0.00    -0.327 N 
ATOM     11  C   UNL     1      -1.755   2.969  -2.214  1.00  0.00     0.262 C 
ATOM     12  C   UNL     1      -2.258   0.949  -0.965  1.00  0.00     0.262 C 
ATOM     13  H   UNL     1      -3.236   2.646  -0.854  1.00  0.00     0.348 HD
ATOM     14  C   UNL     1      -2.399   2.191  -3.361  1.00  0.00     0.066 C 
ATOM     15  C   UNL     1      -2.642   0.138  -2.286  1.00  0.00     0.066 C 
BRANCH  10  16
ATOM     16  C   UNL     1      -1.623   3.118   0.210  1.00  0.00     0.363 C 
BRANCH  16  17
ATOM     17  C   UNL     1      -0.077   3.215   0.296  1.00  0.00     0.279 C 
ATOM     18  N   UNL     1       0.753   2.180   0.641  1.00  0.00    -0.321 N 
ATOM     19  H   UNL     1       1.711   2.405   0.665  1.00  0.00     0.170 HD
ATOM     20  O   UNL     1       0.472   4.303   0.053  1.00  0.00    -0.268 OA
BRANCH  18  21
ATOM     21  C   UNL     1       0.449   0.847   0.966  1.00  0.00     0.044 A 
ATOM     22  C   UNL     1       2.624  -0.033  -0.114  1.00  0.00     0.046 C 
ATOM     23  C   UNL     1       1.225  -0.190   0.419  1.00  0.00    -0.027 A 
ATOM     24  C   UNL     1       0.649  -1.471   0.327  1.00  0.00     0.005 A 
ATOM     25  C   UNL     1      -0.613  -1.734   0.859  1.00  0.00     0.000 A 
ATOM     26  C   UNL     1      -0.714   0.527   1.675  1.00  0.00     0.026 A 
ATOM     27  C   UNL     1      -1.262  -0.754   1.597  1.00  0.00     0.002 A 
ENDBRANCH  18  21
ENDBRANCH  16  17
ENDBRANCH  10  16
ENDBRANCH   8   9
ENDBRANCH   6   8
ENDBRANCH   5   6
ENDBRANCH   4   5
ENDBRANCH   3   4
ENDBRANCH   2   3
ENDBRANCH   1   2
BRANCH   1  28
ATOM     28  C   UNL     1       3.571   2.236  -6.899  1.00  0.00     0.188 C 
BRANCH  28  29
ATOM     29  O   UNL     1       2.639   3.314  -6.757  1.00  0.00    -0.376 OA
BRANCH  29  30
ATOM     30  C   UNL     1       3.141   4.642  -6.752  1.00  0.00     0.202 C 
BRANCH  30  31
ATOM     31  C   UNL     1       4.144   4.940  -5.651  1.00  0.00     0.261 C 
BRANCH  31  32
ATOM     32  O   UNL     1       3.741   5.006  -4.259  1.00  0.00    -0.460 OA
BRANCH  32  33
ATOM     33  C   UNL     1       2.770   4.344  -3.605  1.00  0.00     0.338 C 
ATOM     34  O   UNL     1       2.954   3.900  -2.475  1.00  0.00    -0.246 OA
BRANCH  33  35
ATOM     35  C   UNL     1       1.484   4.114  -4.280  1.00  0.00     0.060 A 
ATOM     36  C   UNL     1       1.139   2.817  -4.249  1.00  0.00     0.016 A 
ATOM     37  C   UNL     1       0.582   4.989  -4.918  1.00  0.00     0.016 A 
ATOM     38  C   UNL     1      -0.005   2.472  -4.939  1.00  0.00     0.010 A 
ATOM     39  C   UNL     1      -0.528   4.506  -5.734  1.00  0.00     0.010 A 
ATOM     40  C   UNL     1      -0.827   3.143  -5.849  1.00  0.00    -0.014 A 
BRANCH  40  41
ATOM     41  C   UNL     1      -1.907   2.428  -6.893  1.00  0.00     0.031 A 
ATOM     42  C   UNL     1      -3.340   2.712  -6.566  1.00  0.00     0.074 A 
ATOM     43  C   UNL     1      -1.913   1.337  -7.816  1.00  0.00     0.049 A 
ATOM     44  N   UNL     1      -4.310   1.854  -6.703  1.00  0.00    -0.248 NA
ATOM     45  C   UNL     1      -3.737   3.906  -5.798  1.00  0.00     0.031 C 
ATOM     46  C   UNL     1      -2.552   1.413  -9.165  1.00  0.00     0.029 A 
ATOM     47  N   UNL     1      -1.101   0.197  -8.072  1.00  0.00    -0.354 N 
ATOM     48  C   UNL     1      -5.436   2.595  -6.449  1.00  0.00     0.074 A 
ATOM     49  C   UNL     1      -4.992   3.570  -5.504  1.00  0.00     0.031 C 
ATOM     50  C   UNL     1      -2.135   0.403  -9.976  1.00  0.00     0.029 A 
ATOM     51  C   UNL     1      -1.268  -0.504  -9.240  1.00  0.00     0.049 A 
ATOM     52  H   UNL     1      -0.424  -0.087  -7.416  1.00  0.00     0.167 HD
ATOM     53  C   UNL     1      -6.391   2.726  -7.417  1.00  0.00     0.037 A 
ATOM     54  C   UNL     1      -1.071  -1.860  -9.307  1.00  0.00     0.037 A 
ATOM     55  C   UNL     1      -6.108   1.851  -8.557  1.00  0.00     0.049 A 
ATOM     56  C   UNL     1      -2.458  -2.432  -9.404  1.00  0.00     0.074 A 
ATOM     57  C   UNL     1      -5.696   2.068  -9.863  1.00  0.00     0.029 A 
ATOM     58  N   UNL     1      -5.970   0.489  -8.352  1.00  0.00    -0.354 N 
ATOM     59  N   UNL     1      -3.488  -1.644  -9.310  1.00  0.00    -0.248 NA
ATOM     60  C   UNL     1      -2.856  -3.824  -9.560  1.00  0.00     0.031 C 
ATOM     61  C   UNL     1      -5.466   0.803 -10.476  1.00  0.00     0.029 A 
ATOM     62  C   UNL     1      -5.721  -0.175  -9.533  1.00  0.00     0.049 A 
ATOM     63  H   UNL     1      -6.041   0.051  -7.473  1.00  0.00     0.167 HD
ATOM     64  C   UNL     1      -4.637  -2.324  -9.469  1.00  0.00     0.074 A 
ATOM     65  C   UNL     1      -4.202  -3.710  -9.527  1.00  0.00     0.031 C 
ATOM     66  C   UNL     1      -5.805  -1.629  -9.541  1.00  0.00     0.037 A 
BRANCH  53  67
ATOM     67  C   UNL     1      -7.370   3.897  -7.479  1.00  0.00     0.058 A 
ATOM     68  C   UNL     1      -8.056   4.186  -8.678  1.00  0.00     0.135 A 
ATOM     69  C   UNL     1      -7.682   4.781  -6.417  1.00  0.00     0.135 A 
ATOM     70  F   UNL     1      -7.942   3.408  -9.761  1.00  0.00    -0.206 F 
ATOM     71  C   UNL     1      -8.914   5.277  -8.829  1.00  0.00     0.059 A 
ATOM     72  C   UNL     1      -8.503   5.902  -6.554  1.00  0.00     0.059 A 
ATOM     73  F   UNL     1      -7.263   4.580  -5.164  1.00  0.00    -0.206 F 
ATOM     74  C   UNL     1      -9.129   6.135  -7.762  1.00  0.00     0.060 A 
BRANCH  74  75
ATOM     75  S   UNL     1     -10.299   7.486  -7.949  1.00  0.00     0.124 S 
ATOM     76  O   UNL     1      -9.706   8.254  -9.038  1.00  0.00    -0.237 OA
ATOM     77  O   UNL     1     -11.532   6.774  -8.267  1.00  0.00    -0.237 OA
ATOM     78  O   UNL     1     -10.276   8.140  -6.643  1.00  0.00    -0.744 OA
ENDBRANCH  74  75
ENDBRANCH  53  67
BRANCH  54  79
ATOM     79  C   UNL     1       0.093  -2.463  -8.539  1.00  0.00     0.058 A 
ATOM     80  C   UNL     1       1.409  -2.195  -8.980  1.00  0.00     0.135 A 
ATOM     81  C   UNL     1      -0.002  -3.037  -7.261  1.00  0.00     0.135 A 
ATOM     82  F   UNL     1       1.616  -1.764 -10.236  1.00  0.00    -0.206 F 
ATOM     83  C   UNL     1       2.528  -2.270  -8.133  1.00  0.00     0.059 A 
ATOM     84  C   UNL     1       1.114  -3.142  -6.394  1.00  0.00     0.059 A 
ATOM     85  F   UNL     1      -1.202  -3.386  -6.777  1.00  0.00    -0.206 F 
ATOM     86  C   UNL     1       2.357  -2.651  -6.804  1.00  0.00     0.060 A 
BRANCH  86  87
ATOM     87  S   UNL     1       3.647  -2.152  -5.577  1.00  0.00     0.124 S 
ATOM     88  O   UNL     1       4.524  -3.317  -5.569  1.00  0.00    -0.237 OA
ATOM     89  O   UNL     1       4.226  -0.953  -6.188  1.00  0.00    -0.237 OA
ATOM     90  O   UNL     1       2.940  -1.923  -4.322  1.00  0.00    -0.744 OA
ENDBRANCH  86  87
ENDBRANCH  54  79
BRANCH  66  91
ATOM     91  C   UNL     1      -7.154  -2.252  -9.581  1.00  0.00     0.058 A 
ATOM     92  C   UNL     1      -7.413  -3.467 -10.218  1.00  0.00     0.135 A 
ATOM     93  C   UNL     1      -8.261  -1.608  -8.979  1.00  0.00     0.135 A 
ATOM     94  F   UNL     1      -6.488  -4.063 -10.985  1.00  0.00    -0.206 F 
ATOM     95  C   UNL     1      -8.648  -4.089 -10.111  1.00  0.00     0.059 A 
ATOM     96  C   UNL     1      -9.514  -2.178  -8.915  1.00  0.00     0.059 A 
ATOM     97  F   UNL     1      -8.180  -0.403  -8.402  1.00  0.00    -0.206 F 
ATOM     98  C   UNL     1      -9.684  -3.443  -9.439  1.00  0.00     0.060 A 
BRANCH  98  99
ATOM     99  S   UNL     1     -11.271  -4.256  -9.287  1.00  0.00     0.124 S 
ATOM    100  O   UNL     1     -11.498  -4.729 -10.649  1.00  0.00    -0.237 OA
ATOM    101  O   UNL     1     -10.973  -5.285  -8.296  1.00  0.00    -0.237 OA
ATOM    102  O   UNL     1     -12.161  -3.190  -8.840  1.00  0.00    -0.744 OA
ENDBRANCH  98  99
ENDBRANCH  66  91
ENDBRANCH  40  41
ENDBRANCH  33  35
ENDBRANCH  32  33
ENDBRANCH  31  32
ENDBRANCH  30  31
ENDBRANCH  29  30
ENDBRANCH  28  29
ENDBRANCH   1  28
TORSDOF 24
