REMARK SMILES COc1cc([C@@H]2CC(=O)Nc3c(C(=O)OCCOCCOCCOC(=O)c4ccc(-c5c6nc(c(-c7c(F)cc(S(=O)(=O)[O-])cc7F)c7ccc([nH]7)c(-c7c(F)cc(S(=O)(=O)[O-])cc7F)c7nc(c(-c8c(F)cc(S(=O)(=O)[O-])cc8F)c8ccc5[nH]8)C=C7)C=C6)cc4)cn(-c4ccc(F)cc4)c32)c(OC)c2c1OCO2
REMARK SMILES IDX 20 1 19 2 18 3 17 4 16 5 15 6 13 7 14 8 12 9 6 10 7 11
REMARK SMILES IDX 102 12 8 13 11 14 94 15 9 16 10 17 93 18 5 20 3 21 4 22
REMARK SMILES IDX 107 23 106 24 108 25 103 26 110 27 109 28 2 29 1 30 104 31
REMARK SMILES IDX 105 32 95 33 96 34 101 35 97 36 100 37 98 38 99 39 21 40
REMARK SMILES IDX 22 41 23 42 24 43 25 44 26 45 27 46 28 47 92 48 29 49 91 50
REMARK SMILES IDX 30 51 31 52 32 53 85 54 33 55 90 56 84 57 86 58 34 59 89 60
REMARK SMILES IDX 83 61 82 62 35 64 69 65 48 66 68 67 49 68 52 69 67 70 87 71
REMARK SMILES IDX 50 72 51 73 66 75 88 76 53 77 36 78 37 79 46 80 38 81 39 82
REMARK SMILES IDX 45 83 47 84 40 85 41 86 42 87 43 88 44 89 70 90 71 91 80 92
REMARK SMILES IDX 72 93 73 94 79 95 81 96 74 97 75 98 76 99 77 100 78 101
REMARK SMILES IDX 54 102 55 103 64 104 56 105 57 106 63 107 65 108 58 109
REMARK SMILES IDX 59 110 60 111 61 112 62 113
REMARK H PARENT 10 19 86 63 52 74
REMARK Flexibility Score: inf
ROOT
ATOM      1  C   UNL     1      -1.929 -10.272  -1.031  1.00  0.00     0.188 C 
ENDROOT
BRANCH   1   2
ATOM      2  C   UNL     1      -1.284 -10.391  -2.428  1.00  0.00     0.188 C 
BRANCH   2   3
ATOM      3  O   UNL     1      -0.573 -11.554  -2.818  1.00  0.00    -0.376 OA
BRANCH   3   4
ATOM      4  C   UNL     1       0.397 -12.160  -1.982  1.00  0.00     0.202 C 
BRANCH   4   5
ATOM      5  C   UNL     1       1.441 -11.366  -1.170  1.00  0.00     0.261 C 
BRANCH   5   6
ATOM      6  O   UNL     1       0.979 -10.180  -0.519  1.00  0.00    -0.460 OA
BRANCH   6   7
ATOM      7  C   UNL     1       1.247  -9.017  -1.164  1.00  0.00     0.341 C 
ATOM      8  O   UNL     1       1.993  -8.912  -2.140  1.00  0.00    -0.246 OA
BRANCH   7   9
ATOM      9  C   UNL     1       0.462  -7.905  -0.663  1.00  0.00     0.102 A 
ATOM     10  C   UNL     1      -0.559  -5.436   1.854  1.00  0.00     0.082 C 
ATOM     11  C   UNL     1      -0.684  -6.317   3.106  1.00  0.00     0.115 C 
ATOM     12  C   UNL     1      -0.441  -6.304   0.636  1.00  0.00     0.055 A 
ATOM     13  C   UNL     1       0.077  -7.640   3.070  1.00  0.00     0.225 C 
ATOM     14  C   UNL     1       0.081  -7.576   0.659  1.00  0.00     0.078 A 
ATOM     15  N   UNL     1      -0.683  -5.963  -0.678  1.00  0.00    -0.317 N 
ATOM     16  O   UNL     1       0.393  -8.220   4.111  1.00  0.00    -0.275 OA
ATOM     17  N   UNL     1       0.321  -8.221   1.849  1.00  0.00    -0.324 N 
ATOM     18  C   UNL     1      -0.082  -6.912  -1.470  1.00  0.00     0.109 A 
ATOM     19  H   UNL     1       0.681  -9.137   1.825  1.00  0.00     0.170 HD
BRANCH  10  20
ATOM     20  C   UNL     1       0.597  -4.417   1.908  1.00  0.00     0.012 A 
ATOM     21  C   UNL     1       1.181  -2.049   1.585  1.00  0.00     0.165 A 
ATOM     22  C   UNL     1       0.252  -3.041   1.923  1.00  0.00     0.059 A 
ATOM     23  C   UNL     1       2.472  -2.451   1.297  1.00  0.00     0.211 A 
ATOM     24  C   UNL     1       2.851  -3.777   1.383  1.00  0.00     0.211 A 
ATOM     25  O   UNL     1       3.508  -1.654   0.906  1.00  0.00    -0.449 OA
ATOM     26  C   UNL     1       1.952  -4.780   1.716  1.00  0.00     0.168 A 
ATOM     27  O   UNL     1       4.168  -3.947   1.069  1.00  0.00    -0.449 OA
ATOM     28  C   UNL     1       4.560  -2.613   0.726  1.00  0.00     0.468 C 
BRANCH  21  29
ATOM     29  O   UNL     1       0.682  -0.779   1.536  1.00  0.00    -0.493 OA
ATOM     30  C   UNL     1       1.306   0.098   0.605  1.00  0.00     0.278 C 
ENDBRANCH  21  29
BRANCH  26  31
ATOM     31  O   UNL     1       2.274  -6.093   1.882  1.00  0.00    -0.492 OA
ATOM     32  C   UNL     1       3.436  -6.599   1.239  1.00  0.00     0.278 C 
ENDBRANCH  26  31
ENDBRANCH  10  20
BRANCH  15  33
ATOM     33  C   UNL     1      -1.225  -4.761  -1.168  1.00  0.00     0.046 A 
ATOM     34  C   UNL     1      -0.425  -3.618  -1.174  1.00  0.00     0.029 A 
ATOM     35  C   UNL     1      -2.541  -4.722  -1.636  1.00  0.00     0.029 A 
ATOM     36  C   UNL     1      -0.977  -2.395  -1.542  1.00  0.00     0.041 A 
ATOM     37  C   UNL     1      -3.079  -3.494  -2.033  1.00  0.00     0.041 A 
ATOM     38  C   UNL     1      -2.302  -2.340  -1.957  1.00  0.00     0.123 A 
ATOM     39  F   UNL     1      -2.832  -1.156  -2.290  1.00  0.00    -0.207 F 
ENDBRANCH  15  33
ENDBRANCH   7   9
ENDBRANCH   6   7
ENDBRANCH   5   6
ENDBRANCH   4   5
ENDBRANCH   3   4
ENDBRANCH   2   3
ENDBRANCH   1   2
BRANCH   1  40
ATOM     40  O   UNL     1      -1.491 -11.201  -0.068  1.00  0.00    -0.376 OA
BRANCH  40  41
ATOM     41  C   UNL     1      -2.202 -12.401   0.183  1.00  0.00     0.202 C 
BRANCH  41  42
ATOM     42  C   UNL     1      -3.189 -13.061  -0.780  1.00  0.00     0.261 C 
BRANCH  42  43
ATOM     43  O   UNL     1      -3.482 -12.375  -1.978  1.00  0.00    -0.460 OA
BRANCH  43  44
ATOM     44  C   UNL     1      -4.564 -11.574  -1.895  1.00  0.00     0.338 C 
ATOM     45  O   UNL     1      -5.097 -11.160  -0.878  1.00  0.00    -0.246 OA
BRANCH  44  46
ATOM     46  C   UNL     1      -5.066 -11.328  -3.243  1.00  0.00     0.060 A 
ATOM     47  C   UNL     1      -5.933 -10.248  -3.417  1.00  0.00     0.016 A 
ATOM     48  C   UNL     1      -4.933 -12.352  -4.190  1.00  0.00     0.016 A 
ATOM     49  C   UNL     1      -6.849 -10.322  -4.440  1.00  0.00     0.010 A 
ATOM     50  C   UNL     1      -5.860 -12.432  -5.196  1.00  0.00     0.010 A 
ATOM     51  C   UNL     1      -6.865 -11.470  -5.241  1.00  0.00    -0.014 A 
BRANCH  51  52
ATOM     52  C   UNL     1      -7.931 -11.618  -6.206  1.00  0.00     0.031 A 
ATOM     53  C   UNL     1      -7.756 -10.719  -7.366  1.00  0.00     0.074 A 
ATOM     54  C   UNL     1      -8.887 -12.560  -6.082  1.00  0.00     0.049 A 
ATOM     55  N   UNL     1      -8.449  -9.670  -7.660  1.00  0.00    -0.248 NA
ATOM     56  C   UNL     1      -6.530 -10.874  -8.169  1.00  0.00     0.031 C 
ATOM     57  C   UNL     1      -8.974 -13.654  -5.110  1.00  0.00     0.029 A 
ATOM     58  N   UNL     1      -9.963 -12.789  -6.880  1.00  0.00    -0.354 N 
ATOM     59  C   UNL     1      -7.901  -9.196  -8.846  1.00  0.00     0.074 A 
ATOM     60  C   UNL     1      -6.608  -9.813  -8.972  1.00  0.00     0.031 C 
ATOM     61  C   UNL     1      -9.903 -14.551  -5.523  1.00  0.00     0.029 A 
ATOM     62  C   UNL     1     -10.570 -14.031  -6.704  1.00  0.00     0.049 A 
ATOM     63  H   UNL     1     -10.288 -12.129  -7.534  1.00  0.00     0.167 HD
ATOM     64  C   UNL     1      -8.680  -8.581  -9.775  1.00  0.00     0.037 A 
ATOM     65  C   UNL     1     -11.502 -14.584  -7.527  1.00  0.00     0.037 A 
ATOM     66  C   UNL     1      -9.911  -8.109  -9.192  1.00  0.00     0.049 A 
ATOM     67  C   UNL     1     -12.081 -13.468  -8.326  1.00  0.00     0.074 A 
ATOM     68  C   UNL     1     -10.224  -7.242  -8.162  1.00  0.00     0.029 A 
ATOM     69  N   UNL     1     -11.046  -8.852  -9.411  1.00  0.00    -0.354 N 
ATOM     70  N   UNL     1     -12.812 -12.516  -7.815  1.00  0.00    -0.248 NA
ATOM     71  C   UNL     1     -11.438 -13.151  -9.593  1.00  0.00     0.031 C 
ATOM     72  C   UNL     1     -11.340  -7.835  -7.503  1.00  0.00     0.029 A 
ATOM     73  C   UNL     1     -11.695  -8.985  -8.208  1.00  0.00     0.049 A 
ATOM     74  H   UNL     1     -11.341  -9.223 -10.274  1.00  0.00     0.167 HD
ATOM     75  C   UNL     1     -12.387 -11.360  -8.453  1.00  0.00     0.074 A 
ATOM     76  C   UNL     1     -11.580 -11.822  -9.581  1.00  0.00     0.031 C 
ATOM     77  C   UNL     1     -12.484 -10.141  -7.845  1.00  0.00     0.037 A 
BRANCH  64  78
ATOM     78  C   UNL     1      -8.497  -8.774 -11.261  1.00  0.00     0.058 A 
ATOM     79  C   UNL     1      -9.232  -7.972 -12.154  1.00  0.00     0.135 A 
ATOM     80  C   UNL     1      -7.838  -9.884 -11.841  1.00  0.00     0.135 A 
ATOM     81  F   UNL     1      -9.916  -6.905 -11.709  1.00  0.00    -0.206 F 
ATOM     82  C   UNL     1      -9.349  -8.280 -13.509  1.00  0.00     0.059 A 
ATOM     83  C   UNL     1      -7.892 -10.175 -13.197  1.00  0.00     0.059 A 
ATOM     84  F   UNL     1      -7.190 -10.801 -11.113  1.00  0.00    -0.206 F 
ATOM     85  C   UNL     1      -8.679  -9.390 -14.018  1.00  0.00     0.060 A 
BRANCH  85  86
ATOM     86  S   UNL     1      -8.883  -9.833 -15.750  1.00  0.00     0.124 S 
ATOM     87  O   UNL     1     -10.277 -10.258 -15.779  1.00  0.00    -0.237 OA
ATOM     88  O   UNL     1      -8.582  -8.571 -16.418  1.00  0.00    -0.237 OA
ATOM     89  O   UNL     1      -7.894 -10.889 -15.944  1.00  0.00    -0.744 OA
ENDBRANCH  85  86
ENDBRANCH  64  78
BRANCH  65  90
ATOM     90  C   UNL     1     -11.652 -16.004  -7.960  1.00  0.00     0.058 A 
ATOM     91  C   UNL     1     -12.776 -16.412  -8.708  1.00  0.00     0.135 A 
ATOM     92  C   UNL     1     -10.567 -16.901  -7.941  1.00  0.00     0.135 A 
ATOM     93  F   UNL     1     -13.855 -15.619  -8.791  1.00  0.00    -0.206 F 
ATOM     94  C   UNL     1     -12.791 -17.597  -9.454  1.00  0.00     0.059 A 
ATOM     95  C   UNL     1     -10.563 -18.091  -8.670  1.00  0.00     0.059 A 
ATOM     96  F   UNL     1      -9.434 -16.599  -7.290  1.00  0.00    -0.206 F 
ATOM     97  C   UNL     1     -11.665 -18.418  -9.452  1.00  0.00     0.060 A 
BRANCH  97  98
ATOM     98  S   UNL     1     -11.594 -19.834 -10.578  1.00  0.00     0.124 S 
ATOM     99  O   UNL     1     -12.568 -20.743  -9.983  1.00  0.00    -0.237 OA
ATOM    100  O   UNL     1     -11.977 -19.236 -11.852  1.00  0.00    -0.237 OA
ATOM    101  O   UNL     1     -10.201 -20.267 -10.490  1.00  0.00    -0.744 OA
ENDBRANCH  97  98
ENDBRANCH  65  90
BRANCH  77 102
ATOM    102  C   UNL     1     -13.320 -10.033  -6.593  1.00  0.00     0.058 A 
ATOM    103  C   UNL     1     -13.048 -10.696  -5.381  1.00  0.00     0.135 A 
ATOM    104  C   UNL     1     -14.371  -9.105  -6.589  1.00  0.00     0.135 A 
ATOM    105  F   UNL     1     -11.998 -11.523  -5.268  1.00  0.00    -0.206 F 
ATOM    106  C   UNL     1     -13.818 -10.478  -4.234  1.00  0.00     0.059 A 
ATOM    107  C   UNL     1     -15.129  -8.848  -5.452  1.00  0.00     0.059 A 
ATOM    108  F   UNL     1     -14.644  -8.395  -7.697  1.00  0.00    -0.206 F 
ATOM    109  C   UNL     1     -14.858  -9.551  -4.280  1.00  0.00     0.060 A 
BRANCH 109 110
ATOM    110  S   UNL     1     -15.823  -9.224  -2.788  1.00  0.00     0.124 S 
ATOM    111  O   UNL     1     -16.578 -10.462  -2.633  1.00  0.00    -0.237 OA
ATOM    112  O   UNL     1     -14.788  -8.982  -1.788  1.00  0.00    -0.237 OA
ATOM    113  O   UNL     1     -16.617  -8.050  -3.145  1.00  0.00    -0.744 OA
ENDBRANCH 109 110
ENDBRANCH  77 102
ENDBRANCH  51  52
ENDBRANCH  44  46
ENDBRANCH  43  44
ENDBRANCH  42  43
ENDBRANCH  41  42
ENDBRANCH  40  41
ENDBRANCH   1  40
TORSDOF 24
