REMARK SMILES Cc1c(CC(=O)OCCOCCOCCOC(=O)c2ccc(-c3c4nc(c(-c5c(F)cc(S(=O)(=O)[O-])cc5F)c5ccc([nH]5)c(-c5c(F)cc(S(=O)(=O)[O-])cc5F)c5nc(c(-c6c(F)cc(S(=O)(=O)[O-])cc6F)c6ccc3[nH]6)C=C5)C=C4)cc2)c(O)oc2cc(=O)cc(O)c1-2
REMARK SMILES IDX 12 1 11 2 10 3 9 4 8 5 7 6 5 7 6 8 4 9 3 10 1 11 2 12 95 13
REMARK SMILES IDX 85 14 88 15 93 16 87 17 89 18 92 19 90 20 91 21 86 22 94 24
REMARK SMILES IDX 13 26 14 27 15 28 16 29 17 30 18 31 19 32 20 33 84 34 21 35
REMARK SMILES IDX 83 36 22 37 23 38 24 39 77 40 25 41 82 42 76 43 78 44 26 45
REMARK SMILES IDX 81 46 75 47 74 48 27 50 61 51 40 52 60 53 41 54 44 55 59 56
REMARK SMILES IDX 79 57 42 58 43 59 58 61 80 62 45 63 28 64 29 65 38 66 30 67
REMARK SMILES IDX 31 68 37 69 39 70 32 71 33 72 34 73 35 74 36 75 62 76 63 77
REMARK SMILES IDX 72 78 64 79 65 80 71 81 73 82 66 83 67 84 68 85 69 86 70 87
REMARK SMILES IDX 46 88 47 89 56 90 48 91 49 92 55 93 57 94 50 95 51 96 52 97
REMARK SMILES IDX 53 98 54 99
REMARK H PARENT 86 23 94 25 78 49 44 60
REMARK Flexibility Score: inf
ROOT
ATOM      1  C   UNL     1      -0.340  -0.133   1.923  1.00  0.00     0.188 C 
ENDROOT
BRANCH   1   2
ATOM      2  C   UNL     1      -0.858   1.280   1.585  1.00  0.00     0.188 C 
BRANCH   2   3
ATOM      3  O   UNL     1      -2.069   1.742   2.171  1.00  0.00    -0.376 OA
BRANCH   3   4
ATOM      4  C   UNL     1      -3.129   0.816   2.351  1.00  0.00     0.202 C 
BRANCH   4   5
ATOM      5  C   UNL     1      -3.771   0.279   1.071  1.00  0.00     0.261 C 
BRANCH   5   6
ATOM      6  O   UNL     1      -2.858  -0.514   0.281  1.00  0.00    -0.463 OA
BRANCH   6   7
ATOM      7  C   UNL     1      -2.864  -0.264  -1.050  1.00  0.00     0.310 C 
ATOM      8  O   UNL     1      -3.614   0.544  -1.593  1.00  0.00    -0.252 OA
BRANCH   7   9
ATOM      9  C   UNL     1      -1.824  -1.027  -1.876  1.00  0.00     0.166 C 
BRANCH   9  10
ATOM     10  C   UNL     1      -1.020  -2.183  -1.294  1.00  0.00     0.048 A 
ATOM     11  C   UNL     1       1.145  -0.854  -1.661  1.00  0.00     0.046 C 
ATOM     12  C   UNL     1       0.430  -2.014  -1.015  1.00  0.00    -0.026 A 
ATOM     13  C   UNL     1       1.089  -2.931  -0.254  1.00  0.00     0.063 A 
ATOM     14  C   UNL     1      -1.573  -3.390  -1.038  1.00  0.00     0.286 A 
ATOM     15  C   UNL     1       0.443  -4.228  -0.024  1.00  0.00     0.146 A 
ATOM     16  C   UNL     1       2.423  -2.723   0.344  1.00  0.00     0.130 A 
ATOM     17  O   UNL     1      -0.857  -4.422  -0.458  1.00  0.00    -0.425 OA
ATOM     18  C   UNL     1       1.123  -5.257   0.499  1.00  0.00     0.100 A 
ATOM     19  C   UNL     1       3.108  -3.736   0.893  1.00  0.00     0.099 A 
ATOM     20  C   UNL     1       2.524  -5.093   0.939  1.00  0.00     0.186 A 
ATOM     21  O   UNL     1       3.163  -6.044   1.376  1.00  0.00    -0.290 OA
BRANCH  14  22
ATOM     22  O   UNL     1      -2.886  -3.692  -1.331  1.00  0.00    -0.480 OA
ATOM     23  H   UNL     1      -3.439  -3.046  -1.725  1.00  0.00     0.297 HD
ENDBRANCH  14  22
BRANCH  16  24
ATOM     24  O   UNL     1       2.868  -1.419   0.443  1.00  0.00    -0.507 OA
ATOM     25  H   UNL     1       3.708  -1.238   0.815  1.00  0.00     0.293 HD
ENDBRANCH  16  24
ENDBRANCH   9  10
ENDBRANCH   7   9
ENDBRANCH   6   7
ENDBRANCH   5   6
ENDBRANCH   4   5
ENDBRANCH   3   4
ENDBRANCH   2   3
ENDBRANCH   1   2
BRANCH   1  26
ATOM     26  O   UNL     1      -0.555  -0.650   3.228  1.00  0.00    -0.376 OA
BRANCH  26  27
ATOM     27  C   UNL     1      -0.159   0.163   4.324  1.00  0.00     0.202 C 
BRANCH  27  28
ATOM     28  C   UNL     1       1.340   0.443   4.406  1.00  0.00     0.261 C 
BRANCH  28  29
ATOM     29  O   UNL     1       1.753   1.403   3.413  1.00  0.00    -0.460 OA
BRANCH  29  30
ATOM     30  C   UNL     1       2.907   1.105   2.773  1.00  0.00     0.338 C 
ATOM     31  O   UNL     1       3.618   0.126   2.936  1.00  0.00    -0.246 OA
BRANCH  30  32
ATOM     32  C   UNL     1       3.191   2.091   1.718  1.00  0.00     0.060 A 
ATOM     33  C   UNL     1       2.568   1.929   0.482  1.00  0.00     0.016 A 
ATOM     34  C   UNL     1       4.252   2.979   1.854  1.00  0.00     0.016 A 
ATOM     35  C   UNL     1       3.074   2.557  -0.654  1.00  0.00     0.010 A 
ATOM     36  C   UNL     1       4.718   3.665   0.726  1.00  0.00     0.010 A 
ATOM     37  C   UNL     1       4.176   3.412  -0.550  1.00  0.00    -0.014 A 
BRANCH  37  38
ATOM     38  C   UNL     1       4.863   3.925  -1.768  1.00  0.00     0.031 A 
ATOM     39  C   UNL     1       6.301   3.539  -2.009  1.00  0.00     0.074 A 
ATOM     40  C   UNL     1       4.223   4.686  -2.678  1.00  0.00     0.049 A 
ATOM     41  N   UNL     1       7.181   4.071  -2.815  1.00  0.00    -0.248 NA
ATOM     42  C   UNL     1       6.816   2.402  -1.226  1.00  0.00     0.031 C 
ATOM     43  C   UNL     1       2.802   5.031  -2.653  1.00  0.00     0.029 A 
ATOM     44  N   UNL     1       4.696   5.313  -3.805  1.00  0.00    -0.354 N 
ATOM     45  C   UNL     1       8.368   3.380  -2.591  1.00  0.00     0.074 A 
ATOM     46  C   UNL     1       8.093   2.383  -1.580  1.00  0.00     0.031 C 
ATOM     47  C   UNL     1       2.516   5.795  -3.719  1.00  0.00     0.029 A 
ATOM     48  C   UNL     1       3.750   6.079  -4.444  1.00  0.00     0.049 A 
ATOM     49  H   UNL     1       5.623   5.222  -4.125  1.00  0.00     0.167 HD
ATOM     50  C   UNL     1       9.576   3.571  -3.173  1.00  0.00     0.037 A 
ATOM     51  C   UNL     1       3.873   6.963  -5.455  1.00  0.00     0.037 A 
ATOM     52  C   UNL     1       9.818   4.535  -4.215  1.00  0.00     0.049 A 
ATOM     53  C   UNL     1       5.240   7.231  -6.026  1.00  0.00     0.074 A 
ATOM     54  C   UNL     1      11.008   4.836  -4.854  1.00  0.00     0.029 A 
ATOM     55  N   UNL     1       8.843   5.339  -4.788  1.00  0.00    -0.354 N 
ATOM     56  N   UNL     1       6.386   6.671  -5.720  1.00  0.00    -0.248 NA
ATOM     57  C   UNL     1       5.335   8.275  -7.056  1.00  0.00     0.031 C 
ATOM     58  C   UNL     1      10.759   5.848  -5.788  1.00  0.00     0.029 A 
ATOM     59  C   UNL     1       9.406   6.145  -5.763  1.00  0.00     0.049 A 
ATOM     60  H   UNL     1       7.891   5.336  -4.539  1.00  0.00     0.167 HD
ATOM     61  C   UNL     1       7.339   7.293  -6.521  1.00  0.00     0.074 A 
ATOM     62  C   UNL     1       6.629   8.252  -7.343  1.00  0.00     0.031 C 
ATOM     63  C   UNL     1       8.681   7.098  -6.565  1.00  0.00     0.037 A 
BRANCH  50  64
ATOM     64  C   UNL     1      10.738   2.763  -2.663  1.00  0.00     0.058 A 
ATOM     65  C   UNL     1      10.886   1.399  -2.955  1.00  0.00     0.135 A 
ATOM     66  C   UNL     1      11.741   3.381  -1.897  1.00  0.00     0.135 A 
ATOM     67  F   UNL     1       9.946   0.753  -3.663  1.00  0.00    -0.206 F 
ATOM     68  C   UNL     1      11.979   0.671  -2.492  1.00  0.00     0.059 A 
ATOM     69  C   UNL     1      12.854   2.679  -1.444  1.00  0.00     0.059 A 
ATOM     70  F   UNL     1      11.646   4.682  -1.582  1.00  0.00    -0.206 F 
ATOM     71  C   UNL     1      12.959   1.321  -1.738  1.00  0.00     0.060 A 
BRANCH  71  72
ATOM     72  S   UNL     1      14.375   0.365  -1.153  1.00  0.00     0.124 S 
ATOM     73  O   UNL     1      13.755  -0.482  -0.139  1.00  0.00    -0.237 OA
ATOM     74  O   UNL     1      14.813  -0.316  -2.367  1.00  0.00    -0.237 OA
ATOM     75  O   UNL     1      15.288   1.384  -0.644  1.00  0.00    -0.744 OA
ENDBRANCH  71  72
ENDBRANCH  50  64
BRANCH  51  76
ATOM     76  C   UNL     1       2.682   7.714  -5.938  1.00  0.00     0.058 A 
ATOM     77  C   UNL     1       2.165   7.501  -7.224  1.00  0.00     0.135 A 
ATOM     78  C   UNL     1       2.030   8.652  -5.121  1.00  0.00     0.135 A 
ATOM     79  F   UNL     1       2.763   6.630  -8.051  1.00  0.00    -0.206 F 
ATOM     80  C   UNL     1       1.045   8.189  -7.683  1.00  0.00     0.059 A 
ATOM     81  C   UNL     1       0.891   9.330  -5.545  1.00  0.00     0.059 A 
ATOM     82  F   UNL     1       2.481   8.894  -3.880  1.00  0.00    -0.206 F 
ATOM     83  C   UNL     1       0.410   9.096  -6.832  1.00  0.00     0.060 A 
BRANCH  83  84
ATOM     84  S   UNL     1      -1.080   9.933  -7.415  1.00  0.00     0.124 S 
ATOM     85  O   UNL     1      -0.532  10.862  -8.396  1.00  0.00    -0.237 OA
ATOM     86  O   UNL     1      -1.863   8.824  -7.952  1.00  0.00    -0.237 OA
ATOM     87  O   UNL     1      -1.619  10.541  -6.202  1.00  0.00    -0.744 OA
ENDBRANCH  83  84
ENDBRANCH  51  76
BRANCH  63  88
ATOM     88  C   UNL     1       9.463   7.930  -7.542  1.00  0.00     0.058 A 
ATOM     89  C   UNL     1       9.704   9.294  -7.313  1.00  0.00     0.135 A 
ATOM     90  C   UNL     1      10.009   7.350  -8.698  1.00  0.00     0.135 A 
ATOM     91  F   UNL     1       9.198   9.897  -6.225  1.00  0.00    -0.206 F 
ATOM     92  C   UNL     1      10.436  10.062  -8.213  1.00  0.00     0.059 A 
ATOM     93  C   UNL     1      10.767   8.093  -9.597  1.00  0.00     0.059 A 
ATOM     94  F   UNL     1       9.817   6.047  -8.956  1.00  0.00    -0.206 F 
ATOM     95  C   UNL     1      10.962   9.452  -9.353  1.00  0.00     0.060 A 
BRANCH  95  96
ATOM     96  S   UNL     1      11.923  10.457 -10.504  1.00  0.00     0.124 S 
ATOM     97  O   UNL     1      10.879  11.258 -11.135  1.00  0.00    -0.237 OA
ATOM     98  O   UNL     1      12.823  11.180  -9.610  1.00  0.00    -0.237 OA
ATOM     99  O   UNL     1      12.564   9.469 -11.366  1.00  0.00    -0.744 OA
ENDBRANCH  95  96
ENDBRANCH  63  88
ENDBRANCH  37  38
ENDBRANCH  30  32
ENDBRANCH  29  30
ENDBRANCH  28  29
ENDBRANCH  27  28
ENDBRANCH  26  27
ENDBRANCH   1  26
TORSDOF 23
