REMARK SMILES Cc1c(CC(=O)OCCOCCOCCOC(=O)c2ccc(-c3c4nc(c(-c5c(F)cc(S(=O)(=O)[O-])cc5F)c5ccc([nH]5)c(-c5c(F)cc(S(=O)(=O)[O-])cc5F)c5nc(c(-c6c(F)cc(S(=O)(=O)[O-])cc6F)c6ccc3[nH]6)C=C5)C=C4)cc2)c2cc(O)ccc2n1C(=O)c1ccc(Cl)cc1
REMARK SMILES IDX 11 1 10 2 9 3 8 4 7 5 5 6 6 7 4 8 3 9 1 10 2 11 92 12 85 13
REMARK SMILES IDX 91 14 86 15 90 16 87 17 89 18 93 19 94 20 95 21 96 22 101 23
REMARK SMILES IDX 97 24 100 25 98 26 99 27 88 28 12 30 13 31 14 32 15 33 16 34
REMARK SMILES IDX 17 35 18 36 19 37 20 38 84 39 21 40 83 41 22 42 23 43 24 44
REMARK SMILES IDX 77 45 25 46 82 47 76 48 78 49 26 50 81 51 75 52 74 53 27 55
REMARK SMILES IDX 61 56 40 57 60 58 41 59 44 60 59 61 79 62 42 63 43 64 58 66
REMARK SMILES IDX 80 67 45 68 28 69 29 70 38 71 30 72 31 73 37 74 39 75 32 76
REMARK SMILES IDX 33 77 34 78 35 79 36 80 62 81 63 82 72 83 64 84 65 85 71 86
REMARK SMILES IDX 73 87 66 88 67 89 68 90 69 91 70 92 46 93 47 94 56 95 48 96
REMARK SMILES IDX 49 97 55 98 57 99 50 100 51 101 52 102 53 103 54 104
REMARK H PARENT 88 29 78 54 44 65
REMARK Flexibility Score: inf
ROOT
ATOM      1  C   UNL     1       2.067  -3.933   4.720  1.00  0.00     0.188 C 
ENDROOT
BRANCH   1   2
ATOM      2  O   UNL     1       3.396  -4.415   4.755  1.00  0.00    -0.376 OA
BRANCH   2   3
ATOM      3  C   UNL     1       4.376  -3.698   4.012  1.00  0.00     0.202 C 
BRANCH   3   4
ATOM      4  C   UNL     1       4.007  -3.320   2.568  1.00  0.00     0.261 C 
BRANCH   4   5
ATOM      5  O   UNL     1       3.120  -2.177   2.580  1.00  0.00    -0.463 OA
BRANCH   5   6
ATOM      6  C   UNL     1       2.304  -2.039   1.503  1.00  0.00     0.310 C 
ATOM      7  O   UNL     1       2.549  -2.542   0.413  1.00  0.00    -0.252 OA
BRANCH   6   8
ATOM      8  C   UNL     1       0.953  -1.432   1.860  1.00  0.00     0.160 C 
BRANCH   8   9
ATOM      9  C   UNL     1       0.781   0.026   2.142  1.00  0.00    -0.008 A 
ATOM     10  C   UNL     1       1.318   0.859  -0.262  1.00  0.00     0.065 C 
ATOM     11  C   UNL     1       0.909   1.010   1.168  1.00  0.00     0.028 A 
ATOM     12  N   UNL     1       0.536   2.220   1.732  1.00  0.00    -0.280 N 
ATOM     13  C   UNL     1       0.101   0.638   3.258  1.00  0.00     0.008 A 
ATOM     14  C   UNL     1      -0.247   1.925   2.853  1.00  0.00     0.057 A 
ATOM     15  C   UNL     1      -0.386   0.216   4.520  1.00  0.00     0.056 A 
ATOM     16  C   UNL     1      -1.204   2.683   3.566  1.00  0.00     0.031 A 
ATOM     17  C   UNL     1      -1.243   1.016   5.281  1.00  0.00     0.116 A 
ATOM     18  C   UNL     1      -1.688   2.219   4.785  1.00  0.00     0.048 A 
BRANCH  12  19
ATOM     19  C   UNL     1       0.902   3.518   1.306  1.00  0.00     0.262 C 
ATOM     20  O   UNL     1       1.548   3.668   0.271  1.00  0.00    -0.268 OA
BRANCH  19  21
ATOM     21  C   UNL     1       0.616   4.706   2.126  1.00  0.00     0.040 A 
ATOM     22  C   UNL     1       1.266   4.846   3.359  1.00  0.00     0.015 A 
ATOM     23  C   UNL     1      -0.452   5.532   1.766  1.00  0.00     0.015 A 
ATOM     24  C   UNL     1       0.797   5.787   4.272  1.00  0.00     0.021 A 
ATOM     25  C   UNL     1      -0.921   6.465   2.690  1.00  0.00     0.021 A 
ATOM     26  C   UNL     1      -0.305   6.579   3.941  1.00  0.00     0.041 A 
ATOM     27  Cl  UNL     1      -0.944   7.669   5.109  1.00  0.00    -0.084 Cl
ENDBRANCH  19  21
ENDBRANCH  12  19
BRANCH  17  28
ATOM     28  O   UNL     1      -1.720   0.642   6.505  1.00  0.00    -0.508 OA
ATOM     29  H   UNL     1      -1.447  -0.169   6.886  1.00  0.00     0.293 HD
ENDBRANCH  17  28
ENDBRANCH   8   9
ENDBRANCH   6   8
ENDBRANCH   5   6
ENDBRANCH   4   5
ENDBRANCH   3   4
ENDBRANCH   2   3
ENDBRANCH   1   2
BRANCH   1  30
ATOM     30  C   UNL     1       1.832  -2.462   5.074  1.00  0.00     0.188 C 
BRANCH  30  31
ATOM     31  O   UNL     1       2.692  -1.793   5.970  1.00  0.00    -0.376 OA
BRANCH  31  32
ATOM     32  C   UNL     1       2.723  -2.295   7.295  1.00  0.00     0.202 C 
BRANCH  32  33
ATOM     33  C   UNL     1       1.356  -2.380   7.996  1.00  0.00     0.261 C 
BRANCH  33  34
ATOM     34  O   UNL     1       0.499  -3.396   7.410  1.00  0.00    -0.460 OA
BRANCH  34  35
ATOM     35  C   UNL     1      -0.805  -3.026   7.257  1.00  0.00     0.338 C 
ATOM     36  O   UNL     1      -1.343  -2.097   7.844  1.00  0.00    -0.246 OA
BRANCH  35  37
ATOM     37  C   UNL     1      -1.353  -3.576   5.980  1.00  0.00     0.060 A 
ATOM     38  C   UNL     1      -1.127  -4.862   5.483  1.00  0.00     0.016 A 
ATOM     39  C   UNL     1      -1.974  -2.632   5.154  1.00  0.00     0.016 A 
ATOM     40  C   UNL     1      -1.458  -5.155   4.145  1.00  0.00     0.010 A 
ATOM     41  C   UNL     1      -2.203  -2.886   3.809  1.00  0.00     0.010 A 
ATOM     42  C   UNL     1      -1.948  -4.152   3.290  1.00  0.00    -0.014 A 
BRANCH  42  43
ATOM     43  C   UNL     1      -2.535  -4.444   1.978  1.00  0.00     0.031 A 
ATOM     44  C   UNL     1      -3.892  -4.996   2.063  1.00  0.00     0.074 A 
ATOM     45  C   UNL     1      -2.086  -4.154   0.741  1.00  0.00     0.049 A 
ATOM     46  N   UNL     1      -4.151  -6.256   2.013  1.00  0.00    -0.248 NA
ATOM     47  C   UNL     1      -5.047  -4.140   2.338  1.00  0.00     0.031 C 
ATOM     48  C   UNL     1      -0.811  -3.578   0.375  1.00  0.00     0.029 A 
ATOM     49  N   UNL     1      -2.713  -4.274  -0.472  1.00  0.00    -0.354 N 
ATOM     50  C   UNL     1      -5.524  -6.341   1.957  1.00  0.00     0.074 A 
ATOM     51  C   UNL     1      -6.022  -5.054   2.387  1.00  0.00     0.031 C 
ATOM     52  C   UNL     1      -0.830  -3.150  -0.909  1.00  0.00     0.029 A 
ATOM     53  C   UNL     1      -2.061  -3.626  -1.517  1.00  0.00     0.049 A 
ATOM     54  H   UNL     1      -3.551  -4.775  -0.594  1.00  0.00     0.167 HD
ATOM     55  C   UNL     1      -6.122  -7.370   1.301  1.00  0.00     0.037 A 
ATOM     56  C   UNL     1      -2.322  -3.666  -2.848  1.00  0.00     0.037 A 
ATOM     57  C   UNL     1      -5.169  -8.383   0.895  1.00  0.00     0.049 A 
ATOM     58  C   UNL     1      -2.903  -5.003  -3.109  1.00  0.00     0.074 A 
ATOM     59  C   UNL     1      -4.206  -9.126   1.554  1.00  0.00     0.029 A 
ATOM     60  N   UNL     1      -4.844  -8.460  -0.441  1.00  0.00    -0.354 N 
ATOM     61  N   UNL     1      -2.223  -6.115  -3.007  1.00  0.00    -0.248 NA
ATOM     62  C   UNL     1      -4.348  -5.157  -3.076  1.00  0.00     0.031 C 
ATOM     63  C   UNL     1      -3.109  -9.217   0.646  1.00  0.00     0.029 A 
ATOM     64  C   UNL     1      -3.478  -8.581  -0.540  1.00  0.00     0.049 A 
ATOM     65  H   UNL     1      -5.479  -8.434  -1.193  1.00  0.00     0.167 HD
ATOM     66  C   UNL     1      -3.109  -7.011  -2.430  1.00  0.00     0.074 A 
ATOM     67  C   UNL     1      -4.425  -6.410  -2.620  1.00  0.00     0.031 C 
ATOM     68  C   UNL     1      -2.676  -8.017  -1.612  1.00  0.00     0.037 A 
BRANCH  55  69
ATOM     69  C   UNL     1      -7.506  -7.293   0.738  1.00  0.00     0.058 A 
ATOM     70  C   UNL     1      -8.215  -8.479   0.486  1.00  0.00     0.135 A 
ATOM     71  C   UNL     1      -8.080  -6.103   0.243  1.00  0.00     0.135 A 
ATOM     72  F   UNL     1      -7.723  -9.664   0.882  1.00  0.00    -0.206 F 
ATOM     73  C   UNL     1      -9.411  -8.486  -0.226  1.00  0.00     0.059 A 
ATOM     74  C   UNL     1      -9.303  -6.077  -0.413  1.00  0.00     0.059 A 
ATOM     75  F   UNL     1      -7.432  -4.931   0.294  1.00  0.00    -0.206 F 
ATOM     76  C   UNL     1      -9.944  -7.279  -0.674  1.00  0.00     0.060 A 
BRANCH  76  77
ATOM     77  S   UNL     1     -11.447  -7.296  -1.662  1.00  0.00     0.124 S 
ATOM     78  O   UNL     1     -10.954  -7.836  -2.923  1.00  0.00    -0.237 OA
ATOM     79  O   UNL     1     -12.314  -8.174  -0.883  1.00  0.00    -0.237 OA
ATOM     80  O   UNL     1     -11.846  -5.892  -1.687  1.00  0.00    -0.744 OA
ENDBRANCH  76  77
ENDBRANCH  55  69
BRANCH  56  81
ATOM     81  C   UNL     1      -2.313  -2.537  -3.819  1.00  0.00     0.058 A 
ATOM     82  C   UNL     1      -2.554  -2.744  -5.191  1.00  0.00     0.135 A 
ATOM     83  C   UNL     1      -2.321  -1.194  -3.390  1.00  0.00     0.135 A 
ATOM     84  F   UNL     1      -2.574  -3.988  -5.694  1.00  0.00    -0.206 F 
ATOM     85  C   UNL     1      -2.851  -1.694  -6.069  1.00  0.00     0.059 A 
ATOM     86  C   UNL     1      -2.611  -0.129  -4.247  1.00  0.00     0.059 A 
ATOM     87  F   UNL     1      -2.129  -0.882  -2.099  1.00  0.00    -0.206 F 
ATOM     88  C   UNL     1      -2.905  -0.389  -5.581  1.00  0.00     0.060 A 
BRANCH  88  89
ATOM     89  S   UNL     1      -3.481   0.941  -6.666  1.00  0.00     0.124 S 
ATOM     90  O   UNL     1      -2.384   1.054  -7.620  1.00  0.00    -0.237 OA
ATOM     91  O   UNL     1      -4.727   0.392  -7.191  1.00  0.00    -0.237 OA
ATOM     92  O   UNL     1      -3.640   2.075  -5.759  1.00  0.00    -0.744 OA
ENDBRANCH  88  89
ENDBRANCH  56  81
BRANCH  68  93
ATOM     93  C   UNL     1      -1.212  -8.401  -1.640  1.00  0.00     0.058 A 
ATOM     94  C   UNL     1      -0.153  -7.553  -1.271  1.00  0.00     0.135 A 
ATOM     95  C   UNL     1      -0.883  -9.743  -1.898  1.00  0.00     0.135 A 
ATOM     96  F   UNL     1      -0.379  -6.282  -0.919  1.00  0.00    -0.206 F 
ATOM     97  C   UNL     1       1.166  -8.008  -1.179  1.00  0.00     0.059 A 
ATOM     98  C   UNL     1       0.420 -10.227  -1.782  1.00  0.00     0.059 A 
ATOM     99  F   UNL     1      -1.849 -10.622  -2.212  1.00  0.00    -0.206 F 
ATOM    100  C   UNL     1       1.442  -9.352  -1.425  1.00  0.00     0.060 A 
BRANCH 100 101
ATOM    101  S   UNL     1       3.126  -9.962  -1.181  1.00  0.00     0.124 S 
ATOM    102  O   UNL     1       3.841  -9.356  -2.299  1.00  0.00    -0.237 OA
ATOM    103  O   UNL     1       3.462  -9.442   0.142  1.00  0.00    -0.237 OA
ATOM    104  O   UNL     1       2.978 -11.414  -1.249  1.00  0.00    -0.744 OA
ENDBRANCH 100 101
ENDBRANCH  68  93
ENDBRANCH  42  43
ENDBRANCH  35  37
ENDBRANCH  34  35
ENDBRANCH  33  34
ENDBRANCH  32  33
ENDBRANCH  31  32
ENDBRANCH  30  31
ENDBRANCH   1  30
TORSDOF 24
