REMARK SMILES C[C@H](C(=O)OCCOCCOCCOC(=O)c1ccc(-c2c3nc(c(-c4c(F)cc(S(=O)(=O)[O-])cc4F)c4ccc([nH]4)c(-c4c(F)cc(S(=O)(=O)[O-])cc4F)c4nc(c(-c5c(F)cc(S(=O)(=O)[O-])cc5F)c5ccc2[nH]5)C=C4)C=C3)cc1)c1ccc2c3cc(Cl)ccc3n(C(=O)c3cocn3)c2c1
REMARK SMILES IDX 9 1 8 2 7 3 6 4 5 5 3 6 4 7 2 8 1 9 83 10 84 11 103 12 85 13
REMARK SMILES IDX 102 14 86 15 94 16 87 17 93 18 88 19 92 20 89 21 91 22 90 23
REMARK SMILES IDX 95 24 96 25 97 26 98 27 101 28 99 29 100 30 10 31 11 32
REMARK SMILES IDX 12 33 13 34 14 35 15 36 16 37 17 38 18 39 82 40 19 41 81 42
REMARK SMILES IDX 20 43 21 44 22 45 75 46 23 47 80 48 74 49 76 50 24 51 79 52
REMARK SMILES IDX 73 53 72 54 25 56 59 57 38 58 58 59 39 60 42 61 57 62 77 63
REMARK SMILES IDX 40 64 41 65 56 67 78 68 43 69 26 70 27 71 36 72 28 73 29 74
REMARK SMILES IDX 35 75 37 76 30 77 31 78 32 79 33 80 34 81 60 82 61 83 70 84
REMARK SMILES IDX 62 85 63 86 69 87 71 88 64 89 65 90 66 91 67 92 68 93 44 94
REMARK SMILES IDX 45 95 54 96 46 97 47 98 53 99 55 100 48 101 49 102 50 103
REMARK SMILES IDX 51 104 52 105
REMARK H PARENT 76 55 42 66
REMARK Flexibility Score: inf
ROOT
ATOM      1  C   UNL     1       1.125  -0.286   2.193  1.00  0.00     0.188 C 
ENDROOT
BRANCH   1   2
ATOM      2  O   UNL     1       1.598   0.977   2.658  1.00  0.00    -0.376 OA
BRANCH   2   3
ATOM      3  C   UNL     1       1.280   2.143   1.899  1.00  0.00     0.202 C 
BRANCH   3   4
ATOM      4  C   UNL     1       1.592   2.104   0.398  1.00  0.00     0.261 C 
BRANCH   4   5
ATOM      5  O   UNL     1       0.807   1.113  -0.293  1.00  0.00    -0.463 OA
BRANCH   5   6
ATOM      6  C   UNL     1       1.373   0.550  -1.392  1.00  0.00     0.313 C 
ATOM      7  O   UNL     1       2.418   0.949  -1.896  1.00  0.00    -0.252 OA
BRANCH   6   8
ATOM      8  C   UNL     1       0.650  -0.711  -1.888  1.00  0.00     0.126 C 
ATOM      9  C   UNL     1       1.416  -1.923  -1.315  1.00  0.00     0.025 C 
BRANCH   8  10
ATOM     10  C   UNL     1      -0.882  -0.743  -1.758  1.00  0.00    -0.032 A 
ATOM     11  C   UNL     1      -1.629   0.409  -2.027  1.00  0.00     0.005 A 
ATOM     12  C   UNL     1      -1.587  -1.917  -1.411  1.00  0.00     0.032 A 
ATOM     13  C   UNL     1      -3.029   0.417  -1.942  1.00  0.00     0.011 A 
ATOM     14  C   UNL     1      -2.993  -1.886  -1.237  1.00  0.00     0.058 A 
ATOM     15  C   UNL     1      -3.722  -0.746  -1.550  1.00  0.00     0.008 A 
ATOM     16  N   UNL     1      -3.889  -2.873  -0.784  1.00  0.00    -0.274 N 
ATOM     17  C   UNL     1      -5.100  -1.059  -1.390  1.00  0.00     0.009 A 
ATOM     18  C   UNL     1      -5.194  -2.355  -0.864  1.00  0.00     0.057 A 
ATOM     19  C   UNL     1      -6.277  -0.312  -1.622  1.00  0.00     0.031 A 
ATOM     20  C   UNL     1      -6.446  -2.863  -0.454  1.00  0.00     0.029 A 
ATOM     21  C   UNL     1      -7.515  -0.852  -1.286  1.00  0.00     0.041 A 
ATOM     22  C   UNL     1      -7.600  -2.103  -0.691  1.00  0.00     0.023 A 
ATOM     23  Cl  UNL     1      -8.947   0.056  -1.585  1.00  0.00    -0.084 Cl
BRANCH  16  24
ATOM     24  C   UNL     1      -3.476  -4.139  -0.280  1.00  0.00     0.284 C 
ATOM     25  O   UNL     1      -2.360  -4.160   0.239  1.00  0.00    -0.266 OA
BRANCH  24  26
ATOM     26  C   UNL     1      -4.241  -5.381  -0.384  1.00  0.00     0.167 A 
ATOM     27  C   UNL     1      -5.218  -5.736  -1.290  1.00  0.00     0.231 A 
ATOM     28  N   UNL     1      -3.950  -6.492   0.396  1.00  0.00    -0.211 NA
ATOM     29  O   UNL     1      -5.555  -7.041  -1.079  1.00  0.00    -0.451 OA
ATOM     30  C   UNL     1      -4.740  -7.433  -0.062  1.00  0.00     0.308 A 
ENDBRANCH  24  26
ENDBRANCH  16  24
ENDBRANCH   8  10
ENDBRANCH   6   8
ENDBRANCH   5   6
ENDBRANCH   4   5
ENDBRANCH   3   4
ENDBRANCH   2   3
ENDBRANCH   1   2
BRANCH   1  31
ATOM     31  C   UNL     1      -0.360  -0.407   1.806  1.00  0.00     0.188 C 
BRANCH  31  32
ATOM     32  O   UNL     1      -1.130   0.734   2.137  1.00  0.00    -0.376 OA
BRANCH  32  33
ATOM     33  C   UNL     1      -2.162   0.536   3.087  1.00  0.00     0.202 C 
BRANCH  33  34
ATOM     34  C   UNL     1      -1.698   0.162   4.501  1.00  0.00     0.261 C 
BRANCH  34  35
ATOM     35  O   UNL     1      -0.849  -0.996   4.596  1.00  0.00    -0.460 OA
BRANCH  35  36
ATOM     36  C   UNL     1      -1.408  -2.201   4.328  1.00  0.00     0.338 C 
ATOM     37  O   UNL     1      -2.569  -2.416   4.040  1.00  0.00    -0.246 OA
BRANCH  36  38
ATOM     38  C   UNL     1      -0.303  -3.189   4.255  1.00  0.00     0.060 A 
ATOM     39  C   UNL     1      -0.105  -3.916   3.074  1.00  0.00     0.016 A 
ATOM     40  C   UNL     1       0.551  -3.374   5.345  1.00  0.00     0.016 A 
ATOM     41  C   UNL     1       0.934  -4.849   2.990  1.00  0.00     0.010 A 
ATOM     42  C   UNL     1       1.577  -4.321   5.266  1.00  0.00     0.010 A 
ATOM     43  C   UNL     1       1.759  -5.083   4.098  1.00  0.00    -0.014 A 
BRANCH  43  44
ATOM     44  C   UNL     1       2.685  -6.245   4.120  1.00  0.00     0.031 A 
ATOM     45  C   UNL     1       2.218  -7.514   4.783  1.00  0.00     0.074 A 
ATOM     46  C   UNL     1       3.919  -6.179   3.589  1.00  0.00     0.049 A 
ATOM     47  N   UNL     1       2.871  -8.624   5.009  1.00  0.00    -0.248 NA
ATOM     48  C   UNL     1       0.826  -7.526   5.261  1.00  0.00     0.031 C 
ATOM     49  C   UNL     1       4.481  -5.025   2.890  1.00  0.00     0.029 A 
ATOM     50  N   UNL     1       4.932  -7.108   3.571  1.00  0.00    -0.354 N 
ATOM     51  C   UNL     1       1.976  -9.461   5.666  1.00  0.00     0.074 A 
ATOM     52  C   UNL     1       0.742  -8.722   5.824  1.00  0.00     0.031 C 
ATOM     53  C   UNL     1       5.744  -5.309   2.524  1.00  0.00     0.029 A 
ATOM     54  C   UNL     1       6.093  -6.650   2.992  1.00  0.00     0.049 A 
ATOM     55  H   UNL     1       4.836  -8.016   3.939  1.00  0.00     0.167 HD
ATOM     56  C   UNL     1       2.162 -10.732   6.094  1.00  0.00     0.037 A 
ATOM     57  C   UNL     1       7.302  -7.238   2.875  1.00  0.00     0.037 A 
ATOM     58  C   UNL     1       3.390 -11.466   5.936  1.00  0.00     0.049 A 
ATOM     59  C   UNL     1       7.507  -8.630   3.421  1.00  0.00     0.074 A 
ATOM     60  C   UNL     1       3.668 -12.768   6.315  1.00  0.00     0.029 A 
ATOM     61  N   UNL     1       4.548 -10.961   5.364  1.00  0.00    -0.354 N 
ATOM     62  N   UNL     1       6.645  -9.422   4.015  1.00  0.00    -0.248 NA
ATOM     63  C   UNL     1       8.852  -9.210   3.282  1.00  0.00     0.031 C 
ATOM     64  C   UNL     1       5.009 -13.033   6.018  1.00  0.00     0.029 A 
ATOM     65  C   UNL     1       5.551 -11.916   5.402  1.00  0.00     0.049 A 
ATOM     66  H   UNL     1       4.643 -10.057   4.985  1.00  0.00     0.167 HD
ATOM     67  C   UNL     1       7.333 -10.601   4.288  1.00  0.00     0.074 A 
ATOM     68  C   UNL     1       8.681 -10.423   3.791  1.00  0.00     0.031 C 
ATOM     69  C   UNL     1       6.887 -11.731   4.893  1.00  0.00     0.037 A 
BRANCH  56  70
ATOM     70  C   UNL     1       1.017 -11.400   6.804  1.00  0.00     0.058 A 
ATOM     71  C   UNL     1      -0.141 -11.808   6.123  1.00  0.00     0.135 A 
ATOM     72  C   UNL     1       1.091 -11.659   8.183  1.00  0.00     0.135 A 
ATOM     73  F   UNL     1      -0.272 -11.568   4.809  1.00  0.00    -0.206 F 
ATOM     74  C   UNL     1      -1.196 -12.425   6.788  1.00  0.00     0.059 A 
ATOM     75  C   UNL     1       0.060 -12.300   8.863  1.00  0.00     0.059 A 
ATOM     76  F   UNL     1       2.175 -11.288   8.883  1.00  0.00    -0.206 F 
ATOM     77  C   UNL     1      -1.086 -12.666   8.159  1.00  0.00     0.060 A 
BRANCH  77  78
ATOM     78  S   UNL     1      -2.462 -13.471   9.005  1.00  0.00     0.124 S 
ATOM     79  O   UNL     1      -3.454 -12.400   9.033  1.00  0.00    -0.237 OA
ATOM     80  O   UNL     1      -2.763 -14.589   8.117  1.00  0.00    -0.237 OA
ATOM     81  O   UNL     1      -1.898 -13.837  10.301  1.00  0.00    -0.744 OA
ENDBRANCH  77  78
ENDBRANCH  56  70
BRANCH  57  82
ATOM     82  C   UNL     1       8.426  -6.514   2.221  1.00  0.00     0.058 A 
ATOM     83  C   UNL     1       8.934  -6.934   0.982  1.00  0.00     0.135 A 
ATOM     84  C   UNL     1       9.025  -5.398   2.826  1.00  0.00     0.135 A 
ATOM     85  F   UNL     1       8.408  -8.006   0.370  1.00  0.00    -0.206 F 
ATOM     86  C   UNL     1      10.003  -6.284   0.373  1.00  0.00     0.059 A 
ATOM     87  C   UNL     1      10.079  -4.715   2.224  1.00  0.00     0.059 A 
ATOM     88  F   UNL     1       8.576  -4.952   4.010  1.00  0.00    -0.206 F 
ATOM     89  C   UNL     1      10.567  -5.172   1.001  1.00  0.00     0.060 A 
BRANCH  89  90
ATOM     90  S   UNL     1      11.924  -4.309   0.178  1.00  0.00     0.124 S 
ATOM     91  O   UNL     1      13.023  -5.252   0.354  1.00  0.00    -0.237 OA
ATOM     92  O   UNL     1      11.417  -4.166  -1.183  1.00  0.00    -0.237 OA
ATOM     93  O   UNL     1      12.035  -3.063   0.932  1.00  0.00    -0.744 OA
ENDBRANCH  89  90
ENDBRANCH  57  82
BRANCH  69  94
ATOM     94  C   UNL     1       7.845 -12.887   5.014  1.00  0.00     0.058 A 
ATOM     95  C   UNL     1       8.917 -12.871   5.920  1.00  0.00     0.135 A 
ATOM     96  C   UNL     1       7.648 -14.053   4.256  1.00  0.00     0.135 A 
ATOM     97  F   UNL     1       9.155 -11.781   6.666  1.00  0.00    -0.206 F 
ATOM     98  C   UNL     1       9.773 -13.961   6.054  1.00  0.00     0.059 A 
ATOM     99  C   UNL     1       8.473 -15.165   4.394  1.00  0.00     0.059 A 
ATOM    100  F   UNL     1       6.630 -14.128   3.383  1.00  0.00    -0.206 F 
ATOM    101  C   UNL     1       9.541 -15.105   5.288  1.00  0.00     0.060 A 
BRANCH 101 102
ATOM    102  S   UNL     1      10.635 -16.526   5.497  1.00  0.00     0.124 S 
ATOM    103  O   UNL     1      11.845 -16.069   4.822  1.00  0.00    -0.237 OA
ATOM    104  O   UNL     1      10.724 -16.642   6.950  1.00  0.00    -0.237 OA
ATOM    105  O   UNL     1       9.917 -17.610   4.832  1.00  0.00    -0.744 OA
ENDBRANCH 101 102
ENDBRANCH  69  94
ENDBRANCH  43  44
ENDBRANCH  36  38
ENDBRANCH  35  36
ENDBRANCH  34  35
ENDBRANCH  33  34
ENDBRANCH  32  33
ENDBRANCH  31  32
ENDBRANCH   1  31
TORSDOF 23
