REMARK SMILES CC[C@@H](C)[C@H](NC(=O)[C@H](C)N1C(=O)N2CCC3=c4cc(OC)ccc4=N[C@@H]3[C@@]2(C)C1=O)C(=O)OCCOCCOCCOC(=O)c1ccc(-c2c3nc(c(-c4c(F)cc(S(=O)(=O)[O-])cc4F)c4ccc([nH]4)c(-c4c(F)cc(S(=O)(=O)[O-])cc4F)c4nc(c(-c5c(F)cc(S(=O)(=O)[O-])cc5F)c5ccc2[nH]5)C=C4)C=C3)cc1
REMARK SMILES IDX 38 1 37 2 36 3 35 4 34 5 32 6 33 7 5 8 3 9 4 10 2 11 1 12
REMARK SMILES IDX 6 13 7 14 8 16 9 17 10 18 11 19 12 20 30 21 14 22 13 23
REMARK SMILES IDX 28 24 31 25 15 26 27 27 29 28 16 29 17 30 26 31 18 32 25 33
REMARK SMILES IDX 19 34 24 35 20 36 23 37 21 38 22 39 39 40 40 41 41 42 42 43
REMARK SMILES IDX 43 44 44 45 45 46 46 47 47 48 111 49 48 50 110 51 49 52
REMARK SMILES IDX 50 53 51 54 104 55 52 56 109 57 103 58 105 59 53 60 108 61
REMARK SMILES IDX 102 62 101 63 54 65 88 66 67 67 87 68 68 69 71 70 86 71
REMARK SMILES IDX 106 72 69 73 70 74 85 76 107 77 72 78 55 79 56 80 65 81
REMARK SMILES IDX 57 82 58 83 64 84 66 85 59 86 60 87 61 88 62 89 63 90 89 91
REMARK SMILES IDX 90 92 99 93 91 94 92 95 98 96 100 97 93 98 94 99 95 100
REMARK SMILES IDX 96 101 97 102 73 103 74 104 83 105 75 106 76 107 82 108
REMARK SMILES IDX 84 109 77 110 78 111 79 112 80 113 81 114
REMARK H PARENT 6 15 105 64 71 75
REMARK Flexibility Score: inf
ROOT
ATOM      1  C   UNL     1      -2.526   6.102   2.169  1.00  0.00     0.188 C 
ENDROOT
BRANCH   1   2
ATOM      2  O   UNL     1      -1.805   7.256   1.750  1.00  0.00    -0.376 OA
BRANCH   2   3
ATOM      3  C   UNL     1      -1.447   7.404   0.373  1.00  0.00     0.202 C 
BRANCH   3   4
ATOM      4  C   UNL     1      -0.011   6.936   0.090  1.00  0.00     0.261 C 
BRANCH   4   5
ATOM      5  O   UNL     1       0.160   5.746  -0.743  1.00  0.00    -0.462 OA
BRANCH   5   6
ATOM      6  C   UNL     1       1.500   5.477  -0.894  1.00  0.00     0.328 C 
ATOM      7  O   UNL     1       2.346   6.190  -0.350  1.00  0.00    -0.250 OA
BRANCH   6   8
ATOM      8  C   UNL     1       1.932   4.196  -1.709  1.00  0.00     0.195 C 
BRANCH   8   9
ATOM      9  C   UNL     1       3.269   4.477  -2.465  1.00  0.00     0.019 C 
ATOM     10  C   UNL     1       4.447   4.608  -1.484  1.00  0.00     0.010 C 
BRANCH   9  11
ATOM     11  C   UNL     1       3.124   5.648  -3.457  1.00  0.00     0.002 C 
ATOM     12  C   UNL     1       4.445   6.155  -4.010  1.00  0.00     0.004 C 
ENDBRANCH   9  11
ENDBRANCH   8   9
BRANCH   8  13
ATOM     13  N   UNL     1       0.981   3.443  -2.546  1.00  0.00    -0.341 N 
ATOM     14  C   UNL     1       1.365   2.477  -3.452  1.00  0.00     0.243 C 
ATOM     15  H   UNL     1       0.020   3.639  -2.453  1.00  0.00     0.164 HD
ATOM     16  O   UNL     1       1.141   2.802  -4.634  1.00  0.00    -0.273 OA
BRANCH  14  17
ATOM     17  C   UNL     1       1.623   0.936  -3.160  1.00  0.00     0.181 C 
ATOM     18  C   UNL     1       0.156   0.406  -3.216  1.00  0.00     0.042 C 
BRANCH  17  19
ATOM     19  N   UNL     1       2.402   0.282  -2.064  1.00  0.00    -0.250 N 
ATOM     20  C   UNL     1       3.801   0.236  -1.840  1.00  0.00     0.328 C 
ATOM     21  C   UNL     1       1.822  -0.578  -1.179  1.00  0.00     0.259 C 
ATOM     22  N   UNL     1       4.034  -0.576  -0.627  1.00  0.00    -0.307 N 
ATOM     23  O   UNL     1       4.652   0.837  -2.457  1.00  0.00    -0.248 OA
ATOM     24  C   UNL     1       2.741  -0.671  -0.029  1.00  0.00     0.147 C 
ATOM     25  O   UNL     1       0.751  -1.166  -1.227  1.00  0.00    -0.271 OA
ATOM     26  C   UNL     1       5.133  -0.407   0.458  1.00  0.00     0.127 C 
ATOM     27  C   UNL     1       2.789   0.683   0.669  1.00  0.00     0.168 C 
ATOM     28  C   UNL     1       2.542  -1.987   0.740  1.00  0.00     0.048 C 
ATOM     29  C   UNL     1       4.540   0.070   2.036  1.00  0.00     0.055 C 
ATOM     30  C   UNL     1       3.036   0.513   2.089  1.00  0.00    -0.032 C 
ATOM     31  N   UNL     1       2.045   1.893   0.372  1.00  0.00    -0.274 NA
ATOM     32  C   UNL     1       2.199   1.413   2.670  1.00  0.00     0.005 A 
ATOM     33  C   UNL     1       2.209   2.442   1.558  1.00  0.00     0.066 A 
ATOM     34  C   UNL     1       0.672   1.179   2.638  1.00  0.00     0.056 A 
ATOM     35  C   UNL     1       1.693   3.754   1.935  1.00  0.00     0.032 A 
ATOM     36  C   UNL     1      -0.134   2.232   2.296  1.00  0.00     0.119 A 
ATOM     37  C   UNL     1       0.414   3.588   2.291  1.00  0.00     0.048 A 
BRANCH  36  38
ATOM     38  O   UNL     1      -1.351   2.107   1.670  1.00  0.00    -0.497 OA
ATOM     39  C   UNL     1      -1.263   2.252   0.233  1.00  0.00     0.278 C 
ENDBRANCH  36  38
ENDBRANCH  17  19
ENDBRANCH  14  17
ENDBRANCH   8  13
ENDBRANCH   6   8
ENDBRANCH   5   6
ENDBRANCH   4   5
ENDBRANCH   3   4
ENDBRANCH   2   3
ENDBRANCH   1   2
BRANCH   1  40
ATOM     40  C   UNL     1      -2.789   5.005   1.141  1.00  0.00     0.188 C 
BRANCH  40  41
ATOM     41  O   UNL     1      -3.684   5.316   0.072  1.00  0.00    -0.376 OA
BRANCH  41  42
ATOM     42  C   UNL     1      -4.978   5.773   0.440  1.00  0.00     0.202 C 
BRANCH  42  43
ATOM     43  C   UNL     1      -5.992   4.683   0.805  1.00  0.00     0.261 C 
BRANCH  43  44
ATOM     44  O   UNL     1      -5.442   3.630   1.609  1.00  0.00    -0.460 OA
BRANCH  44  45
ATOM     45  C   UNL     1      -5.157   2.482   0.932  1.00  0.00     0.338 C 
ATOM     46  O   UNL     1      -5.370   2.280  -0.253  1.00  0.00    -0.246 OA
BRANCH  45  47
ATOM     47  C   UNL     1      -4.464   1.497   1.809  1.00  0.00     0.060 A 
ATOM     48  C   UNL     1      -4.423   1.617   3.204  1.00  0.00     0.016 A 
ATOM     49  C   UNL     1      -3.797   0.429   1.192  1.00  0.00     0.016 A 
ATOM     50  C   UNL     1      -3.736   0.667   3.974  1.00  0.00     0.010 A 
ATOM     51  C   UNL     1      -3.066  -0.486   1.958  1.00  0.00     0.010 A 
ATOM     52  C   UNL     1      -3.051  -0.393   3.361  1.00  0.00    -0.014 A 
BRANCH  52  53
ATOM     53  C   UNL     1      -2.489  -1.505   4.174  1.00  0.00     0.031 A 
ATOM     54  C   UNL     1      -1.234  -1.379   4.994  1.00  0.00     0.074 A 
ATOM     55  C   UNL     1      -3.164  -2.669   4.174  1.00  0.00     0.049 A 
ATOM     56  N   UNL     1      -0.563  -2.304   5.635  1.00  0.00    -0.248 NA
ATOM     57  C   UNL     1      -0.626  -0.051   5.078  1.00  0.00     0.031 C 
ATOM     58  C   UNL     1      -4.421  -2.913   3.460  1.00  0.00     0.029 A 
ATOM     59  N   UNL     1      -2.901  -3.855   4.803  1.00  0.00    -0.354 N 
ATOM     60  C   UNL     1       0.576  -1.681   6.136  1.00  0.00     0.074 A 
ATOM     61  C   UNL     1       0.526  -0.308   5.687  1.00  0.00     0.031 C 
ATOM     62  C   UNL     1      -4.818  -4.172   3.690  1.00  0.00     0.029 A 
ATOM     63  C   UNL     1      -3.853  -4.816   4.573  1.00  0.00     0.049 A 
ATOM     64  H   UNL     1      -2.107  -4.005   5.365  1.00  0.00     0.167 HD
ATOM     65  C   UNL     1       1.548  -2.195   6.929  1.00  0.00     0.037 A 
ATOM     66  C   UNL     1      -3.956  -6.071   5.044  1.00  0.00     0.037 A 
ATOM     67  C   UNL     1       1.492  -3.511   7.517  1.00  0.00     0.049 A 
ATOM     68  C   UNL     1      -2.938  -6.576   6.019  1.00  0.00     0.074 A 
ATOM     69  C   UNL     1       2.359  -4.080   8.437  1.00  0.00     0.029 A 
ATOM     70  N   UNL     1       0.486  -4.438   7.294  1.00  0.00    -0.354 N 
ATOM     71  N   UNL     1      -1.860  -5.979   6.467  1.00  0.00    -0.248 NA
ATOM     72  C   UNL     1      -3.165  -7.915   6.576  1.00  0.00     0.031 C 
ATOM     73  C   UNL     1       1.877  -5.351   8.768  1.00  0.00     0.029 A 
ATOM     74  C   UNL     1       0.701  -5.564   8.071  1.00  0.00     0.049 A 
ATOM     75  H   UNL     1      -0.270  -4.314   6.676  1.00  0.00     0.167 HD
ATOM     76  C   UNL     1      -1.297  -6.858   7.382  1.00  0.00     0.074 A 
ATOM     77  C   UNL     1      -2.156  -8.024   7.429  1.00  0.00     0.031 C 
ATOM     78  C   UNL     1      -0.169  -6.710   8.118  1.00  0.00     0.037 A 
BRANCH  65  79
ATOM     79  C   UNL     1       2.730  -1.332   7.290  1.00  0.00     0.058 A 
ATOM     80  C   UNL     1       2.612  -0.257   8.184  1.00  0.00     0.135 A 
ATOM     81  C   UNL     1       4.021  -1.667   6.843  1.00  0.00     0.135 A 
ATOM     82  F   UNL     1       1.405   0.115   8.638  1.00  0.00    -0.206 F 
ATOM     83  C   UNL     1       3.725   0.457   8.618  1.00  0.00     0.059 A 
ATOM     84  C   UNL     1       5.152  -0.986   7.286  1.00  0.00     0.059 A 
ATOM     85  F   UNL     1       4.197  -2.687   5.987  1.00  0.00    -0.206 F 
ATOM     86  C   UNL     1       4.992   0.079   8.172  1.00  0.00     0.060 A 
BRANCH  86  87
ATOM     87  S   UNL     1       6.430   0.976   8.796  1.00  0.00     0.124 S 
ATOM     88  O   UNL     1       6.334   2.228   8.051  1.00  0.00    -0.237 OA
ATOM     89  O   UNL     1       6.149   1.065  10.225  1.00  0.00    -0.237 OA
ATOM     90  O   UNL     1       7.551   0.115   8.432  1.00  0.00    -0.744 OA
ENDBRANCH  86  87
ENDBRANCH  65  79
BRANCH  66  91
ATOM     91  C   UNL     1      -5.130  -6.888   4.664  1.00  0.00     0.058 A 
ATOM     92  C   UNL     1      -6.191  -7.064   5.562  1.00  0.00     0.135 A 
ATOM     93  C   UNL     1      -5.239  -7.458   3.388  1.00  0.00     0.135 A 
ATOM     94  F   UNL     1      -6.129  -6.523   6.788  1.00  0.00    -0.206 F 
ATOM     95  C   UNL     1      -7.317  -7.799   5.216  1.00  0.00     0.059 A 
ATOM     96  C   UNL     1      -6.364  -8.183   3.012  1.00  0.00     0.059 A 
ATOM     97  F   UNL     1      -4.258  -7.286   2.488  1.00  0.00    -0.206 F 
ATOM     98  C   UNL     1      -7.393  -8.356   3.938  1.00  0.00     0.060 A 
BRANCH  98  99
ATOM     99  S   UNL     1      -8.879  -9.275   3.487  1.00  0.00     0.124 S 
ATOM    100  O   UNL     1      -8.683 -10.522   4.218  1.00  0.00    -0.237 OA
ATOM    101  O   UNL     1      -9.941  -8.405   3.983  1.00  0.00    -0.237 OA
ATOM    102  O   UNL     1      -8.785  -9.371   2.034  1.00  0.00    -0.744 OA
ENDBRANCH  98  99
ENDBRANCH  66  91
BRANCH  78 103
ATOM    103  C   UNL     1       0.187  -7.824   9.057  1.00  0.00     0.058 A 
ATOM    104  C   UNL     1       0.741  -9.024   8.587  1.00  0.00     0.135 A 
ATOM    105  C   UNL     1       0.011  -7.674  10.441  1.00  0.00     0.135 A 
ATOM    106  F   UNL     1       0.921  -9.215   7.271  1.00  0.00    -0.206 F 
ATOM    107  C   UNL     1       1.090 -10.049   9.458  1.00  0.00     0.059 A 
ATOM    108  C   UNL     1       0.373  -8.679  11.333  1.00  0.00     0.059 A 
ATOM    109  F   UNL     1      -0.508  -6.541  10.939  1.00  0.00    -0.206 F 
ATOM    110  C   UNL     1       0.903  -9.867  10.830  1.00  0.00     0.060 A 
BRANCH 110 111
ATOM    111  S   UNL     1       1.389 -11.196  11.951  1.00  0.00     0.124 S 
ATOM    112  O   UNL     1       0.320 -12.167  11.736  1.00  0.00    -0.237 OA
ATOM    113  O   UNL     1       2.701 -11.575  11.436  1.00  0.00    -0.237 OA
ATOM    114  O   UNL     1       1.398 -10.550  13.260  1.00  0.00    -0.744 OA
ENDBRANCH 110 111
ENDBRANCH  78 103
ENDBRANCH  52  53
ENDBRANCH  45  47
ENDBRANCH  44  45
ENDBRANCH  43  44
ENDBRANCH  42  43
ENDBRANCH  41  42
ENDBRANCH  40  41
ENDBRANCH   1  40
TORSDOF 26
