REMARK SMILES O=C(COc1nc(NCc2cccc(Cl)c2)nc2c1CCC2)OCCOCCOCCOC(=O)c1ccc(-c2c3nc(c(-c4c(F)cc(S(=O)(=O)[O-])cc4F)c4ccc([nH]4)c(-c4c(F)cc(S(=O)(=O)[O-])cc4F)c4nc(c(-c5c(F)cc(S(=O)(=O)[O-])cc5F)c5ccc2[nH]5)C=C4)C=C3)cc1
REMARK SMILES IDX 27 1 26 2 25 3 24 4 23 5 2 6 1 7 3 8 4 9 5 10 6 11 19 12
REMARK SMILES IDX 7 13 18 14 20 15 17 16 22 17 21 18 8 19 9 21 10 22 11 23
REMARK SMILES IDX 16 24 12 25 14 26 13 27 15 28 28 29 29 30 30 31 31 32 32 33
REMARK SMILES IDX 33 34 34 35 35 36 36 37 100 38 37 39 99 40 38 41 39 42 40 43
REMARK SMILES IDX 93 44 41 45 98 46 92 47 94 48 42 49 97 50 91 51 90 52 43 54
REMARK SMILES IDX 77 55 56 56 76 57 57 58 60 59 75 60 95 61 58 62 59 63 74 65
REMARK SMILES IDX 96 66 61 67 44 68 45 69 54 70 46 71 47 72 53 73 55 74 48 75
REMARK SMILES IDX 49 76 50 77 51 78 52 79 78 80 79 81 88 82 80 83 81 84 87 85
REMARK SMILES IDX 89 86 82 87 83 88 84 89 85 90 86 91 62 92 63 93 72 94 64 95
REMARK SMILES IDX 65 96 71 97 73 98 66 99 67 100 68 101 69 102 70 103
REMARK H PARENT 8 20 94 53 60 64
REMARK Flexibility Score: inf
ROOT
ATOM      1  C   UNL     1       3.192   1.295   1.515  1.00  0.00     0.188 C 
ENDROOT
BRANCH   1   2
ATOM      2  O   UNL     1       4.382   1.434   0.759  1.00  0.00    -0.376 OA
BRANCH   2   3
ATOM      3  C   UNL     1       4.836   0.254   0.122  1.00  0.00     0.202 C 
BRANCH   3   4
ATOM      4  C   UNL     1       4.199   0.156  -1.261  1.00  0.00     0.261 C 
BRANCH   4   5
ATOM      5  O   UNL     1       2.753   0.209  -1.285  1.00  0.00    -0.461 OA
BRANCH   5   6
ATOM      6  C   UNL     1       1.877  -0.679  -0.762  1.00  0.00     0.344 C 
ATOM      7  O   UNL     1       0.669  -0.469  -0.875  1.00  0.00    -0.248 OA
BRANCH   6   8
ATOM      8  C   UNL     1       2.394  -1.848   0.090  1.00  0.00     0.353 C 
BRANCH   8   9
ATOM      9  O   UNL     1       3.598  -2.495  -0.285  1.00  0.00    -0.465 OA
BRANCH   9  10
ATOM     10  C   UNL     1       3.340  -3.292  -1.366  1.00  0.00     0.222 A 
ATOM     11  N   UNL     1       2.448  -2.849  -2.257  1.00  0.00    -0.177 NA
ATOM     12  C   UNL     1       3.931  -4.499  -1.451  1.00  0.00     0.036 A 
ATOM     13  C   UNL     1       2.043  -3.689  -3.211  1.00  0.00     0.226 A 
ATOM     14  C   UNL     1       3.479  -5.290  -2.477  1.00  0.00     0.053 A 
ATOM     15  C   UNL     1       4.875  -5.189  -0.541  1.00  0.00     0.043 C 
ATOM     16  N   UNL     1       2.538  -4.925  -3.373  1.00  0.00    -0.218 NA
ATOM     17  C   UNL     1       4.078  -6.665  -2.345  1.00  0.00     0.057 C 
ATOM     18  C   UNL     1       5.277  -6.378  -1.420  1.00  0.00     0.011 C 
BRANCH  13  19
ATOM     19  N   UNL     1       1.036  -3.167  -3.963  1.00  0.00    -0.350 N 
ATOM     20  H   UNL     1       0.740  -2.253  -3.749  1.00  0.00     0.164 HD
BRANCH  19  21
ATOM     21  C   UNL     1       0.375  -3.835  -5.036  1.00  0.00     0.152 C 
BRANCH  21  22
ATOM     22  C   UNL     1      -1.099  -4.005  -4.743  1.00  0.00    -0.027 A 
ATOM     23  C   UNL     1      -1.634  -5.292  -4.584  1.00  0.00     0.005 A 
ATOM     24  C   UNL     1      -1.963  -2.899  -4.657  1.00  0.00     0.026 A 
ATOM     25  C   UNL     1      -3.003  -5.476  -4.379  1.00  0.00     0.002 A 
ATOM     26  C   UNL     1      -3.331  -3.091  -4.448  1.00  0.00     0.041 A 
ATOM     27  C   UNL     1      -3.855  -4.375  -4.318  1.00  0.00     0.020 A 
ATOM     28  Cl  UNL     1      -4.386  -1.731  -4.372  1.00  0.00    -0.084 Cl
ENDBRANCH  21  22
ENDBRANCH  19  21
ENDBRANCH  13  19
ENDBRANCH   9  10
ENDBRANCH   8   9
ENDBRANCH   6   8
ENDBRANCH   5   6
ENDBRANCH   4   5
ENDBRANCH   3   4
ENDBRANCH   2   3
ENDBRANCH   1   2
BRANCH   1  29
ATOM     29  C   UNL     1       2.315   2.549   1.472  1.00  0.00     0.188 C 
BRANCH  29  30
ATOM     30  O   UNL     1       2.922   3.823   1.312  1.00  0.00    -0.376 OA
BRANCH  30  31
ATOM     31  C   UNL     1       4.220   4.033   1.843  1.00  0.00     0.202 C 
BRANCH  31  32
ATOM     32  C   UNL     1       4.382   3.932   3.366  1.00  0.00     0.261 C 
BRANCH  32  33
ATOM     33  O   UNL     1       4.051   2.651   3.945  1.00  0.00    -0.460 OA
BRANCH  33  34
ATOM     34  C   UNL     1       2.928   2.610   4.710  1.00  0.00     0.338 C 
ATOM     35  O   UNL     1       2.186   3.541   4.965  1.00  0.00    -0.246 OA
BRANCH  34  36
ATOM     36  C   UNL     1       2.618   1.215   5.115  1.00  0.00     0.060 A 
ATOM     37  C   UNL     1       1.442   0.617   4.639  1.00  0.00     0.016 A 
ATOM     38  C   UNL     1       3.411   0.539   6.045  1.00  0.00     0.016 A 
ATOM     39  C   UNL     1       1.045  -0.641   5.108  1.00  0.00     0.010 A 
ATOM     40  C   UNL     1       2.998  -0.713   6.533  1.00  0.00     0.010 A 
ATOM     41  C   UNL     1       1.796  -1.299   6.092  1.00  0.00    -0.014 A 
BRANCH  41  42
ATOM     42  C   UNL     1       1.218  -2.485   6.790  1.00  0.00     0.031 A 
ATOM     43  C   UNL     1       0.488  -2.270   8.094  1.00  0.00     0.074 A 
ATOM     44  C   UNL     1       1.294  -3.727   6.271  1.00  0.00     0.049 A 
ATOM     45  N   UNL     1      -0.102  -3.144   8.867  1.00  0.00    -0.248 NA
ATOM     46  C   UNL     1       0.412  -0.884   8.589  1.00  0.00     0.031 C 
ATOM     47  C   UNL     1       1.943  -4.079   5.009  1.00  0.00     0.029 A 
ATOM     48  N   UNL     1       0.820  -4.928   6.747  1.00  0.00    -0.354 N 
ATOM     49  C   UNL     1      -0.623  -2.418   9.933  1.00  0.00     0.074 A 
ATOM     50  C   UNL     1      -0.251  -1.036   9.727  1.00  0.00     0.031 C 
ATOM     51  C   UNL     1       1.836  -5.408   4.818  1.00  0.00     0.029 A 
ATOM     52  C   UNL     1       1.130  -6.008   5.951  1.00  0.00     0.049 A 
ATOM     53  H   UNL     1       0.305  -5.008   7.583  1.00  0.00     0.167 HD
ATOM     54  C   UNL     1      -1.361  -2.857  10.979  1.00  0.00     0.037 A 
ATOM     55  C   UNL     1       0.888  -7.327   6.121  1.00  0.00     0.037 A 
ATOM     56  C   UNL     1      -1.753  -4.226  11.183  1.00  0.00     0.049 A 
ATOM     57  C   UNL     1       0.128  -7.798   7.341  1.00  0.00     0.074 A 
ATOM     58  C   UNL     1      -2.543  -4.747  12.194  1.00  0.00     0.029 A 
ATOM     59  N   UNL     1      -1.383  -5.288  10.377  1.00  0.00    -0.354 N 
ATOM     60  N   UNL     1      -0.414  -7.088   8.301  1.00  0.00    -0.248 NA
ATOM     61  C   UNL     1      -0.052  -9.251   7.503  1.00  0.00     0.031 C 
ATOM     62  C   UNL     1      -2.603  -6.132  12.032  1.00  0.00     0.029 A 
ATOM     63  C   UNL     1      -1.892  -6.468  10.892  1.00  0.00     0.049 A 
ATOM     64  H   UNL     1      -0.839  -5.216   9.559  1.00  0.00     0.167 HD
ATOM     65  C   UNL     1      -1.008  -8.004   9.167  1.00  0.00     0.074 A 
ATOM     66  C   UNL     1      -0.782  -9.318   8.609  1.00  0.00     0.031 C 
ATOM     67  C   UNL     1      -1.672  -7.775  10.326  1.00  0.00     0.037 A 
BRANCH  54  68
ATOM     68  C   UNL     1      -1.818  -1.853  12.000  1.00  0.00     0.058 A 
ATOM     69  C   UNL     1      -2.876  -0.973  11.733  1.00  0.00     0.135 A 
ATOM     70  C   UNL     1      -1.276  -1.861  13.296  1.00  0.00     0.135 A 
ATOM     71  F   UNL     1      -3.416  -0.916  10.505  1.00  0.00    -0.206 F 
ATOM     72  C   UNL     1      -3.390  -0.139  12.720  1.00  0.00     0.059 A 
ATOM     73  C   UNL     1      -1.790  -1.052  14.304  1.00  0.00     0.059 A 
ATOM     74  F   UNL     1      -0.259  -2.683  13.598  1.00  0.00    -0.206 F 
ATOM     75  C   UNL     1      -2.850  -0.197  14.007  1.00  0.00     0.060 A 
BRANCH  75  76
ATOM     76  S   UNL     1      -3.582   0.839  15.290  1.00  0.00     0.124 S 
ATOM     77  O   UNL     1      -3.206   2.175  14.839  1.00  0.00    -0.237 OA
ATOM     78  O   UNL     1      -5.000   0.510  15.181  1.00  0.00    -0.237 OA
ATOM     79  O   UNL     1      -2.927   0.385  16.513  1.00  0.00    -0.744 OA
ENDBRANCH  75  76
ENDBRANCH  54  68
BRANCH  55  80
ATOM     80  C   UNL     1       1.395  -8.323   5.134  1.00  0.00     0.058 A 
ATOM     81  C   UNL     1       0.517  -9.091   4.353  1.00  0.00     0.135 A 
ATOM     82  C   UNL     1       2.770  -8.567   4.993  1.00  0.00     0.135 A 
ATOM     83  F   UNL     1      -0.808  -8.914   4.463  1.00  0.00    -0.206 F 
ATOM     84  C   UNL     1       0.981 -10.078   3.486  1.00  0.00     0.059 A 
ATOM     85  C   UNL     1       3.260  -9.528   4.113  1.00  0.00     0.059 A 
ATOM     86  F   UNL     1       3.657  -7.860   5.711  1.00  0.00    -0.206 F 
ATOM     87  C   UNL     1       2.356 -10.288   3.372  1.00  0.00     0.060 A 
BRANCH  87  88
ATOM     88  S   UNL     1       2.951 -11.549   2.224  1.00  0.00     0.124 S 
ATOM     89  O   UNL     1       2.545 -12.777   2.896  1.00  0.00    -0.237 OA
ATOM     90  O   UNL     1       2.224 -11.214   1.003  1.00  0.00    -0.237 OA
ATOM     91  O   UNL     1       4.389 -11.301   2.171  1.00  0.00    -0.744 OA
ENDBRANCH  87  88
ENDBRANCH  55  80
BRANCH  67  92
ATOM     92  C   UNL     1      -2.208  -8.955  11.091  1.00  0.00     0.058 A 
ATOM     93  C   UNL     1      -1.355  -9.796  11.821  1.00  0.00     0.135 A 
ATOM     94  C   UNL     1      -3.592  -9.171  11.203  1.00  0.00     0.135 A 
ATOM     95  F   UNL     1      -0.024  -9.637  11.745  1.00  0.00    -0.206 F 
ATOM     96  C   UNL     1      -1.853 -10.806  12.638  1.00  0.00     0.059 A 
ATOM     97  C   UNL     1      -4.114 -10.159  12.034  1.00  0.00     0.059 A 
ATOM     98  F   UNL     1      -4.455  -8.388  10.534  1.00  0.00    -0.206 F 
ATOM     99  C   UNL     1      -3.235 -10.971  12.749  1.00  0.00     0.060 A 
BRANCH  99 100
ATOM    100  S   UNL     1      -3.862 -12.234  13.877  1.00  0.00     0.124 S 
ATOM    101  O   UNL     1      -3.465 -13.462  13.197  1.00  0.00    -0.237 OA
ATOM    102  O   UNL     1      -3.142 -11.932  15.111  1.00  0.00    -0.237 OA
ATOM    103  O   UNL     1      -5.298 -11.975  13.917  1.00  0.00    -0.744 OA
ENDBRANCH  99 100
ENDBRANCH  67  92
ENDBRANCH  41  42
ENDBRANCH  34  36
ENDBRANCH  33  34
ENDBRANCH  32  33
ENDBRANCH  31  32
ENDBRANCH  30  31
ENDBRANCH  29  30
ENDBRANCH   1  29
TORSDOF 25
