REMARK SMILES CC(C)CSc1cc2c(cc1Cl)C=C(C(=O)OCCOCCOCCOC(=O)c1ccc(-c3c4nc(c(-c5c(F)cc(S(=O)(=O)[O-])cc5F)c5ccc([nH]5)c(-c5c(F)cc(S(=O)(=O)[O-])cc5F)c5nc(c(-c6c(F)cc(S(=O)(=O)[O-])cc6F)c6ccc3[nH]6)C=C5)C=C4)cc1)[C@H](C(F)(F)F)O2
REMARK SMILES IDX 21 1 20 2 19 3 18 4 17 5 15 6 16 7 14 8 6 9 7 10 11 11 8 12
REMARK SMILES IDX 10 13 12 14 9 15 100 16 13 17 95 18 5 19 4 20 2 21 1 22 3 23
REMARK SMILES IDX 96 24 97 25 98 26 99 27 22 28 23 29 24 30 25 31 26 32 27 33
REMARK SMILES IDX 28 34 29 35 30 36 94 37 31 38 93 39 32 40 33 41 34 42 87 43
REMARK SMILES IDX 35 44 92 45 86 46 88 47 36 48 91 49 85 50 84 51 37 53 71 54
REMARK SMILES IDX 50 55 70 56 51 57 54 58 69 59 89 60 52 61 53 62 68 64 90 65
REMARK SMILES IDX 55 66 38 67 39 68 48 69 40 70 41 71 47 72 49 73 42 74 43 75
REMARK SMILES IDX 44 76 45 77 46 78 72 79 73 80 82 81 74 82 75 83 81 84 83 85
REMARK SMILES IDX 76 86 77 87 78 88 79 89 80 90 56 91 57 92 66 93 58 94 59 95
REMARK SMILES IDX 65 96 67 97 60 98 61 99 62 100 63 101 64 102
REMARK H PARENT 88 52 54 63
REMARK Flexibility Score: inf
ROOT
ATOM      1  C   UNL     1       1.878   7.749  -2.568  1.00  0.00     0.188 C 
ENDROOT
BRANCH   1   2
ATOM      2  O   UNL     1       1.762   9.028  -3.180  1.00  0.00    -0.376 OA
BRANCH   2   3
ATOM      3  C   UNL     1       0.542   9.752  -3.058  1.00  0.00     0.202 C 
BRANCH   3   4
ATOM      4  C   UNL     1      -0.744   9.051  -3.510  1.00  0.00     0.261 C 
BRANCH   4   5
ATOM      5  O   UNL     1      -1.022   7.846  -2.768  1.00  0.00    -0.460 OA
BRANCH   5   6
ATOM      6  C   UNL     1      -1.386   6.780  -3.511  1.00  0.00     0.338 C 
ATOM      7  O   UNL     1      -1.636   6.784  -4.705  1.00  0.00    -0.246 OA
BRANCH   6   8
ATOM      8  C   UNL     1      -1.337   5.534  -2.721  1.00  0.00     0.087 C 
ATOM      9  C   UNL     1      -1.097   0.585  -1.841  1.00  0.00     0.030 A 
ATOM     10  C   UNL     1      -1.886   1.634  -1.345  1.00  0.00     0.063 A 
ATOM     11  C   UNL     1      -0.093   0.881  -2.780  1.00  0.00     0.055 A 
ATOM     12  C   UNL     1      -1.679   2.949  -1.776  1.00  0.00     0.129 A 
ATOM     13  C   UNL     1       0.137   2.202  -3.180  1.00  0.00     0.033 A 
ATOM     14  Cl  UNL     1       0.897  -0.344  -3.499  1.00  0.00    -0.083 Cl
ATOM     15  C   UNL     1      -0.663   3.237  -2.687  1.00  0.00     0.019 A 
ATOM     16  O   UNL     1      -2.574   3.882  -1.328  1.00  0.00    -0.475 OA
ATOM     17  C   UNL     1      -0.540   4.581  -3.225  1.00  0.00     0.027 C 
ATOM     18  C   UNL     1      -2.308   5.293  -1.596  1.00  0.00     0.316 C 
BRANCH   9  19
ATOM     19  S   UNL     1      -1.495  -1.092  -1.354  1.00  0.00    -0.124 SA
BRANCH  19  20
ATOM     20  C   UNL     1      -0.908  -1.132   0.378  1.00  0.00     0.078 C 
BRANCH  20  21
ATOM     21  C   UNL     1       0.610  -1.341   0.538  1.00  0.00    -0.007 C 
ATOM     22  C   UNL     1       1.397  -0.033   0.451  1.00  0.00     0.008 C 
ATOM     23  C   UNL     1       0.896  -1.993   1.897  1.00  0.00     0.008 C 
ENDBRANCH  20  21
ENDBRANCH  19  20
ENDBRANCH   9  19
BRANCH  18  24
ATOM     24  C   UNL     1      -1.952   5.963  -0.258  1.00  0.00     0.430 C 
ATOM     25  F   UNL     1      -1.947   7.310  -0.343  1.00  0.00    -0.167 F 
ATOM     26  F   UNL     1      -2.868   5.649   0.696  1.00  0.00    -0.167 F 
ATOM     27  F   UNL     1      -0.746   5.566   0.211  1.00  0.00    -0.167 F 
ENDBRANCH  18  24
ENDBRANCH   6   8
ENDBRANCH   5   6
ENDBRANCH   4   5
ENDBRANCH   3   4
ENDBRANCH   2   3
ENDBRANCH   1   2
BRANCH   1  28
ATOM     28  C   UNL     1       1.356   7.555  -1.132  1.00  0.00     0.188 C 
BRANCH  28  29
ATOM     29  O   UNL     1       0.986   8.761  -0.489  1.00  0.00    -0.376 OA
BRANCH  29  30
ATOM     30  C   UNL     1       1.707   9.096   0.685  1.00  0.00     0.202 C 
BRANCH  30  31
ATOM     31  C   UNL     1       3.172   9.493   0.465  1.00  0.00     0.261 C 
BRANCH  31  32
ATOM     32  O   UNL     1       3.968   8.546  -0.265  1.00  0.00    -0.460 OA
BRANCH  32  33
ATOM     33  C   UNL     1       4.277   7.379   0.347  1.00  0.00     0.338 C 
ATOM     34  O   UNL     1       3.956   7.033   1.471  1.00  0.00    -0.246 OA
BRANCH  33  35
ATOM     35  C   UNL     1       4.885   6.507  -0.684  1.00  0.00     0.060 A 
ATOM     36  C   UNL     1       5.989   6.950  -1.416  1.00  0.00     0.016 A 
ATOM     37  C   UNL     1       4.299   5.266  -0.967  1.00  0.00     0.016 A 
ATOM     38  C   UNL     1       6.519   6.143  -2.425  1.00  0.00     0.010 A 
ATOM     39  C   UNL     1       4.821   4.467  -1.989  1.00  0.00     0.010 A 
ATOM     40  C   UNL     1       5.946   4.892  -2.713  1.00  0.00    -0.014 A 
BRANCH  40  41
ATOM     41  C   UNL     1       6.643   3.957  -3.629  1.00  0.00     0.031 A 
ATOM     42  C   UNL     1       6.250   3.797  -5.067  1.00  0.00     0.074 A 
ATOM     43  C   UNL     1       7.659   3.235  -3.121  1.00  0.00     0.049 A 
ATOM     44  N   UNL     1       6.814   3.062  -5.992  1.00  0.00    -0.248 NA
ATOM     45  C   UNL     1       5.076   4.550  -5.527  1.00  0.00     0.031 C 
ATOM     46  C   UNL     1       8.114   3.300  -1.730  1.00  0.00     0.029 A 
ATOM     47  N   UNL     1       8.492   2.316  -3.704  1.00  0.00    -0.354 N 
ATOM     48  C   UNL     1       6.083   3.276  -7.153  1.00  0.00     0.074 A 
ATOM     49  C   UNL     1       5.004   4.181  -6.802  1.00  0.00     0.031 C 
ATOM     50  C   UNL     1       9.151   2.466  -1.570  1.00  0.00     0.029 A 
ATOM     51  C   UNL     1       9.423   1.796  -2.838  1.00  0.00     0.049 A 
ATOM     52  H   UNL     1       8.428   2.054  -4.651  1.00  0.00     0.167 HD
ATOM     53  C   UNL     1       6.304   2.776  -8.394  1.00  0.00     0.037 A 
ATOM     54  C   UNL     1      10.394   0.886  -3.040  1.00  0.00     0.037 A 
ATOM     55  C   UNL     1       7.369   1.856  -8.724  1.00  0.00     0.049 A 
ATOM     56  C   UNL     1      10.595   0.319  -4.415  1.00  0.00     0.074 A 
ATOM     57  C   UNL     1       7.687   1.315  -9.959  1.00  0.00     0.029 A 
ATOM     58  N   UNL     1       8.279   1.329  -7.817  1.00  0.00    -0.354 N 
ATOM     59  N   UNL     1       9.930   0.575  -5.516  1.00  0.00    -0.248 NA
ATOM     60  C   UNL     1      11.687  -0.648  -4.580  1.00  0.00     0.031 C 
ATOM     61  C   UNL     1       8.756   0.427  -9.791  1.00  0.00     0.029 A 
ATOM     62  C   UNL     1       9.143   0.454  -8.461  1.00  0.00     0.049 A 
ATOM     63  H   UNL     1       8.308   1.544  -6.857  1.00  0.00     0.167 HD
ATOM     64  C   UNL     1      10.539  -0.178  -6.512  1.00  0.00     0.074 A 
ATOM     65  C   UNL     1      11.632  -0.893  -5.882  1.00  0.00     0.031 C 
ATOM     66  C   UNL     1      10.225  -0.262  -7.828  1.00  0.00     0.037 A 
BRANCH  53  67
ATOM     67  C   UNL     1       5.382   3.210  -9.503  1.00  0.00     0.058 A 
ATOM     68  C   UNL     1       5.432   4.510 -10.030  1.00  0.00     0.135 A 
ATOM     69  C   UNL     1       4.493   2.300 -10.098  1.00  0.00     0.135 A 
ATOM     70  F   UNL     1       6.258   5.424  -9.497  1.00  0.00    -0.206 F 
ATOM     71  C   UNL     1       4.620   4.899 -11.092  1.00  0.00     0.059 A 
ATOM     72  C   UNL     1       3.689   2.659 -11.178  1.00  0.00     0.059 A 
ATOM     73  F   UNL     1       4.407   1.041  -9.640  1.00  0.00    -0.206 F 
ATOM     74  C   UNL     1       3.752   3.965 -11.661  1.00  0.00     0.060 A 
BRANCH  74  75
ATOM     75  S   UNL     1       2.715   4.486 -13.044  1.00  0.00     0.124 S 
ATOM     76  O   UNL     1       1.776   5.385 -12.382  1.00  0.00    -0.237 OA
ATOM     77  O   UNL     1       3.680   5.123 -13.934  1.00  0.00    -0.237 OA
ATOM     78  O   UNL     1       2.144   3.235 -13.534  1.00  0.00    -0.744 OA
ENDBRANCH  74  75
ENDBRANCH  53  67
BRANCH  54  79
ATOM     79  C   UNL     1      11.273   0.504  -1.907  1.00  0.00     0.058 A 
ATOM     80  C   UNL     1      12.600   0.953  -1.845  1.00  0.00     0.135 A 
ATOM     81  C   UNL     1      10.785  -0.256  -0.833  1.00  0.00     0.135 A 
ATOM     82  F   UNL     1      13.109   1.681  -2.850  1.00  0.00    -0.206 F 
ATOM     83  C   UNL     1      13.414   0.662  -0.756  1.00  0.00     0.059 A 
ATOM     84  C   UNL     1      11.572  -0.539   0.277  1.00  0.00     0.059 A 
ATOM     85  F   UNL     1       9.514  -0.690  -0.839  1.00  0.00    -0.206 F 
ATOM     86  C   UNL     1      12.887  -0.076   0.305  1.00  0.00     0.060 A 
BRANCH  86  87
ATOM     87  S   UNL     1      13.930  -0.375   1.748  1.00  0.00     0.124 S 
ATOM     88  O   UNL     1      14.899  -1.327   1.219  1.00  0.00    -0.237 OA
ATOM     89  O   UNL     1      14.439   0.962   2.037  1.00  0.00    -0.237 OA
ATOM     90  O   UNL     1      12.995  -0.908   2.735  1.00  0.00    -0.744 OA
ENDBRANCH  86  87
ENDBRANCH  54  79
BRANCH  66  91
ATOM     91  C   UNL     1      11.091  -1.142  -8.689  1.00  0.00     0.058 A 
ATOM     92  C   UNL     1      11.044  -2.542  -8.601  1.00  0.00     0.135 A 
ATOM     93  C   UNL     1      11.960  -0.576  -9.637  1.00  0.00     0.135 A 
ATOM     94  F   UNL     1      10.238  -3.136  -7.706  1.00  0.00    -0.206 F 
ATOM     95  C   UNL     1      11.847  -3.350  -9.400  1.00  0.00     0.059 A 
ATOM     96  C   UNL     1      12.752  -1.365 -10.467  1.00  0.00     0.059 A 
ATOM     97  F   UNL     1      12.039   0.757  -9.770  1.00  0.00    -0.206 F 
ATOM     98  C   UNL     1      12.699  -2.751 -10.331  1.00  0.00     0.060 A 
BRANCH  98  99
ATOM     99  S   UNL     1      13.725  -3.811 -11.372  1.00  0.00     0.124 S 
ATOM    100  O   UNL     1      14.716  -4.293 -10.415  1.00  0.00    -0.237 OA
ATOM    101  O   UNL     1      12.767  -4.805 -11.846  1.00  0.00    -0.237 OA
ATOM    102  O   UNL     1      14.231  -2.899 -12.393  1.00  0.00    -0.744 OA
ENDBRANCH  98  99
ENDBRANCH  66  91
ENDBRANCH  40  41
ENDBRANCH  33  35
ENDBRANCH  32  33
ENDBRANCH  31  32
ENDBRANCH  30  31
ENDBRANCH  29  30
ENDBRANCH  28  29
ENDBRANCH   1  28
TORSDOF 24
