REMARK SMILES Cc1c(CCC(=O)N[C@@H](C)C(=O)OCCOCCOCCOC(=O)c2ccc(-c3c4nc(c(-c5c(F)cc(S(=O)(=O)[O-])cc5F)c5ccc([nH]5)c(-c5c(F)cc(S(=O)(=O)[O-])cc5F)c5nc(c(-c6c(F)cc(S(=O)(=O)[O-])cc6F)c6ccc3[nH]6)C=C5)C=C4)cc2)c(=O)oc2cc3oc4c(c3cc12)CCCC4
REMARK SMILES IDX 17 1 16 2 15 3 14 4 13 5 11 6 12 7 9 8 10 9 8 10 6 11 7 12
REMARK SMILES IDX 5 14 4 15 3 16 1 17 2 18 102 19 91 20 94 21 101 22 92 23
REMARK SMILES IDX 93 24 95 25 100 26 96 27 99 28 97 29 98 30 103 31 106 32
REMARK SMILES IDX 104 33 105 34 18 35 19 36 20 37 21 38 22 39 23 40 24 41
REMARK SMILES IDX 25 42 26 43 90 44 27 45 89 46 28 47 29 48 30 49 83 50 31 51
REMARK SMILES IDX 88 52 82 53 84 54 32 55 87 56 81 57 80 58 33 60 67 61 46 62
REMARK SMILES IDX 66 63 47 64 50 65 65 66 85 67 48 68 49 69 64 71 86 72 51 73
REMARK SMILES IDX 34 74 35 75 44 76 36 77 37 78 43 79 45 80 38 81 39 82 40 83
REMARK SMILES IDX 41 84 42 85 68 86 69 87 78 88 70 89 71 90 77 91 79 92 72 93
REMARK SMILES IDX 73 94 74 95 75 96 76 97 52 98 53 99 62 100 54 101 55 102
REMARK SMILES IDX 61 103 63 104 56 105 57 106 58 107 59 108 60 109
REMARK H PARENT 8 13 84 59 50 70
REMARK Flexibility Score: inf
ROOT
ATOM      1  C   UNL     1      -4.712   1.214  -0.003  1.00  0.00     0.188 C 
ENDROOT
BRANCH   1   2
ATOM      2  O   UNL     1      -5.650   0.206   0.292  1.00  0.00    -0.376 OA
BRANCH   2   3
ATOM      3  C   UNL     1      -5.486  -1.057  -0.337  1.00  0.00     0.202 C 
BRANCH   3   4
ATOM      4  C   UNL     1      -4.169  -1.476  -1.024  1.00  0.00     0.261 C 
BRANCH   4   5
ATOM      5  O   UNL     1      -2.964  -1.264  -0.255  1.00  0.00    -0.462 OA
BRANCH   5   6
ATOM      6  C   UNL     1      -2.043  -0.394  -0.780  1.00  0.00     0.328 C 
ATOM      7  O   UNL     1      -2.215   0.257  -1.804  1.00  0.00    -0.250 OA
BRANCH   6   8
ATOM      8  C   UNL     1      -0.783  -0.208   0.118  1.00  0.00     0.189 C 
ATOM      9  C   UNL     1      -0.436  -1.490   0.855  1.00  0.00     0.043 C 
BRANCH   8  10
ATOM     10  N   UNL     1      -0.513   0.927   1.018  1.00  0.00    -0.343 N 
ATOM     11  C   UNL     1       0.351   1.974   0.869  1.00  0.00     0.221 C 
ATOM     12  O   UNL     1       1.050   2.277   1.840  1.00  0.00    -0.275 OA
ATOM     13  H   UNL     1      -1.036   0.932   1.852  1.00  0.00     0.164 HD
BRANCH  11  14
ATOM     14  C   UNL     1       0.345   2.838  -0.383  1.00  0.00     0.105 C 
BRANCH  14  15
ATOM     15  C   UNL     1       1.493   2.642  -1.382  1.00  0.00     0.053 C 
BRANCH  15  16
ATOM     16  C   UNL     1       1.231   1.478  -2.303  1.00  0.00     0.042 A 
ATOM     17  C   UNL     1       2.864  -0.033  -1.127  1.00  0.00     0.046 C 
ATOM     18  C   UNL     1       1.788   0.266  -2.139  1.00  0.00    -0.030 A 
ATOM     19  C   UNL     1       1.025  -0.820  -2.762  1.00  0.00     0.022 A 
ATOM     20  C   UNL     1       0.208   1.714  -3.373  1.00  0.00     0.339 A 
ATOM     21  C   UNL     1       0.262  -0.591  -3.908  1.00  0.00     0.142 A 
ATOM     22  C   UNL     1       0.834  -2.014  -2.071  1.00  0.00     0.024 A 
ATOM     23  O   UNL     1      -0.410   2.770  -3.406  1.00  0.00    -0.246 OA
ATOM     24  O   UNL     1       0.097   0.731  -4.353  1.00  0.00    -0.422 OA
ATOM     25  C   UNL     1      -0.421  -1.619  -4.586  1.00  0.00     0.095 A 
ATOM     26  C   UNL     1      -0.056  -2.957  -2.576  1.00  0.00     0.025 A 
ATOM     27  C   UNL     1      -0.450  -2.831  -3.900  1.00  0.00     0.138 A 
ATOM     28  C   UNL     1      -0.527  -4.207  -2.119  1.00  0.00     0.001 A 
ATOM     29  O   UNL     1      -0.674  -4.105  -4.375  1.00  0.00    -0.461 OA
ATOM     30  C   UNL     1      -0.447  -4.917  -3.297  1.00  0.00     0.108 A 
ATOM     31  C   UNL     1      -0.277  -4.912  -0.838  1.00  0.00     0.040 C 
ATOM     32  C   UNL     1       0.505  -6.074  -3.368  1.00  0.00     0.076 C 
ATOM     33  C   UNL     1       1.152  -5.457  -0.872  1.00  0.00     0.005 C 
ATOM     34  C   UNL     1       1.645  -5.786  -2.316  1.00  0.00     0.008 C 
ENDBRANCH  15  16
ENDBRANCH  14  15
ENDBRANCH  11  14
ENDBRANCH   8  10
ENDBRANCH   6   8
ENDBRANCH   5   6
ENDBRANCH   4   5
ENDBRANCH   3   4
ENDBRANCH   2   3
ENDBRANCH   1   2
BRANCH   1  35
ATOM     35  C   UNL     1      -3.572   1.312   1.022  1.00  0.00     0.188 C 
BRANCH  35  36
ATOM     36  O   UNL     1      -3.420   0.322   2.030  1.00  0.00    -0.376 OA
BRANCH  36  37
ATOM     37  C   UNL     1      -4.526   0.205   2.928  1.00  0.00     0.202 C 
BRANCH  37  38
ATOM     38  C   UNL     1      -5.106   1.482   3.590  1.00  0.00     0.261 C 
BRANCH  38  39
ATOM     39  O   UNL     1      -5.433   2.565   2.689  1.00  0.00    -0.460 OA
BRANCH  39  40
ATOM     40  C   UNL     1      -4.694   3.713   2.782  1.00  0.00     0.338 C 
ATOM     41  O   UNL     1      -3.890   3.995   3.660  1.00  0.00    -0.246 OA
BRANCH  40  42
ATOM     42  C   UNL     1      -4.783   4.414   1.470  1.00  0.00     0.060 A 
ATOM     43  C   UNL     1      -6.023   4.798   0.968  1.00  0.00     0.016 A 
ATOM     44  C   UNL     1      -3.643   4.471   0.645  1.00  0.00     0.016 A 
ATOM     45  C   UNL     1      -6.131   5.188  -0.370  1.00  0.00     0.010 A 
ATOM     46  C   UNL     1      -3.773   4.778  -0.712  1.00  0.00     0.010 A 
ATOM     47  C   UNL     1      -5.019   5.155  -1.231  1.00  0.00    -0.014 A 
BRANCH  47  48
ATOM     48  C   UNL     1      -5.186   5.639  -2.625  1.00  0.00     0.031 A 
ATOM     49  C   UNL     1      -3.946   6.243  -3.244  1.00  0.00     0.074 A 
ATOM     50  C   UNL     1      -6.066   4.996  -3.425  1.00  0.00     0.049 A 
ATOM     51  N   UNL     1      -3.048   5.647  -3.966  1.00  0.00    -0.248 NA
ATOM     52  C   UNL     1      -3.558   7.606  -2.861  1.00  0.00     0.031 C 
ATOM     53  C   UNL     1      -5.983   3.603  -3.862  1.00  0.00     0.029 A 
ATOM     54  N   UNL     1      -7.126   5.528  -4.143  1.00  0.00    -0.354 N 
ATOM     55  C   UNL     1      -1.988   6.545  -4.156  1.00  0.00     0.074 A 
ATOM     56  C   UNL     1      -2.345   7.732  -3.419  1.00  0.00     0.031 C 
ATOM     57  C   UNL     1      -6.846   3.423  -4.882  1.00  0.00     0.029 A 
ATOM     58  C   UNL     1      -7.551   4.678  -5.161  1.00  0.00     0.049 A 
ATOM     59  H   UNL     1      -7.532   6.405  -3.955  1.00  0.00     0.167 HD
ATOM     60  C   UNL     1      -0.937   6.299  -4.995  1.00  0.00     0.037 A 
ATOM     61  C   UNL     1      -7.965   5.092  -6.394  1.00  0.00     0.037 A 
ATOM     62  C   UNL     1      -1.044   5.097  -5.787  1.00  0.00     0.049 A 
ATOM     63  C   UNL     1      -6.668   5.068  -7.166  1.00  0.00     0.074 A 
ATOM     64  C   UNL     1      -0.277   4.041  -6.224  1.00  0.00     0.029 A 
ATOM     65  N   UNL     1      -2.277   4.915  -6.335  1.00  0.00    -0.354 N 
ATOM     66  N   UNL     1      -6.065   4.011  -7.643  1.00  0.00    -0.248 NA
ATOM     67  C   UNL     1      -5.833   6.281  -7.149  1.00  0.00     0.031 C 
ATOM     68  C   UNL     1      -1.136   3.201  -7.014  1.00  0.00     0.029 A 
ATOM     69  C   UNL     1      -2.383   3.807  -7.109  1.00  0.00     0.049 A 
ATOM     70  H   UNL     1      -3.027   5.535  -6.183  1.00  0.00     0.167 HD
ATOM     71  C   UNL     1      -4.717   4.361  -7.699  1.00  0.00     0.074 A 
ATOM     72  C   UNL     1      -4.668   5.804  -7.572  1.00  0.00     0.031 C 
ATOM     73  C   UNL     1      -3.698   3.457  -7.590  1.00  0.00     0.037 A 
BRANCH  60  74
ATOM     74  C   UNL     1       0.084   7.301  -5.422  1.00  0.00     0.058 A 
ATOM     75  C   UNL     1      -0.053   7.861  -6.708  1.00  0.00     0.135 A 
ATOM     76  C   UNL     1       1.284   7.535  -4.742  1.00  0.00     0.135 A 
ATOM     77  F   UNL     1      -1.194   7.691  -7.397  1.00  0.00    -0.206 F 
ATOM     78  C   UNL     1       0.981   8.554  -7.329  1.00  0.00     0.059 A 
ATOM     79  C   UNL     1       2.333   8.246  -5.341  1.00  0.00     0.059 A 
ATOM     80  F   UNL     1       1.476   7.034  -3.512  1.00  0.00    -0.206 F 
ATOM     81  C   UNL     1       2.183   8.720  -6.648  1.00  0.00     0.060 A 
BRANCH  81  82
ATOM     82  S   UNL     1       3.551   9.518  -7.522  1.00  0.00     0.124 S 
ATOM     83  O   UNL     1       3.807   8.581  -8.611  1.00  0.00    -0.237 OA
ATOM     84  O   UNL     1       2.962  10.796  -7.911  1.00  0.00    -0.237 OA
ATOM     85  O   UNL     1       4.601   9.601  -6.511  1.00  0.00    -0.744 OA
ENDBRANCH  81  82
ENDBRANCH  60  74
BRANCH  61  86
ATOM     86  C   UNL     1      -8.974   6.196  -6.477  1.00  0.00     0.058 A 
ATOM     87  C   UNL     1     -10.142   6.096  -5.692  1.00  0.00     0.135 A 
ATOM     88  C   UNL     1      -8.873   7.350  -7.271  1.00  0.00     0.135 A 
ATOM     89  F   UNL     1     -10.417   4.961  -5.030  1.00  0.00    -0.206 F 
ATOM     90  C   UNL     1     -11.038   7.153  -5.545  1.00  0.00     0.059 A 
ATOM     91  C   UNL     1      -9.734   8.438  -7.117  1.00  0.00     0.059 A 
ATOM     92  F   UNL     1      -7.922   7.469  -8.207  1.00  0.00    -0.206 F 
ATOM     93  C   UNL     1     -10.785   8.347  -6.212  1.00  0.00     0.060 A 
BRANCH  93  94
ATOM     94  S   UNL     1     -11.789   9.788  -5.800  1.00  0.00     0.124 S 
ATOM     95  O   UNL     1     -13.118   9.369  -6.230  1.00  0.00    -0.237 OA
ATOM     96  O   UNL     1     -11.586   9.881  -4.357  1.00  0.00    -0.237 OA
ATOM     97  O   UNL     1     -11.181  10.860  -6.582  1.00  0.00    -0.744 OA
ENDBRANCH  93  94
ENDBRANCH  61  86
BRANCH  73  98
ATOM     98  C   UNL     1      -4.040   2.040  -7.850  1.00  0.00     0.058 A 
ATOM     99  C   UNL     1      -4.468   1.673  -9.131  1.00  0.00     0.135 A 
ATOM    100  C   UNL     1      -3.866   1.033  -6.889  1.00  0.00     0.135 A 
ATOM    101  F   UNL     1      -4.614   2.601 -10.092  1.00  0.00    -0.206 F 
ATOM    102  C   UNL     1      -4.706   0.349  -9.459  1.00  0.00     0.059 A 
ATOM    103  C   UNL     1      -4.079  -0.305  -7.203  1.00  0.00     0.059 A 
ATOM    104  F   UNL     1      -3.469   1.332  -5.642  1.00  0.00    -0.206 F 
ATOM    105  C   UNL     1      -4.494  -0.635  -8.493  1.00  0.00     0.060 A 
BRANCH 105 106
ATOM    106  S   UNL     1      -4.700  -2.354  -8.988  1.00  0.00     0.124 S 
ATOM    107  O   UNL     1      -6.139  -2.434  -9.221  1.00  0.00    -0.237 OA
ATOM    108  O   UNL     1      -3.861  -2.434 -10.181  1.00  0.00    -0.237 OA
ATOM    109  O   UNL     1      -4.210  -3.105  -7.836  1.00  0.00    -0.744 OA
ENDBRANCH 105 106
ENDBRANCH  73  98
ENDBRANCH  47  48
ENDBRANCH  40  42
ENDBRANCH  39  40
ENDBRANCH  38  39
ENDBRANCH  37  38
ENDBRANCH  36  37
ENDBRANCH  35  36
ENDBRANCH   1  35
TORSDOF 24
