REMARK SMILES CC[C@@H](NC(=O)c1ccc(CNC(=O)[C@H]2CCCO2)cc1)C(=O)OCCOCCOCCOC(=O)c1ccc(-c2c3nc(c(-c4c(F)cc(S(=O)(=O)[O-])cc4F)c4ccc([nH]4)c(-c4c(F)cc(S(=O)(=O)[O-])cc4F)c4nc(c(-c5c(F)cc(S(=O)(=O)[O-])cc5F)c5ccc2[nH]5)C=C4)C=C3)cc1
REMARK SMILES IDX 28 1 27 2 26 3 25 4 24 5 22 6 23 7 3 8 2 9 1 10 4 11 5 12
REMARK SMILES IDX 6 14 7 15 8 16 21 17 9 18 20 19 10 20 11 21 12 22 13 23
REMARK SMILES IDX 14 25 15 26 16 27 19 28 17 29 18 30 29 31 30 32 31 33 32 34
REMARK SMILES IDX 33 35 34 36 35 37 36 38 37 39 101 40 38 41 100 42 39 43
REMARK SMILES IDX 40 44 41 45 94 46 42 47 99 48 93 49 95 50 43 51 98 52 92 53
REMARK SMILES IDX 91 54 44 56 78 57 57 58 77 59 58 60 61 61 76 62 96 63 59 64
REMARK SMILES IDX 60 65 75 67 97 68 62 69 45 70 46 71 55 72 47 73 48 74 54 75
REMARK SMILES IDX 56 76 49 77 50 78 51 79 52 80 53 81 79 82 80 83 89 84 81 85
REMARK SMILES IDX 82 86 88 87 90 88 83 89 84 90 85 91 86 92 87 93 63 94 64 95
REMARK SMILES IDX 73 96 65 97 66 98 72 99 74 100 67 101 68 102 69 103 70 104
REMARK SMILES IDX 71 105
REMARK H PARENT 4 13 12 24 95 55 61 66
REMARK Flexibility Score: inf
ROOT
ATOM      1  C   UNL     1      -7.108   8.003   6.875  1.00  0.00     0.188 C 
ENDROOT
BRANCH   1   2
ATOM      2  O   UNL     1      -6.139   6.977   6.980  1.00  0.00    -0.376 OA
BRANCH   2   3
ATOM      3  C   UNL     1      -6.600   5.803   7.630  1.00  0.00     0.202 C 
BRANCH   3   4
ATOM      4  C   UNL     1      -7.535   4.892   6.823  1.00  0.00     0.261 C 
BRANCH   4   5
ATOM      5  O   UNL     1      -8.900   5.241   6.504  1.00  0.00    -0.462 OA
BRANCH   5   6
ATOM      6  C   UNL     1      -9.703   5.947   7.333  1.00  0.00     0.328 C 
ATOM      7  O   UNL     1      -9.338   6.526   8.347  1.00  0.00    -0.250 OA
BRANCH   6   8
ATOM      8  C   UNL     1     -11.175   5.902   6.882  1.00  0.00     0.192 C 
BRANCH   8   9
ATOM      9  C   UNL     1     -11.291   6.127   5.351  1.00  0.00     0.033 C 
ATOM     10  C   UNL     1     -12.625   6.709   4.898  1.00  0.00     0.007 C 
ENDBRANCH   8   9
BRANCH   8  11
ATOM     11  N   UNL     1     -11.954   4.709   7.273  1.00  0.00    -0.339 N 
ATOM     12  C   UNL     1     -11.761   3.687   8.171  1.00  0.00     0.251 C 
ATOM     13  H   UNL     1     -12.801   4.628   6.779  1.00  0.00     0.164 HD
ATOM     14  O   UNL     1     -12.621   2.816   8.275  1.00  0.00    -0.269 OA
BRANCH  12  15
ATOM     15  C   UNL     1     -10.507   3.531   8.932  1.00  0.00     0.039 A 
ATOM     16  C   UNL     1      -9.661   2.468   8.606  1.00  0.00     0.014 A 
ATOM     17  C   UNL     1     -10.147   4.420   9.943  1.00  0.00     0.014 A 
ATOM     18  C   UNL     1      -8.390   2.388   9.184  1.00  0.00     0.006 A 
ATOM     19  C   UNL     1      -8.854   4.365  10.484  1.00  0.00     0.006 A 
ATOM     20  C   UNL     1      -7.940   3.389  10.059  1.00  0.00    -0.029 A 
BRANCH  20  21
ATOM     21  C   UNL     1      -6.478   3.488  10.430  1.00  0.00     0.151 C 
BRANCH  21  22
ATOM     22  N   UNL     1      -6.078   2.432  11.323  1.00  0.00    -0.350 N 
ATOM     23  C   UNL     1      -5.207   1.405  11.127  1.00  0.00     0.249 C 
ATOM     24  H   UNL     1      -6.500   2.457  12.212  1.00  0.00     0.163 HD
ATOM     25  O   UNL     1      -5.040   0.621  12.067  1.00  0.00    -0.272 OA
BRANCH  23  26
ATOM     26  C   UNL     1      -4.392   1.287   9.811  1.00  0.00     0.207 C 
ATOM     27  C   UNL     1      -3.767  -0.103   9.674  1.00  0.00     0.044 C 
ATOM     28  O   UNL     1      -5.144   1.492   8.604  1.00  0.00    -0.368 OA
ATOM     29  C   UNL     1      -4.784  -0.820   8.819  1.00  0.00     0.032 C 
ATOM     30  C   UNL     1      -5.164   0.273   7.851  1.00  0.00     0.161 C 
ENDBRANCH  23  26
ENDBRANCH  21  22
ENDBRANCH  20  21
ENDBRANCH  12  15
ENDBRANCH   8  11
ENDBRANCH   6   8
ENDBRANCH   5   6
ENDBRANCH   4   5
ENDBRANCH   3   4
ENDBRANCH   2   3
ENDBRANCH   1   2
BRANCH   1  31
ATOM     31  C   UNL     1      -7.928   7.929   5.584  1.00  0.00     0.188 C 
BRANCH  31  32
ATOM     32  O   UNL     1      -7.518   7.110   4.504  1.00  0.00    -0.376 OA
BRANCH  32  33
ATOM     33  C   UNL     1      -6.143   7.068   4.158  1.00  0.00     0.202 C 
BRANCH  33  34
ATOM     34  C   UNL     1      -5.291   8.351   4.043  1.00  0.00     0.261 C 
BRANCH  34  35
ATOM     35  O   UNL     1      -5.686   9.488   4.827  1.00  0.00    -0.460 OA
BRANCH  35  36
ATOM     36  C   UNL     1      -6.520  10.376   4.227  1.00  0.00     0.338 C 
ATOM     37  O   UNL     1      -6.907  10.341   3.070  1.00  0.00    -0.246 OA
BRANCH  36  38
ATOM     38  C   UNL     1      -7.112  11.256   5.272  1.00  0.00     0.060 A 
ATOM     39  C   UNL     1      -8.513  11.298   5.400  1.00  0.00     0.016 A 
ATOM     40  C   UNL     1      -6.314  11.994   6.146  1.00  0.00     0.016 A 
ATOM     41  C   UNL     1      -9.117  12.075   6.387  1.00  0.00     0.010 A 
ATOM     42  C   UNL     1      -6.922  12.822   7.098  1.00  0.00     0.010 A 
ATOM     43  C   UNL     1      -8.325  12.890   7.200  1.00  0.00    -0.014 A 
BRANCH  43  44
ATOM     44  C   UNL     1      -8.962  14.011   7.936  1.00  0.00     0.031 A 
ATOM     45  C   UNL     1      -8.993  15.354   7.254  1.00  0.00     0.074 A 
ATOM     46  C   UNL     1      -9.520  13.856   9.150  1.00  0.00     0.049 A 
ATOM     47  N   UNL     1      -9.395  16.511   7.708  1.00  0.00    -0.248 NA
ATOM     48  C   UNL     1      -8.496  15.391   5.867  1.00  0.00     0.031 C 
ATOM     49  C   UNL     1      -9.617  12.598   9.887  1.00  0.00     0.029 A 
ATOM     50  N   UNL     1     -10.098  14.782   9.984  1.00  0.00    -0.354 N 
ATOM     51  C   UNL     1      -9.186  17.414   6.671  1.00  0.00     0.074 A 
ATOM     52  C   UNL     1      -8.597  16.677   5.576  1.00  0.00     0.031 C 
ATOM     53  C   UNL     1     -10.194  12.837  11.079  1.00  0.00     0.029 A 
ATOM     54  C   UNL     1     -10.472  14.268  11.204  1.00  0.00     0.049 A 
ATOM     55  H   UNL     1     -10.233  15.724   9.733  1.00  0.00     0.167 HD
ATOM     56  C   UNL     1      -9.463  18.737   6.633  1.00  0.00     0.037 A 
ATOM     57  C   UNL     1     -10.949  14.890  12.302  1.00  0.00     0.037 A 
ATOM     58  C   UNL     1     -10.045  19.467   7.728  1.00  0.00     0.049 A 
ATOM     59  C   UNL     1     -11.173  16.383  12.270  1.00  0.00     0.074 A 
ATOM     60  C   UNL     1     -10.366  20.811   7.790  1.00  0.00     0.029 A 
ATOM     61  N   UNL     1     -10.385  18.916   8.954  1.00  0.00    -0.354 N 
ATOM     62  N   UNL     1     -10.973  17.229  11.286  1.00  0.00    -0.248 NA
ATOM     63  C   UNL     1     -11.688  17.008  13.498  1.00  0.00     0.031 C 
ATOM     64  C   UNL     1     -10.849  21.084   9.073  1.00  0.00     0.029 A 
ATOM     65  C   UNL     1     -10.890  19.898   9.789  1.00  0.00     0.049 A 
ATOM     66  H   UNL     1     -10.282  17.967   9.195  1.00  0.00     0.167 HD
ATOM     67  C   UNL     1     -11.368  18.476  11.765  1.00  0.00     0.074 A 
ATOM     68  C   UNL     1     -11.827  18.273  13.123  1.00  0.00     0.031 C 
ATOM     69  C   UNL     1     -11.355  19.679  11.137  1.00  0.00     0.037 A 
BRANCH  56  70
ATOM     70  C   UNL     1      -9.107  19.485   5.378  1.00  0.00     0.058 A 
ATOM     71  C   UNL     1      -9.805  19.291   4.175  1.00  0.00     0.135 A 
ATOM     72  C   UNL     1      -8.064  20.426   5.385  1.00  0.00     0.135 A 
ATOM     73  F   UNL     1     -10.794  18.386   4.105  1.00  0.00    -0.206 F 
ATOM     74  C   UNL     1      -9.466  19.985   3.018  1.00  0.00     0.059 A 
ATOM     75  C   UNL     1      -7.728  21.153   4.248  1.00  0.00     0.059 A 
ATOM     76  F   UNL     1      -7.358  20.644   6.506  1.00  0.00    -0.206 F 
ATOM     77  C   UNL     1      -8.427  20.916   3.066  1.00  0.00     0.060 A 
BRANCH  77  78
ATOM     78  S   UNL     1      -8.006  21.814   1.558  1.00  0.00     0.124 S 
ATOM     79  O   UNL     1      -7.389  20.762   0.755  1.00  0.00    -0.237 OA
ATOM     80  O   UNL     1      -9.311  22.278   1.099  1.00  0.00    -0.237 OA
ATOM     81  O   UNL     1      -7.100  22.858   2.025  1.00  0.00    -0.744 OA
ENDBRANCH  77  78
ENDBRANCH  56  70
BRANCH  57  82
ATOM     82  C   UNL     1     -11.223  14.111  13.542  1.00  0.00     0.058 A 
ATOM     83  C   UNL     1     -12.530  13.938  14.021  1.00  0.00     0.135 A 
ATOM     84  C   UNL     1     -10.178  13.534  14.282  1.00  0.00     0.135 A 
ATOM     85  F   UNL     1     -13.563  14.484  13.362  1.00  0.00    -0.206 F 
ATOM     86  C   UNL     1     -12.792  13.233  15.193  1.00  0.00     0.059 A 
ATOM     87  C   UNL     1     -10.416  12.800  15.440  1.00  0.00     0.059 A 
ATOM     88  F   UNL     1      -8.908  13.666  13.867  1.00  0.00    -0.206 F 
ATOM     89  C   UNL     1     -11.727  12.663  15.893  1.00  0.00     0.060 A 
BRANCH  89  90
ATOM     90  S   UNL     1     -12.083  11.705  17.382  1.00  0.00     0.124 S 
ATOM     91  O   UNL     1     -12.468  12.751  18.321  1.00  0.00    -0.237 OA
ATOM     92  O   UNL     1     -13.156  10.825  16.928  1.00  0.00    -0.237 OA
ATOM     93  O   UNL     1     -10.814  11.039  17.663  1.00  0.00    -0.744 OA
ENDBRANCH  89  90
ENDBRANCH  57  82
BRANCH  69  94
ATOM     94  C   UNL     1     -11.895  20.868  11.887  1.00  0.00     0.058 A 
ATOM     95  C   UNL     1     -11.204  21.446  12.963  1.00  0.00     0.135 A 
ATOM     96  C   UNL     1     -13.094  21.478  11.477  1.00  0.00     0.135 A 
ATOM     97  F   UNL     1     -10.056  20.903  13.399  1.00  0.00    -0.206 F 
ATOM     98  C   UNL     1     -11.694  22.570  13.623  1.00  0.00     0.059 A 
ATOM     99  C   UNL     1     -13.585  22.621  12.101  1.00  0.00     0.059 A 
ATOM    100  F   UNL     1     -13.789  20.977  10.444  1.00  0.00    -0.206 F 
ATOM    101  C   UNL     1     -12.884  23.152  13.182  1.00  0.00     0.060 A 
BRANCH 101 102
ATOM    102  S   UNL     1     -13.489  24.630  14.024  1.00  0.00     0.124 S 
ATOM    103  O   UNL     1     -13.946  24.078  15.295  1.00  0.00    -0.237 OA
ATOM    104  O   UNL     1     -12.292  25.464  14.089  1.00  0.00    -0.237 OA
ATOM    105  O   UNL     1     -14.540  25.121  13.139  1.00  0.00    -0.744 OA
ENDBRANCH 101 102
ENDBRANCH  69  94
ENDBRANCH  43  44
ENDBRANCH  36  38
ENDBRANCH  35  36
ENDBRANCH  34  35
ENDBRANCH  33  34
ENDBRANCH  32  33
ENDBRANCH  31  32
ENDBRANCH   1  31
TORSDOF 26
