REMARK SMILES Cc1ccsc1CNC(=O)N1CCOC[C@H]1C(=O)OCCOCCOCCOC(=O)c1ccc(-c2c3nc(c(-c4c(F)cc(S(=O)(=O)[O-])cc4F)c4ccc([nH]4)c(-c4c(F)cc(S(=O)(=O)[O-])cc4F)c4nc(c(-c5c(F)cc(S(=O)(=O)[O-])cc5F)c5ccc2[nH]5)C=C4)C=C3)cc1
REMARK SMILES IDX 23 1 22 2 21 3 20 4 19 5 17 6 18 7 16 8 11 9 12 10 13 11
REMARK SMILES IDX 15 12 14 13 9 14 8 15 10 17 7 18 6 19 1 20 2 21 3 22 4 23
REMARK SMILES IDX 5 24 24 25 25 26 26 27 27 28 28 29 29 30 30 31 31 32 32 33
REMARK SMILES IDX 96 34 33 35 95 36 34 37 35 38 36 39 89 40 37 41 94 42 88 43
REMARK SMILES IDX 90 44 38 45 93 46 87 47 86 48 39 50 73 51 52 52 72 53 53 54
REMARK SMILES IDX 56 55 71 56 91 57 54 58 55 59 70 61 92 62 57 63 40 64 41 65
REMARK SMILES IDX 50 66 42 67 43 68 49 69 51 70 44 71 45 72 46 73 47 74 48 75
REMARK SMILES IDX 74 76 75 77 84 78 76 79 77 80 83 81 85 82 78 83 79 84 80 85
REMARK SMILES IDX 81 86 82 87 58 88 59 89 68 90 60 91 61 92 67 93 69 94 62 95
REMARK SMILES IDX 63 96 64 97 65 98 66 99
REMARK H PARENT 8 16 90 49 56 60
REMARK Flexibility Score: inf
ROOT
ATOM      1  C   UNL     1      -3.241  -8.027   0.375  1.00  0.00     0.188 C 
ENDROOT
BRANCH   1   2
ATOM      2  O   UNL     1      -3.702  -9.111  -0.427  1.00  0.00    -0.376 OA
BRANCH   2   3
ATOM      3  C   UNL     1      -3.380  -9.132  -1.812  1.00  0.00     0.202 C 
BRANCH   3   4
ATOM      4  C   UNL     1      -3.632  -7.874  -2.657  1.00  0.00     0.261 C 
BRANCH   4   5
ATOM      5  O   UNL     1      -3.021  -6.669  -2.149  1.00  0.00    -0.462 OA
BRANCH   5   6
ATOM      6  C   UNL     1      -3.845  -5.611  -1.924  1.00  0.00     0.331 C 
ATOM      7  O   UNL     1      -5.049  -5.627  -2.172  1.00  0.00    -0.250 OA
BRANCH   6   8
ATOM      8  C   UNL     1      -3.142  -4.337  -1.393  1.00  0.00     0.222 C 
ATOM      9  N   UNL     1      -1.727  -4.301  -0.937  1.00  0.00    -0.306 N 
ATOM     10  C   UNL     1      -0.759  -4.571  -1.992  1.00  0.00     0.151 C 
ATOM     11  C   UNL     1      -0.973  -3.587  -3.143  1.00  0.00     0.182 C 
ATOM     12  C   UNL     1      -3.259  -3.297  -2.520  1.00  0.00     0.197 C 
ATOM     13  O   UNL     1      -2.338  -3.588  -3.596  1.00  0.00    -0.377 OA
BRANCH   9  14
ATOM     14  C   UNL     1      -1.470  -3.961   0.359  1.00  0.00     0.318 C 
ATOM     15  N   UNL     1      -0.356  -3.291   0.718  1.00  0.00    -0.333 N 
ATOM     16  H   UNL     1      -0.159  -3.358   1.680  1.00  0.00     0.165 HD
ATOM     17  O   UNL     1      -2.271  -4.226   1.259  1.00  0.00    -0.249 OA
BRANCH  15  18
ATOM     18  C   UNL     1       0.615  -2.493  -0.007  1.00  0.00     0.165 C 
BRANCH  18  19
ATOM     19  C   UNL     1       0.347  -1.010   0.086  1.00  0.00     0.027 A 
ATOM     20  C   UNL     1       2.765  -0.106   0.064  1.00  0.00     0.045 C 
ATOM     21  C   UNL     1       1.276   0.029   0.095  1.00  0.00    -0.035 A 
ATOM     22  C   UNL     1       0.627   1.310   0.118  1.00  0.00     0.015 A 
ATOM     23  C   UNL     1      -0.744   1.213   0.110  1.00  0.00     0.065 A 
ATOM     24  S   UNL     1      -1.264  -0.406   0.060  1.00  0.00    -0.147 S 
ENDBRANCH  18  19
ENDBRANCH  15  18
ENDBRANCH   9  14
ENDBRANCH   6   8
ENDBRANCH   5   6
ENDBRANCH   4   5
ENDBRANCH   3   4
ENDBRANCH   2   3
ENDBRANCH   1   2
BRANCH   1  25
ATOM     25  C   UNL     1      -1.776  -7.572   0.231  1.00  0.00     0.188 C 
BRANCH  25  26
ATOM     26  O   UNL     1      -1.019  -8.316  -0.697  1.00  0.00    -0.376 OA
BRANCH  26  27
ATOM     27  C   UNL     1      -0.060  -9.232  -0.208  1.00  0.00     0.202 C 
BRANCH  27  28
ATOM     28  C   UNL     1      -0.338 -10.143   1.003  1.00  0.00     0.261 C 
BRANCH  28  29
ATOM     29  O   UNL     1      -1.219  -9.655   2.024  1.00  0.00    -0.460 OA
BRANCH  29  30
ATOM     30  C   UNL     1      -0.687  -8.857   2.975  1.00  0.00     0.338 C 
ATOM     31  O   UNL     1       0.480  -8.490   3.051  1.00  0.00    -0.246 OA
BRANCH  30  32
ATOM     32  C   UNL     1      -1.790  -8.334   3.810  1.00  0.00     0.060 A 
ATOM     33  C   UNL     1      -2.074  -6.961   3.789  1.00  0.00     0.016 A 
ATOM     34  C   UNL     1      -2.546  -9.196   4.608  1.00  0.00     0.016 A 
ATOM     35  C   UNL     1      -3.092  -6.442   4.593  1.00  0.00     0.010 A 
ATOM     36  C   UNL     1      -3.552  -8.670   5.427  1.00  0.00     0.010 A 
ATOM     37  C   UNL     1      -3.809  -7.287   5.449  1.00  0.00    -0.014 A 
BRANCH  37  38
ATOM     38  C   UNL     1      -4.696  -6.710   6.493  1.00  0.00     0.031 A 
ATOM     39  C   UNL     1      -4.177  -6.619   7.905  1.00  0.00     0.074 A 
ATOM     40  C   UNL     1      -5.930  -6.261   6.200  1.00  0.00     0.049 A 
ATOM     41  N   UNL     1      -4.785  -6.221   8.992  1.00  0.00    -0.248 NA
ATOM     42  C   UNL     1      -2.782  -7.040   8.116  1.00  0.00     0.031 C 
ATOM     43  C   UNL     1      -6.532  -6.249   4.869  1.00  0.00     0.029 A 
ATOM     44  N   UNL     1      -6.904  -5.735   7.015  1.00  0.00    -0.354 N 
ATOM     45  C   UNL     1      -3.854  -6.354  10.017  1.00  0.00     0.074 A 
ATOM     46  C   UNL     1      -2.652  -6.900   9.426  1.00  0.00     0.031 C 
ATOM     47  C   UNL     1      -7.779  -5.754   4.959  1.00  0.00     0.029 A 
ATOM     48  C   UNL     1      -8.076  -5.446   6.357  1.00  0.00     0.049 A 
ATOM     49  H   UNL     1      -6.774  -5.580   7.978  1.00  0.00     0.167 HD
ATOM     50  C   UNL     1      -3.986  -6.042  11.328  1.00  0.00     0.037 A 
ATOM     51  C   UNL     1      -9.259  -5.007   6.834  1.00  0.00     0.037 A 
ATOM     52  C   UNL     1      -5.186  -5.497  11.911  1.00  0.00     0.049 A 
ATOM     53  C   UNL     1      -9.406  -4.731   8.310  1.00  0.00     0.074 A 
ATOM     54  C   UNL     1      -5.415  -5.134  13.227  1.00  0.00     0.029 A 
ATOM     55  N   UNL     1      -6.361  -5.244  11.218  1.00  0.00    -0.354 N 
ATOM     56  N   UNL     1      -8.515  -4.848   9.268  1.00  0.00    -0.248 NA
ATOM     57  C   UNL     1     -10.720  -4.259   8.771  1.00  0.00     0.031 C 
ATOM     58  C   UNL     1      -6.745  -4.716  13.341  1.00  0.00     0.029 A 
ATOM     59  C   UNL     1      -7.327  -4.756  12.084  1.00  0.00     0.049 A 
ATOM     60  H   UNL     1      -6.490  -5.390  10.253  1.00  0.00     0.167 HD
ATOM     61  C   UNL     1      -9.152  -4.435  10.435  1.00  0.00     0.074 A 
ATOM     62  C   UNL     1     -10.497  -4.052  10.062  1.00  0.00     0.031 C 
ATOM     63  C   UNL     1      -8.665  -4.375  11.701  1.00  0.00     0.037 A 
BRANCH  50  64
ATOM     64  C   UNL     1      -2.812  -6.313  12.230  1.00  0.00     0.058 A 
ATOM     65  C   UNL     1      -1.627  -5.563  12.155  1.00  0.00     0.135 A 
ATOM     66  C   UNL     1      -2.883  -7.324  13.204  1.00  0.00     0.135 A 
ATOM     67  F   UNL     1      -1.494  -4.598  11.231  1.00  0.00    -0.206 F 
ATOM     68  C   UNL     1      -0.545  -5.824  12.991  1.00  0.00     0.059 A 
ATOM     69  C   UNL     1      -1.826  -7.581  14.072  1.00  0.00     0.059 A 
ATOM     70  F   UNL     1      -3.990  -8.074  13.319  1.00  0.00    -0.206 F 
ATOM     71  C   UNL     1      -0.655  -6.835  13.947  1.00  0.00     0.060 A 
BRANCH  71  72
ATOM     72  S   UNL     1       0.755  -7.157  15.027  1.00  0.00     0.124 S 
ATOM     73  O   UNL     1       1.701  -7.768  14.098  1.00  0.00    -0.237 OA
ATOM     74  O   UNL     1       1.102  -5.819  15.494  1.00  0.00    -0.237 OA
ATOM     75  O   UNL     1       0.210  -8.051  16.044  1.00  0.00    -0.744 OA
ENDBRANCH  71  72
ENDBRANCH  50  64
BRANCH  51  76
ATOM     76  C   UNL     1     -10.410  -4.809   5.908  1.00  0.00     0.058 A 
ATOM     77  C   UNL     1     -10.914  -3.528   5.638  1.00  0.00     0.135 A 
ATOM     78  C   UNL     1     -11.036  -5.899   5.283  1.00  0.00     0.135 A 
ATOM     79  F   UNL     1     -10.364  -2.453   6.224  1.00  0.00    -0.206 F 
ATOM     80  C   UNL     1     -12.004  -3.334   4.794  1.00  0.00     0.059 A 
ATOM     81  C   UNL     1     -12.107  -5.729   4.412  1.00  0.00     0.059 A 
ATOM     82  F   UNL     1     -10.593  -7.147   5.504  1.00  0.00    -0.206 F 
ATOM     83  C   UNL     1     -12.591  -4.442   4.181  1.00  0.00     0.060 A 
BRANCH  83  84
ATOM     84  S   UNL     1     -13.975  -4.174   3.051  1.00  0.00     0.124 S 
ATOM     85  O   UNL     1     -15.039  -3.796   3.973  1.00  0.00    -0.237 OA
ATOM     86  O   UNL     1     -13.466  -3.109   2.192  1.00  0.00    -0.237 OA
ATOM     87  O   UNL     1     -14.135  -5.471   2.401  1.00  0.00    -0.744 OA
ENDBRANCH  83  84
ENDBRANCH  51  76
BRANCH  63  88
ATOM     88  C   UNL     1      -9.578  -3.837  12.773  1.00  0.00     0.058 A 
ATOM     89  C   UNL     1     -10.698  -4.553  13.226  1.00  0.00     0.135 A 
ATOM     90  C   UNL     1      -9.307  -2.600  13.382  1.00  0.00     0.135 A 
ATOM     91  F   UNL     1     -11.007  -5.741  12.681  1.00  0.00    -0.206 F 
ATOM     92  C   UNL     1     -11.537  -4.045  14.214  1.00  0.00     0.059 A 
ATOM     93  C   UNL     1     -10.113  -2.088  14.395  1.00  0.00     0.059 A 
ATOM     94  F   UNL     1      -8.241  -1.877  13.001  1.00  0.00    -0.206 F 
ATOM     95  C   UNL     1     -11.236  -2.810  14.792  1.00  0.00     0.060 A 
BRANCH  95  96
ATOM     96  S   UNL     1     -12.327  -2.167  16.079  1.00  0.00     0.124 S 
ATOM     97  O   UNL     1     -13.502  -1.782  15.305  1.00  0.00    -0.237 OA
ATOM     98  O   UNL     1     -12.495  -3.324  16.953  1.00  0.00    -0.237 OA
ATOM     99  O   UNL     1     -11.563  -1.063  16.653  1.00  0.00    -0.744 OA
ENDBRANCH  95  96
ENDBRANCH  63  88
ENDBRANCH  37  38
ENDBRANCH  30  32
ENDBRANCH  29  30
ENDBRANCH  28  29
ENDBRANCH  27  28
ENDBRANCH  26  27
ENDBRANCH  25  26
ENDBRANCH   1  25
TORSDOF 23
