REMARK SMILES O=C(Cn1nc(C(=O)OCCOCCOCCOC(=O)c2ccc(-c3c4nc(c(-c5c(F)cc(S(=O)(=O)[O-])cc5F)c5ccc([nH]5)c(-c5c(F)cc(S(=O)(=O)[O-])cc5F)c5nc(c(-c6c(F)cc(S(=O)(=O)[O-])cc6F)c6ccc3[nH]6)C=C5)C=C4)cc2)c2ccccc2c1=O)Nc1ccc2c(c1)C(=O)c1ccccc1C2=O
REMARK SMILES IDX 13 1 12 2 11 3 10 4 9 5 7 6 8 7 6 8 4 9 5 10 93 11 92 12
REMARK SMILES IDX 94 13 87 14 91 15 88 16 90 17 89 18 3 19 2 20 1 21 95 22
REMARK SMILES IDX 96 24 97 25 101 26 98 27 100 28 99 29 102 30 110 31 103 32
REMARK SMILES IDX 104 33 109 34 111 35 105 36 108 37 106 38 107 39 14 40 15 41
REMARK SMILES IDX 16 42 17 43 18 44 19 45 20 46 21 47 22 48 86 49 23 50 85 51
REMARK SMILES IDX 24 52 25 53 26 54 79 55 27 56 84 57 78 58 80 59 28 60 83 61
REMARK SMILES IDX 77 62 76 63 29 65 63 66 42 67 62 68 43 69 46 70 61 71 81 72
REMARK SMILES IDX 44 73 45 74 60 76 82 77 47 78 30 79 31 80 40 81 32 82 33 83
REMARK SMILES IDX 39 84 41 85 34 86 35 87 36 88 37 89 38 90 64 91 65 92 74 93
REMARK SMILES IDX 66 94 67 95 73 96 75 97 68 98 69 99 70 100 71 101 72 102
REMARK SMILES IDX 48 103 49 104 58 105 50 106 51 107 57 108 59 109 52 110
REMARK SMILES IDX 53 111 54 112 55 113 56 114
REMARK H PARENT 95 23 80 64 46 75
REMARK Flexibility Score: inf
ROOT
ATOM      1  C   UNL     1       5.868  -1.702  -6.558  1.00  0.00     0.188 C 
ENDROOT
BRANCH   1   2
ATOM      2  O   UNL     1       6.677  -2.873  -6.639  1.00  0.00    -0.376 OA
BRANCH   2   3
ATOM      3  C   UNL     1       7.859  -2.867  -5.847  1.00  0.00     0.202 C 
BRANCH   3   4
ATOM      4  C   UNL     1       7.582  -3.277  -4.402  1.00  0.00     0.261 C 
BRANCH   4   5
ATOM      5  O   UNL     1       6.651  -2.385  -3.774  1.00  0.00    -0.458 OA
BRANCH   5   6
ATOM      6  C   UNL     1       7.138  -1.386  -3.012  1.00  0.00     0.359 C 
ATOM      7  O   UNL     1       8.290  -1.110  -2.769  1.00  0.00    -0.244 OA
BRANCH   6   8
ATOM      8  C   UNL     1       5.941  -0.556  -2.570  1.00  0.00     0.176 A 
ATOM      9  N   UNL     1       3.903  -0.494  -1.470  1.00  0.00    -0.219 N 
ATOM     10  N   UNL     1       5.111  -1.114  -1.732  1.00  0.00    -0.161 NA
ATOM     11  C   UNL     1       3.466   0.618  -2.194  1.00  0.00     0.275 A 
ATOM     12  C   UNL     1       4.484   1.349  -2.970  1.00  0.00     0.051 A 
ATOM     13  O   UNL     1       2.316   1.041  -2.150  1.00  0.00    -0.267 OA
ATOM     14  C   UNL     1       5.729   0.767  -3.176  1.00  0.00     0.022 A 
ATOM     15  C   UNL     1       4.205   2.625  -3.479  1.00  0.00     0.014 A 
ATOM     16  C   UNL     1       6.701   1.446  -3.921  1.00  0.00     0.011 A 
ATOM     17  C   UNL     1       5.178   3.309  -4.206  1.00  0.00     0.001 A 
ATOM     18  C   UNL     1       6.421   2.717  -4.431  1.00  0.00     0.001 A 
BRANCH   9  19
ATOM     19  C   UNL     1       2.922  -1.294  -0.703  1.00  0.00     0.248 C 
BRANCH  19  20
ATOM     20  C   UNL     1       2.192  -0.592   0.465  1.00  0.00     0.246 C 
ATOM     21  O   UNL     1       1.238  -1.108   1.044  1.00  0.00    -0.273 OA
ATOM     22  N   UNL     1       2.752   0.611   0.827  1.00  0.00    -0.324 N 
ATOM     23  H   UNL     1       3.705   0.755   0.625  1.00  0.00     0.169 HD
BRANCH  22  24
ATOM     24  C   UNL     1       2.052   1.646   1.466  1.00  0.00     0.042 A 
ATOM     25  C   UNL     1       2.208   1.816   2.845  1.00  0.00     0.027 A 
ATOM     26  C   UNL     1       1.711   2.726   0.651  1.00  0.00     0.039 A 
ATOM     27  C   UNL     1       2.229   3.109   3.380  1.00  0.00     0.015 A 
ATOM     28  C   UNL     1       1.778   4.007   1.175  1.00  0.00     0.036 A 
ATOM     29  C   UNL     1       2.134   4.199   2.508  1.00  0.00     0.034 A 
ATOM     30  C   UNL     1       1.895   5.121   0.221  1.00  0.00     0.194 C 
ATOM     31  C   UNL     1       2.796   5.476   2.865  1.00  0.00     0.194 C 
ATOM     32  O   UNL     1       1.180   5.217  -0.762  1.00  0.00    -0.289 OA
ATOM     33  C   UNL     1       3.065   5.982   0.446  1.00  0.00     0.034 A 
ATOM     34  C   UNL     1       3.535   6.133   1.754  1.00  0.00     0.034 A 
ATOM     35  O   UNL     1       2.868   5.869   4.019  1.00  0.00    -0.289 OA
ATOM     36  C   UNL     1       3.804   6.433  -0.648  1.00  0.00     0.013 A 
ATOM     37  C   UNL     1       4.778   6.723   1.977  1.00  0.00     0.013 A 
ATOM     38  C   UNL     1       5.061   6.992  -0.424  1.00  0.00     0.001 A 
ATOM     39  C   UNL     1       5.548   7.130   0.881  1.00  0.00     0.001 A 
ENDBRANCH  22  24
ENDBRANCH  19  20
ENDBRANCH   9  19
ENDBRANCH   6   8
ENDBRANCH   5   6
ENDBRANCH   4   5
ENDBRANCH   3   4
ENDBRANCH   2   3
ENDBRANCH   1   2
BRANCH   1  40
ATOM     40  C   UNL     1       4.474  -1.963  -5.955  1.00  0.00     0.188 C 
BRANCH  40  41
ATOM     41  O   UNL     1       3.900  -3.259  -6.091  1.00  0.00    -0.376 OA
BRANCH  41  42
ATOM     42  C   UNL     1       3.993  -3.919  -7.348  1.00  0.00     0.202 C 
BRANCH  42  43
ATOM     43  C   UNL     1       3.184  -3.308  -8.492  1.00  0.00     0.261 C 
BRANCH  43  44
ATOM     44  O   UNL     1       3.697  -2.024  -8.885  1.00  0.00    -0.460 OA
BRANCH  44  45
ATOM     45  C   UNL     1       2.828  -0.990  -8.769  1.00  0.00     0.338 C 
ATOM     46  O   UNL     1       1.660  -1.044  -8.425  1.00  0.00    -0.246 OA
BRANCH  45  47
ATOM     47  C   UNL     1       3.555   0.282  -8.952  1.00  0.00     0.060 A 
ATOM     48  C   UNL     1       4.368   0.508 -10.066  1.00  0.00     0.016 A 
ATOM     49  C   UNL     1       3.378   1.281  -7.987  1.00  0.00     0.016 A 
ATOM     50  C   UNL     1       4.979   1.757 -10.229  1.00  0.00     0.010 A 
ATOM     51  C   UNL     1       4.001   2.518  -8.143  1.00  0.00     0.010 A 
ATOM     52  C   UNL     1       4.789   2.771  -9.275  1.00  0.00    -0.014 A 
BRANCH  52  53
ATOM     53  C   UNL     1       5.318   4.135  -9.512  1.00  0.00     0.031 A 
ATOM     54  C   UNL     1       6.644   4.561  -8.961  1.00  0.00     0.074 A 
ATOM     55  C   UNL     1       4.567   5.002 -10.217  1.00  0.00     0.049 A 
ATOM     56  N   UNL     1       7.256   5.708  -9.089  1.00  0.00    -0.248 NA
ATOM     57  C   UNL     1       7.373   3.573  -8.153  1.00  0.00     0.031 C 
ATOM     58  C   UNL     1       3.250   4.705 -10.783  1.00  0.00     0.029 A 
ATOM     59  N   UNL     1       4.801   6.304 -10.575  1.00  0.00    -0.354 N 
ATOM     60  C   UNL     1       8.452   5.583  -8.396  1.00  0.00     0.074 A 
ATOM     61  C   UNL     1       8.461   4.256  -7.814  1.00  0.00     0.031 C 
ATOM     62  C   UNL     1       2.795   5.793 -11.425  1.00  0.00     0.029 A 
ATOM     63  C   UNL     1       3.782   6.863 -11.309  1.00  0.00     0.049 A 
ATOM     64  H   UNL     1       5.620   6.792 -10.331  1.00  0.00     0.167 HD
ATOM     65  C   UNL     1       9.454   6.488  -8.274  1.00  0.00     0.037 A 
ATOM     66  C   UNL     1       3.661   8.096 -11.836  1.00  0.00     0.037 A 
ATOM     67  C   UNL     1       9.440   7.805  -8.859  1.00  0.00     0.049 A 
ATOM     68  C   UNL     1       4.778   9.085 -11.669  1.00  0.00     0.074 A 
ATOM     69  C   UNL     1      10.431   8.772  -8.825  1.00  0.00     0.029 A 
ATOM     70  N   UNL     1       8.385   8.345  -9.580  1.00  0.00    -0.354 N 
ATOM     71  N   UNL     1       5.925   8.934 -11.051  1.00  0.00    -0.248 NA
ATOM     72  C   UNL     1       4.589  10.409 -12.278  1.00  0.00     0.031 C 
ATOM     73  C   UNL     1       9.963   9.907  -9.496  1.00  0.00     0.029 A 
ATOM     74  C   UNL     1       8.693   9.637  -9.978  1.00  0.00     0.049 A 
ATOM     75  H   UNL     1       7.541   7.879  -9.780  1.00  0.00     0.167 HD
ATOM     76  C   UNL     1       6.600  10.138 -11.207  1.00  0.00     0.074 A 
ATOM     77  C   UNL     1       5.740  11.003 -11.989  1.00  0.00     0.031 C 
ATOM     78  C   UNL     1       7.823  10.493 -10.744  1.00  0.00     0.037 A 
BRANCH  65  79
ATOM     79  C   UNL     1      10.665   6.084  -7.483  1.00  0.00     0.058 A 
ATOM     80  C   UNL     1      11.614   5.194  -8.009  1.00  0.00     0.135 A 
ATOM     81  C   UNL     1      10.914   6.641  -6.219  1.00  0.00     0.135 A 
ATOM     82  F   UNL     1      11.413   4.622  -9.207  1.00  0.00    -0.206 F 
ATOM     83  C   UNL     1      12.763   4.858  -7.302  1.00  0.00     0.059 A 
ATOM     84  C   UNL     1      12.067   6.334  -5.502  1.00  0.00     0.059 A 
ATOM     85  F   UNL     1      10.034   7.492  -5.670  1.00  0.00    -0.206 F 
ATOM     86  C   UNL     1      12.980   5.433  -6.049  1.00  0.00     0.060 A 
BRANCH  86  87
ATOM     87  S   UNL     1      14.478   4.987  -5.145  1.00  0.00     0.124 S 
ATOM     88  O   UNL     1      14.152   3.635  -4.701  1.00  0.00    -0.237 OA
ATOM     89  O   UNL     1      15.506   5.086  -6.175  1.00  0.00    -0.237 OA
ATOM     90  O   UNL     1      14.549   5.994  -4.091  1.00  0.00    -0.744 OA
ENDBRANCH  86  87
ENDBRANCH  65  79
BRANCH  66  91
ATOM     91  C   UNL     1       2.444   8.443 -12.609  1.00  0.00     0.058 A 
ATOM     92  C   UNL     1       2.482   8.511 -14.008  1.00  0.00     0.135 A 
ATOM     93  C   UNL     1       1.216   8.673 -11.970  1.00  0.00     0.135 A 
ATOM     94  F   UNL     1       3.637   8.302 -14.658  1.00  0.00    -0.206 F 
ATOM     95  C   UNL     1       1.344   8.800 -14.752  1.00  0.00     0.059 A 
ATOM     96  C   UNL     1       0.060   8.947 -12.693  1.00  0.00     0.059 A 
ATOM     97  F   UNL     1       1.132   8.604 -10.633  1.00  0.00    -0.206 F 
ATOM     98  C   UNL     1       0.136   9.012 -14.085  1.00  0.00     0.060 A 
BRANCH  98  99
ATOM     99  S   UNL     1      -1.349   9.319 -15.065  1.00  0.00     0.124 S 
ATOM    100  O   UNL     1      -1.134  10.695 -15.499  1.00  0.00    -0.237 OA
ATOM    101  O   UNL     1      -1.247   8.299 -16.104  1.00  0.00    -0.237 OA
ATOM    102  O   UNL     1      -2.431   9.120 -14.105  1.00  0.00    -0.744 OA
ENDBRANCH  98  99
ENDBRANCH  66  91
BRANCH  78 103
ATOM    103  C   UNL     1       8.305  11.878 -11.068  1.00  0.00     0.058 A 
ATOM    104  C   UNL     1       7.805  13.001 -10.392  1.00  0.00     0.135 A 
ATOM    105  C   UNL     1       9.305  12.082 -12.033  1.00  0.00     0.135 A 
ATOM    106  F   UNL     1       6.843  12.859  -9.466  1.00  0.00    -0.206 F 
ATOM    107  C   UNL     1       8.266  14.283 -10.673  1.00  0.00     0.059 A 
ATOM    108  C   UNL     1       9.795  13.353 -12.316  1.00  0.00     0.059 A 
ATOM    109  F   UNL     1       9.821  11.039 -12.702  1.00  0.00    -0.206 F 
ATOM    110  C   UNL     1       9.262  14.449 -11.637  1.00  0.00     0.060 A 
BRANCH 110 111
ATOM    111  S   UNL     1       9.877  16.114 -11.969  1.00  0.00     0.124 S 
ATOM    112  O   UNL     1       8.786  16.679 -12.755  1.00  0.00    -0.237 OA
ATOM    113  O   UNL     1      10.040  16.662 -10.625  1.00  0.00    -0.237 OA
ATOM    114  O   UNL     1      11.120  15.877 -12.697  1.00  0.00    -0.744 OA
ENDBRANCH 110 111
ENDBRANCH  78 103
ENDBRANCH  52  53
ENDBRANCH  45  47
ENDBRANCH  44  45
ENDBRANCH  43  44
ENDBRANCH  42  43
ENDBRANCH  41  42
ENDBRANCH  40  41
ENDBRANCH   1  40
TORSDOF 23
