REMARK SMILES COc1ccccc1[C@@H]1C[N@@H+](Cc2cn3cc(C)ccc3n2)C[C@H]1C(=O)OCCOCCOCCOC(=O)c1ccc(-c2c3nc(c(-c4c(F)cc(S(=O)(=O)[O-])cc4F)c4ccc([nH]4)c(-c4c(F)cc(S(=O)(=O)[O-])cc4F)c4nc(c(-c5c(F)cc(S(=O)(=O)[O-])cc5F)c5ccc2[nH]5)C=C4)C=C3)cc1
REMARK SMILES IDX 32 1 31 2 30 3 29 4 28 5 27 6 25 7 26 8 24 9 9 10 10 11
REMARK SMILES IDX 11 12 23 13 8 15 3 16 4 17 5 18 7 19 6 20 2 21 1 22 12 23
REMARK SMILES IDX 13 24 14 25 22 26 15 27 21 28 16 29 20 30 17 31 19 32 18 33
REMARK SMILES IDX 33 34 34 35 35 36 36 37 37 38 38 39 39 40 40 41 104 42 41 43
REMARK SMILES IDX 103 44 42 45 43 46 44 47 97 48 45 49 102 50 96 51 98 52
REMARK SMILES IDX 46 53 101 54 95 55 94 56 47 58 81 59 60 60 80 61 61 62 64 63
REMARK SMILES IDX 79 64 99 65 62 66 63 67 78 69 100 70 65 71 48 72 49 73 58 74
REMARK SMILES IDX 50 75 51 76 57 77 59 78 52 79 53 80 54 81 55 82 56 83 82 84
REMARK SMILES IDX 83 85 92 86 84 87 85 88 91 89 93 90 86 91 87 92 88 93 89 94
REMARK SMILES IDX 90 95 66 96 67 97 76 98 68 99 69 100 75 101 77 102 70 103
REMARK SMILES IDX 71 104 72 105 73 106 74 107
REMARK H PARENT 11 14 98 57 64 68
REMARK Flexibility Score: inf
ROOT
ATOM      1  C   UNL     1       2.401  -3.955  -1.876  1.00  0.00     0.188 C 
ENDROOT
BRANCH   1   2
ATOM      2  C   UNL     1       1.665  -3.695  -3.193  1.00  0.00     0.188 C 
BRANCH   2   3
ATOM      3  O   UNL     1       2.363  -3.967  -4.400  1.00  0.00    -0.376 OA
BRANCH   3   4
ATOM      4  C   UNL     1       3.623  -3.315  -4.587  1.00  0.00     0.202 C 
BRANCH   4   5
ATOM      5  C   UNL     1       3.735  -1.835  -4.170  1.00  0.00     0.261 C 
BRANCH   5   6
ATOM      6  O   UNL     1       3.713  -1.616  -2.733  1.00  0.00    -0.463 OA
BRANCH   6   7
ATOM      7  C   UNL     1       3.180  -0.446  -2.326  1.00  0.00     0.315 C 
ATOM      8  O   UNL     1       2.779   0.412  -3.116  1.00  0.00    -0.252 OA
BRANCH   7   9
ATOM      9  C   UNL     1       3.096  -0.189  -0.825  1.00  0.00     0.167 C 
ATOM     10  C   UNL     1       3.410  -1.181   0.312  1.00  0.00     0.098 C 
ATOM     11  C   UNL     1       3.996  -0.269   1.404  1.00  0.00     0.272 C 
ATOM     12  N   UNL     1       4.727   0.788   0.716  1.00  0.00    -0.329 N 
ATOM     13  C   UNL     1       4.048   0.992  -0.568  1.00  0.00     0.278 C 
ATOM     14  H   UNL     1       4.702   1.648   1.264  1.00  0.00     0.348 HD
BRANCH  10  15
ATOM     15  C   UNL     1       2.337  -2.039   0.988  1.00  0.00     0.004 A 
ATOM     16  C   UNL     1       1.080  -1.587   1.422  1.00  0.00     0.122 A 
ATOM     17  C   UNL     1       0.174  -2.461   2.044  1.00  0.00     0.047 A 
ATOM     18  C   UNL     1       0.528  -3.790   2.289  1.00  0.00     0.004 A 
ATOM     19  C   UNL     1       2.690  -3.366   1.316  1.00  0.00     0.008 A 
ATOM     20  C   UNL     1       1.799  -4.234   1.951  1.00  0.00     0.001 A 
BRANCH  16  21
ATOM     21  O   UNL     1       0.830  -0.242   1.489  1.00  0.00    -0.496 OA
ATOM     22  C   UNL     1      -0.076   0.228   0.499  1.00  0.00     0.278 C 
ENDBRANCH  16  21
ENDBRANCH  10  15
BRANCH  12  23
ATOM     23  C   UNL     1       6.174   0.561   0.614  1.00  0.00     0.321 C 
BRANCH  23  24
ATOM     24  C   UNL     1       6.582  -0.767   0.053  1.00  0.00     0.114 A 
ATOM     25  C   UNL     1       6.909  -1.921   0.743  1.00  0.00     0.122 A 
ATOM     26  N   UNL     1       6.694  -0.977  -1.307  1.00  0.00    -0.228 NA
ATOM     27  N   UNL     1       7.227  -2.853  -0.208  1.00  0.00    -0.306 N 
ATOM     28  C   UNL     1       7.083  -2.229  -1.441  1.00  0.00     0.137 A 
ATOM     29  C   UNL     1       7.623  -4.178  -0.048  1.00  0.00     0.096 A 
ATOM     30  C   UNL     1       7.377  -3.012  -2.594  1.00  0.00     0.048 A 
ATOM     31  C   UNL     1       7.918  -4.920  -1.135  1.00  0.00    -0.034 A 
ATOM     32  C   UNL     1       7.798  -4.285  -2.453  1.00  0.00     0.009 A 
ATOM     33  C   UNL     1       8.241  -6.381  -1.076  1.00  0.00     0.046 C 
ENDBRANCH  23  24
ENDBRANCH  12  23
ENDBRANCH   7   9
ENDBRANCH   6   7
ENDBRANCH   5   6
ENDBRANCH   4   5
ENDBRANCH   3   4
ENDBRANCH   2   3
ENDBRANCH   1   2
BRANCH   1  34
ATOM     34  O   UNL     1       3.807  -4.093  -1.998  1.00  0.00    -0.376 OA
BRANCH  34  35
ATOM     35  C   UNL     1       4.411  -5.283  -1.533  1.00  0.00     0.202 C 
BRANCH  35  36
ATOM     36  C   UNL     1       4.052  -6.536  -2.314  1.00  0.00     0.261 C 
BRANCH  36  37
ATOM     37  O   UNL     1       2.677  -6.852  -2.205  1.00  0.00    -0.460 OA
BRANCH  37  38
ATOM     38  C   UNL     1       2.239  -7.072  -0.957  1.00  0.00     0.338 C 
ATOM     39  O   UNL     1       2.878  -7.016   0.097  1.00  0.00    -0.246 OA
BRANCH  38  40
ATOM     40  C   UNL     1       0.832  -7.407  -1.032  1.00  0.00     0.060 A 
ATOM     41  C   UNL     1       0.081  -7.303   0.140  1.00  0.00     0.016 A 
ATOM     42  C   UNL     1       0.367  -8.053  -2.185  1.00  0.00     0.016 A 
ATOM     43  C   UNL     1      -1.059  -8.054   0.237  1.00  0.00     0.010 A 
ATOM     44  C   UNL     1      -0.762  -8.814  -2.083  1.00  0.00     0.010 A 
ATOM     45  C   UNL     1      -1.393  -8.875  -0.842  1.00  0.00    -0.014 A 
BRANCH  45  46
ATOM     46  C   UNL     1      -2.407  -9.875  -0.627  1.00  0.00     0.031 A 
ATOM     47  C   UNL     1      -3.784  -9.360  -0.674  1.00  0.00     0.074 A 
ATOM     48  C   UNL     1      -2.065 -11.172  -0.532  1.00  0.00     0.049 A 
ATOM     49  N   UNL     1      -4.682  -9.415   0.251  1.00  0.00    -0.248 NA
ATOM     50  C   UNL     1      -4.172  -8.571  -1.855  1.00  0.00     0.031 C 
ATOM     51  C   UNL     1      -0.743 -11.765  -0.767  1.00  0.00     0.029 A 
ATOM     52  N   UNL     1      -2.864 -12.255  -0.357  1.00  0.00    -0.354 N 
ATOM     53  C   UNL     1      -5.827  -8.887  -0.329  1.00  0.00     0.074 A 
ATOM     54  C   UNL     1      -5.417  -8.223  -1.539  1.00  0.00     0.031 C 
ATOM     55  C   UNL     1      -0.889 -13.092  -0.963  1.00  0.00     0.029 A 
ATOM     56  C   UNL     1      -2.287 -13.445  -0.775  1.00  0.00     0.049 A 
ATOM     57  H   UNL     1      -3.768 -12.201   0.030  1.00  0.00     0.167 HD
ATOM     58  C   UNL     1      -7.061  -9.286   0.070  1.00  0.00     0.037 A 
ATOM     59  C   UNL     1      -2.946 -14.594  -1.065  1.00  0.00     0.037 A 
ATOM     60  C   UNL     1      -7.048  -9.863   1.389  1.00  0.00     0.049 A 
ATOM     61  C   UNL     1      -4.282 -14.514  -0.410  1.00  0.00     0.074 A 
ATOM     62  C   UNL     1      -6.579  -9.432   2.617  1.00  0.00     0.029 A 
ATOM     63  N   UNL     1      -7.236 -11.218   1.518  1.00  0.00    -0.354 N 
ATOM     64  N   UNL     1      -4.474 -14.540   0.881  1.00  0.00    -0.248 NA
ATOM     65  C   UNL     1      -5.392 -13.976  -1.186  1.00  0.00     0.031 C 
ATOM     66  C   UNL     1      -6.058 -10.598   3.248  1.00  0.00     0.029 A 
ATOM     67  C   UNL     1      -6.280 -11.675   2.391  1.00  0.00     0.049 A 
ATOM     68  H   UNL     1      -7.926 -11.759   1.069  1.00  0.00     0.167 HD
ATOM     69  C   UNL     1      -5.518 -13.654   1.107  1.00  0.00     0.074 A 
ATOM     70  C   UNL     1      -6.113 -13.427  -0.206  1.00  0.00     0.031 C 
ATOM     71  C   UNL     1      -5.628 -12.963   2.281  1.00  0.00     0.037 A 
BRANCH  58  72
ATOM     72  C   UNL     1      -8.180  -9.486  -0.913  1.00  0.00     0.058 A 
ATOM     73  C   UNL     1      -9.503  -9.585  -0.454  1.00  0.00     0.135 A 
ATOM     74  C   UNL     1      -7.961  -9.849  -2.264  1.00  0.00     0.135 A 
ATOM     75  F   UNL     1      -9.804  -9.296   0.822  1.00  0.00    -0.206 F 
ATOM     76  C   UNL     1     -10.531 -10.060  -1.267  1.00  0.00     0.059 A 
ATOM     77  C   UNL     1      -8.979 -10.262  -3.108  1.00  0.00     0.059 A 
ATOM     78  F   UNL     1      -6.732  -9.919  -2.794  1.00  0.00    -0.206 F 
ATOM     79  C   UNL     1     -10.253 -10.409  -2.588  1.00  0.00     0.060 A 
BRANCH  79  80
ATOM     80  S   UNL     1     -11.543 -11.140  -3.607  1.00  0.00     0.124 S 
ATOM     81  O   UNL     1     -11.592 -12.495  -3.072  1.00  0.00    -0.237 OA
ATOM     82  O   UNL     1     -12.690 -10.289  -3.307  1.00  0.00    -0.237 OA
ATOM     83  O   UNL     1     -11.011 -11.009  -4.960  1.00  0.00    -0.744 OA
ENDBRANCH  79  80
ENDBRANCH  58  72
BRANCH  59  84
ATOM     84  C   UNL     1      -2.614 -15.593  -2.117  1.00  0.00     0.058 A 
ATOM     85  C   UNL     1      -3.293 -16.823  -2.179  1.00  0.00     0.135 A 
ATOM     86  C   UNL     1      -1.804 -15.281  -3.231  1.00  0.00     0.135 A 
ATOM     87  F   UNL     1      -4.110 -17.194  -1.182  1.00  0.00    -0.206 F 
ATOM     88  C   UNL     1      -3.207 -17.669  -3.290  1.00  0.00     0.059 A 
ATOM     89  C   UNL     1      -1.681 -16.121  -4.335  1.00  0.00     0.059 A 
ATOM     90  F   UNL     1      -1.174 -14.103  -3.334  1.00  0.00    -0.206 F 
ATOM     91  C   UNL     1      -2.408 -17.302  -4.371  1.00  0.00     0.060 A 
BRANCH  91  92
ATOM     92  S   UNL     1      -2.421 -18.304  -5.874  1.00  0.00     0.124 S 
ATOM     93  O   UNL     1      -1.726 -19.510  -5.438  1.00  0.00    -0.237 OA
ATOM     94  O   UNL     1      -3.849 -18.447  -6.135  1.00  0.00    -0.237 OA
ATOM     95  O   UNL     1      -1.694 -17.480  -6.837  1.00  0.00    -0.744 OA
ENDBRANCH  91  92
ENDBRANCH  59  84
BRANCH  71  96
ATOM     96  C   UNL     1      -4.811 -13.414   3.465  1.00  0.00     0.058 A 
ATOM     97  C   UNL     1      -3.405 -13.453   3.490  1.00  0.00     0.135 A 
ATOM     98  C   UNL     1      -5.477 -13.679   4.673  1.00  0.00     0.135 A 
ATOM     99  F   UNL     1      -2.685 -13.096   2.418  1.00  0.00    -0.206 F 
ATOM    100  C   UNL     1      -2.699 -13.795   4.644  1.00  0.00     0.059 A 
ATOM    101  C   UNL     1      -4.792 -13.988   5.845  1.00  0.00     0.059 A 
ATOM    102  F   UNL     1      -6.816 -13.591   4.736  1.00  0.00    -0.206 F 
ATOM    103  C   UNL     1      -3.401 -14.063   5.819  1.00  0.00     0.060 A 
BRANCH 103 104
ATOM    104  S   UNL     1      -2.481 -14.427   7.330  1.00  0.00     0.124 S 
ATOM    105  O   UNL     1      -2.044 -15.800   7.098  1.00  0.00    -0.237 OA
ATOM    106  O   UNL     1      -1.428 -13.416   7.315  1.00  0.00    -0.237 OA
ATOM    107  O   UNL     1      -3.478 -14.258   8.384  1.00  0.00    -0.744 OA
ENDBRANCH 103 104
ENDBRANCH  71  96
ENDBRANCH  45  46
ENDBRANCH  38  40
ENDBRANCH  37  38
ENDBRANCH  36  37
ENDBRANCH  35  36
ENDBRANCH  34  35
ENDBRANCH   1  34
TORSDOF 24
