REMARK SMILES O=C(CCCC(=O)N1CCC(C2N=c3ccccc3=N2)CC1)OCCOCCOCCOC(=O)c1ccc(-c2c3nc(c(-c4c(F)cc(S(=O)(=O)[O-])cc4F)c4ccc([nH]4)c(-c4c(F)cc(S(=O)(=O)[O-])cc4F)c4nc(c(-c5c(F)cc(S(=O)(=O)[O-])cc5F)c5ccc2[nH]5)C=C4)C=C3)cc1
REMARK SMILES IDX 27 1 26 2 25 3 24 4 23 5 2 6 1 7 3 8 4 9 5 10 6 11 7 12 8 13
REMARK SMILES IDX 9 14 22 15 10 16 21 17 11 18 12 19 13 20 20 21 14 22 19 23
REMARK SMILES IDX 15 24 18 25 16 26 17 27 28 28 29 29 30 30 31 31 32 32 33 33
REMARK SMILES IDX 34 34 35 35 36 36 100 37 37 38 99 39 38 40 39 41 40 42 93 43
REMARK SMILES IDX 41 44 98 45 92 46 94 47 42 48 97 49 91 50 90 51 43 53 77 54
REMARK SMILES IDX 56 55 76 56 57 57 60 58 75 59 95 60 58 61 59 62 74 64 96 65
REMARK SMILES IDX 61 66 44 67 45 68 54 69 46 70 47 71 53 72 55 73 48 74 49 75
REMARK SMILES IDX 50 76 51 77 52 78 78 79 79 80 88 81 80 82 81 83 87 84 89 85
REMARK SMILES IDX 82 86 83 87 84 88 85 89 86 90 62 91 63 92 72 93 64 94 65 95
REMARK SMILES IDX 71 96 73 97 66 98 67 99 68 100 69 101 70 102
REMARK H PARENT 94 52 60 63
REMARK Flexibility Score: inf
ROOT
ATOM      1  C   UNL     1       1.692   0.465  -1.672  1.00  0.00     0.188 C 
ENDROOT
BRANCH   1   2
ATOM      2  O   UNL     1       3.055   0.412  -1.252  1.00  0.00    -0.376 OA
BRANCH   2   3
ATOM      3  C   UNL     1       3.826  -0.601  -1.907  1.00  0.00     0.202 C 
BRANCH   3   4
ATOM      4  C   UNL     1       3.459  -2.019  -1.447  1.00  0.00     0.261 C 
BRANCH   4   5
ATOM      5  O   UNL     1       3.640  -2.101  -0.026  1.00  0.00    -0.463 OA
BRANCH   5   6
ATOM      6  C   UNL     1       2.599  -1.646   0.710  1.00  0.00     0.305 C 
ATOM      7  O   UNL     1       1.421  -1.830   0.421  1.00  0.00    -0.252 OA
BRANCH   6   8
ATOM      8  C   UNL     1       3.048  -0.671   1.777  1.00  0.00     0.123 C 
BRANCH   8   9
ATOM      9  C   UNL     1       4.410  -0.870   2.451  1.00  0.00     0.022 C 
BRANCH   9  10
ATOM     10  C   UNL     1       5.699  -0.946   1.634  1.00  0.00     0.101 C 
BRANCH  10  11
ATOM     11  C   UNL     1       6.490   0.142   0.898  1.00  0.00     0.222 C 
ATOM     12  O   UNL     1       7.613  -0.211   0.496  1.00  0.00    -0.275 OA
ATOM     13  N   UNL     1       6.021   1.391   0.564  1.00  0.00    -0.343 N 
ATOM     14  C   UNL     1       6.679   2.092  -0.545  1.00  0.00     0.120 C 
ATOM     15  C   UNL     1       4.886   2.090   1.145  1.00  0.00     0.120 C 
ATOM     16  C   UNL     1       7.031   3.540  -0.225  1.00  0.00     0.029 C 
ATOM     17  C   UNL     1       5.213   3.538   1.488  1.00  0.00     0.029 C 
ATOM     18  C   UNL     1       5.805   4.301   0.294  1.00  0.00     0.039 C 
BRANCH  18  19
ATOM     19  C   UNL     1       6.109   5.756   0.677  1.00  0.00     0.225 C 
ATOM     20  N   UNL     1       7.022   5.793   1.841  1.00  0.00    -0.256 NA
ATOM     21  N   UNL     1       6.684   6.509  -0.474  1.00  0.00    -0.256 NA
ATOM     22  C   UNL     1       7.993   6.515   1.414  1.00  0.00     0.085 A 
ATOM     23  C   UNL     1       7.777   6.975   0.026  1.00  0.00     0.085 A 
ATOM     24  C   UNL     1       9.225   6.860   2.116  1.00  0.00     0.030 A 
ATOM     25  C   UNL     1       8.777   7.848  -0.596  1.00  0.00     0.030 A 
ATOM     26  C   UNL     1      10.107   7.624   1.461  1.00  0.00     0.002 A 
ATOM     27  C   UNL     1       9.871   8.138   0.124  1.00  0.00     0.002 A 
ENDBRANCH  18  19
ENDBRANCH  10  11
ENDBRANCH   9  10
ENDBRANCH   8   9
ENDBRANCH   6   8
ENDBRANCH   5   6
ENDBRANCH   4   5
ENDBRANCH   3   4
ENDBRANCH   2   3
ENDBRANCH   1   2
BRANCH   1  28
ATOM     28  C   UNL     1       1.381   1.734  -2.457  1.00  0.00     0.188 C 
BRANCH  28  29
ATOM     29  O   UNL     1       2.234   1.944  -3.580  1.00  0.00    -0.376 OA
BRANCH  29  30
ATOM     30  C   UNL     1       3.426   2.691  -3.301  1.00  0.00     0.202 C 
BRANCH  30  31
ATOM     31  C   UNL     1       3.190   4.187  -3.056  1.00  0.00     0.261 C 
BRANCH  31  32
ATOM     32  O   UNL     1       2.915   4.446  -1.663  1.00  0.00    -0.460 OA
BRANCH  32  33
ATOM     33  C   UNL     1       1.724   5.001  -1.354  1.00  0.00     0.338 C 
ATOM     34  O   UNL     1       0.810   5.281  -2.123  1.00  0.00    -0.246 OA
BRANCH  33  35
ATOM     35  C   UNL     1       1.637   5.136   0.109  1.00  0.00     0.060 A 
ATOM     36  C   UNL     1       2.491   6.019   0.763  1.00  0.00     0.016 A 
ATOM     37  C   UNL     1       0.667   4.436   0.832  1.00  0.00     0.016 A 
ATOM     38  C   UNL     1       2.394   6.183   2.149  1.00  0.00     0.010 A 
ATOM     39  C   UNL     1       0.521   4.662   2.210  1.00  0.00     0.010 A 
ATOM     40  C   UNL     1       1.366   5.559   2.885  1.00  0.00    -0.014 A 
BRANCH  40  41
ATOM     41  C   UNL     1       1.090   5.995   4.292  1.00  0.00     0.031 A 
ATOM     42  C   UNL     1       1.089   5.042   5.462  1.00  0.00     0.074 A 
ATOM     43  C   UNL     1       0.805   7.298   4.515  1.00  0.00     0.049 A 
ATOM     44  N   UNL     1       0.834   5.293   6.724  1.00  0.00    -0.248 NA
ATOM     45  C   UNL     1       1.396   3.630   5.190  1.00  0.00     0.031 C 
ATOM     46  C   UNL     1       0.719   8.329   3.475  1.00  0.00     0.029 A 
ATOM     47  N   UNL     1       0.552   7.990   5.676  1.00  0.00    -0.354 N 
ATOM     48  C   UNL     1       0.933   4.078   7.394  1.00  0.00     0.074 A 
ATOM     49  C   UNL     1       1.248   3.080   6.391  1.00  0.00     0.031 C 
ATOM     50  C   UNL     1       0.516   9.523   4.047  1.00  0.00     0.029 A 
ATOM     51  C   UNL     1       0.364   9.341   5.485  1.00  0.00     0.049 A 
ATOM     52  H   UNL     1       0.510   7.561   6.560  1.00  0.00     0.167 HD
ATOM     53  C   UNL     1       0.787   3.821   8.718  1.00  0.00     0.037 A 
ATOM     54  C   UNL     1       0.080  10.333   6.353  1.00  0.00     0.037 A 
ATOM     55  C   UNL     1       0.502   4.818   9.723  1.00  0.00     0.049 A 
ATOM     56  C   UNL     1      -0.096  10.015   7.809  1.00  0.00     0.074 A 
ATOM     57  C   UNL     1       0.386   4.643  11.093  1.00  0.00     0.029 A 
ATOM     58  N   UNL     1       0.290   6.167   9.479  1.00  0.00    -0.354 N 
ATOM     59  N   UNL     1       0.036   8.863   8.418  1.00  0.00    -0.248 NA
ATOM     60  C   UNL     1      -0.479  11.125   8.694  1.00  0.00     0.031 C 
ATOM     61  C   UNL     1       0.058   5.872  11.671  1.00  0.00     0.029 A 
ATOM     62  C   UNL     1       0.020   6.826  10.670  1.00  0.00     0.049 A 
ATOM     63  H   UNL     1       0.326   6.593   8.593  1.00  0.00     0.167 HD
ATOM     64  C   UNL     1      -0.236   9.111   9.758  1.00  0.00     0.074 A 
ATOM     65  C   UNL     1      -0.521  10.524   9.876  1.00  0.00     0.031 C 
ATOM     66  C   UNL     1      -0.255   8.236  10.791  1.00  0.00     0.037 A 
BRANCH  53  67
ATOM     67  C   UNL     1       0.944   2.401   9.197  1.00  0.00     0.058 A 
ATOM     68  C   UNL     1       2.205   1.794   9.287  1.00  0.00     0.135 A 
ATOM     69  C   UNL     1      -0.161   1.689   9.697  1.00  0.00     0.135 A 
ATOM     70  F   UNL     1       3.294   2.426   8.820  1.00  0.00    -0.206 F 
ATOM     71  C   UNL     1       2.367   0.532   9.850  1.00  0.00     0.059 A 
ATOM     72  C   UNL     1      -0.019   0.435  10.286  1.00  0.00     0.059 A 
ATOM     73  F   UNL     1      -1.390   2.226   9.645  1.00  0.00    -0.206 F 
ATOM     74  C   UNL     1       1.250  -0.137  10.355  1.00  0.00     0.060 A 
BRANCH  74  75
ATOM     75  S   UNL     1       1.490  -1.756  11.119  1.00  0.00     0.124 S 
ATOM     76  O   UNL     1       1.848  -2.573   9.963  1.00  0.00    -0.237 OA
ATOM     77  O   UNL     1       2.568  -1.495  12.067  1.00  0.00    -0.237 OA
ATOM     78  O   UNL     1       0.191  -2.050  11.714  1.00  0.00    -0.744 OA
ENDBRANCH  74  75
ENDBRANCH  53  67
BRANCH  54  79
ATOM     79  C   UNL     1      -0.067  11.729   5.857  1.00  0.00     0.058 A 
ATOM     80  C   UNL     1       0.875  12.713   6.188  1.00  0.00     0.135 A 
ATOM     81  C   UNL     1      -1.135  12.099   5.024  1.00  0.00     0.135 A 
ATOM     82  F   UNL     1       1.909  12.411   6.988  1.00  0.00    -0.206 F 
ATOM     83  C   UNL     1       0.759  14.018   5.720  1.00  0.00     0.059 A 
ATOM     84  C   UNL     1      -1.255  13.388   4.517  1.00  0.00     0.059 A 
ATOM     85  F   UNL     1      -2.055  11.190   4.665  1.00  0.00    -0.206 F 
ATOM     86  C   UNL     1      -0.308  14.344   4.880  1.00  0.00     0.060 A 
BRANCH  86  87
ATOM     87  S   UNL     1      -0.421  16.028   4.241  1.00  0.00     0.124 S 
ATOM     88  O   UNL     1      -0.815  16.768   5.434  1.00  0.00    -0.237 OA
ATOM     89  O   UNL     1       0.937  16.265   3.760  1.00  0.00    -0.237 OA
ATOM     90  O   UNL     1      -1.438  15.924   3.198  1.00  0.00    -0.744 OA
ENDBRANCH  86  87
ENDBRANCH  54  79
BRANCH  66  91
ATOM     91  C   UNL     1      -0.579   8.770  12.159  1.00  0.00     0.058 A 
ATOM     92  C   UNL     1      -1.891   9.115  12.519  1.00  0.00     0.135 A 
ATOM     93  C   UNL     1       0.415   8.847  13.149  1.00  0.00     0.135 A 
ATOM     94  F   UNL     1      -2.875   9.072  11.607  1.00  0.00    -0.206 F 
ATOM     95  C   UNL     1      -2.208   9.513  13.814  1.00  0.00     0.059 A 
ATOM     96  C   UNL     1       0.116   9.220  14.457  1.00  0.00     0.059 A 
ATOM     97  F   UNL     1       1.685   8.526  12.857  1.00  0.00    -0.206 F 
ATOM     98  C   UNL     1      -1.199   9.550  14.779  1.00  0.00     0.060 A 
BRANCH  98  99
ATOM     99  S   UNL     1      -1.644   9.992  16.473  1.00  0.00     0.124 S 
ATOM    100  O   UNL     1      -1.955  11.411  16.337  1.00  0.00    -0.237 OA
ATOM    101  O   UNL     1      -2.783   9.116  16.733  1.00  0.00    -0.237 OA
ATOM    102  O   UNL     1      -0.437   9.685  17.235  1.00  0.00    -0.744 OA
ENDBRANCH  98  99
ENDBRANCH  66  91
ENDBRANCH  40  41
ENDBRANCH  33  35
ENDBRANCH  32  33
ENDBRANCH  31  32
ENDBRANCH  30  31
ENDBRANCH  29  30
ENDBRANCH  28  29
ENDBRANCH   1  28
TORSDOF 24
