REMARK SMILES Cc1ccc(C(=O)OCCOCCOCCOC(=O)c2ccc(-c3c4nc(c(-c5c(F)cc(S(=O)(=O)[O-])cc5F)c5ccc([nH]5)c(-c5c(F)cc(S(=O)(=O)[O-])cc5F)c5nc(c(-c6c(F)cc(S(=O)(=O)[O-])cc6F)c6ccc3[nH]6)C=C5)C=C4)cc2)c2c1N[C@H](c1ccccc1F)[C@H]1CC=C[C@@H]21
REMARK SMILES IDX 13 1 12 2 11 3 10 4 9 5 8 6 6 7 7 8 5 9 1 10 2 11 3 12 87 13
REMARK SMILES IDX 4 14 86 15 88 16 101 17 89 18 97 20 100 21 98 22 99 23 90 24
REMARK SMILES IDX 91 25 95 26 92 27 94 28 96 29 93 30 14 31 15 32 16 33 17 34
REMARK SMILES IDX 18 35 19 36 20 37 21 38 85 39 22 40 84 41 23 42 24 43 25 44
REMARK SMILES IDX 78 45 26 46 83 47 77 48 79 49 27 50 82 51 76 52 75 53 28 55
REMARK SMILES IDX 62 56 41 57 61 58 42 59 45 60 60 61 80 62 43 63 44 64 59 66
REMARK SMILES IDX 81 67 46 68 29 69 30 70 39 71 31 72 32 73 38 74 40 75 33 76
REMARK SMILES IDX 34 77 35 78 36 79 37 80 63 81 64 82 73 83 65 84 66 85 72 86
REMARK SMILES IDX 74 87 67 88 68 89 69 90 70 91 71 92 47 93 48 94 57 95 49 96
REMARK SMILES IDX 50 97 56 98 58 99 51 100 52 101 53 102 54 103 55 104
REMARK H PARENT 88 19 79 54 45 65
REMARK Flexibility Score: inf
ROOT
ATOM      1  C   UNL     1      -0.624   4.734   4.123  1.00  0.00     0.188 C 
ENDROOT
BRANCH   1   2
ATOM      2  C   UNL     1      -0.225   6.165   3.710  1.00  0.00     0.188 C 
BRANCH   2   3
ATOM      3  O   UNL     1      -1.282   7.115   3.767  1.00  0.00    -0.376 OA
BRANCH   3   4
ATOM      4  C   UNL     1      -1.750   7.578   2.506  1.00  0.00     0.202 C 
BRANCH   4   5
ATOM      5  C   UNL     1      -2.660   6.569   1.807  1.00  0.00     0.261 C 
BRANCH   5   6
ATOM      6  O   UNL     1      -1.997   5.329   1.506  1.00  0.00    -0.460 OA
BRANCH   6   7
ATOM      7  C   UNL     1      -1.183   5.313   0.423  1.00  0.00     0.338 C 
ATOM      8  O   UNL     1      -1.006   6.243  -0.341  1.00  0.00    -0.246 OA
BRANCH   7   9
ATOM      9  C   UNL     1      -0.549   3.965   0.342  1.00  0.00     0.065 A 
ATOM     10  C   UNL     1       0.881  -0.100   0.097  1.00  0.00     0.046 C 
ATOM     11  C   UNL     1       0.453   1.339   0.241  1.00  0.00    -0.028 A 
ATOM     12  C   UNL     1      -0.924   1.574   0.367  1.00  0.00     0.006 A 
ATOM     13  C   UNL     1       1.352   2.429   0.185  1.00  0.00     0.042 A 
ATOM     14  C   UNL     1      -1.421   2.870   0.416  1.00  0.00     0.016 A 
ATOM     15  C   UNL     1       0.850   3.760   0.238  1.00  0.00    -0.003 A 
ATOM     16  N   UNL     1       2.713   2.204   0.042  1.00  0.00    -0.377 N 
ATOM     17  C   UNL     1       1.832   4.912   0.349  1.00  0.00     0.050 C 
ATOM     18  C   UNL     1       3.605   3.278  -0.374  1.00  0.00     0.117 C 
ATOM     19  H   UNL     1       3.081   1.309   0.225  1.00  0.00     0.161 HD
ATOM     20  C   UNL     1       3.318   4.503   0.512  1.00  0.00     0.031 C 
ATOM     21  C   UNL     1       1.921   5.869  -0.805  1.00  0.00    -0.023 C 
ATOM     22  C   UNL     1       4.090   5.755   0.064  1.00  0.00     0.034 C 
ATOM     23  C   UNL     1       3.159   6.363  -0.932  1.00  0.00    -0.030 C 
BRANCH  18  24
ATOM     24  C   UNL     1       5.028   2.747  -0.437  1.00  0.00     0.010 A 
ATOM     25  C   UNL     1       5.391   1.933  -1.530  1.00  0.00     0.009 A 
ATOM     26  C   UNL     1       6.021   3.043   0.503  1.00  0.00     0.128 A 
ATOM     27  C   UNL     1       6.704   1.485  -1.694  1.00  0.00     0.001 A 
ATOM     28  C   UNL     1       7.336   2.609   0.339  1.00  0.00     0.039 A 
ATOM     29  F   UNL     1       5.739   3.778   1.587  1.00  0.00    -0.207 F 
ATOM     30  C   UNL     1       7.681   1.835  -0.766  1.00  0.00     0.003 A 
ENDBRANCH  18  24
ENDBRANCH   7   9
ENDBRANCH   6   7
ENDBRANCH   5   6
ENDBRANCH   4   5
ENDBRANCH   3   4
ENDBRANCH   2   3
ENDBRANCH   1   2
BRANCH   1  31
ATOM     31  O   UNL     1      -1.764   4.527   4.948  1.00  0.00    -0.376 OA
BRANCH  31  32
ATOM     32  C   UNL     1      -2.004   5.431   6.016  1.00  0.00     0.202 C 
BRANCH  32  33
ATOM     33  C   UNL     1      -0.960   5.508   7.136  1.00  0.00     0.261 C 
BRANCH  33  34
ATOM     34  O   UNL     1       0.367   5.829   6.683  1.00  0.00    -0.460 OA
BRANCH  34  35
ATOM     35  C   UNL     1       1.297   4.862   6.878  1.00  0.00     0.338 C 
ATOM     36  O   UNL     1       1.138   3.782   7.420  1.00  0.00    -0.246 OA
BRANCH  35  37
ATOM     37  C   UNL     1       2.559   5.234   6.209  1.00  0.00     0.060 A 
ATOM     38  C   UNL     1       2.982   4.469   5.115  1.00  0.00     0.016 A 
ATOM     39  C   UNL     1       3.376   6.242   6.726  1.00  0.00     0.016 A 
ATOM     40  C   UNL     1       4.234   4.698   4.547  1.00  0.00     0.010 A 
ATOM     41  C   UNL     1       4.646   6.449   6.173  1.00  0.00     0.010 A 
ATOM     42  C   UNL     1       5.091   5.659   5.099  1.00  0.00    -0.014 A 
BRANCH  42  43
ATOM     43  C   UNL     1       6.510   5.685   4.666  1.00  0.00     0.031 A 
ATOM     44  C   UNL     1       7.476   4.737   5.324  1.00  0.00     0.074 A 
ATOM     45  C   UNL     1       6.923   6.490   3.671  1.00  0.00     0.049 A 
ATOM     46  N   UNL     1       8.759   4.591   5.121  1.00  0.00    -0.248 NA
ATOM     47  C   UNL     1       6.920   3.829   6.343  1.00  0.00     0.031 C 
ATOM     48  C   UNL     1       6.069   7.403   2.915  1.00  0.00     0.029 A 
ATOM     49  N   UNL     1       8.168   6.659   3.117  1.00  0.00    -0.354 N 
ATOM     50  C   UNL     1       9.163   3.576   5.981  1.00  0.00     0.074 A 
ATOM     51  C   UNL     1       7.994   3.145   6.713  1.00  0.00     0.031 C 
ATOM     52  C   UNL     1       6.814   8.030   1.987  1.00  0.00     0.029 A 
ATOM     53  C   UNL     1       8.204   7.596   2.111  1.00  0.00     0.049 A 
ATOM     54  H   UNL     1       8.961   6.157   3.413  1.00  0.00     0.167 HD
ATOM     55  C   UNL     1      10.400   3.055   6.148  1.00  0.00     0.037 A 
ATOM     56  C   UNL     1       9.246   8.064   1.393  1.00  0.00     0.037 A 
ATOM     57  C   UNL     1      11.568   3.501   5.438  1.00  0.00     0.049 A 
ATOM     58  C   UNL     1      10.631   7.531   1.667  1.00  0.00     0.074 A 
ATOM     59  C   UNL     1      12.872   3.055   5.565  1.00  0.00     0.029 A 
ATOM     60  N   UNL     1      11.577   4.499   4.476  1.00  0.00    -0.354 N 
ATOM     61  N   UNL     1      11.001   6.578   2.490  1.00  0.00    -0.248 NA
ATOM     62  C   UNL     1      11.744   8.149   0.930  1.00  0.00     0.031 C 
ATOM     63  C   UNL     1      13.676   3.811   4.708  1.00  0.00     0.029 A 
ATOM     64  C   UNL     1      12.866   4.696   4.015  1.00  0.00     0.049 A 
ATOM     65  H   UNL     1      10.783   4.994   4.168  1.00  0.00     0.167 HD
ATOM     66  C   UNL     1      12.383   6.477   2.360  1.00  0.00     0.074 A 
ATOM     67  C   UNL     1      12.783   7.448   1.365  1.00  0.00     0.031 C 
ATOM     68  C   UNL     1      13.245   5.660   3.013  1.00  0.00     0.037 A 
BRANCH  55  69
ATOM     69  C   UNL     1      10.568   1.961   7.159  1.00  0.00     0.058 A 
ATOM     70  C   UNL     1      10.177   0.643   6.882  1.00  0.00     0.135 A 
ATOM     71  C   UNL     1      11.198   2.218   8.387  1.00  0.00     0.135 A 
ATOM     72  F   UNL     1       9.549   0.352   5.732  1.00  0.00    -0.206 F 
ATOM     73  C   UNL     1      10.411  -0.387   7.787  1.00  0.00     0.059 A 
ATOM     74  C   UNL     1      11.459   1.201   9.299  1.00  0.00     0.059 A 
ATOM     75  F   UNL     1      11.581   3.466   8.701  1.00  0.00    -0.206 F 
ATOM     76  C   UNL     1      11.062  -0.099   8.989  1.00  0.00     0.060 A 
BRANCH  76  77
ATOM     77  S   UNL     1      11.407  -1.458  10.126  1.00  0.00     0.124 S 
ATOM     78  O   UNL     1      10.068  -1.788  10.604  1.00  0.00    -0.237 OA
ATOM     79  O   UNL     1      12.029  -2.445   9.249  1.00  0.00    -0.237 OA
ATOM     80  O   UNL     1      12.295  -0.857  11.117  1.00  0.00    -0.744 OA
ENDBRANCH  76  77
ENDBRANCH  55  69
BRANCH  56  81
ATOM     81  C   UNL     1       9.044   9.128   0.370  1.00  0.00     0.058 A 
ATOM     82  C   UNL     1       9.253   8.873  -0.994  1.00  0.00     0.135 A 
ATOM     83  C   UNL     1       8.685  10.434   0.742  1.00  0.00     0.135 A 
ATOM     84  F   UNL     1       9.614   7.646  -1.399  1.00  0.00    -0.206 F 
ATOM     85  C   UNL     1       9.139   9.878  -1.950  1.00  0.00     0.059 A 
ATOM     86  C   UNL     1       8.539  11.449  -0.199  1.00  0.00     0.059 A 
ATOM     87  F   UNL     1       8.470  10.731   2.032  1.00  0.00    -0.206 F 
ATOM     88  C   UNL     1       8.784  11.165  -1.541  1.00  0.00     0.060 A 
BRANCH  88  89
ATOM     89  S   UNL     1       8.626  12.461  -2.789  1.00  0.00     0.124 S 
ATOM     90  O   UNL     1      10.022  12.728  -3.113  1.00  0.00    -0.237 OA
ATOM     91  O   UNL     1       7.845  11.795  -3.827  1.00  0.00    -0.237 OA
ATOM     92  O   UNL     1       7.928  13.527  -2.077  1.00  0.00    -0.744 OA
ENDBRANCH  88  89
ENDBRANCH  56  81
BRANCH  68  93
ATOM     93  C   UNL     1      14.705   5.757   2.668  1.00  0.00     0.058 A 
ATOM     94  C   UNL     1      15.494   6.827   3.116  1.00  0.00     0.135 A 
ATOM     95  C   UNL     1      15.339   4.724   1.959  1.00  0.00     0.135 A 
ATOM     96  F   UNL     1      14.934   7.841   3.794  1.00  0.00    -0.206 F 
ATOM     97  C   UNL     1      16.862   6.874   2.867  1.00  0.00     0.059 A 
ATOM     98  C   UNL     1      16.710   4.738   1.719  1.00  0.00     0.059 A 
ATOM     99  F   UNL     1      14.630   3.672   1.518  1.00  0.00    -0.206 F 
ATOM    100  C   UNL     1      17.462   5.821   2.173  1.00  0.00     0.060 A 
BRANCH 100 101
ATOM    101  S   UNL     1      19.247   5.869   1.906  1.00  0.00     0.124 S 
ATOM    102  O   UNL     1      19.365   6.905   0.886  1.00  0.00    -0.237 OA
ATOM    103  O   UNL     1      19.751   6.222   3.230  1.00  0.00    -0.237 OA
ATOM    104  O   UNL     1      19.561   4.513   1.464  1.00  0.00    -0.744 OA
ENDBRANCH 100 101
ENDBRANCH  68  93
ENDBRANCH  42  43
ENDBRANCH  35  37
ENDBRANCH  34  35
ENDBRANCH  33  34
ENDBRANCH  32  33
ENDBRANCH  31  32
ENDBRANCH   1  31
TORSDOF 21
