REMARK SMILES CC(=O)N1CCN(c2c(Cl)cccc2[C@@H]2C[C@H](C(=O)OCCOCCOCCOC(=O)c3ccc(-c4c5nc(c(-c6c(F)cc(S(=O)(=O)[O-])cc6F)c6ccc([nH]6)c(-c6c(F)cc(S(=O)(=O)[O-])cc6F)c6nc(c(-c7c(F)cc(S(=O)(=O)[O-])cc7F)c7ccc4[nH]7)C=C6)C=C5)cc3)CC2=O)CC1
REMARK SMILES IDX 25 1 24 2 23 3 22 4 21 5 20 6 18 7 19 8 17 9 15 10 16 11
REMARK SMILES IDX 99 12 98 13 100 14 14 15 8 16 9 17 10 18 11 19 13 20 12 21
REMARK SMILES IDX 7 22 1 23 2 24 3 25 4 26 5 27 102 28 6 29 101 30 26 31 27 32
REMARK SMILES IDX 28 33 29 34 30 35 31 36 32 37 33 38 97 39 34 40 96 41 35 42
REMARK SMILES IDX 36 43 37 44 90 45 38 46 95 47 89 48 91 49 39 50 94 51 88 52
REMARK SMILES IDX 87 53 40 55 74 56 53 57 73 58 54 59 57 60 72 61 92 62 55 63
REMARK SMILES IDX 56 64 71 66 93 67 58 68 41 69 42 70 51 71 43 72 44 73 50 74
REMARK SMILES IDX 52 75 45 76 46 77 47 78 48 79 49 80 75 81 76 82 85 83 77 84
REMARK SMILES IDX 78 85 84 86 86 87 79 88 80 89 81 90 82 91 83 92 59 93 60 94
REMARK SMILES IDX 69 95 61 96 62 97 68 98 70 99 63 100 64 101 65 102 66 103
REMARK SMILES IDX 67 104
REMARK H PARENT 91 54 57 65
REMARK Flexibility Score: inf
ROOT
ATOM      1  C   UNL     1      -2.696  -4.601  -2.315  1.00  0.00     0.188 C 
ENDROOT
BRANCH   1   2
ATOM      2  C   UNL     1      -3.370  -5.923  -1.856  1.00  0.00     0.188 C 
BRANCH   2   3
ATOM      3  O   UNL     1      -4.751  -5.917  -1.515  1.00  0.00    -0.376 OA
BRANCH   3   4
ATOM      4  C   UNL     1      -5.256  -4.825  -0.763  1.00  0.00     0.202 C 
BRANCH   4   5
ATOM      5  C   UNL     1      -4.535  -4.411   0.531  1.00  0.00     0.261 C 
BRANCH   5   6
ATOM      6  O   UNL     1      -3.092  -4.475   0.479  1.00  0.00    -0.463 OA
BRANCH   6   7
ATOM      7  C   UNL     1      -2.487  -5.112   1.510  1.00  0.00     0.309 C 
ATOM      8  O   UNL     1      -3.084  -5.480   2.516  1.00  0.00    -0.252 OA
BRANCH   7   9
ATOM      9  C   UNL     1      -0.965  -5.248   1.361  1.00  0.00     0.107 C 
ATOM     10  C   UNL     1       0.561  -7.250   1.461  1.00  0.00     0.089 C 
ATOM     11  C   UNL     1      -0.527  -6.453   2.196  1.00  0.00     0.032 C 
ATOM     12  C   UNL     1       0.634  -6.578   0.126  1.00  0.00     0.141 C 
ATOM     13  C   UNL     1      -0.356  -5.464  -0.018  1.00  0.00     0.091 C 
ATOM     14  O   UNL     1       1.386  -6.902  -0.787  1.00  0.00    -0.299 OA
BRANCH  10  15
ATOM     15  C   UNL     1       0.144  -8.712   1.466  1.00  0.00    -0.013 A 
ATOM     16  C   UNL     1       0.611  -9.597   2.475  1.00  0.00     0.060 A 
ATOM     17  C   UNL     1       0.001 -10.874   2.570  1.00  0.00     0.064 A 
ATOM     18  Cl  UNL     1       0.421 -12.002   3.817  1.00  0.00    -0.082 Cl
ATOM     19  C   UNL     1      -1.052 -11.242   1.734  1.00  0.00     0.023 A 
ATOM     20  C   UNL     1      -0.882  -9.130   0.593  1.00  0.00     0.007 A 
ATOM     21  C   UNL     1      -1.500 -10.363   0.759  1.00  0.00     0.002 A 
BRANCH  16  22
ATOM     22  N   UNL     1       1.573  -9.190   3.387  1.00  0.00    -0.367 N 
ATOM     23  C   UNL     1       5.497  -8.746   6.320  1.00  0.00     0.114 C 
ATOM     24  C   UNL     1       4.068  -8.300   6.466  1.00  0.00     0.219 C 
ATOM     25  O   UNL     1       3.799  -7.323   7.168  1.00  0.00    -0.275 OA
ATOM     26  N   UNL     1       3.112  -8.994   5.756  1.00  0.00    -0.339 N 
ATOM     27  C   UNL     1       1.726  -8.528   5.768  1.00  0.00     0.141 C 
ATOM     28  C   UNL     1       3.340 -10.136   4.854  1.00  0.00     0.141 C 
ATOM     29  C   UNL     1       1.288  -8.129   4.358  1.00  0.00     0.138 C 
ATOM     30  C   UNL     1       2.899  -9.819   3.407  1.00  0.00     0.138 C 
ENDBRANCH  16  22
ENDBRANCH  10  15
ENDBRANCH   7   9
ENDBRANCH   6   7
ENDBRANCH   5   6
ENDBRANCH   4   5
ENDBRANCH   3   4
ENDBRANCH   2   3
ENDBRANCH   1   2
BRANCH   1  31
ATOM     31  O   UNL     1      -3.632  -3.604  -2.639  1.00  0.00    -0.376 OA
BRANCH  31  32
ATOM     32  C   UNL     1      -3.873  -3.298  -3.990  1.00  0.00     0.202 C 
BRANCH  32  33
ATOM     33  C   UNL     1      -3.908  -4.362  -5.103  1.00  0.00     0.261 C 
BRANCH  33  34
ATOM     34  O   UNL     1      -3.400  -5.677  -4.835  1.00  0.00    -0.460 OA
BRANCH  34  35
ATOM     35  C   UNL     1      -2.124  -5.931  -5.207  1.00  0.00     0.338 C 
ATOM     36  O   UNL     1      -1.321  -5.110  -5.645  1.00  0.00    -0.246 OA
BRANCH  35  37
ATOM     37  C   UNL     1      -1.774  -7.332  -4.887  1.00  0.00     0.060 A 
ATOM     38  C   UNL     1      -0.740  -7.600  -3.979  1.00  0.00     0.016 A 
ATOM     39  C   UNL     1      -2.425  -8.385  -5.534  1.00  0.00     0.016 A 
ATOM     40  C   UNL     1      -0.334  -8.921  -3.744  1.00  0.00     0.010 A 
ATOM     41  C   UNL     1      -2.002  -9.703  -5.313  1.00  0.00     0.010 A 
ATOM     42  C   UNL     1      -0.935  -9.981  -4.441  1.00  0.00    -0.014 A 
BRANCH  42  43
ATOM     43  C   UNL     1      -0.372 -11.360  -4.373  1.00  0.00     0.031 A 
ATOM     44  C   UNL     1       0.554 -11.827  -5.460  1.00  0.00     0.074 A 
ATOM     45  C   UNL     1      -0.706 -12.210  -3.383  1.00  0.00     0.049 A 
ATOM     46  N   UNL     1       1.078 -13.010  -5.646  1.00  0.00    -0.248 NA
ATOM     47  C   UNL     1       0.913 -10.838  -6.489  1.00  0.00     0.031 C 
ATOM     48  C   UNL     1      -1.620 -11.892  -2.296  1.00  0.00     0.029 A 
ATOM     49  N   UNL     1      -0.331 -13.510  -3.134  1.00  0.00    -0.354 N 
ATOM     50  C   UNL     1       1.800 -12.922  -6.829  1.00  0.00     0.074 A 
ATOM     51  C   UNL     1       1.645 -11.569  -7.319  1.00  0.00     0.031 C 
ATOM     52  C   UNL     1      -1.716 -12.955  -1.479  1.00  0.00     0.029 A 
ATOM     53  C   UNL     1      -0.902 -14.047  -2.002  1.00  0.00     0.049 A 
ATOM     54  H   UNL     1       0.290 -14.010  -3.712  1.00  0.00     0.167 HD
ATOM     55  C   UNL     1       2.515 -13.887  -7.455  1.00  0.00     0.037 A 
ATOM     56  C   UNL     1      -0.805 -15.278  -1.458  1.00  0.00     0.037 A 
ATOM     57  C   UNL     1       2.672 -15.232  -6.963  1.00  0.00     0.049 A 
ATOM     58  C   UNL     1       0.009 -16.329  -2.171  1.00  0.00     0.074 A 
ATOM     59  C   UNL     1       3.397 -16.270  -7.525  1.00  0.00     0.029 A 
ATOM     60  N   UNL     1       2.097 -15.731  -5.804  1.00  0.00    -0.354 N 
ATOM     61  N   UNL     1       0.705 -16.221  -3.278  1.00  0.00    -0.248 NA
ATOM     62  C   UNL     1       0.030 -17.677  -1.581  1.00  0.00     0.031 C 
ATOM     63  C   UNL     1       3.217 -17.409  -6.735  1.00  0.00     0.029 A 
ATOM     64  C   UNL     1       2.434 -17.067  -5.646  1.00  0.00     0.049 A 
ATOM     65  H   UNL     1       1.534 -15.213  -5.184  1.00  0.00     0.167 HD
ATOM     66  C   UNL     1       1.254 -17.480  -3.508  1.00  0.00     0.074 A 
ATOM     67  C   UNL     1       0.835 -18.326  -2.411  1.00  0.00     0.031 C 
ATOM     68  C   UNL     1       2.023 -17.899  -4.542  1.00  0.00     0.037 A 
BRANCH  55  69
ATOM     69  C   UNL     1       3.159 -13.540  -8.767  1.00  0.00     0.058 A 
ATOM     70  C   UNL     1       4.283 -12.704  -8.844  1.00  0.00     0.135 A 
ATOM     71  C   UNL     1       2.679 -14.106  -9.960  1.00  0.00     0.135 A 
ATOM     72  F   UNL     1       4.768 -12.120  -7.737  1.00  0.00    -0.206 F 
ATOM     73  C   UNL     1       4.905 -12.435 -10.058  1.00  0.00     0.059 A 
ATOM     74  C   UNL     1       3.303 -13.874 -11.182  1.00  0.00     0.059 A 
ATOM     75  F   UNL     1       1.602 -14.907  -9.943  1.00  0.00    -0.206 F 
ATOM     76  C   UNL     1       4.412 -13.031 -11.221  1.00  0.00     0.060 A 
BRANCH  76  77
ATOM     77  S   UNL     1       5.256 -12.703 -12.782  1.00  0.00     0.124 S 
ATOM     78  O   UNL     1       4.898 -11.308 -13.020  1.00  0.00    -0.237 OA
ATOM     79  O   UNL     1       6.653 -12.948 -12.436  1.00  0.00    -0.237 OA
ATOM     80  O   UNL     1       4.662 -13.668 -13.701  1.00  0.00    -0.744 OA
ENDBRANCH  76  77
ENDBRANCH  55  69
BRANCH  56  81
ATOM     81  C   UNL     1      -1.517 -15.617  -0.189  1.00  0.00     0.058 A 
ATOM     82  C   UNL     1      -0.807 -15.970   0.972  1.00  0.00     0.135 A 
ATOM     83  C   UNL     1      -2.919 -15.642  -0.118  1.00  0.00     0.135 A 
ATOM     84  F   UNL     1       0.535 -15.979   0.959  1.00  0.00    -0.206 F 
ATOM     85  C   UNL     1      -1.457 -16.365   2.139  1.00  0.00     0.059 A 
ATOM     86  C   UNL     1      -3.592 -15.997   1.047  1.00  0.00     0.059 A 
ATOM     87  F   UNL     1      -3.654 -15.305  -1.190  1.00  0.00    -0.206 F 
ATOM     88  C   UNL     1      -2.852 -16.378   2.165  1.00  0.00     0.060 A 
BRANCH  88  89
ATOM     89  S   UNL     1      -3.693 -16.885   3.681  1.00  0.00     0.124 S 
ATOM     90  O   UNL     1      -3.491 -18.329   3.660  1.00  0.00    -0.237 OA
ATOM     91  O   UNL     1      -2.955 -16.151   4.704  1.00  0.00    -0.237 OA
ATOM     92  O   UNL     1      -5.066 -16.436   3.466  1.00  0.00    -0.744 OA
ENDBRANCH  88  89
ENDBRANCH  56  81
BRANCH  68  93
ATOM     93  C   UNL     1       2.500 -19.327  -4.525  1.00  0.00     0.058 A 
ATOM     94  C   UNL     1       1.629 -20.404  -4.755  1.00  0.00     0.135 A 
ATOM     95  C   UNL     1       3.860 -19.618  -4.329  1.00  0.00     0.135 A 
ATOM     96  F   UNL     1       0.317 -20.184  -4.943  1.00  0.00    -0.206 F 
ATOM     97  C   UNL     1       2.084 -21.719  -4.768  1.00  0.00     0.059 A 
ATOM     98  C   UNL     1       4.343 -20.922  -4.368  1.00  0.00     0.059 A 
ATOM     99  F   UNL     1       4.739 -18.626  -4.115  1.00  0.00    -0.206 F 
ATOM    100  C   UNL     1       3.445 -21.968  -4.577  1.00  0.00     0.060 A 
BRANCH 100 101
ATOM    101  S   UNL     1       4.029 -23.675  -4.630  1.00  0.00     0.124 S 
ATOM    102  O   UNL     1       3.515 -24.202  -3.370  1.00  0.00    -0.237 OA
ATOM    103  O   UNL     1       3.389 -24.186  -5.839  1.00  0.00    -0.237 OA
ATOM    104  O   UNL     1       5.480 -23.537  -4.707  1.00  0.00    -0.744 OA
ENDBRANCH 100 101
ENDBRANCH  68  93
ENDBRANCH  42  43
ENDBRANCH  35  37
ENDBRANCH  34  35
ENDBRANCH  33  34
ENDBRANCH  32  33
ENDBRANCH  31  32
ENDBRANCH   1  31
TORSDOF 22
