REMARK SMILES CC(C)[C@H]([NH2+]Cc1ccc(N(C)C)cc1)C(=O)OCCOCCOCCOC(=O)c1ccc(-c2c3nc(c(-c4c(F)cc(S(=O)(=O)[O-])cc4F)c4ccc([nH]4)c(-c4c(F)cc(S(=O)(=O)[O-])cc4F)c4nc(c(-c5c(F)cc(S(=O)(=O)[O-])cc5F)c5ccc2[nH]5)C=C4)C=C3)cc1
REMARK SMILES IDX 22 1 21 2 20 3 19 4 18 5 16 6 17 7 4 8 2 9 1 10 3 11 5 12
REMARK SMILES IDX 6 15 7 16 8 17 15 18 9 19 14 20 10 21 11 22 12 23 13 24
REMARK SMILES IDX 23 25 24 26 25 27 26 28 27 29 28 30 29 31 30 32 31 33 95 34
REMARK SMILES IDX 32 35 94 36 33 37 34 38 35 39 88 40 36 41 93 42 87 43 89 44
REMARK SMILES IDX 37 45 92 46 86 47 85 48 38 50 72 51 51 52 71 53 52 54 55 55
REMARK SMILES IDX 70 56 90 57 53 58 54 59 69 61 91 62 56 63 39 64 40 65 49 66
REMARK SMILES IDX 41 67 42 68 48 69 50 70 43 71 44 72 45 73 46 74 47 75 73 76
REMARK SMILES IDX 74 77 83 78 75 79 76 80 82 81 84 82 77 83 78 84 79 85 80 86
REMARK SMILES IDX 81 87 57 88 58 89 67 90 59 91 60 92 66 93 68 94 61 95 62 96
REMARK SMILES IDX 63 97 64 98 65 99
REMARK H PARENT 5 13 5 14 89 49 55 60
REMARK Flexibility Score: inf
ROOT
ATOM      1  C   UNL     1      -1.125  -4.011   2.456  1.00  0.00     0.188 C 
ENDROOT
BRANCH   1   2
ATOM      2  O   UNL     1      -1.928  -5.165   2.235  1.00  0.00    -0.376 OA
BRANCH   2   3
ATOM      3  C   UNL     1      -1.998  -5.734   0.935  1.00  0.00     0.202 C 
BRANCH   3   4
ATOM      4  C   UNL     1      -2.353  -4.851  -0.273  1.00  0.00     0.261 C 
BRANCH   4   5
ATOM      5  O   UNL     1      -1.577  -3.651  -0.452  1.00  0.00    -0.459 OA
BRANCH   5   6
ATOM      6  C   UNL     1      -2.221  -2.482  -0.171  1.00  0.00     0.365 C 
ATOM      7  O   UNL     1      -3.383  -2.425   0.222  1.00  0.00    -0.245 OA
BRANCH   6   8
ATOM      8  C   UNL     1      -1.391  -1.202  -0.460  1.00  0.00     0.296 C 
BRANCH   8   9
ATOM      9  C   UNL     1      -1.880  -0.550  -1.775  1.00  0.00     0.053 C 
ATOM     10  C   UNL     1      -2.017  -1.550  -2.927  1.00  0.00     0.014 C 
ATOM     11  C   UNL     1      -3.193   0.205  -1.548  1.00  0.00     0.014 C 
ENDBRANCH   8   9
BRANCH   8  12
ATOM     12  N   UNL     1       0.077  -1.434  -0.460  1.00  0.00    -0.331 N 
ATOM     13  H   UNL     1       0.346  -1.822  -1.365  1.00  0.00     0.347 HD
ATOM     14  H   UNL     1       0.287  -2.076   0.304  1.00  0.00     0.347 HD
BRANCH  12  15
ATOM     15  C   UNL     1       0.846  -0.207  -0.230  1.00  0.00     0.298 C 
BRANCH  15  16
ATOM     16  C   UNL     1       2.336  -0.442  -0.109  1.00  0.00     0.006 A 
ATOM     17  C   UNL     1       3.078  -0.978  -1.162  1.00  0.00     0.012 A 
ATOM     18  C   UNL     1       3.037  -0.040   1.030  1.00  0.00     0.012 A 
ATOM     19  C   UNL     1       4.476  -1.117  -1.070  1.00  0.00     0.026 A 
ATOM     20  C   UNL     1       4.435  -0.184   1.109  1.00  0.00     0.026 A 
ATOM     21  C   UNL     1       5.206  -0.730   0.066  1.00  0.00     0.036 A 
BRANCH  21  22
ATOM     22  N   UNL     1       6.585  -0.865   0.163  1.00  0.00    -0.378 N 
ATOM     23  C   UNL     1       7.424  -1.490  -0.851  1.00  0.00     0.143 C 
ATOM     24  C   UNL     1       7.295  -0.402   1.355  1.00  0.00     0.143 C 
ENDBRANCH  21  22
ENDBRANCH  15  16
ENDBRANCH  12  15
ENDBRANCH   8  12
ENDBRANCH   6   8
ENDBRANCH   5   6
ENDBRANCH   4   5
ENDBRANCH   3   4
ENDBRANCH   2   3
ENDBRANCH   1   2
BRANCH   1  25
ATOM     25  C   UNL     1       0.263  -3.915   1.794  1.00  0.00     0.188 C 
BRANCH  25  26
ATOM     26  O   UNL     1       0.617  -5.050   1.035  1.00  0.00    -0.376 OA
BRANCH  26  27
ATOM     27  C   UNL     1       1.641  -5.878   1.550  1.00  0.00     0.202 C 
BRANCH  27  28
ATOM     28  C   UNL     1       1.571  -6.371   3.010  1.00  0.00     0.261 C 
BRANCH  28  29
ATOM     29  O   UNL     1       1.079  -5.446   3.996  1.00  0.00    -0.460 OA
BRANCH  29  30
ATOM     30  C   UNL     1       1.952  -4.546   4.497  1.00  0.00     0.338 C 
ATOM     31  O   UNL     1       3.142  -4.450   4.215  1.00  0.00    -0.246 OA
BRANCH  30  32
ATOM     32  C   UNL     1       1.203  -3.551   5.299  1.00  0.00     0.060 A 
ATOM     33  C   UNL     1       1.187  -2.214   4.876  1.00  0.00     0.016 A 
ATOM     34  C   UNL     1       0.533  -3.923   6.468  1.00  0.00     0.016 A 
ATOM     35  C   UNL     1       0.544  -1.241   5.645  1.00  0.00     0.010 A 
ATOM     36  C   UNL     1      -0.095  -2.942   7.247  1.00  0.00     0.010 A 
ATOM     37  C   UNL     1      -0.057  -1.589   6.863  1.00  0.00    -0.014 A 
BRANCH  37  38
ATOM     38  C   UNL     1      -0.457  -0.512   7.810  1.00  0.00     0.031 A 
ATOM     39  C   UNL     1       0.484  -0.158   8.934  1.00  0.00     0.074 A 
ATOM     40  C   UNL     1      -1.600   0.181   7.651  1.00  0.00     0.049 A 
ATOM     41  N   UNL     1       0.370   0.762   9.858  1.00  0.00    -0.248 NA
ATOM     42  C   UNL     1       1.722  -0.950   9.026  1.00  0.00     0.031 C 
ATOM     43  C   UNL     1      -2.584  -0.040   6.593  1.00  0.00     0.029 A 
ATOM     44  N   UNL     1      -2.124   1.218   8.386  1.00  0.00    -0.354 N 
ATOM     45  C   UNL     1       1.517   0.660  10.638  1.00  0.00     0.074 A 
ATOM     46  C   UNL     1       2.294  -0.437  10.104  1.00  0.00     0.031 C 
ATOM     47  C   UNL     1      -3.594   0.834   6.747  1.00  0.00     0.029 A 
ATOM     48  C   UNL     1      -3.342   1.661   7.927  1.00  0.00     0.049 A 
ATOM     49  H   UNL     1      -1.670   1.606   9.168  1.00  0.00     0.167 HD
ATOM     50  C   UNL     1       1.897   1.418  11.695  1.00  0.00     0.037 A 
ATOM     51  C   UNL     1      -4.163   2.619   8.408  1.00  0.00     0.037 A 
ATOM     52  C   UNL     1       1.121   2.507  12.231  1.00  0.00     0.049 A 
ATOM     53  C   UNL     1      -3.743   3.416   9.618  1.00  0.00     0.074 A 
ATOM     54  C   UNL     1       1.426   3.341  13.292  1.00  0.00     0.029 A 
ATOM     55  N   UNL     1      -0.119   2.907  11.755  1.00  0.00    -0.354 N 
ATOM     56  N   UNL     1      -2.643   3.327  10.329  1.00  0.00    -0.248 NA
ATOM     57  C   UNL     1      -4.672   4.457  10.083  1.00  0.00     0.031 C 
ATOM     58  C   UNL     1       0.348   4.211  13.491  1.00  0.00     0.029 A 
ATOM     59  C   UNL     1      -0.601   3.963  12.513  1.00  0.00     0.049 A 
ATOM     60  H   UNL     1      -0.588   2.501  10.990  1.00  0.00     0.167 HD
ATOM     61  C   UNL     1      -2.732   4.322  11.299  1.00  0.00     0.074 A 
ATOM     62  C   UNL     1      -3.988   5.008  11.076  1.00  0.00     0.031 C 
ATOM     63  C   UNL     1      -1.852   4.643  12.281  1.00  0.00     0.037 A 
BRANCH  50  64
ATOM     64  C   UNL     1       3.205   1.078  12.360  1.00  0.00     0.058 A 
ATOM     65  C   UNL     1       4.440   1.306  11.730  1.00  0.00     0.135 A 
ATOM     66  C   UNL     1       3.225   0.542  13.659  1.00  0.00     0.135 A 
ATOM     67  F   UNL     1       4.482   1.798  10.482  1.00  0.00    -0.206 F 
ATOM     68  C   UNL     1       5.644   0.988  12.351  1.00  0.00     0.059 A 
ATOM     69  C   UNL     1       4.419   0.246  14.311  1.00  0.00     0.059 A 
ATOM     70  F   UNL     1       2.075   0.302  14.308  1.00  0.00    -0.206 F 
ATOM     71  C   UNL     1       5.623   0.459  13.643  1.00  0.00     0.060 A 
BRANCH  71  72
ATOM     72  S   UNL     1       7.194   0.059  14.436  1.00  0.00     0.124 S 
ATOM     73  O   UNL     1       7.612  -1.118  13.679  1.00  0.00    -0.237 OA
ATOM     74  O   UNL     1       7.976   1.269  14.207  1.00  0.00    -0.237 OA
ATOM     75  O   UNL     1       6.821  -0.190  15.825  1.00  0.00    -0.744 OA
ENDBRANCH  71  72
ENDBRANCH  50  64
BRANCH  51  76
ATOM     76  C   UNL     1      -5.467   2.888   7.740  1.00  0.00     0.058 A 
ATOM     77  C   UNL     1      -5.702   4.091   7.057  1.00  0.00     0.135 A 
ATOM     78  C   UNL     1      -6.510   1.949   7.782  1.00  0.00     0.135 A 
ATOM     79  F   UNL     1      -4.744   5.028   7.000  1.00  0.00    -0.206 F 
ATOM     80  C   UNL     1      -6.927   4.361   6.453  1.00  0.00     0.059 A 
ATOM     81  C   UNL     1      -7.733   2.183   7.161  1.00  0.00     0.059 A 
ATOM     82  F   UNL     1      -6.337   0.780   8.419  1.00  0.00    -0.206 F 
ATOM     83  C   UNL     1      -7.936   3.398   6.507  1.00  0.00     0.060 A 
BRANCH  83  84
ATOM     84  S   UNL     1      -9.503   3.738   5.676  1.00  0.00     0.124 S 
ATOM     85  O   UNL     1     -10.085   4.751   6.548  1.00  0.00    -0.237 OA
ATOM     86  O   UNL     1      -9.058   4.203   4.365  1.00  0.00    -0.237 OA
ATOM     87  O   UNL     1     -10.173   2.441   5.678  1.00  0.00    -0.744 OA
ENDBRANCH  83  84
ENDBRANCH  51  76
BRANCH  63  88
ATOM     88  C   UNL     1      -2.188   5.823  13.158  1.00  0.00     0.058 A 
ATOM     89  C   UNL     1      -3.242   5.790  14.085  1.00  0.00     0.135 A 
ATOM     90  C   UNL     1      -1.428   7.003  13.078  1.00  0.00     0.135 A 
ATOM     91  F   UNL     1      -4.001   4.689  14.207  1.00  0.00    -0.206 F 
ATOM     92  C   UNL     1      -3.562   6.899  14.865  1.00  0.00     0.059 A 
ATOM     93  C   UNL     1      -1.708   8.111  13.872  1.00  0.00     0.059 A 
ATOM     94  F   UNL     1      -0.396   7.087  12.223  1.00  0.00    -0.206 F 
ATOM     95  C   UNL     1      -2.792   8.057  14.746  1.00  0.00     0.060 A 
BRANCH  95  96
ATOM     96  S   UNL     1      -3.224   9.493  15.752  1.00  0.00     0.124 S 
ATOM     97  O   UNL     1      -4.429   9.970  15.081  1.00  0.00    -0.237 OA
ATOM     98  O   UNL     1      -3.424   8.903  17.072  1.00  0.00    -0.237 OA
ATOM     99  O   UNL     1      -2.054  10.358  15.630  1.00  0.00    -0.744 OA
ENDBRANCH  95  96
ENDBRANCH  63  88
ENDBRANCH  37  38
ENDBRANCH  30  32
ENDBRANCH  29  30
ENDBRANCH  28  29
ENDBRANCH  27  28
ENDBRANCH  26  27
ENDBRANCH  25  26
ENDBRANCH   1  25
TORSDOF 25
