REMARK SMILES CCOc1ccc(-n2nnc(-c3nc(C)c(C(=O)OCCOCCOCCOC(=O)c4ccc(-c5c6nc(c(-c7c(F)cc(S(=O)(=O)[O-])cc7F)c7ccc([nH]7)c(-c7c(F)cc(S(=O)(=O)[O-])cc7F)c7nc(c(-c8c(F)cc(S(=O)(=O)[O-])cc8F)c8ccc5[nH]8)C=C7)C=C6)cc4)s3)c2C)cc1
REMARK SMILES IDX 23 1 22 2 21 3 20 4 19 5 17 6 18 7 16 8 12 9 13 10 97 11
REMARK SMILES IDX 14 12 15 13 11 14 8 15 9 16 98 17 10 18 99 19 7 20 4 21 5 22
REMARK SMILES IDX 101 23 6 24 100 25 3 26 2 27 1 28 24 29 25 30 26 31 27 32
REMARK SMILES IDX 28 33 29 34 30 35 31 36 32 37 96 38 33 39 95 40 34 41 35 42
REMARK SMILES IDX 36 43 89 44 37 45 94 46 88 47 90 48 38 49 93 50 87 51 86 52
REMARK SMILES IDX 39 54 73 55 52 56 72 57 53 58 56 59 71 60 91 61 54 62 55 63
REMARK SMILES IDX 70 65 92 66 57 67 40 68 41 69 50 70 42 71 43 72 49 73 51 74
REMARK SMILES IDX 44 75 45 76 46 77 47 78 48 79 74 80 75 81 84 82 76 83 77 84
REMARK SMILES IDX 83 85 85 86 78 87 79 88 80 89 81 90 82 91 58 92 59 93 68 94
REMARK SMILES IDX 60 95 61 96 67 97 69 98 62 99 63 100 64 101 65 102 66 103
REMARK H PARENT 90 53 56 64
REMARK Flexibility Score: inf
ROOT
ATOM      1  C   UNL     1      12.557   3.485  -7.860  1.00  0.00     0.188 C 
ENDROOT
BRANCH   1   2
ATOM      2  O   UNL     1      12.394   3.446  -9.273  1.00  0.00    -0.376 OA
BRANCH   2   3
ATOM      3  C   UNL     1      11.095   3.509  -9.851  1.00  0.00     0.202 C 
BRANCH   3   4
ATOM      4  C   UNL     1      10.040   2.473  -9.435  1.00  0.00     0.261 C 
BRANCH   4   5
ATOM      5  O   UNL     1       9.748   2.480  -8.034  1.00  0.00    -0.459 OA
BRANCH   5   6
ATOM      6  C   UNL     1      10.171   1.410  -7.295  1.00  0.00     0.350 C 
ATOM      7  O   UNL     1      10.637   0.386  -7.753  1.00  0.00    -0.245 OA
BRANCH   6   8
ATOM      8  C   UNL     1      10.087   1.732  -5.887  1.00  0.00     0.135 A 
ATOM      9  C   UNL     1       9.373   2.450  -3.691  1.00  0.00     0.146 A 
ATOM     10  N   UNL     1      10.540   1.853  -3.586  1.00  0.00    -0.239 NA
ATOM     11  S   UNL     1       8.836   2.726  -5.299  1.00  0.00    -0.105 S 
ATOM     12  C   UNL     1      10.943   1.399  -4.845  1.00  0.00     0.064 A 
ATOM     13  C   UNL     1      12.225   0.649  -4.939  1.00  0.00     0.068 C 
BRANCH   9  14
ATOM     14  C   UNL     1       8.451   2.724  -2.551  1.00  0.00     0.145 A 
ATOM     15  N   UNL     1       6.629   2.819  -1.379  1.00  0.00    -0.217 N 
ATOM     16  N   UNL     1       7.545   3.617  -0.787  1.00  0.00    -0.061 NA
ATOM     17  C   UNL     1       7.145   2.272  -2.536  1.00  0.00     0.072 A 
ATOM     18  N   UNL     1       8.701   3.466  -1.435  1.00  0.00    -0.127 NA
ATOM     19  C   UNL     1       6.407   1.458  -3.541  1.00  0.00     0.069 C 
BRANCH  15  20
ATOM     20  C   UNL     1       5.315   2.666  -0.900  1.00  0.00     0.067 A 
ATOM     21  C   UNL     1       2.581   2.354  -0.549  1.00  0.00     0.119 A 
ATOM     22  C   UNL     1       3.155   3.626  -0.455  1.00  0.00     0.048 A 
ATOM     23  C   UNL     1       3.378   1.238  -0.785  1.00  0.00     0.048 A 
ATOM     24  C   UNL     1       4.537   3.789  -0.610  1.00  0.00     0.032 A 
ATOM     25  C   UNL     1       4.749   1.387  -0.921  1.00  0.00     0.032 A 
BRANCH  21  26
ATOM     26  O   UNL     1       1.218   2.248  -0.546  1.00  0.00    -0.494 OA
BRANCH  26  27
ATOM     27  C   UNL     1       0.710   1.510   0.572  1.00  0.00     0.226 C 
ATOM     28  C   UNL     1       0.624   0.014   0.305  1.00  0.00     0.049 C 
ENDBRANCH  26  27
ENDBRANCH  21  26
ENDBRANCH  15  20
ENDBRANCH   9  14
ENDBRANCH   6   8
ENDBRANCH   5   6
ENDBRANCH   4   5
ENDBRANCH   3   4
ENDBRANCH   2   3
ENDBRANCH   1   2
BRANCH   1  29
ATOM     29  C   UNL     1      11.767   4.491  -6.997  1.00  0.00     0.188 C 
BRANCH  29  30
ATOM     30  O   UNL     1      10.688   5.122  -7.663  1.00  0.00    -0.376 OA
BRANCH  30  31
ATOM     31  C   UNL     1      10.759   6.539  -7.778  1.00  0.00     0.202 C 
BRANCH  31  32
ATOM     32  C   UNL     1      11.893   7.104  -8.634  1.00  0.00     0.261 C 
BRANCH  32  33
ATOM     33  O   UNL     1      13.171   6.527  -8.402  1.00  0.00    -0.460 OA
BRANCH  33  34
ATOM     34  C   UNL     1      13.781   6.896  -7.258  1.00  0.00     0.338 C 
ATOM     35  O   UNL     1      13.270   7.446  -6.299  1.00  0.00    -0.246 OA
BRANCH  34  36
ATOM     36  C   UNL     1      15.208   6.582  -7.384  1.00  0.00     0.060 A 
ATOM     37  C   UNL     1      15.988   6.632  -6.228  1.00  0.00     0.016 A 
ATOM     38  C   UNL     1      15.775   6.508  -8.666  1.00  0.00     0.016 A 
ATOM     39  C   UNL     1      17.346   6.818  -6.370  1.00  0.00     0.010 A 
ATOM     40  C   UNL     1      17.126   6.713  -8.805  1.00  0.00     0.010 A 
ATOM     41  C   UNL     1      17.876   6.952  -7.657  1.00  0.00    -0.014 A 
BRANCH  41  42
ATOM     42  C   UNL     1      19.256   7.366  -7.778  1.00  0.00     0.031 A 
ATOM     43  C   UNL     1      20.237   6.298  -7.515  1.00  0.00     0.074 A 
ATOM     44  C   UNL     1      19.587   8.601  -8.200  1.00  0.00     0.049 A 
ATOM     45  N   UNL     1      21.107   6.241  -6.564  1.00  0.00    -0.248 NA
ATOM     46  C   UNL     1      20.150   5.077  -8.331  1.00  0.00     0.031 C 
ATOM     47  C   UNL     1      18.698   9.624  -8.757  1.00  0.00     0.029 A 
ATOM     48  N   UNL     1      20.821   9.155  -8.337  1.00  0.00    -0.354 N 
ATOM     49  C   UNL     1      21.837   5.084  -6.802  1.00  0.00     0.074 A 
ATOM     50  C   UNL     1      21.092   4.321  -7.769  1.00  0.00     0.031 C 
ATOM     51  C   UNL     1      19.445  10.563  -9.377  1.00  0.00     0.029 A 
ATOM     52  C   UNL     1      20.853  10.260  -9.176  1.00  0.00     0.049 A 
ATOM     53  H   UNL     1      21.620   8.803  -7.882  1.00  0.00     0.167 HD
ATOM     54  C   UNL     1      23.128   4.970  -6.390  1.00  0.00     0.037 A 
ATOM     55  C   UNL     1      21.959  10.806  -9.744  1.00  0.00     0.037 A 
ATOM     56  C   UNL     1      23.443   5.921  -5.355  1.00  0.00     0.049 A 
ATOM     57  C   UNL     1      23.135  10.354  -8.950  1.00  0.00     0.074 A 
ATOM     58  C   UNL     1      22.887   6.226  -4.125  1.00  0.00     0.029 A 
ATOM     59  N   UNL     1      24.253   6.987  -5.670  1.00  0.00    -0.354 N 
ATOM     60  N   UNL     1      23.390  10.740  -7.729  1.00  0.00    -0.248 NA
ATOM     61  C   UNL     1      23.805   9.126  -9.361  1.00  0.00     0.031 C 
ATOM     62  C   UNL     1      23.003   7.640  -4.003  1.00  0.00     0.029 A 
ATOM     63  C   UNL     1      23.669   8.107  -5.136  1.00  0.00     0.049 A 
ATOM     64  H   UNL     1      25.093   6.952  -6.182  1.00  0.00     0.167 HD
ATOM     65  C   UNL     1      23.885   9.609  -7.094  1.00  0.00     0.074 A 
ATOM     66  C   UNL     1      24.215   8.681  -8.171  1.00  0.00     0.031 C 
ATOM     67  C   UNL     1      23.716   9.415  -5.752  1.00  0.00     0.037 A 
BRANCH  54  68
ATOM     68  C   UNL     1      24.186   4.263  -7.199  1.00  0.00     0.058 A 
ATOM     69  C   UNL     1      25.447   4.021  -6.620  1.00  0.00     0.135 A 
ATOM     70  C   UNL     1      24.110   4.081  -8.599  1.00  0.00     0.135 A 
ATOM     71  F   UNL     1      25.632   4.176  -5.299  1.00  0.00    -0.206 F 
ATOM     72  C   UNL     1      26.568   3.705  -7.386  1.00  0.00     0.059 A 
ATOM     73  C   UNL     1      25.198   3.705  -9.373  1.00  0.00     0.059 A 
ATOM     74  F   UNL     1      23.006   4.363  -9.303  1.00  0.00    -0.206 F 
ATOM     75  C   UNL     1      26.434   3.570  -8.766  1.00  0.00     0.060 A 
BRANCH  75  76
ATOM     76  S   UNL     1      27.897   3.301  -9.778  1.00  0.00     0.124 S 
ATOM     77  O   UNL     1      28.531   4.612  -9.717  1.00  0.00    -0.237 OA
ATOM     78  O   UNL     1      28.572   2.227  -9.058  1.00  0.00    -0.237 OA
ATOM     79  O   UNL     1      27.340   2.925 -11.074  1.00  0.00    -0.744 OA
ENDBRANCH  75  76
ENDBRANCH  54  68
BRANCH  55  80
ATOM     80  C   UNL     1      22.086  11.427 -11.092  1.00  0.00     0.058 A 
ATOM     81  C   UNL     1      23.262  12.099 -11.471  1.00  0.00     0.135 A 
ATOM     82  C   UNL     1      21.171  11.158 -12.132  1.00  0.00     0.135 A 
ATOM     83  F   UNL     1      24.204  12.380 -10.558  1.00  0.00    -0.206 F 
ATOM     84  C   UNL     1      23.537  12.436 -12.802  1.00  0.00     0.059 A 
ATOM     85  C   UNL     1      21.412  11.505 -13.460  1.00  0.00     0.059 A 
ATOM     86  F   UNL     1      20.047  10.460 -11.915  1.00  0.00    -0.206 F 
ATOM     87  C   UNL     1      22.611  12.117 -13.794  1.00  0.00     0.060 A 
BRANCH  87  88
ATOM     88  S   UNL     1      23.033  12.378 -15.531  1.00  0.00     0.124 S 
ATOM     89  O   UNL     1      22.997  13.832 -15.636  1.00  0.00    -0.237 OA
ATOM     90  O   UNL     1      24.353  11.763 -15.625  1.00  0.00    -0.237 OA
ATOM     91  O   UNL     1      21.971  11.675 -16.247  1.00  0.00    -0.744 OA
ENDBRANCH  87  88
ENDBRANCH  55  80
BRANCH  67  92
ATOM     92  C   UNL     1      23.304  10.581  -4.896  1.00  0.00     0.058 A 
ATOM     93  C   UNL     1      22.102  11.295  -5.045  1.00  0.00     0.135 A 
ATOM     94  C   UNL     1      24.096  10.889  -3.777  1.00  0.00     0.135 A 
ATOM     95  F   UNL     1      21.231  10.988  -6.017  1.00  0.00    -0.206 F 
ATOM     96  C   UNL     1      21.733  12.304  -4.153  1.00  0.00     0.059 A 
ATOM     97  C   UNL     1      23.730  11.866  -2.856  1.00  0.00     0.059 A 
ATOM     98  F   UNL     1      25.225  10.198  -3.541  1.00  0.00    -0.206 F 
ATOM     99  C   UNL     1      22.553  12.582  -3.060  1.00  0.00     0.060 A 
BRANCH  99 100
ATOM    100  S   UNL     1      22.035  13.832  -1.865  1.00  0.00     0.124 S 
ATOM    101  O   UNL     1      22.271  15.072  -2.598  1.00  0.00    -0.237 OA
ATOM    102  O   UNL     1      20.635  13.490  -1.632  1.00  0.00    -0.237 OA
ATOM    103  O   UNL     1      22.920  13.603  -0.726  1.00  0.00    -0.744 OA
ENDBRANCH  99 100
ENDBRANCH  67  92
ENDBRANCH  41  42
ENDBRANCH  34  36
ENDBRANCH  33  34
ENDBRANCH  32  33
ENDBRANCH  31  32
ENDBRANCH  30  31
ENDBRANCH  29  30
ENDBRANCH   1  29
TORSDOF 24
