REMARK SMILES Cc1c(-c2nn(-c3ccccc3)cc2/C=N/O)nnn1-c1ccc(C(=O)OCCOCCOCCOC(=O)c2ccc(-c3c4nc(c(-c5c(F)cc(S(=O)(=O)[O-])cc5F)c5ccc([nH]5)c(-c5c(F)cc(S(=O)(=O)[O-])cc5F)c5nc(c(-c6c(F)cc(S(=O)(=O)[O-])cc6F)c6ccc3[nH]6)C=C5)C=C4)cc2)cc1
REMARK SMILES IDX 31 1 30 2 29 3 28 4 27 5 25 6 26 7 24 8 21 9 22 10 106 11
REMARK SMILES IDX 23 12 105 13 20 14 1 15 2 16 3 17 18 18 19 19 4 20 5 21
REMARK SMILES IDX 14 22 6 23 13 24 15 25 16 26 17 27 7 29 8 30 12 31 9 32
REMARK SMILES IDX 11 33 10 34 32 35 33 36 34 37 35 38 36 39 37 40 38 41 39 42
REMARK SMILES IDX 40 43 104 44 41 45 103 46 42 47 43 48 44 49 97 50 45 51
REMARK SMILES IDX 102 52 96 53 98 54 46 55 101 56 95 57 94 58 47 60 81 61
REMARK SMILES IDX 60 62 80 63 61 64 64 65 79 66 99 67 62 68 63 69 78 71 100 72
REMARK SMILES IDX 65 73 48 74 49 75 58 76 50 77 51 78 57 79 59 80 52 81 53 82
REMARK SMILES IDX 54 83 55 84 56 85 82 86 83 87 92 88 84 89 85 90 91 91 93 92
REMARK SMILES IDX 86 93 87 94 88 95 89 96 90 97 66 98 67 99 76 100 68 101
REMARK SMILES IDX 69 102 75 103 77 104 70 105 71 106 72 107 73 108 74 109
REMARK H PARENT 17 28 98 59 64 70
REMARK Flexibility Score: inf
ROOT
ATOM      1  C   UNL     1       2.887   7.997  -0.286  1.00  0.00     0.188 C 
ENDROOT
BRANCH   1   2
ATOM      2  O   UNL     1       3.195   8.950   0.724  1.00  0.00    -0.376 OA
BRANCH   2   3
ATOM      3  C   UNL     1       4.006   8.572   1.827  1.00  0.00     0.202 C 
BRANCH   3   4
ATOM      4  C   UNL     1       3.586   7.367   2.686  1.00  0.00     0.261 C 
BRANCH   4   5
ATOM      5  O   UNL     1       3.270   6.175   1.944  1.00  0.00    -0.460 OA
BRANCH   5   6
ATOM      6  C   UNL     1       1.986   5.759   2.021  1.00  0.00     0.338 C 
ATOM      7  O   UNL     1       1.104   6.216   2.738  1.00  0.00    -0.246 OA
BRANCH   6   8
ATOM      8  C   UNL     1       1.709   4.731   0.994  1.00  0.00     0.060 A 
ATOM      9  C   UNL     1       0.969   2.749  -0.838  1.00  0.00     0.067 A 
ATOM     10  C   UNL     1       0.195   3.909  -0.717  1.00  0.00     0.029 A 
ATOM     11  C   UNL     1       2.169   2.632  -0.116  1.00  0.00     0.029 A 
ATOM     12  C   UNL     1       0.548   4.878   0.223  1.00  0.00     0.018 A 
ATOM     13  C   UNL     1       2.548   3.631   0.791  1.00  0.00     0.018 A 
BRANCH   9  14
ATOM     14  N   UNL     1       0.479   1.683  -1.638  1.00  0.00    -0.217 N 
ATOM     15  C   UNL     1       1.116  -0.327  -0.199  1.00  0.00     0.069 C 
ATOM     16  C   UNL     1       0.561   0.319  -1.411  1.00  0.00     0.071 A 
ATOM     17  C   UNL     1      -0.116  -0.228  -2.484  1.00  0.00     0.137 A 
ATOM     18  N   UNL     1      -0.629   0.755  -3.271  1.00  0.00    -0.128 NA
ATOM     19  N   UNL     1      -0.310   1.920  -2.718  1.00  0.00    -0.061 NA
BRANCH  17  20
ATOM     20  C   UNL     1      -0.389  -1.640  -2.732  1.00  0.00     0.124 A 
ATOM     21  N   UNL     1      -1.344  -2.304  -2.067  1.00  0.00    -0.165 NA
ATOM     22  C   UNL     1       0.369  -2.484  -3.575  1.00  0.00     0.044 A 
ATOM     23  N   UNL     1      -1.142  -3.600  -2.388  1.00  0.00    -0.240 N 
ATOM     24  C   UNL     1      -0.119  -3.747  -3.297  1.00  0.00     0.125 A 
BRANCH  22  25
ATOM     25  C   UNL     1       1.426  -2.204  -4.513  1.00  0.00     0.166 C 
ATOM     26  N   UNL     1       1.885  -1.004  -4.634  1.00  0.00    -0.097 NA
BRANCH  26  27
ATOM     27  O   UNL     1       2.873  -0.987  -5.626  1.00  0.00    -0.411 OA
ATOM     28  H   UNL     1       3.309  -0.185  -5.839  1.00  0.00     0.330 HD
ENDBRANCH  26  27
ENDBRANCH  22  25
BRANCH  23  29
ATOM     29  C   UNL     1      -1.903  -4.628  -1.780  1.00  0.00     0.065 A 
ATOM     30  C   UNL     1      -3.210  -4.358  -1.352  1.00  0.00     0.028 A 
ATOM     31  C   UNL     1      -1.353  -5.904  -1.591  1.00  0.00     0.028 A 
ATOM     32  C   UNL     1      -3.974  -5.372  -0.771  1.00  0.00     0.002 A 
ATOM     33  C   UNL     1      -2.109  -6.898  -0.966  1.00  0.00     0.002 A 
ATOM     34  C   UNL     1      -3.421  -6.636  -0.570  1.00  0.00     0.000 A 
ENDBRANCH  23  29
ENDBRANCH  17  20
ENDBRANCH   9  14
ENDBRANCH   6   8
ENDBRANCH   5   6
ENDBRANCH   4   5
ENDBRANCH   3   4
ENDBRANCH   2   3
ENDBRANCH   1   2
BRANCH   1  35
ATOM     35  C   UNL     1       3.946   6.988  -0.787  1.00  0.00     0.188 C 
BRANCH  35  36
ATOM     36  O   UNL     1       5.176   6.995  -0.075  1.00  0.00    -0.376 OA
BRANCH  36  37
ATOM     37  C   UNL     1       6.332   7.314  -0.842  1.00  0.00     0.202 C 
BRANCH  37  38
ATOM     38  C   UNL     1       6.476   8.787  -1.224  1.00  0.00     0.261 C 
BRANCH  38  39
ATOM     39  O   UNL     1       5.312   9.376  -1.798  1.00  0.00    -0.460 OA
BRANCH  39  40
ATOM     40  C   UNL     1       5.004   8.986  -3.047  1.00  0.00     0.338 C 
ATOM     41  O   UNL     1       5.481   8.023  -3.647  1.00  0.00    -0.246 OA
BRANCH  40  42
ATOM     42  C   UNL     1       4.043   9.935  -3.623  1.00  0.00     0.060 A 
ATOM     43  C   UNL     1       3.485   9.621  -4.864  1.00  0.00     0.016 A 
ATOM     44  C   UNL     1       3.878  11.207  -3.048  1.00  0.00     0.016 A 
ATOM     45  C   UNL     1       2.931  10.639  -5.614  1.00  0.00     0.010 A 
ATOM     46  C   UNL     1       3.331  12.226  -3.804  1.00  0.00     0.010 A 
ATOM     47  C   UNL     1       2.947  11.946  -5.112  1.00  0.00    -0.014 A 
BRANCH  47  48
ATOM     48  C   UNL     1       2.686  13.015  -6.058  1.00  0.00     0.031 A 
ATOM     49  C   UNL     1       1.279  13.250  -6.428  1.00  0.00     0.074 A 
ATOM     50  C   UNL     1       3.683  13.757  -6.578  1.00  0.00     0.049 A 
ATOM     51  N   UNL     1       0.714  13.030  -7.568  1.00  0.00    -0.248 NA
ATOM     52  C   UNL     1       0.374  13.729  -5.377  1.00  0.00     0.031 C 
ATOM     53  C   UNL     1       5.073  13.836  -6.118  1.00  0.00     0.029 A 
ATOM     54  N   UNL     1       3.632  14.659  -7.599  1.00  0.00    -0.354 N 
ATOM     55  C   UNL     1      -0.576  13.529  -7.446  1.00  0.00     0.074 A 
ATOM     56  C   UNL     1      -0.774  13.827  -6.048  1.00  0.00     0.031 C 
ATOM     57  C   UNL     1       5.686  14.867  -6.740  1.00  0.00     0.029 A 
ATOM     58  C   UNL     1       4.778  15.425  -7.729  1.00  0.00     0.049 A 
ATOM     59  H   UNL     1       2.852  14.757  -8.190  1.00  0.00     0.167 HD
ATOM     60  C   UNL     1      -1.322  13.867  -8.530  1.00  0.00     0.037 A 
ATOM     61  C   UNL     1       4.960  16.476  -8.561  1.00  0.00     0.037 A 
ATOM     62  C   UNL     1      -0.794  13.327  -9.753  1.00  0.00     0.049 A 
ATOM     63  C   UNL     1       3.997  16.345  -9.682  1.00  0.00     0.074 A 
ATOM     64  C   UNL     1      -0.647  12.065 -10.288  1.00  0.00     0.029 A 
ATOM     65  N   UNL     1      -0.022  14.169 -10.513  1.00  0.00    -0.354 N 
ATOM     66  N   UNL     1       4.050  15.406 -10.587  1.00  0.00    -0.248 NA
ATOM     67  C   UNL     1       2.752  17.101  -9.649  1.00  0.00     0.031 C 
ATOM     68  C   UNL     1       0.477  12.138 -11.161  1.00  0.00     0.029 A 
ATOM     69  C   UNL     1       0.977  13.440 -11.110  1.00  0.00     0.049 A 
ATOM     70  H   UNL     1      -0.161  15.139 -10.613  1.00  0.00     0.167 HD
ATOM     71  C   UNL     1       2.733  15.194 -10.957  1.00  0.00     0.074 A 
ATOM     72  C   UNL     1       2.011  16.362 -10.480  1.00  0.00     0.031 C 
ATOM     73  C   UNL     1       2.306  13.962 -11.356  1.00  0.00     0.037 A 
BRANCH  60  74
ATOM     74  C   UNL     1      -2.333  14.980  -8.521  1.00  0.00     0.058 A 
ATOM     75  C   UNL     1      -3.305  15.057  -9.535  1.00  0.00     0.135 A 
ATOM     76  C   UNL     1      -2.201  16.123  -7.700  1.00  0.00     0.135 A 
ATOM     77  F   UNL     1      -3.487  14.034 -10.385  1.00  0.00    -0.206 F 
ATOM     78  C   UNL     1      -4.066  16.208  -9.747  1.00  0.00     0.059 A 
ATOM     79  C   UNL     1      -2.984  17.258  -7.859  1.00  0.00     0.059 A 
ATOM     80  F   UNL     1      -1.235  16.219  -6.776  1.00  0.00    -0.206 F 
ATOM     81  C   UNL     1      -3.884  17.309  -8.912  1.00  0.00     0.060 A 
BRANCH  81  82
ATOM     82  S   UNL     1      -4.771  18.840  -9.251  1.00  0.00     0.124 S 
ATOM     83  O   UNL     1      -4.015  19.366 -10.381  1.00  0.00    -0.237 OA
ATOM     84  O   UNL     1      -6.117  18.360  -9.549  1.00  0.00    -0.237 OA
ATOM     85  O   UNL     1      -4.641  19.583  -8.001  1.00  0.00    -0.744 OA
ENDBRANCH  81  82
ENDBRANCH  60  74
BRANCH  61  86
ATOM     86  C   UNL     1       5.760  17.699  -8.317  1.00  0.00     0.058 A 
ATOM     87  C   UNL     1       6.104  18.569  -9.364  1.00  0.00     0.135 A 
ATOM     88  C   UNL     1       5.975  18.180  -7.008  1.00  0.00     0.135 A 
ATOM     89  F   UNL     1       5.909  18.202 -10.640  1.00  0.00    -0.206 F 
ATOM     90  C   UNL     1       6.589  19.858  -9.129  1.00  0.00     0.059 A 
ATOM     91  C   UNL     1       6.473  19.453  -6.750  1.00  0.00     0.059 A 
ATOM     92  F   UNL     1       5.620  17.457  -5.936  1.00  0.00    -0.206 F 
ATOM     93  C   UNL     1       6.751  20.299  -7.816  1.00  0.00     0.060 A 
BRANCH  93  94
ATOM     94  S   UNL     1       7.198  22.021  -7.507  1.00  0.00     0.124 S 
ATOM     95  O   UNL     1       8.586  22.057  -7.953  1.00  0.00    -0.237 OA
ATOM     96  O   UNL     1       6.240  22.741  -8.341  1.00  0.00    -0.237 OA
ATOM     97  O   UNL     1       7.000  22.170  -6.067  1.00  0.00    -0.744 OA
ENDBRANCH  93  94
ENDBRANCH  61  86
BRANCH  73  98
ATOM     98  C   UNL     1       3.353  12.996 -11.837  1.00  0.00     0.058 A 
ATOM     99  C   UNL     1       4.302  12.391 -10.997  1.00  0.00     0.135 A 
ATOM    100  C   UNL     1       3.322  12.584 -13.178  1.00  0.00     0.135 A 
ATOM    101  F   UNL     1       4.332  12.668  -9.685  1.00  0.00    -0.206 F 
ATOM    102  C   UNL     1       5.209  11.445 -11.478  1.00  0.00     0.059 A 
ATOM    103  C   UNL     1       4.199  11.622 -13.674  1.00  0.00     0.059 A 
ATOM    104  F   UNL     1       2.398  13.085 -14.015  1.00  0.00    -0.206 F 
ATOM    105  C   UNL     1       5.149  11.066 -12.819  1.00  0.00     0.060 A 
BRANCH 105 106
ATOM    106  S   UNL     1       6.258   9.771 -13.419  1.00  0.00     0.124 S 
ATOM    107  O   UNL     1       7.512  10.495 -13.590  1.00  0.00    -0.237 OA
ATOM    108  O   UNL     1       6.233   8.796 -12.332  1.00  0.00    -0.237 OA
ATOM    109  O   UNL     1       5.620   9.324 -14.655  1.00  0.00    -0.744 OA
ENDBRANCH 105 106
ENDBRANCH  73  98
ENDBRANCH  47  48
ENDBRANCH  40  42
ENDBRANCH  39  40
ENDBRANCH  38  39
ENDBRANCH  37  38
ENDBRANCH  36  37
ENDBRANCH  35  36
ENDBRANCH   1  35
TORSDOF 25
