REMARK SMILES O=C(OCCOCCOCCOC(=O)c1cc(-c2cccc(C(F)(F)F)c2)nc2c(F)cccc12)c1ccc(-c2c3nc(c(-c4c(F)cc(S(=O)(=O)[O-])cc4F)c4ccc([nH]4)c(-c4c(F)cc(S(=O)(=O)[O-])cc4F)c4nc(c(-c5c(F)cc(S(=O)(=O)[O-])cc5F)c5ccc2[nH]5)C=C4)C=C3)cc1
REMARK SMILES IDX 7 1 6 2 5 3 4 4 3 5 2 6 1 7 36 8 37 9 101 10 38 11 100 12
REMARK SMILES IDX 39 13 40 14 41 15 94 16 42 17 99 18 93 19 95 20 43 21 98 22
REMARK SMILES IDX 92 23 91 24 44 26 78 27 57 28 77 29 58 30 61 31 76 32 96 33
REMARK SMILES IDX 59 34 60 35 75 37 97 38 62 39 45 40 46 41 55 42 47 43 48 44
REMARK SMILES IDX 54 45 56 46 49 47 50 48 51 49 52 50 53 51 79 52 80 53 89 54
REMARK SMILES IDX 81 55 82 56 88 57 90 58 83 59 84 60 85 61 86 62 87 63 63 64
REMARK SMILES IDX 64 65 73 66 65 67 66 68 72 69 74 70 67 71 68 72 69 73 70 74
REMARK SMILES IDX 71 75 8 76 9 77 10 78 11 79 12 80 13 81 14 82 15 83 16 84
REMARK SMILES IDX 35 85 17 86 29 87 34 88 28 89 30 90 33 91 31 92 32 93 18 94
REMARK SMILES IDX 19 95 27 96 20 97 22 98 21 99 23 100 24 101 25 102 26 103
REMARK H PARENT 95 25 61 36
REMARK Flexibility Score: inf
ROOT
ATOM      1  C   UNL     1       2.559   1.897  -1.139  1.00  0.00     0.188 C 
ENDROOT
BRANCH   1   2
ATOM      2  O   UNL     1       3.818   1.548  -0.550  1.00  0.00    -0.376 OA
BRANCH   2   3
ATOM      3  C   UNL     1       4.682   0.814  -1.423  1.00  0.00     0.202 C 
BRANCH   3   4
ATOM      4  C   UNL     1       4.502  -0.707  -1.350  1.00  0.00     0.261 C 
BRANCH   4   5
ATOM      5  O   UNL     1       3.124  -1.069  -1.152  1.00  0.00    -0.460 OA
BRANCH   5   6
ATOM      6  C   UNL     1       2.526  -1.392   0.023  1.00  0.00     0.338 C 
ATOM      7  O   UNL     1       1.329  -1.672   0.029  1.00  0.00    -0.246 OA
BRANCH   6   8
ATOM      8  C   UNL     1       3.268  -1.479   1.314  1.00  0.00     0.060 A 
ATOM      9  C   UNL     1       4.295  -0.616   1.695  1.00  0.00     0.016 A 
ATOM     10  C   UNL     1       2.836  -2.443   2.239  1.00  0.00     0.016 A 
ATOM     11  C   UNL     1       4.975  -0.796   2.896  1.00  0.00     0.010 A 
ATOM     12  C   UNL     1       3.451  -2.562   3.491  1.00  0.00     0.010 A 
ATOM     13  C   UNL     1       4.565  -1.773   3.805  1.00  0.00    -0.014 A 
BRANCH  13  14
ATOM     14  C   UNL     1       5.398  -2.035   5.003  1.00  0.00     0.031 A 
ATOM     15  C   UNL     1       6.123  -3.349   5.109  1.00  0.00     0.074 A 
ATOM     16  C   UNL     1       5.599  -1.069   5.922  1.00  0.00     0.049 A 
ATOM     17  N   UNL     1       6.876  -3.805   6.075  1.00  0.00    -0.248 NA
ATOM     18  C   UNL     1       5.981  -4.275   3.972  1.00  0.00     0.031 C 
ATOM     19  C   UNL     1       4.997   0.266   5.896  1.00  0.00     0.029 A 
ATOM     20  N   UNL     1       6.392  -1.052   7.041  1.00  0.00    -0.354 N 
ATOM     21  C   UNL     1       7.276  -5.074   5.674  1.00  0.00     0.074 A 
ATOM     22  C   UNL     1       6.658  -5.332   4.393  1.00  0.00     0.031 C 
ATOM     23  C   UNL     1       5.469   0.981   6.930  1.00  0.00     0.029 A 
ATOM     24  C   UNL     1       6.355   0.140   7.724  1.00  0.00     0.049 A 
ATOM     25  H   UNL     1       6.936  -1.821   7.327  1.00  0.00     0.167 HD
ATOM     26  C   UNL     1       8.100  -5.941   6.307  1.00  0.00     0.037 A 
ATOM     27  C   UNL     1       6.949   0.504   8.876  1.00  0.00     0.037 A 
ATOM     28  C   UNL     1       8.725  -5.669   7.572  1.00  0.00     0.049 A 
ATOM     29  C   UNL     1       7.824  -0.489   9.582  1.00  0.00     0.074 A 
ATOM     30  C   UNL     1       9.523  -6.497   8.340  1.00  0.00     0.029 A 
ATOM     31  N   UNL     1       8.633  -4.460   8.246  1.00  0.00    -0.354 N 
ATOM     32  N   UNL     1       8.127  -1.714   9.227  1.00  0.00    -0.248 NA
ATOM     33  C   UNL     1       8.433  -0.053  10.845  1.00  0.00     0.031 C 
ATOM     34  C   UNL     1       9.903  -5.792   9.488  1.00  0.00     0.029 A 
ATOM     35  C   UNL     1       9.367  -4.515   9.417  1.00  0.00     0.049 A 
ATOM     36  H   UNL     1       8.121  -3.678   7.937  1.00  0.00     0.167 HD
ATOM     37  C   UNL     1       8.960  -2.200  10.226  1.00  0.00     0.074 A 
ATOM     38  C   UNL     1       9.137  -1.125  11.182  1.00  0.00     0.031 C 
ATOM     39  C   UNL     1       9.521  -3.427  10.348  1.00  0.00     0.037 A 
BRANCH  26  40
ATOM     40  C   UNL     1       8.338  -7.263   5.636  1.00  0.00     0.058 A 
ATOM     41  C   UNL     1       9.145  -7.371   4.492  1.00  0.00     0.135 A 
ATOM     42  C   UNL     1       7.719  -8.428   6.116  1.00  0.00     0.135 A 
ATOM     43  F   UNL     1       9.733  -6.281   3.974  1.00  0.00    -0.206 F 
ATOM     44  C   UNL     1       9.300  -8.581   3.824  1.00  0.00     0.059 A 
ATOM     45  C   UNL     1       7.878  -9.654   5.476  1.00  0.00     0.059 A 
ATOM     46  F   UNL     1       6.930  -8.377   7.200  1.00  0.00    -0.206 F 
ATOM     47  C   UNL     1       8.655  -9.716   4.319  1.00  0.00     0.060 A 
BRANCH  47  48
ATOM     48  S   UNL     1       8.832 -11.271   3.421  1.00  0.00     0.124 S 
ATOM     49  O   UNL     1       7.960 -11.043   2.273  1.00  0.00    -0.237 OA
ATOM     50  O   UNL     1      10.263 -11.306   3.133  1.00  0.00    -0.237 OA
ATOM     51  O   UNL     1       8.365 -12.270   4.377  1.00  0.00    -0.744 OA
ENDBRANCH  47  48
ENDBRANCH  26  40
BRANCH  27  52
ATOM     52  C   UNL     1       6.700   1.846   9.462  1.00  0.00     0.058 A 
ATOM     53  C   UNL     1       7.681   2.847   9.440  1.00  0.00     0.135 A 
ATOM     54  C   UNL     1       5.473   2.141  10.075  1.00  0.00     0.135 A 
ATOM     55  F   UNL     1       8.875   2.606   8.877  1.00  0.00    -0.206 F 
ATOM     56  C   UNL     1       7.456   4.097  10.008  1.00  0.00     0.059 A 
ATOM     57  C   UNL     1       5.221   3.387  10.638  1.00  0.00     0.059 A 
ATOM     58  F   UNL     1       4.502   1.217  10.111  1.00  0.00    -0.206 F 
ATOM     59  C   UNL     1       6.221   4.359  10.603  1.00  0.00     0.060 A 
BRANCH  59  60
ATOM     60  S   UNL     1       5.885   6.018  11.235  1.00  0.00     0.124 S 
ATOM     61  O   UNL     1       6.444   5.943  12.578  1.00  0.00    -0.237 OA
ATOM     62  O   UNL     1       6.603   6.864  10.286  1.00  0.00    -0.237 OA
ATOM     63  O   UNL     1       4.430   6.108  11.150  1.00  0.00    -0.744 OA
ENDBRANCH  59  60
ENDBRANCH  27  52
BRANCH  39  64
ATOM     64  C   UNL     1      10.388  -3.654  11.548  1.00  0.00     0.058 A 
ATOM     65  C   UNL     1       9.833  -3.864  12.819  1.00  0.00     0.135 A 
ATOM     66  C   UNL     1      11.784  -3.688  11.417  1.00  0.00     0.135 A 
ATOM     67  F   UNL     1       8.502  -3.829  12.991  1.00  0.00    -0.206 F 
ATOM     68  C   UNL     1      10.639  -4.081  13.930  1.00  0.00     0.059 A 
ATOM     69  C   UNL     1      12.607  -3.924  12.511  1.00  0.00     0.059 A 
ATOM     70  F   UNL     1      12.356  -3.496  10.218  1.00  0.00    -0.206 F 
ATOM     71  C   UNL     1      12.025  -4.108  13.766  1.00  0.00     0.060 A 
BRANCH  71  72
ATOM     72  S   UNL     1      13.064  -4.418  15.207  1.00  0.00     0.124 S 
ATOM     73  O   UNL     1      13.057  -3.114  15.860  1.00  0.00    -0.237 OA
ATOM     74  O   UNL     1      12.336  -5.478  15.899  1.00  0.00    -0.237 OA
ATOM     75  O   UNL     1      14.339  -4.823  14.623  1.00  0.00    -0.744 OA
ENDBRANCH  71  72
ENDBRANCH  39  64
ENDBRANCH  13  14
ENDBRANCH   6   8
ENDBRANCH   5   6
ENDBRANCH   4   5
ENDBRANCH   3   4
ENDBRANCH   2   3
ENDBRANCH   1   2
BRANCH   1  76
ATOM     76  C   UNL     1       2.032   3.204  -0.541  1.00  0.00     0.188 C 
BRANCH  76  77
ATOM     77  O   UNL     1       2.734   4.379  -0.951  1.00  0.00    -0.376 OA
BRANCH  77  78
ATOM     78  C   UNL     1       4.106   4.478  -0.577  1.00  0.00     0.202 C 
BRANCH  78  79
ATOM     79  C   UNL     1       4.401   4.837   0.884  1.00  0.00     0.261 C 
BRANCH  79  80
ATOM     80  O   UNL     1       3.918   3.899   1.863  1.00  0.00    -0.460 OA
BRANCH  80  81
ATOM     81  C   UNL     1       2.861   4.347   2.578  1.00  0.00     0.338 C 
ATOM     82  O   UNL     1       2.192   5.350   2.361  1.00  0.00    -0.246 OA
BRANCH  81  83
ATOM     83  C   UNL     1       2.605   3.501   3.750  1.00  0.00     0.071 A 
ATOM     84  C   UNL     1       1.693   2.454   3.617  1.00  0.00     0.045 A 
ATOM     85  C   UNL     1       3.070   3.921   5.013  1.00  0.00     0.018 A 
ATOM     86  C   UNL     1       1.217   1.862   4.774  1.00  0.00     0.072 A 
ATOM     87  C   UNL     1       2.497   3.289   6.130  1.00  0.00     0.107 A 
ATOM     88  C   UNL     1       4.041   4.939   5.201  1.00  0.00     0.011 A 
ATOM     89  N   UNL     1       1.596   2.289   5.999  1.00  0.00    -0.245 NA
ATOM     90  C   UNL     1       2.871   3.748   7.394  1.00  0.00     0.149 A 
ATOM     91  C   UNL     1       4.411   5.352   6.477  1.00  0.00     0.004 A 
ATOM     92  F   UNL     1       2.320   3.197   8.487  1.00  0.00    -0.205 F 
ATOM     93  C   UNL     1       3.802   4.770   7.577  1.00  0.00     0.041 A 
BRANCH  86  94
ATOM     94  C   UNL     1       0.230   0.770   4.767  1.00  0.00     0.001 A 
ATOM     95  C   UNL     1       0.415  -0.371   3.974  1.00  0.00     0.010 A 
ATOM     96  C   UNL     1      -0.924   0.828   5.569  1.00  0.00     0.023 A 
ATOM     97  C   UNL     1      -0.503  -1.424   3.985  1.00  0.00     0.001 A 
ATOM     98  C   UNL     1      -1.874  -0.210   5.572  1.00  0.00     0.056 A 
ATOM     99  C   UNL     1      -1.644  -1.342   4.778  1.00  0.00     0.013 A 
BRANCH  98 100
ATOM    100  C   UNL     1      -3.135  -0.116   6.392  1.00  0.00     0.416 C 
ATOM    101  F   UNL     1      -4.254  -0.136   5.609  1.00  0.00    -0.166 F 
ATOM    102  F   UNL     1      -3.282  -1.154   7.262  1.00  0.00    -0.166 F 
ATOM    103  F   UNL     1      -3.234   1.018   7.138  1.00  0.00    -0.166 F 
ENDBRANCH  98 100
ENDBRANCH  86  94
ENDBRANCH  81  83
ENDBRANCH  80  81
ENDBRANCH  79  80
ENDBRANCH  78  79
ENDBRANCH  77  78
ENDBRANCH  76  77
ENDBRANCH   1  76
TORSDOF 22
