REMARK SMILES O=C(OCCOCCOCCOC(=O)c1nnn(-c2ccccc2C(F)(F)F)c1-c1cccc(Cl)c1)c1ccc(-c2c3nc(c(-c4c(F)cc(S(=O)(=O)[O-])cc4F)c4ccc([nH]4)c(-c4c(F)cc(S(=O)(=O)[O-])cc4F)c4nc(c(-c5c(F)cc(S(=O)(=O)[O-])cc5F)c5ccc2[nH]5)C=C4)C=C3)cc1
REMARK SMILES IDX 7 1 6 2 5 3 4 4 3 5 2 6 1 7 37 8 38 9 102 10 39 11 101 12
REMARK SMILES IDX 40 13 41 14 42 15 95 16 43 17 100 18 94 19 96 20 44 21 99 22
REMARK SMILES IDX 93 23 92 24 45 26 79 27 58 28 78 29 59 30 62 31 77 32 97 33
REMARK SMILES IDX 60 34 61 35 76 37 98 38 63 39 46 40 47 41 56 42 48 43 49 44
REMARK SMILES IDX 55 45 57 46 50 47 51 48 52 49 53 50 54 51 80 52 81 53 90 54
REMARK SMILES IDX 82 55 83 56 89 57 91 58 84 59 85 60 86 61 87 62 88 63 64 64
REMARK SMILES IDX 65 65 74 66 66 67 67 68 73 69 75 70 68 71 69 72 70 73 71 74
REMARK SMILES IDX 72 75 8 76 9 77 10 78 11 79 12 80 13 81 14 82 15 83 16 84
REMARK SMILES IDX 29 85 17 86 18 87 30 88 31 89 36 90 32 91 34 92 33 93 35 94
REMARK SMILES IDX 19 95 20 96 24 97 21 98 23 99 22 100 25 101 26 102 27 103
REMARK SMILES IDX 28 104
REMARK H PARENT 96 25 62 36
REMARK Flexibility Score: inf
ROOT
ATOM      1  C   UNL     1       3.382   1.706  -0.072  1.00  0.00     0.188 C 
ENDROOT
BRANCH   1   2
ATOM      2  O   UNL     1       4.676   1.435  -0.609  1.00  0.00    -0.376 OA
BRANCH   2   3
ATOM      3  C   UNL     1       5.197   0.151  -0.299  1.00  0.00     0.202 C 
BRANCH   3   4
ATOM      4  C   UNL     1       4.769  -0.929  -1.294  1.00  0.00     0.261 C 
BRANCH   4   5
ATOM      5  O   UNL     1       3.371  -0.976  -1.638  1.00  0.00    -0.460 OA
BRANCH   5   6
ATOM      6  C   UNL     1       2.302  -1.464  -0.978  1.00  0.00     0.338 C 
ATOM      7  O   UNL     1       1.251  -1.653  -1.584  1.00  0.00    -0.246 OA
BRANCH   6   8
ATOM      8  C   UNL     1       2.293  -1.606   0.494  1.00  0.00     0.060 A 
ATOM      9  C   UNL     1       3.360  -2.126   1.226  1.00  0.00     0.016 A 
ATOM     10  C   UNL     1       1.084  -1.293   1.145  1.00  0.00     0.016 A 
ATOM     11  C   UNL     1       3.207  -2.394   2.577  1.00  0.00     0.010 A 
ATOM     12  C   UNL     1       0.916  -1.586   2.492  1.00  0.00     0.010 A 
ATOM     13  C   UNL     1       1.960  -2.212   3.175  1.00  0.00    -0.014 A 
BRANCH  13  14
ATOM     14  C   UNL     1       1.727  -2.971   4.399  1.00  0.00     0.031 A 
ATOM     15  C   UNL     1       2.316  -2.485   5.673  1.00  0.00     0.074 A 
ATOM     16  C   UNL     1       0.982  -4.093   4.332  1.00  0.00     0.049 A 
ATOM     17  N   UNL     1       3.120  -3.105   6.480  1.00  0.00    -0.248 NA
ATOM     18  C   UNL     1       1.990  -1.113   6.087  1.00  0.00     0.031 C 
ATOM     19  C   UNL     1       0.158  -4.551   3.203  1.00  0.00     0.029 A 
ATOM     20  N   UNL     1       0.711  -5.009   5.302  1.00  0.00    -0.354 N 
ATOM     21  C   UNL     1       3.242  -2.287   7.601  1.00  0.00     0.074 A 
ATOM     22  C   UNL     1       2.616  -1.032   7.262  1.00  0.00     0.031 C 
ATOM     23  C   UNL     1      -0.691  -5.505   3.633  1.00  0.00     0.029 A 
ATOM     24  C   UNL     1      -0.385  -5.807   5.019  1.00  0.00     0.049 A 
ATOM     25  H   UNL     1       1.243  -5.095   6.126  1.00  0.00     0.167 HD
ATOM     26  C   UNL     1       3.672  -2.743   8.810  1.00  0.00     0.037 A 
ATOM     27  C   UNL     1      -1.075  -6.574   5.894  1.00  0.00     0.037 A 
ATOM     28  C   UNL     1       4.399  -3.977   8.718  1.00  0.00     0.049 A 
ATOM     29  C   UNL     1      -0.183  -6.858   7.044  1.00  0.00     0.074 A 
ATOM     30  C   UNL     1       5.568  -4.377   8.101  1.00  0.00     0.029 A 
ATOM     31  N   UNL     1       3.778  -5.135   9.113  1.00  0.00    -0.354 N 
ATOM     32  N   UNL     1       0.901  -7.583   6.973  1.00  0.00    -0.248 NA
ATOM     33  C   UNL     1      -0.281  -6.006   8.220  1.00  0.00     0.031 C 
ATOM     34  C   UNL     1       5.361  -5.742   7.747  1.00  0.00     0.029 A 
ATOM     35  C   UNL     1       4.079  -6.091   8.175  1.00  0.00     0.049 A 
ATOM     36  H   UNL     1       3.221  -5.258   9.916  1.00  0.00     0.167 HD
ATOM     37  C   UNL     1       1.786  -6.998   7.867  1.00  0.00     0.074 A 
ATOM     38  C   UNL     1       0.966  -6.113   8.685  1.00  0.00     0.031 C 
ATOM     39  C   UNL     1       3.139  -7.076   7.685  1.00  0.00     0.037 A 
BRANCH  26  40
ATOM     40  C   UNL     1       3.162  -2.199  10.119  1.00  0.00     0.058 A 
ATOM     41  C   UNL     1       3.869  -2.419  11.316  1.00  0.00     0.135 A 
ATOM     42  C   UNL     1       1.851  -1.691  10.262  1.00  0.00     0.135 A 
ATOM     43  F   UNL     1       5.110  -2.930  11.291  1.00  0.00    -0.206 F 
ATOM     44  C   UNL     1       3.300  -2.182  12.570  1.00  0.00     0.059 A 
ATOM     45  C   UNL     1       1.283  -1.400  11.496  1.00  0.00     0.059 A 
ATOM     46  F   UNL     1       1.037  -1.544   9.207  1.00  0.00    -0.206 F 
ATOM     47  C   UNL     1       2.000  -1.687  12.648  1.00  0.00     0.060 A 
BRANCH  47  48
ATOM     48  S   UNL     1       1.217  -1.484  14.259  1.00  0.00     0.124 S 
ATOM     49  O   UNL     1       0.922  -2.869  14.611  1.00  0.00    -0.237 OA
ATOM     50  O   UNL     1       2.271  -0.838  15.035  1.00  0.00    -0.237 OA
ATOM     51  O   UNL     1       0.061  -0.644  13.965  1.00  0.00    -0.744 OA
ENDBRANCH  47  48
ENDBRANCH  26  40
BRANCH  27  52
ATOM     52  C   UNL     1      -2.554  -6.700   5.931  1.00  0.00     0.058 A 
ATOM     53  C   UNL     1      -3.187  -7.724   6.650  1.00  0.00     0.135 A 
ATOM     54  C   UNL     1      -3.391  -5.672   5.442  1.00  0.00     0.135 A 
ATOM     55  F   UNL     1      -2.461  -8.716   7.188  1.00  0.00    -0.206 F 
ATOM     56  C   UNL     1      -4.567  -7.724   6.880  1.00  0.00     0.059 A 
ATOM     57  C   UNL     1      -4.768  -5.662   5.638  1.00  0.00     0.059 A 
ATOM     58  F   UNL     1      -2.885  -4.592   4.828  1.00  0.00    -0.206 F 
ATOM     59  C   UNL     1      -5.348  -6.682   6.377  1.00  0.00     0.060 A 
BRANCH  59  60
ATOM     60  S   UNL     1      -7.106  -6.604   6.784  1.00  0.00     0.124 S 
ATOM     61  O   UNL     1      -7.636  -7.749   6.051  1.00  0.00    -0.237 OA
ATOM     62  O   UNL     1      -7.088  -6.729   8.238  1.00  0.00    -0.237 OA
ATOM     63  O   UNL     1      -7.515  -5.296   6.279  1.00  0.00    -0.744 OA
ENDBRANCH  59  60
ENDBRANCH  27  52
BRANCH  39  64
ATOM     64  C   UNL     1       3.658  -8.054   6.661  1.00  0.00     0.058 A 
ATOM     65  C   UNL     1       3.446  -7.903   5.279  1.00  0.00     0.135 A 
ATOM     66  C   UNL     1       4.537  -9.070   7.066  1.00  0.00     0.135 A 
ATOM     67  F   UNL     1       2.715  -6.886   4.806  1.00  0.00    -0.206 F 
ATOM     68  C   UNL     1       4.047  -8.745   4.344  1.00  0.00     0.059 A 
ATOM     69  C   UNL     1       5.172  -9.905   6.147  1.00  0.00     0.059 A 
ATOM     70  F   UNL     1       4.838  -9.220   8.366  1.00  0.00    -0.206 F 
ATOM     71  C   UNL     1       4.914  -9.742   4.787  1.00  0.00     0.060 A 
BRANCH  71  72
ATOM     72  S   UNL     1       5.784 -10.748   3.562  1.00  0.00     0.124 S 
ATOM     73  O   UNL     1       4.736 -11.657   3.111  1.00  0.00    -0.237 OA
ATOM     74  O   UNL     1       6.225  -9.754   2.587  1.00  0.00    -0.237 OA
ATOM     75  O   UNL     1       6.860 -11.367   4.333  1.00  0.00    -0.744 OA
ENDBRANCH  71  72
ENDBRANCH  39  64
ENDBRANCH  13  14
ENDBRANCH   6   8
ENDBRANCH   5   6
ENDBRANCH   4   5
ENDBRANCH   3   4
ENDBRANCH   2   3
ENDBRANCH   1   2
BRANCH   1  76
ATOM     76  C   UNL     1       2.303   1.953  -1.147  1.00  0.00     0.188 C 
BRANCH  76  77
ATOM     77  O   UNL     1       2.469   2.971  -2.133  1.00  0.00    -0.376 OA
BRANCH  77  78
ATOM     78  C   UNL     1       3.773   3.253  -2.608  1.00  0.00     0.202 C 
BRANCH  78  79
ATOM     79  C   UNL     1       4.307   4.537  -1.968  1.00  0.00     0.261 C 
BRANCH  79  80
ATOM     80  O   UNL     1       4.057   4.617  -0.556  1.00  0.00    -0.458 OA
BRANCH  80  81
ATOM     81  C   UNL     1       2.804   5.044  -0.197  1.00  0.00     0.361 C 
ATOM     82  O   UNL     1       1.938   5.438  -0.964  1.00  0.00    -0.244 OA
BRANCH  81  83
ATOM     83  C   UNL     1       2.661   5.115   1.243  1.00  0.00     0.198 A 
ATOM     84  N   UNL     1       1.843   4.309   1.991  1.00  0.00    -0.122 NA
ATOM     85  C   UNL     1       3.327   6.002   2.072  1.00  0.00     0.109 A 
ATOM     86  N   UNL     1       1.958   4.681   3.262  1.00  0.00    -0.061 NA
ATOM     87  N   UNL     1       2.680   5.824   3.284  1.00  0.00    -0.211 N 
BRANCH  85  88
ATOM     88  C   UNL     1       4.399   6.942   1.772  1.00  0.00     0.004 A 
ATOM     89  C   UNL     1       5.553   6.986   2.564  1.00  0.00     0.010 A 
ATOM     90  C   UNL     1       4.321   7.754   0.632  1.00  0.00     0.031 A 
ATOM     91  C   UNL     1       6.608   7.835   2.225  1.00  0.00     0.002 A 
ATOM     92  C   UNL     1       5.377   8.596   0.297  1.00  0.00     0.041 A 
ATOM     93  C   UNL     1       6.520   8.641   1.090  1.00  0.00     0.020 A 
ATOM     94  Cl  UNL     1       5.268   9.576  -1.112  1.00  0.00    -0.084 Cl
ENDBRANCH  85  88
BRANCH  87  95
ATOM     95  C   UNL     1       2.655   6.689   4.400  1.00  0.00     0.079 A 
ATOM     96  C   UNL     1       2.954   6.144   5.657  1.00  0.00     0.029 A 
ATOM     97  C   UNL     1       2.359   8.062   4.262  1.00  0.00     0.081 A 
ATOM     98  C   UNL     1       3.077   6.985   6.764  1.00  0.00     0.002 A 
ATOM     99  C   UNL     1       2.513   8.888   5.391  1.00  0.00     0.015 A 
ATOM    100  C   UNL     1       2.881   8.357   6.626  1.00  0.00     0.001 A 
BRANCH  97 101
ATOM    101  C   UNL     1       1.774   8.697   3.018  1.00  0.00     0.418 C 
ATOM    102  F   UNL     1       0.738   9.537   3.311  1.00  0.00    -0.166 F 
ATOM    103  F   UNL     1       2.678   9.465   2.353  1.00  0.00    -0.166 F 
ATOM    104  F   UNL     1       1.270   7.824   2.108  1.00  0.00    -0.166 F 
ENDBRANCH  97 101
ENDBRANCH  87  95
ENDBRANCH  81  83
ENDBRANCH  80  81
ENDBRANCH  79  80
ENDBRANCH  78  79
ENDBRANCH  77  78
ENDBRANCH  76  77
ENDBRANCH   1  76
TORSDOF 23
