REMARK SMILES O=C(N[C@@H](Cc1ccccc1)C(=O)N[C@@H](CS)C(=O)N[C@@H](CO)C(=O)OCCOCCOCCOC(=O)c1ccc(-c2c3nc(c(-c4c(F)cc(S(=O)(=O)[O-])cc4F)c4ccc([nH]4)c(-c4c(F)cc(S(=O)(=O)[O-])cc4F)c4nc(c(-c5c(F)cc(S(=O)(=O)[O-])cc5F)c5ccc2[nH]5)C=C4)C=C3)cc1)c1ccc(F)cc1
REMARK SMILES IDX 29 1 28 2 27 3 26 4 24 5 25 6 21 7 20 8 18 9 19 10 15 12
REMARK SMILES IDX 14 13 12 14 13 15 4 17 3 18 1 19 2 20 104 22 105 23 110 24
REMARK SMILES IDX 106 25 109 26 107 27 108 28 5 29 6 30 7 31 11 32 8 33 10 34
REMARK SMILES IDX 9 35 16 36 17 37 22 39 23 40 30 42 31 43 32 44 33 45 34 46
REMARK SMILES IDX 35 47 36 48 37 49 38 50 39 51 103 52 40 53 102 54 41 55
REMARK SMILES IDX 42 56 43 57 96 58 44 59 101 60 95 61 97 62 45 63 100 64
REMARK SMILES IDX 94 65 93 66 46 68 80 69 59 70 79 71 60 72 63 73 78 74 98 75
REMARK SMILES IDX 61 76 62 77 77 79 99 80 64 81 47 82 48 83 57 84 49 85 50 86
REMARK SMILES IDX 56 87 58 88 51 89 52 90 53 91 54 92 55 93 81 94 82 95 91 96
REMARK SMILES IDX 83 97 84 98 90 99 92 100 85 101 86 102 87 103 88 104 89 105
REMARK SMILES IDX 65 106 66 107 75 108 67 109 68 110 74 111 76 112 69 113
REMARK SMILES IDX 70 114 71 115 72 116 73 117
REMARK H PARENT 20 11 14 16 3 21 17 38 23 41 97 67 63 78
REMARK Flexibility Score: inf
ROOT
ATOM      1  O   UNL     1       1.343  -8.329   4.775  1.00  0.00    -0.376 OA
ENDROOT
BRANCH   1   2
ATOM      2  C   UNL     1       2.276  -9.201   5.399  1.00  0.00     0.202 C 
BRANCH   2   3
ATOM      3  C   UNL     1       3.594  -9.492   4.671  1.00  0.00     0.261 C 
BRANCH   3   4
ATOM      4  O   UNL     1       4.239  -8.324   4.133  1.00  0.00    -0.462 OA
BRANCH   4   5
ATOM      5  C   UNL     1       4.867  -8.520   2.939  1.00  0.00     0.331 C 
ATOM      6  O   UNL     1       5.011  -9.615   2.406  1.00  0.00    -0.250 OA
BRANCH   5   7
ATOM      7  C   UNL     1       5.422  -7.223   2.327  1.00  0.00     0.218 C 
BRANCH   7   8
ATOM      8  N   UNL     1       5.043  -5.956   3.002  1.00  0.00    -0.339 N 
ATOM      9  C   UNL     1       5.402  -4.757   2.448  1.00  0.00     0.244 C 
ATOM     10  O   UNL     1       6.571  -4.390   2.607  1.00  0.00    -0.273 OA
ATOM     11  H   UNL     1       4.536  -5.979   3.845  1.00  0.00     0.164 HD
BRANCH   9  12
ATOM     12  C   UNL     1       4.330  -3.834   1.771  1.00  0.00     0.181 C 
BRANCH  12  13
ATOM     13  N   UNL     1       5.024  -3.129   0.682  1.00  0.00    -0.342 N 
ATOM     14  C   UNL     1       5.434  -1.830   0.602  1.00  0.00     0.243 C 
ATOM     15  O   UNL     1       6.518  -1.636   0.037  1.00  0.00    -0.273 OA
ATOM     16  H   UNL     1       5.222  -3.678  -0.111  1.00  0.00     0.164 HD
BRANCH  14  17
ATOM     17  C   UNL     1       4.647  -0.622   1.169  1.00  0.00     0.176 C 
BRANCH  17  18
ATOM     18  N   UNL     1       3.198  -0.746   1.052  1.00  0.00    -0.340 N 
ATOM     19  O   UNL     1       1.150  -0.325   0.237  1.00  0.00    -0.269 OA
ATOM     20  C   UNL     1       2.360  -0.160   0.128  1.00  0.00     0.251 C 
ATOM     21  H   UNL     1       2.761  -1.322   1.721  1.00  0.00     0.164 HD
BRANCH  20  22
ATOM     22  C   UNL     1       2.904   0.730  -0.933  1.00  0.00     0.040 A 
ATOM     23  C   UNL     1       3.878   0.289  -1.840  1.00  0.00     0.017 A 
ATOM     24  C   UNL     1       2.437   2.051  -0.998  1.00  0.00     0.017 A 
ATOM     25  C   UNL     1       4.442   1.190  -2.749  1.00  0.00     0.040 A 
ATOM     26  C   UNL     1       2.997   2.945  -1.917  1.00  0.00     0.040 A 
ATOM     27  C   UNL     1       4.006   2.511  -2.771  1.00  0.00     0.123 A 
ATOM     28  F   UNL     1       4.570   3.377  -3.623  1.00  0.00    -0.207 F 
ENDBRANCH  20  22
ENDBRANCH  17  18
BRANCH  17  29
ATOM     29  C   UNL     1       5.142  -0.022   2.501  1.00  0.00     0.070 C 
BRANCH  29  30
ATOM     30  C   UNL     1       4.657  -0.629   3.795  1.00  0.00    -0.045 A 
ATOM     31  C   UNL     1       3.645  -0.013   4.545  1.00  0.00     0.004 A 
ATOM     32  C   UNL     1       5.252  -1.788   4.302  1.00  0.00     0.004 A 
ATOM     33  C   UNL     1       3.205  -0.579   5.744  1.00  0.00     0.000 A 
ATOM     34  C   UNL     1       4.777  -2.384   5.472  1.00  0.00     0.000 A 
ATOM     35  C   UNL     1       3.750  -1.780   6.192  1.00  0.00     0.000 A 
ENDBRANCH  29  30
ENDBRANCH  17  29
ENDBRANCH  14  17
ENDBRANCH  12  13
BRANCH  12  36
ATOM     36  C   UNL     1       2.995  -4.458   1.359  1.00  0.00     0.101 C 
BRANCH  36  37
ATOM     37  S   UNL     1       3.045  -5.780   0.118  1.00  0.00    -0.177 SA
ATOM     38  H   UNL     1       3.507  -5.280  -1.059  1.00  0.00     0.102 HD
ENDBRANCH  36  37
ENDBRANCH  12  36
ENDBRANCH   9  12
ENDBRANCH   7   8
BRANCH   7  39
ATOM     39  C   UNL     1       6.950  -7.386   2.236  1.00  0.00     0.193 C 
BRANCH  39  40
ATOM     40  O   UNL     1       7.561  -7.111   3.500  1.00  0.00    -0.394 OA
ATOM     41  H   UNL     1       7.365  -6.198   3.763  1.00  0.00     0.210 HD
ENDBRANCH  39  40
ENDBRANCH   7  39
ENDBRANCH   5   7
ENDBRANCH   4   5
ENDBRANCH   3   4
ENDBRANCH   2   3
ENDBRANCH   1   2
BRANCH   1  42
ATOM     42  C   UNL     1       1.773  -7.029   4.386  1.00  0.00     0.188 C 
BRANCH  42  43
ATOM     43  C   UNL     1       2.583  -6.171   5.382  1.00  0.00     0.188 C 
BRANCH  43  44
ATOM     44  O   UNL     1       2.806  -6.762   6.649  1.00  0.00    -0.376 OA
BRANCH  44  45
ATOM     45  C   UNL     1       2.175  -6.116   7.747  1.00  0.00     0.202 C 
BRANCH  45  46
ATOM     46  C   UNL     1       0.641  -6.194   7.758  1.00  0.00     0.261 C 
BRANCH  46  47
ATOM     47  O   UNL     1      -0.012  -5.614   6.614  1.00  0.00    -0.460 OA
BRANCH  47  48
ATOM     48  C   UNL     1       0.027  -4.265   6.498  1.00  0.00     0.338 C 
ATOM     49  O   UNL     1       0.566  -3.482   7.254  1.00  0.00    -0.246 OA
BRANCH  48  50
ATOM     50  C   UNL     1      -0.536  -3.919   5.173  1.00  0.00     0.060 A 
ATOM     51  C   UNL     1       0.314  -3.405   4.186  1.00  0.00     0.016 A 
ATOM     52  C   UNL     1      -1.893  -4.115   4.903  1.00  0.00     0.016 A 
ATOM     53  C   UNL     1      -0.191  -3.104   2.917  1.00  0.00     0.010 A 
ATOM     54  C   UNL     1      -2.398  -3.794   3.638  1.00  0.00     0.010 A 
ATOM     55  C   UNL     1      -1.551  -3.287   2.636  1.00  0.00    -0.014 A 
BRANCH  55  56
ATOM     56  C   UNL     1      -2.115  -2.827   1.341  1.00  0.00     0.031 A 
ATOM     57  C   UNL     1      -2.759  -1.471   1.270  1.00  0.00     0.074 A 
ATOM     58  C   UNL     1      -2.042  -3.589   0.234  1.00  0.00     0.049 A 
ATOM     59  N   UNL     1      -3.432  -0.917   0.296  1.00  0.00    -0.248 NA
ATOM     60  C   UNL     1      -2.626  -0.630   2.470  1.00  0.00     0.031 C 
ATOM     61  C   UNL     1      -1.360  -4.877   0.134  1.00  0.00     0.029 A 
ATOM     62  N   UNL     1      -2.554  -3.381  -1.025  1.00  0.00    -0.354 N 
ATOM     63  C   UNL     1      -3.811   0.335   0.765  1.00  0.00     0.074 A 
ATOM     64  C   UNL     1      -3.311   0.447   2.119  1.00  0.00     0.031 C 
ATOM     65  C   UNL     1      -1.491  -5.343  -1.121  1.00  0.00     0.029 A 
ATOM     66  C   UNL     1      -2.315  -4.417  -1.898  1.00  0.00     0.049 A 
ATOM     67  H   UNL     1      -3.045  -2.567  -1.278  1.00  0.00     0.167 HD
ATOM     68  C   UNL     1      -4.516   1.301   0.128  1.00  0.00     0.037 A 
ATOM     69  C   UNL     1      -2.741  -4.608  -3.163  1.00  0.00     0.037 A 
ATOM     70  C   UNL     1      -5.013   1.186  -1.218  1.00  0.00     0.049 A 
ATOM     71  C   UNL     1      -3.638  -3.579  -3.809  1.00  0.00     0.074 A 
ATOM     72  C   UNL     1      -5.755   2.101  -1.945  1.00  0.00     0.029 A 
ATOM     73  N   UNL     1      -4.822   0.084  -2.041  1.00  0.00    -0.354 N 
ATOM     74  N   UNL     1      -4.033  -2.418  -3.344  1.00  0.00    -0.248 NA
ATOM     75  C   UNL     1      -4.167  -3.900  -5.144  1.00  0.00     0.031 C 
ATOM     76  C   UNL     1      -6.058   1.530  -3.186  1.00  0.00     0.029 A 
ATOM     77  C   UNL     1      -5.462   0.281  -3.253  1.00  0.00     0.049 A 
ATOM     78  H   UNL     1      -4.307  -0.719  -1.798  1.00  0.00     0.167 HD
ATOM     79  C   UNL     1      -4.835  -1.860  -4.336  1.00  0.00     0.074 A 
ATOM     80  C   UNL     1      -4.865  -2.809  -5.430  1.00  0.00     0.031 C 
ATOM     81  C   UNL     1      -5.484  -0.669  -4.340  1.00  0.00     0.037 A 
BRANCH  68  82
ATOM     82  C   UNL     1      -4.849   2.535   0.919  1.00  0.00     0.058 A 
ATOM     83  C   UNL     1      -3.876   3.487   1.261  1.00  0.00     0.135 A 
ATOM     84  C   UNL     1      -6.162   2.749   1.368  1.00  0.00     0.135 A 
ATOM     85  F   UNL     1      -2.601   3.324   0.873  1.00  0.00    -0.206 F 
ATOM     86  C   UNL     1      -4.184   4.582   2.064  1.00  0.00     0.059 A 
ATOM     87  C   UNL     1      -6.498   3.851   2.148  1.00  0.00     0.059 A 
ATOM     88  F   UNL     1      -7.131   1.870   1.068  1.00  0.00    -0.206 F 
ATOM     89  C   UNL     1      -5.495   4.748   2.512  1.00  0.00     0.060 A 
BRANCH  89  90
ATOM     90  S   UNL     1      -5.870   6.139   3.600  1.00  0.00     0.124 S 
ATOM     91  O   UNL     1      -5.282   5.688   4.858  1.00  0.00    -0.237 OA
ATOM     92  O   UNL     1      -5.183   7.246   2.942  1.00  0.00    -0.237 OA
ATOM     93  O   UNL     1      -7.327   6.207   3.576  1.00  0.00    -0.744 OA
ENDBRANCH  89  90
ENDBRANCH  68  82
BRANCH  69  94
ATOM     94  C   UNL     1      -2.354  -5.839  -3.905  1.00  0.00     0.058 A 
ATOM     95  C   UNL     1      -1.493  -5.774  -5.011  1.00  0.00     0.135 A 
ATOM     96  C   UNL     1      -2.837  -7.103  -3.530  1.00  0.00     0.135 A 
ATOM     97  F   UNL     1      -1.022  -4.588  -5.425  1.00  0.00    -0.206 F 
ATOM     98  C   UNL     1      -1.125  -6.915  -5.718  1.00  0.00     0.059 A 
ATOM     99  C   UNL     1      -2.463  -8.261  -4.205  1.00  0.00     0.059 A 
ATOM    100  F   UNL     1      -3.667  -7.221  -2.482  1.00  0.00    -0.206 F 
ATOM    101  C   UNL     1      -1.610  -8.156  -5.302  1.00  0.00     0.060 A 
BRANCH 101 102
ATOM    102  S   UNL     1      -1.073  -9.636  -6.188  1.00  0.00     0.124 S 
ATOM    103  O   UNL     1      -1.802  -9.509  -7.444  1.00  0.00    -0.237 OA
ATOM    104  O   UNL     1       0.371  -9.439  -6.265  1.00  0.00    -0.237 OA
ATOM    105  O   UNL     1      -1.504 -10.724  -5.315  1.00  0.00    -0.744 OA
ENDBRANCH 101 102
ENDBRANCH  69  94
BRANCH  81 106
ATOM    106  C   UNL     1      -6.265  -0.299  -5.573  1.00  0.00     0.058 A 
ATOM    107  C   UNL     1      -7.496  -0.902  -5.875  1.00  0.00     0.135 A 
ATOM    108  C   UNL     1      -5.812   0.724  -6.422  1.00  0.00     0.135 A 
ATOM    109  F   UNL     1      -7.973  -1.890  -5.102  1.00  0.00    -0.206 F 
ATOM    110  C   UNL     1      -8.246  -0.510  -6.981  1.00  0.00     0.059 A 
ATOM    111  C   UNL     1      -6.556   1.148  -7.519  1.00  0.00     0.059 A 
ATOM    112  F   UNL     1      -4.645   1.341  -6.175  1.00  0.00    -0.206 F 
ATOM    113  C   UNL     1      -7.770   0.520  -7.795  1.00  0.00     0.060 A 
BRANCH 113 114
ATOM    114  S   UNL     1      -8.779   1.057  -9.193  1.00  0.00     0.124 S 
ATOM    115  O   UNL     1      -8.594  -0.045 -10.131  1.00  0.00    -0.237 OA
ATOM    116  O   UNL     1     -10.107   1.167  -8.598  1.00  0.00    -0.237 OA
ATOM    117  O   UNL     1      -8.169   2.324  -9.586  1.00  0.00    -0.744 OA
ENDBRANCH 113 114
ENDBRANCH  81 106
ENDBRANCH  55  56
ENDBRANCH  48  50
ENDBRANCH  47  48
ENDBRANCH  46  47
ENDBRANCH  45  46
ENDBRANCH  44  45
ENDBRANCH  43  44
ENDBRANCH  42  43
ENDBRANCH   1  42
TORSDOF 32
