REMARK SMILES O=C(OCCOCCOCCOC(=O)c1ccccc1/C=C1\SC(=S)N(Cc2ccccc2)C1=O)c1ccc(-c2c3nc(c(-c4c(F)cc(S(=O)(=O)[O-])cc4F)c4ccc([nH]4)c(-c4c(F)cc(S(=O)(=O)[O-])cc4F)c4nc(c(-c5c(F)cc(S(=O)(=O)[O-])cc5F)c5ccc2[nH]5)C=C4)C=C3)cc1
REMARK SMILES IDX 7 1 6 2 5 3 4 4 3 5 2 6 1 7 36 8 37 9 101 10 38 11 100 12
REMARK SMILES IDX 39 13 40 14 41 15 94 16 42 17 99 18 93 19 95 20 43 21 98 22
REMARK SMILES IDX 92 23 91 24 44 26 78 27 57 28 77 29 58 30 61 31 76 32 96 33
REMARK SMILES IDX 59 34 60 35 75 37 97 38 62 39 45 40 46 41 55 42 47 43 48 44
REMARK SMILES IDX 54 45 56 46 49 47 50 48 51 49 52 50 53 51 79 52 80 53 89 54
REMARK SMILES IDX 81 55 82 56 88 57 90 58 83 59 84 60 85 61 86 62 87 63 63 64
REMARK SMILES IDX 64 65 73 66 65 67 66 68 72 69 74 70 67 71 68 72 69 73 70 74
REMARK SMILES IDX 71 75 8 76 9 77 10 78 11 79 12 80 13 81 14 82 15 83 16 84
REMARK SMILES IDX 20 85 17 86 19 87 18 88 21 89 22 90 23 91 34 92 24 93 26 94
REMARK SMILES IDX 35 95 25 96 27 97 28 98 29 99 33 100 30 101 32 102 31 103
REMARK H PARENT 95 25 61 36
REMARK Flexibility Score: inf
ROOT
ATOM      1  C   UNL     1       2.619   0.244  -1.739  1.00  0.00     0.188 C 
ENDROOT
BRANCH   1   2
ATOM      2  O   UNL     1       3.986   0.561  -1.494  1.00  0.00    -0.376 OA
BRANCH   2   3
ATOM      3  C   UNL     1       4.830  -0.577  -1.281  1.00  0.00     0.202 C 
BRANCH   3   4
ATOM      4  C   UNL     1       4.528  -1.460  -0.048  1.00  0.00     0.261 C 
BRANCH   4   5
ATOM      5  O   UNL     1       3.155  -1.461   0.393  1.00  0.00    -0.460 OA
BRANCH   5   6
ATOM      6  C   UNL     1       2.512  -0.641   1.261  1.00  0.00     0.338 C 
ATOM      7  O   UNL     1       1.332  -0.875   1.520  1.00  0.00    -0.246 OA
BRANCH   6   8
ATOM      8  C   UNL     1       3.144   0.549   1.905  1.00  0.00     0.060 A 
ATOM      9  C   UNL     1       4.309   1.164   1.456  1.00  0.00     0.016 A 
ATOM     10  C   UNL     1       2.499   1.109   3.023  1.00  0.00     0.016 A 
ATOM     11  C   UNL     1       4.899   2.202   2.149  1.00  0.00     0.010 A 
ATOM     12  C   UNL     1       3.067   2.185   3.717  1.00  0.00     0.010 A 
ATOM     13  C   UNL     1       4.309   2.683   3.310  1.00  0.00    -0.014 A 
BRANCH  13  14
ATOM     14  C   UNL     1       5.167   3.504   4.181  1.00  0.00     0.031 A 
ATOM     15  C   UNL     1       5.785   2.827   5.372  1.00  0.00     0.074 A 
ATOM     16  C   UNL     1       5.550   4.728   3.777  1.00  0.00     0.049 A 
ATOM     17  N   UNL     1       6.617   3.302   6.257  1.00  0.00    -0.248 NA
ATOM     18  C   UNL     1       5.435   1.409   5.582  1.00  0.00     0.031 C 
ATOM     19  C   UNL     1       5.112   5.383   2.540  1.00  0.00     0.029 A 
ATOM     20  N   UNL     1       6.435   5.613   4.328  1.00  0.00    -0.354 N 
ATOM     21  C   UNL     1       6.854   2.259   7.145  1.00  0.00     0.074 A 
ATOM     22  C   UNL     1       6.079   1.127   6.702  1.00  0.00     0.031 C 
ATOM     23  C   UNL     1       5.757   6.554   2.414  1.00  0.00     0.029 A 
ATOM     24  C   UNL     1       6.595   6.761   3.590  1.00  0.00     0.049 A 
ATOM     25  H   UNL     1       6.911   5.444   5.173  1.00  0.00     0.167 HD
ATOM     26  C   UNL     1       7.650   2.257   8.238  1.00  0.00     0.037 A 
ATOM     27  C   UNL     1       7.322   7.861   3.861  1.00  0.00     0.037 A 
ATOM     28  C   UNL     1       8.421   3.402   8.638  1.00  0.00     0.049 A 
ATOM     29  C   UNL     1       8.124   7.870   5.137  1.00  0.00     0.074 A 
ATOM     30  C   UNL     1       9.220   3.560   9.753  1.00  0.00     0.029 A 
ATOM     31  N   UNL     1       8.483   4.591   7.922  1.00  0.00    -0.354 N 
ATOM     32  N   UNL     1       8.279   6.910   6.020  1.00  0.00    -0.248 NA
ATOM     33  C   UNL     1       8.840   9.108   5.460  1.00  0.00     0.031 C 
ATOM     34  C   UNL     1       9.721   4.866   9.740  1.00  0.00     0.029 A 
ATOM     35  C   UNL     1       9.290   5.498   8.582  1.00  0.00     0.049 A 
ATOM     36  H   UNL     1       8.020   4.763   7.070  1.00  0.00     0.167 HD
ATOM     37  C   UNL     1       9.136   7.416   6.989  1.00  0.00     0.074 A 
ATOM     38  C   UNL     1       9.473   8.765   6.574  1.00  0.00     0.031 C 
ATOM     39  C   UNL     1       9.607   6.828   8.118  1.00  0.00     0.037 A 
BRANCH  26  40
ATOM     40  C   UNL     1       7.640   1.025   9.100  1.00  0.00     0.058 A 
ATOM     41  C   UNL     1       8.214  -0.190   8.691  1.00  0.00     0.135 A 
ATOM     42  C   UNL     1       7.002   1.056  10.351  1.00  0.00     0.135 A 
ATOM     43  F   UNL     1       8.803  -0.289   7.488  1.00  0.00    -0.206 F 
ATOM     44  C   UNL     1       8.130  -1.336   9.478  1.00  0.00     0.059 A 
ATOM     45  C   UNL     1       6.931  -0.068  11.166  1.00  0.00     0.059 A 
ATOM     46  F   UNL     1       6.421   2.186  10.784  1.00  0.00    -0.206 F 
ATOM     47  C   UNL     1       7.484  -1.265  10.714  1.00  0.00     0.060 A 
BRANCH  47  48
ATOM     48  S   UNL     1       7.371  -2.760  11.720  1.00  0.00     0.124 S 
ATOM     49  O   UNL     1       6.401  -3.546  10.965  1.00  0.00    -0.237 OA
ATOM     50  O   UNL     1       8.744  -3.255  11.695  1.00  0.00    -0.237 OA
ATOM     51  O   UNL     1       6.909  -2.266  13.013  1.00  0.00    -0.744 OA
ENDBRANCH  47  48
ENDBRANCH  26  40
BRANCH  27  52
ATOM     52  C   UNL     1       7.288   9.035   2.946  1.00  0.00     0.058 A 
ATOM     53  C   UNL     1       8.436   9.472   2.269  1.00  0.00     0.135 A 
ATOM     54  C   UNL     1       6.098   9.752   2.733  1.00  0.00     0.135 A 
ATOM     55  F   UNL     1       9.601   8.829   2.438  1.00  0.00    -0.206 F 
ATOM     56  C   UNL     1       8.411  10.584   1.431  1.00  0.00     0.059 A 
ATOM     57  C   UNL     1       6.041  10.847   1.878  1.00  0.00     0.059 A 
ATOM     58  F   UNL     1       4.964   9.373   3.344  1.00  0.00    -0.206 F 
ATOM     59  C   UNL     1       7.207  11.264   1.241  1.00  0.00     0.060 A 
BRANCH  59  60
ATOM     60  S   UNL     1       7.177  12.684   0.126  1.00  0.00     0.124 S 
ATOM     61  O   UNL     1       7.918  13.677   0.895  1.00  0.00    -0.237 OA
ATOM     62  O   UNL     1       7.850  12.157  -1.057  1.00  0.00    -0.237 OA
ATOM     63  O   UNL     1       5.751  12.950  -0.039  1.00  0.00    -0.744 OA
ENDBRANCH  59  60
ENDBRANCH  27  52
BRANCH  39  64
ATOM     64  C   UNL     1      10.578   7.621   8.944  1.00  0.00     0.058 A 
ATOM     65  C   UNL     1      10.176   8.729   9.703  1.00  0.00     0.135 A 
ATOM     66  C   UNL     1      11.925   7.226   9.010  1.00  0.00     0.135 A 
ATOM     67  F   UNL     1       8.901   9.146   9.670  1.00  0.00    -0.206 F 
ATOM     68  C   UNL     1      11.085   9.443  10.475  1.00  0.00     0.059 A 
ATOM     69  C   UNL     1      12.842   7.903   9.802  1.00  0.00     0.059 A 
ATOM     70  F   UNL     1      12.353   6.161   8.313  1.00  0.00    -0.206 F 
ATOM     71  C   UNL     1      12.416   9.020  10.518  1.00  0.00     0.060 A 
BRANCH  71  72
ATOM     72  S   UNL     1      13.582   9.942  11.540  1.00  0.00     0.124 S 
ATOM     73  O   UNL     1      13.771  11.152  10.748  1.00  0.00    -0.237 OA
ATOM     74  O   UNL     1      12.840  10.108  12.786  1.00  0.00    -0.237 OA
ATOM     75  O   UNL     1      14.738   9.054  11.620  1.00  0.00    -0.744 OA
ENDBRANCH  71  72
ENDBRANCH  39  64
ENDBRANCH  13  14
ENDBRANCH   6   8
ENDBRANCH   5   6
ENDBRANCH   4   5
ENDBRANCH   3   4
ENDBRANCH   2   3
ENDBRANCH   1   2
BRANCH   1  76
ATOM     76  C   UNL     1       1.993   0.831  -2.999  1.00  0.00     0.188 C 
BRANCH  76  77
ATOM     77  O   UNL     1       2.710   0.735  -4.218  1.00  0.00    -0.376 OA
BRANCH  77  78
ATOM     78  C   UNL     1       4.037   1.241  -4.250  1.00  0.00     0.202 C 
BRANCH  78  79
ATOM     79  C   UNL     1       4.298   2.723  -3.946  1.00  0.00     0.261 C 
BRANCH  79  80
ATOM     80  O   UNL     1       3.796   3.259  -2.709  1.00  0.00    -0.460 OA
BRANCH  80  81
ATOM     81  C   UNL     1       2.647   3.973  -2.829  1.00  0.00     0.338 C 
ATOM     82  O   UNL     1       1.900   3.982  -3.796  1.00  0.00    -0.246 OA
BRANCH  81  83
ATOM     83  C   UNL     1       2.371   4.802  -1.639  1.00  0.00     0.067 A 
ATOM     84  C   UNL     1       1.214   4.519  -0.906  1.00  0.00     0.016 A 
ATOM     85  C   UNL     1       3.136   5.951  -1.357  1.00  0.00    -0.010 A 
ATOM     86  C   UNL     1       0.802   5.393   0.099  1.00  0.00     0.001 A 
ATOM     87  C   UNL     1       2.696   6.834  -0.365  1.00  0.00     0.009 A 
ATOM     88  C   UNL     1       1.526   6.559   0.350  1.00  0.00     0.001 A 
BRANCH  85  89
ATOM     89  C   UNL     1       4.442   6.165  -1.982  1.00  0.00     0.030 C 
ATOM     90  C   UNL     1       4.675   6.339  -3.288  1.00  0.00     0.081 C 
ATOM     91  S   UNL     1       3.582   6.653  -4.570  1.00  0.00    -0.054 SA
ATOM     92  C   UNL     1       6.011   6.003  -3.823  1.00  0.00     0.266 C 
ATOM     93  C   UNL     1       4.753   6.181  -5.795  1.00  0.00     0.148 C 
ATOM     94  N   UNL     1       5.981   5.985  -5.203  1.00  0.00    -0.288 N 
ATOM     95  O   UNL     1       6.959   5.664  -3.120  1.00  0.00    -0.268 OA
ATOM     96  S   UNL     1       4.340   5.986  -7.401  1.00  0.00    -0.052 S 
BRANCH  94  97
ATOM     97  C   UNL     1       7.247   5.829  -5.910  1.00  0.00     0.163 C 
BRANCH  97  98
ATOM     98  C   UNL     1       7.889   7.191  -6.065  1.00  0.00    -0.028 A 
ATOM     99  C   UNL     1       7.815   7.884  -7.279  1.00  0.00     0.005 A 
ATOM    100  C   UNL     1       8.445   7.836  -4.947  1.00  0.00     0.005 A 
ATOM    101  C   UNL     1       8.263   9.203  -7.361  1.00  0.00     0.000 A 
ATOM    102  C   UNL     1       8.865   9.160  -5.024  1.00  0.00     0.000 A 
ATOM    103  C   UNL     1       8.772   9.844  -6.232  1.00  0.00     0.000 A 
ENDBRANCH  97  98
ENDBRANCH  94  97
ENDBRANCH  85  89
ENDBRANCH  81  83
ENDBRANCH  80  81
ENDBRANCH  79  80
ENDBRANCH  78  79
ENDBRANCH  77  78
ENDBRANCH  76  77
ENDBRANCH   1  76
TORSDOF 23
