REMARK SMILES O=C(OCCOCCOCCOC(=O)c1ccc2nc(-c3cc(F)cc(Br)c3)[nH]c2c1)c1ccc(-c2c3nc(c(-c4c(F)cc(S(=O)(=O)[O-])cc4F)c4ccc([nH]4)c(-c4c(F)cc(S(=O)(=O)[O-])cc4F)c4nc(c(-c5c(F)cc(S(=O)(=O)[O-])cc5F)c5ccc2[nH]5)C=C4)C=C3)cc1
REMARK SMILES IDX 7 1 6 2 5 3 4 4 3 5 2 6 1 7 32 8 33 9 97 10 34 11 96 12
REMARK SMILES IDX 35 13 36 14 37 15 90 16 38 17 95 18 89 19 91 20 39 21 94 22
REMARK SMILES IDX 88 23 87 24 40 26 74 27 53 28 73 29 54 30 57 31 72 32 92 33
REMARK SMILES IDX 55 34 56 35 71 37 93 38 58 39 41 40 42 41 51 42 43 43 44 44
REMARK SMILES IDX 50 45 52 46 45 47 46 48 47 49 48 50 49 51 75 52 76 53 85 54
REMARK SMILES IDX 77 55 78 56 84 57 86 58 79 59 80 60 81 61 82 62 83 63 59 64
REMARK SMILES IDX 60 65 69 66 61 67 62 68 68 69 70 70 63 71 64 72 65 73 66 74
REMARK SMILES IDX 67 75 8 76 9 77 10 78 11 79 12 80 13 81 14 82 15 83 16 84
REMARK SMILES IDX 31 85 17 86 30 87 18 88 29 89 19 90 20 91 21 93 22 94 28 95
REMARK SMILES IDX 23 96 26 97 24 98 25 99 27 100
REMARK H PARENT 91 25 57 36 29 92
REMARK Flexibility Score: inf
ROOT
ATOM      1  C   UNL     1       2.487  -1.686  -1.210  1.00  0.00     0.188 C 
ENDROOT
BRANCH   1   2
ATOM      2  O   UNL     1       3.765  -1.042  -1.131  1.00  0.00    -0.376 OA
BRANCH   2   3
ATOM      3  C   UNL     1       4.606  -1.547  -0.090  1.00  0.00     0.202 C 
BRANCH   3   4
ATOM      4  C   UNL     1       4.434  -0.831   1.255  1.00  0.00     0.261 C 
BRANCH   4   5
ATOM      5  O   UNL     1       3.060  -0.495   1.508  1.00  0.00    -0.460 OA
BRANCH   5   6
ATOM      6  C   UNL     1       2.428   0.675   1.237  1.00  0.00     0.338 C 
ATOM      7  O   UNL     1       1.227   0.765   1.489  1.00  0.00    -0.246 OA
BRANCH   6   8
ATOM      8  C   UNL     1       3.116   1.888   0.696  1.00  0.00     0.060 A 
ATOM      9  C   UNL     1       4.236   1.876  -0.137  1.00  0.00     0.016 A 
ATOM     10  C   UNL     1       2.550   3.135   1.017  1.00  0.00     0.016 A 
ATOM     11  C   UNL     1       4.862   3.057  -0.522  1.00  0.00     0.010 A 
ATOM     12  C   UNL     1       3.135   4.328   0.577  1.00  0.00     0.010 A 
ATOM     13  C   UNL     1       4.326   4.291  -0.154  1.00  0.00    -0.014 A 
BRANCH  13  14
ATOM     14  C   UNL     1       5.099   5.516  -0.447  1.00  0.00     0.031 A 
ATOM     15  C   UNL     1       5.802   6.212   0.682  1.00  0.00     0.074 A 
ATOM     16  C   UNL     1       5.263   5.922  -1.719  1.00  0.00     0.049 A 
ATOM     17  N   UNL     1       6.521   7.300   0.661  1.00  0.00    -0.248 NA
ATOM     18  C   UNL     1       5.693   5.586   2.011  1.00  0.00     0.031 C 
ATOM     19  C   UNL     1       4.707   5.249  -2.893  1.00  0.00     0.029 A 
ATOM     20  N   UNL     1       5.961   6.980  -2.240  1.00  0.00    -0.354 N 
ATOM     21  C   UNL     1       6.942   7.497   1.970  1.00  0.00     0.074 A 
ATOM     22  C   UNL     1       6.381   6.428   2.765  1.00  0.00     0.031 C 
ATOM     23  C   UNL     1       5.093   5.907  -3.998  1.00  0.00     0.029 A 
ATOM     24  C   UNL     1       5.873   7.073  -3.609  1.00  0.00     0.049 A 
ATOM     25  H   UNL     1       6.475   7.612  -1.688  1.00  0.00     0.167 HD
ATOM     26  C   UNL     1       7.731   8.482   2.459  1.00  0.00     0.037 A 
ATOM     27  C   UNL     1       6.345   8.012  -4.450  1.00  0.00     0.037 A 
ATOM     28  C   UNL     1       8.275   9.538   1.650  1.00  0.00     0.049 A 
ATOM     29  C   UNL     1       7.135   9.151  -3.872  1.00  0.00     0.074 A 
ATOM     30  C   UNL     1       9.038  10.623   2.042  1.00  0.00     0.029 A 
ATOM     31  N   UNL     1       8.110   9.638   0.275  1.00  0.00    -0.354 N 
ATOM     32  N   UNL     1       7.483   9.357  -2.623  1.00  0.00    -0.248 NA
ATOM     33  C   UNL     1       7.593  10.186  -4.806  1.00  0.00     0.031 C 
ATOM     34  C   UNL     1       9.306  11.396   0.906  1.00  0.00     0.029 A 
ATOM     35  C   UNL     1       8.743  10.773  -0.198  1.00  0.00     0.049 A 
ATOM     36  H   UNL     1       7.614   8.995  -0.282  1.00  0.00     0.167 HD
ATOM     37  C   UNL     1       8.212  10.538  -2.621  1.00  0.00     0.074 A 
ATOM     38  C   UNL     1       8.267  10.993  -3.997  1.00  0.00     0.031 C 
ATOM     39  C   UNL     1       8.783  11.190  -1.578  1.00  0.00     0.037 A 
BRANCH  26  40
ATOM     40  C   UNL     1       7.992   8.471   3.937  1.00  0.00     0.058 A 
ATOM     41  C   UNL     1       8.860   7.540   4.529  1.00  0.00     0.135 A 
ATOM     42  C   UNL     1       7.327   9.375   4.780  1.00  0.00     0.135 A 
ATOM     43  F   UNL     1       9.497   6.633   3.771  1.00  0.00    -0.206 F 
ATOM     44  C   UNL     1       9.031   7.481   5.909  1.00  0.00     0.059 A 
ATOM     45  C   UNL     1       7.498   9.348   6.161  1.00  0.00     0.059 A 
ATOM     46  F   UNL     1       6.477  10.278   4.265  1.00  0.00    -0.206 F 
ATOM     47  C   UNL     1       8.336   8.383   6.717  1.00  0.00     0.060 A 
BRANCH  47  48
ATOM     48  S   UNL     1       8.527   8.265   8.509  1.00  0.00     0.124 S 
ATOM     49  O   UNL     1       7.723   7.084   8.808  1.00  0.00    -0.237 OA
ATOM     50  O   UNL     1       9.969   8.105   8.662  1.00  0.00    -0.237 OA
ATOM     51  O   UNL     1       7.985   9.531   8.991  1.00  0.00    -0.744 OA
ENDBRANCH  47  48
ENDBRANCH  26  40
BRANCH  27  52
ATOM     52  C   UNL     1       6.047   7.927  -5.905  1.00  0.00     0.058 A 
ATOM     53  C   UNL     1       7.051   7.648  -6.843  1.00  0.00     0.135 A 
ATOM     54  C   UNL     1       4.738   8.102  -6.385  1.00  0.00     0.135 A 
ATOM     55  F   UNL     1       8.319   7.480  -6.439  1.00  0.00    -0.206 F 
ATOM     56  C   UNL     1       6.771   7.552  -8.204  1.00  0.00     0.059 A 
ATOM     57  C   UNL     1       4.428   7.984  -7.736  1.00  0.00     0.059 A 
ATOM     58  F   UNL     1       3.741   8.371  -5.527  1.00  0.00    -0.206 F 
ATOM     59  C   UNL     1       5.455   7.718  -8.640  1.00  0.00     0.060 A 
BRANCH  59  60
ATOM     60  S   UNL     1       5.095   7.539 -10.402  1.00  0.00     0.124 S 
ATOM     61  O   UNL     1       5.617   8.790 -10.937  1.00  0.00    -0.237 OA
ATOM     62  O   UNL     1       5.845   6.335 -10.747  1.00  0.00    -0.237 OA
ATOM     63  O   UNL     1       3.643   7.392 -10.435  1.00  0.00    -0.744 OA
ENDBRANCH  59  60
ENDBRANCH  27  52
BRANCH  39  64
ATOM     64  C   UNL     1       9.535  12.447  -1.895  1.00  0.00     0.058 A 
ATOM     65  C   UNL     1       8.867  13.650  -2.166  1.00  0.00     0.135 A 
ATOM     66  C   UNL     1      10.938  12.457  -1.868  1.00  0.00     0.135 A 
ATOM     67  F   UNL     1       7.526  13.684  -2.209  1.00  0.00    -0.206 F 
ATOM     68  C   UNL     1       9.568  14.824  -2.414  1.00  0.00     0.059 A 
ATOM     69  C   UNL     1      11.658  13.624  -2.093  1.00  0.00     0.059 A 
ATOM     70  F   UNL     1      11.618  11.330  -1.605  1.00  0.00    -0.206 F 
ATOM     71  C   UNL     1      10.964  14.801  -2.373  1.00  0.00     0.060 A 
BRANCH  71  72
ATOM     72  S   UNL     1      11.866  16.340  -2.648  1.00  0.00     0.124 S 
ATOM     73  O   UNL     1      11.794  16.466  -4.100  1.00  0.00    -0.237 OA
ATOM     74  O   UNL     1      11.079  17.306  -1.887  1.00  0.00    -0.237 OA
ATOM     75  O   UNL     1      13.191  16.055  -2.106  1.00  0.00    -0.744 OA
ENDBRANCH  71  72
ENDBRANCH  39  64
ENDBRANCH  13  14
ENDBRANCH   6   8
ENDBRANCH   5   6
ENDBRANCH   4   5
ENDBRANCH   3   4
ENDBRANCH   2   3
ENDBRANCH   1   2
BRANCH   1  76
ATOM     76  C   UNL     1       1.983  -1.716  -2.654  1.00  0.00     0.188 C 
BRANCH  76  77
ATOM     77  O   UNL     1       2.668  -2.632  -3.511  1.00  0.00    -0.376 OA
BRANCH  77  78
ATOM     78  C   UNL     1       4.052  -2.383  -3.741  1.00  0.00     0.202 C 
BRANCH  78  79
ATOM     79  C   UNL     1       4.404  -1.242  -4.703  1.00  0.00     0.261 C 
BRANCH  79  80
ATOM     80  O   UNL     1       3.869   0.047  -4.358  1.00  0.00    -0.460 OA
BRANCH  80  81
ATOM     81  C   UNL     1       2.872   0.464  -5.175  1.00  0.00     0.338 C 
ATOM     82  O   UNL     1       2.296  -0.194  -6.032  1.00  0.00    -0.246 OA
BRANCH  81  83
ATOM     83  C   UNL     1       2.588   1.895  -4.986  1.00  0.00     0.062 A 
ATOM     84  C   UNL     1       3.048   2.760  -5.987  1.00  0.00     0.018 A 
ATOM     85  C   UNL     1       1.726   2.329  -3.961  1.00  0.00     0.044 A 
ATOM     86  C   UNL     1       2.616   4.087  -6.028  1.00  0.00     0.031 A 
ATOM     87  C   UNL     1       1.306   3.665  -4.039  1.00  0.00     0.067 A 
ATOM     88  C   UNL     1       1.708   4.526  -5.056  1.00  0.00     0.089 A 
ATOM     89  N   UNL     1       0.450   4.432  -3.280  1.00  0.00    -0.338 N 
ATOM     90  N   UNL     1       1.077   5.733  -4.954  1.00  0.00    -0.229 NA
ATOM     91  C   UNL     1       0.305   5.660  -3.891  1.00  0.00     0.138 A 
ATOM     92  H   UNL     1       0.015   4.151  -2.443  1.00  0.00     0.168 HD
BRANCH  91  93
ATOM     93  C   UNL     1      -0.633   6.698  -3.480  1.00  0.00     0.021 A 
ATOM     94  C   UNL     1      -0.707   7.157  -2.163  1.00  0.00     0.051 A 
ATOM     95  C   UNL     1      -1.448   7.294  -4.458  1.00  0.00     0.027 A 
ATOM     96  C   UNL     1      -1.582   8.196  -1.847  1.00  0.00     0.125 A 
ATOM     97  C   UNL     1      -2.327   8.322  -4.118  1.00  0.00     0.021 A 
ATOM     98  F   UNL     1      -1.639   8.643  -0.585  1.00  0.00    -0.207 F 
ATOM     99  C   UNL     1      -2.396   8.783  -2.809  1.00  0.00     0.055 A 
ATOM    100  Br  UNL     1      -3.430   9.095  -5.445  1.00  0.00    -0.051 Br
ENDBRANCH  91  93
ENDBRANCH  81  83
ENDBRANCH  80  81
ENDBRANCH  79  80
ENDBRANCH  78  79
ENDBRANCH  77  78
ENDBRANCH  76  77
ENDBRANCH   1  76
TORSDOF 21
