REMARK SMILES Cc1cccc(-c2cc(C(=O)OCCOCCOCCOC(=O)c3ccc(-c4c5nc(c(-c6c(F)cc(S(=O)(=O)[O-])cc6F)c6ccc([nH]6)c(-c6c(F)cc(S(=O)(=O)[O-])cc6F)c6nc(c(-c7c(F)cc(S(=O)(=O)[O-])cc7F)c7ccc4[nH]7)C=C6)C=C5)cc3)ccn2)c1
REMARK SMILES IDX 17 1 16 2 15 3 14 4 13 5 12 6 10 7 11 8 9 9 7 10 8 11 92 12
REMARK SMILES IDX 91 13 90 14 6 15 1 16 2 17 3 18 93 19 4 20 5 21 18 22 19 23
REMARK SMILES IDX 20 24 21 25 22 26 23 27 24 28 25 29 89 30 26 31 88 32 27 33
REMARK SMILES IDX 28 34 29 35 82 36 30 37 87 38 81 39 83 40 31 41 86 42 80 43
REMARK SMILES IDX 79 44 32 46 66 47 45 48 65 49 46 50 49 51 64 52 84 53 47 54
REMARK SMILES IDX 48 55 63 57 85 58 50 59 33 60 34 61 43 62 35 63 36 64 42 65
REMARK SMILES IDX 44 66 37 67 38 68 39 69 40 70 41 71 67 72 68 73 77 74 69 75
REMARK SMILES IDX 70 76 76 77 78 78 71 79 72 80 73 81 74 82 75 83 51 84 52 85
REMARK SMILES IDX 61 86 53 87 54 88 60 89 62 90 55 91 56 92 57 93 58 94 59 95
REMARK H PARENT 83 45 49 56
REMARK Flexibility Score: inf
ROOT
ATOM      1  C   UNL     1      -4.410   6.501  -6.050  1.00  0.00     0.188 C 
ENDROOT
BRANCH   1   2
ATOM      2  C   UNL     1      -3.647   7.378  -5.069  1.00  0.00     0.188 C 
BRANCH   2   3
ATOM      3  O   UNL     1      -2.287   7.763  -5.304  1.00  0.00    -0.376 OA
BRANCH   3   4
ATOM      4  C   UNL     1      -1.364   6.826  -5.872  1.00  0.00     0.202 C 
BRANCH   4   5
ATOM      5  C   UNL     1      -0.303   6.000  -5.003  1.00  0.00     0.261 C 
BRANCH   5   6
ATOM      6  O   UNL     1      -0.728   5.121  -3.882  1.00  0.00    -0.460 OA
BRANCH   6   7
ATOM      7  C   UNL     1      -0.490   3.789  -3.571  1.00  0.00     0.338 C 
ATOM      8  O   UNL     1       0.309   3.129  -4.238  1.00  0.00    -0.246 OA
BRANCH   7   9
ATOM      9  C   UNL     1      -1.330   3.047  -2.225  1.00  0.00     0.063 A 
ATOM     10  C   UNL     1      -1.598   1.045  -0.975  1.00  0.00     0.071 A 
ATOM     11  C   UNL     1      -1.211   1.689  -2.169  1.00  0.00     0.044 A 
ATOM     12  N   UNL     1      -2.291   1.552   0.076  1.00  0.00    -0.256 NA
ATOM     13  C   UNL     1      -2.386   2.855   0.087  1.00  0.00     0.112 A 
ATOM     14  C   UNL     1      -1.863   3.579  -0.966  1.00  0.00     0.036 A 
BRANCH  10  15
ATOM     15  C   UNL     1      -0.836  -0.093  -0.553  1.00  0.00     0.000 A 
ATOM     16  C   UNL     1       2.794  -0.752   0.249  1.00  0.00     0.044 C 
ATOM     17  C   UNL     1       1.323  -0.969   0.082  1.00  0.00    -0.050 A 
ATOM     18  C   UNL     1       0.723  -2.228   0.185  1.00  0.00     0.003 A 
ATOM     19  C   UNL     1       0.524   0.103  -0.266  1.00  0.00     0.013 A 
ATOM     20  C   UNL     1      -0.658  -2.396  -0.000  1.00  0.00     0.001 A 
ATOM     21  C   UNL     1      -1.447  -1.320  -0.359  1.00  0.00     0.010 A 
ENDBRANCH  10  15
ENDBRANCH   7   9
ENDBRANCH   6   7
ENDBRANCH   5   6
ENDBRANCH   4   5
ENDBRANCH   3   4
ENDBRANCH   2   3
ENDBRANCH   1   2
BRANCH   1  22
ATOM     22  O   UNL     1      -3.778   5.230  -6.120  1.00  0.00    -0.376 OA
BRANCH  22  23
ATOM     23  C   UNL     1      -4.393   4.264  -6.951  1.00  0.00     0.202 C 
BRANCH  23  24
ATOM     24  C   UNL     1      -5.857   3.918  -6.606  1.00  0.00     0.261 C 
BRANCH  24  25
ATOM     25  O   UNL     1      -6.033   2.979  -5.504  1.00  0.00    -0.460 OA
BRANCH  25  26
ATOM     26  C   UNL     1      -6.499   3.403  -4.273  1.00  0.00     0.338 C 
ATOM     27  O   UNL     1      -7.613   3.084  -3.861  1.00  0.00    -0.246 OA
BRANCH  26  28
ATOM     28  C   UNL     1      -5.409   3.966  -3.413  1.00  0.00     0.060 A 
ATOM     29  C   UNL     1      -5.461   4.824  -2.308  1.00  0.00     0.016 A 
ATOM     30  C   UNL     1      -4.164   3.633  -3.817  1.00  0.00     0.016 A 
ATOM     31  C   UNL     1      -4.271   5.492  -1.779  1.00  0.00     0.010 A 
ATOM     32  C   UNL     1      -3.130   4.503  -3.494  1.00  0.00     0.010 A 
ATOM     33  C   UNL     1      -3.019   5.413  -2.406  1.00  0.00    -0.014 A 
BRANCH  33  34
ATOM     34  C   UNL     1      -1.615   6.249  -1.954  1.00  0.00     0.031 A 
ATOM     35  C   UNL     1      -0.048   5.758  -1.316  1.00  0.00     0.074 A 
ATOM     36  C   UNL     1      -1.705   7.579  -2.138  1.00  0.00     0.049 A 
ATOM     37  N   UNL     1       0.741   6.544  -0.603  1.00  0.00    -0.248 NA
ATOM     38  C   UNL     1       0.661   4.414  -1.248  1.00  0.00     0.031 C 
ATOM     39  C   UNL     1      -0.630   8.555  -2.158  1.00  0.00     0.029 A 
ATOM     40  N   UNL     1      -2.870   8.349  -2.199  1.00  0.00    -0.354 N 
ATOM     41  C   UNL     1       1.934   5.827  -0.343  1.00  0.00     0.074 A 
ATOM     42  C   UNL     1       1.593   4.479  -0.315  1.00  0.00     0.031 C 
ATOM     43  C   UNL     1      -1.158   9.763  -1.907  1.00  0.00     0.029 A 
ATOM     44  C   UNL     1      -2.556   9.556  -1.567  1.00  0.00     0.049 A 
ATOM     45  H   UNL     1      -3.731   8.095  -2.604  1.00  0.00     0.167 HD
ATOM     46  C   UNL     1       3.185   6.337  -0.528  1.00  0.00     0.037 A 
ATOM     47  C   UNL     1      -3.182   9.905  -0.409  1.00  0.00     0.037 A 
ATOM     48  C   UNL     1       3.067   7.750  -0.327  1.00  0.00     0.049 A 
ATOM     49  C   UNL     1      -2.185  10.089   0.709  1.00  0.00     0.074 A 
ATOM     50  C   UNL     1       2.971   8.838  -1.162  1.00  0.00     0.029 A 
ATOM     51  N   UNL     1       2.553   8.125   0.900  1.00  0.00    -0.354 N 
ATOM     52  N   UNL     1      -0.953   9.649   0.645  1.00  0.00    -0.248 NA
ATOM     53  C   UNL     1      -2.430  10.831   1.940  1.00  0.00     0.031 C 
ATOM     54  C   UNL     1       2.158   9.795  -0.475  1.00  0.00     0.029 A 
ATOM     55  C   UNL     1       1.838   9.295   0.781  1.00  0.00     0.049 A 
ATOM     56  H   UNL     1       2.681   7.626   1.739  1.00  0.00     0.167 HD
ATOM     57  C   UNL     1      -0.252  10.035   1.749  1.00  0.00     0.074 A 
ATOM     58  C   UNL     1      -1.225  10.765   2.540  1.00  0.00     0.031 C 
ATOM     59  C   UNL     1       1.063   9.726   1.939  1.00  0.00     0.037 A 
BRANCH  46  60
ATOM     60  C   UNL     1       4.450   5.582  -1.014  1.00  0.00     0.058 A 
ATOM     61  C   UNL     1       5.658   6.298  -1.173  1.00  0.00     0.135 A 
ATOM     62  C   UNL     1       4.543   4.233  -1.470  1.00  0.00     0.135 A 
ATOM     63  F   UNL     1       5.738   7.588  -0.817  1.00  0.00    -0.206 F 
ATOM     64  C   UNL     1       6.827   5.747  -1.732  1.00  0.00     0.059 A 
ATOM     65  C   UNL     1       5.712   3.650  -1.993  1.00  0.00     0.059 A 
ATOM     66  F   UNL     1       3.499   3.397  -1.498  1.00  0.00    -0.206 F 
ATOM     67  C   UNL     1       6.850   4.419  -2.138  1.00  0.00     0.060 A 
BRANCH  67  68
ATOM     68  S   UNL     1       8.352   3.731  -2.873  1.00  0.00     0.124 S 
ATOM     69  O   UNL     1       8.494   4.531  -4.086  1.00  0.00    -0.237 OA
ATOM     70  O   UNL     1       9.345   3.974  -1.833  1.00  0.00    -0.237 OA
ATOM     71  O   UNL     1       8.018   2.326  -3.094  1.00  0.00    -0.744 OA
ENDBRANCH  67  68
ENDBRANCH  46  60
BRANCH  47  72
ATOM     72  C   UNL     1      -4.638   9.534  -0.410  1.00  0.00     0.058 A 
ATOM     73  C   UNL     1      -5.419  10.127  -1.433  1.00  0.00     0.135 A 
ATOM     74  C   UNL     1      -5.171   8.375   0.173  1.00  0.00     0.135 A 
ATOM     75  F   UNL     1      -4.994  11.258  -2.021  1.00  0.00    -0.206 F 
ATOM     76  C   UNL     1      -6.542   9.510  -1.982  1.00  0.00     0.059 A 
ATOM     77  C   UNL     1      -6.334   7.755  -0.338  1.00  0.00     0.059 A 
ATOM     78  F   UNL     1      -4.494   7.732   1.137  1.00  0.00    -0.206 F 
ATOM     79  C   UNL     1      -6.954   8.287  -1.472  1.00  0.00     0.060 A 
BRANCH  79  80
ATOM     80  S   UNL     1      -8.180   7.355  -2.437  1.00  0.00     0.124 S 
ATOM     81  O   UNL     1      -9.265   8.320  -2.577  1.00  0.00    -0.237 OA
ATOM     82  O   UNL     1      -7.432   7.069  -3.661  1.00  0.00    -0.237 OA
ATOM     83  O   UNL     1      -8.471   6.207  -1.588  1.00  0.00    -0.744 OA
ENDBRANCH  79  80
ENDBRANCH  47  72
BRANCH  59  84
ATOM     84  C   UNL     1       1.748   9.718   3.286  1.00  0.00     0.058 A 
ATOM     85  C   UNL     1       1.080   9.418   4.484  1.00  0.00     0.135 A 
ATOM     86  C   UNL     1       3.164   9.755   3.360  1.00  0.00     0.135 A 
ATOM     87  F   UNL     1      -0.250   9.253   4.522  1.00  0.00    -0.206 F 
ATOM     88  C   UNL     1       1.762   9.226   5.684  1.00  0.00     0.059 A 
ATOM     89  C   UNL     1       3.865   9.475   4.525  1.00  0.00     0.059 A 
ATOM     90  F   UNL     1       3.913  10.020   2.278  1.00  0.00    -0.206 F 
ATOM     91  C   UNL     1       3.153   9.252   5.693  1.00  0.00     0.060 A 
BRANCH  91  92
ATOM     92  S   UNL     1       4.048   9.000   7.231  1.00  0.00     0.124 S 
ATOM     93  O   UNL     1       4.224  10.377   7.683  1.00  0.00    -0.237 OA
ATOM     94  O   UNL     1       3.125   8.190   8.020  1.00  0.00    -0.237 OA
ATOM     95  O   UNL     1       5.261   8.314   6.799  1.00  0.00    -0.744 OA
ENDBRANCH  91  92
ENDBRANCH  59  84
ENDBRANCH  33  34
ENDBRANCH  26  28
ENDBRANCH  25  26
ENDBRANCH  24  25
ENDBRANCH  23  24
ENDBRANCH  22  23
ENDBRANCH   1  22
TORSDOF 21
