REMARK SMILES O=C(COc1ccc(Br)cc1)NC(=S)Nc1ccc(Cl)cc1C(=O)OCCOCCOCCOC(=O)c1ccc(-c2c3nc(c(-c4c(F)cc(S(=O)(=O)[O-])cc4F)c4ccc([nH]4)c(-c4c(F)cc(S(=O)(=O)[O-])cc4F)c4nc(c(-c5c(F)cc(S(=O)(=O)[O-])cc5F)c5ccc2[nH]5)C=C4)C=C3)cc1
REMARK SMILES IDX 28 1 27 2 26 3 25 4 23 5 24 6 22 7 16 8 17 9 18 10 21 11
REMARK SMILES IDX 19 12 20 13 15 14 13 16 14 17 12 18 1 19 2 20 3 22 4 23 5 24
REMARK SMILES IDX 6 25 11 26 7 27 10 28 8 29 9 30 29 31 30 32 31 33 32 34
REMARK SMILES IDX 33 35 34 36 35 37 36 38 37 39 38 40 102 41 39 42 101 43
REMARK SMILES IDX 40 44 41 45 42 46 95 47 43 48 100 49 94 50 96 51 44 52 99 53
REMARK SMILES IDX 93 54 92 55 45 57 79 58 58 59 78 60 59 61 62 62 77 63 97 64
REMARK SMILES IDX 60 65 61 66 76 68 98 69 63 70 46 71 47 72 56 73 48 74 49 75
REMARK SMILES IDX 55 76 57 77 50 78 51 79 52 80 53 81 54 82 80 83 81 84 90 85
REMARK SMILES IDX 82 86 83 87 89 88 91 89 84 90 85 91 86 92 87 93 88 94 64 95
REMARK SMILES IDX 65 96 74 97 66 98 67 99 73 100 75 101 68 102 69 103 70 104
REMARK SMILES IDX 71 105 72 106
REMARK H PARENT 15 15 12 21 96 56 62 67
REMARK Flexibility Score: inf
ROOT
ATOM      1  O   UNL     1      -2.345   4.570   2.454  1.00  0.00    -0.376 OA
ENDROOT
BRANCH   1   2
ATOM      2  C   UNL     1      -1.860   4.307   3.759  1.00  0.00     0.202 C 
BRANCH   2   3
ATOM      3  C   UNL     1      -1.892   2.863   4.271  1.00  0.00     0.261 C 
BRANCH   3   4
ATOM      4  O   UNL     1      -1.286   1.902   3.385  1.00  0.00    -0.460 OA
BRANCH   4   5
ATOM      5  C   UNL     1      -2.154   1.025   2.821  1.00  0.00     0.340 C 
ATOM      6  O   UNL     1      -3.344   0.933   3.084  1.00  0.00    -0.246 OA
BRANCH   5   7
ATOM      7  C   UNL     1      -1.543   0.199   1.748  1.00  0.00     0.085 A 
ATOM      8  C   UNL     1      -0.226  -0.295   1.734  1.00  0.00     0.055 A 
ATOM      9  C   UNL     1       0.098  -1.295   0.802  1.00  0.00     0.028 A 
ATOM     10  C   UNL     1      -0.769  -1.607  -0.245  1.00  0.00     0.023 A 
ATOM     11  C   UNL     1      -2.403  -0.101   0.675  1.00  0.00     0.038 A 
ATOM     12  C   UNL     1      -1.993  -0.960  -0.338  1.00  0.00     0.042 A 
ATOM     13  Cl  UNL     1      -3.003  -1.232  -1.699  1.00  0.00    -0.084 Cl
BRANCH   8  14
ATOM     14  N   UNL     1       0.763   0.206   2.610  1.00  0.00    -0.332 N 
ATOM     15  H   UNL     1       0.415   0.612   3.437  1.00  0.00     0.169 HD
BRANCH  14  16
ATOM     16  C   UNL     1       2.115   0.217   2.495  1.00  0.00     0.177 C 
ATOM     17  S   UNL     1       3.046   0.354   3.881  1.00  0.00    -0.040 S 
BRANCH  16  18
ATOM     18  N   UNL     1       2.773   0.188   1.293  1.00  0.00    -0.300 N 
ATOM     19  O   UNL     1       1.302   1.054  -0.299  1.00  0.00    -0.271 OA
ATOM     20  C   UNL     1       2.361   0.506  -0.006  1.00  0.00     0.264 C 
ATOM     21  H   UNL     1       3.708  -0.114   1.354  1.00  0.00     0.172 HD
BRANCH  20  22
ATOM     22  C   UNL     1       3.425   0.202  -1.069  1.00  0.00     0.329 C 
BRANCH  22  23
ATOM     23  O   UNL     1       4.439   1.204  -1.163  1.00  0.00    -0.484 OA
BRANCH  23  24
ATOM     24  C   UNL     1       3.982   2.280  -1.879  1.00  0.00     0.120 A 
ATOM     25  C   UNL     1       3.189   3.243  -1.260  1.00  0.00     0.047 A 
ATOM     26  C   UNL     1       4.345   2.419  -3.218  1.00  0.00     0.047 A 
ATOM     27  C   UNL     1       2.680   4.302  -2.006  1.00  0.00     0.019 A 
ATOM     28  C   UNL     1       3.841   3.491  -3.963  1.00  0.00     0.019 A 
ATOM     29  C   UNL     1       2.992   4.416  -3.358  1.00  0.00     0.018 A 
ATOM     30  Br  UNL     1       2.252   5.829  -4.371  1.00  0.00    -0.051 Br
ENDBRANCH  23  24
ENDBRANCH  22  23
ENDBRANCH  20  22
ENDBRANCH  16  18
ENDBRANCH  14  16
ENDBRANCH   8  14
ENDBRANCH   5   7
ENDBRANCH   4   5
ENDBRANCH   3   4
ENDBRANCH   2   3
ENDBRANCH   1   2
BRANCH   1  31
ATOM     31  C   UNL     1      -1.743   3.941   1.330  1.00  0.00     0.188 C 
BRANCH  31  32
ATOM     32  C   UNL     1      -0.214   3.726   1.264  1.00  0.00     0.188 C 
BRANCH  32  33
ATOM     33  O   UNL     1       0.554   4.375   2.270  1.00  0.00    -0.376 OA
BRANCH  33  34
ATOM     34  C   UNL     1       1.246   5.547   1.846  1.00  0.00     0.202 C 
BRANCH  34  35
ATOM     35  C   UNL     1       0.336   6.727   1.498  1.00  0.00     0.261 C 
BRANCH  35  36
ATOM     36  O   UNL     1      -0.512   6.439   0.373  1.00  0.00    -0.460 OA
BRANCH  36  37
ATOM     37  C   UNL     1      -0.044   6.739  -0.852  1.00  0.00     0.338 C 
ATOM     38  O   UNL     1       1.022   7.276  -1.120  1.00  0.00    -0.246 OA
BRANCH  37  39
ATOM     39  C   UNL     1      -1.038   6.289  -1.842  1.00  0.00     0.060 A 
ATOM     40  C   UNL     1      -1.099   4.947  -2.244  1.00  0.00     0.016 A 
ATOM     41  C   UNL     1      -1.911   7.229  -2.389  1.00  0.00     0.016 A 
ATOM     42  C   UNL     1      -2.032   4.545  -3.206  1.00  0.00     0.010 A 
ATOM     43  C   UNL     1      -2.845   6.824  -3.345  1.00  0.00     0.010 A 
ATOM     44  C   UNL     1      -2.900   5.485  -3.775  1.00  0.00    -0.014 A 
BRANCH  44  45
ATOM     45  C   UNL     1      -3.795   5.125  -4.905  1.00  0.00     0.031 A 
ATOM     46  C   UNL     1      -3.417   5.561  -6.294  1.00  0.00     0.074 A 
ATOM     47  C   UNL     1      -4.952   4.471  -4.695  1.00  0.00     0.049 A 
ATOM     48  N   UNL     1      -4.119   5.518  -7.396  1.00  0.00    -0.248 NA
ATOM     49  C   UNL     1      -2.069   6.129  -6.459  1.00  0.00     0.031 C 
ATOM     50  C   UNL     1      -5.417   3.963  -3.405  1.00  0.00     0.029 A 
ATOM     51  N   UNL     1      -5.965   4.150  -5.567  1.00  0.00    -0.354 N 
ATOM     52  C   UNL     1      -3.312   6.077  -8.380  1.00  0.00     0.074 A 
ATOM     53  C   UNL     1      -2.071   6.461  -7.742  1.00  0.00     0.031 C 
ATOM     54  C   UNL     1      -6.638   3.422  -3.564  1.00  0.00     0.029 A 
ATOM     55  C   UNL     1      -7.059   3.583  -4.955  1.00  0.00     0.049 A 
ATOM     56  H   UNL     1      -5.912   4.310  -6.537  1.00  0.00     0.167 HD
ATOM     57  C   UNL     1      -3.584   6.255  -9.694  1.00  0.00     0.037 A 
ATOM     58  C   UNL     1      -8.274   3.271  -5.450  1.00  0.00     0.037 A 
ATOM     59  C   UNL     1      -4.815   5.861 -10.329  1.00  0.00     0.049 A 
ATOM     60  C   UNL     1      -8.572   3.528  -6.907  1.00  0.00     0.074 A 
ATOM     61  C   UNL     1      -5.168   5.972 -11.663  1.00  0.00     0.029 A 
ATOM     62  N   UNL     1      -5.894   5.285  -9.677  1.00  0.00    -0.354 N 
ATOM     63  N   UNL     1      -7.796   4.041  -7.831  1.00  0.00    -0.248 NA
ATOM     64  C   UNL     1      -9.914   3.165  -7.387  1.00  0.00     0.031 C 
ATOM     65  C   UNL     1      -6.478   5.505 -11.810  1.00  0.00     0.029 A 
ATOM     66  C   UNL     1      -6.922   5.055 -10.577  1.00  0.00     0.049 A 
ATOM     67  H   UNL     1      -5.926   5.070  -8.717  1.00  0.00     0.167 HD
ATOM     68  C   UNL     1      -8.544   4.036  -9.005  1.00  0.00     0.074 A 
ATOM     69  C   UNL     1      -9.832   3.462  -8.677  1.00  0.00     0.031 C 
ATOM     70  C   UNL     1      -8.195   4.468 -10.243  1.00  0.00     0.037 A 
BRANCH  57  71
ATOM     71  C   UNL     1      -2.540   6.931 -10.539  1.00  0.00     0.058 A 
ATOM     72  C   UNL     1      -1.361   6.274 -10.922  1.00  0.00     0.135 A 
ATOM     73  C   UNL     1      -2.751   8.235 -11.016  1.00  0.00     0.135 A 
ATOM     74  F   UNL     1      -1.102   5.034 -10.479  1.00  0.00    -0.206 F 
ATOM     75  C   UNL     1      -0.420   6.891 -11.741  1.00  0.00     0.059 A 
ATOM     76  C   UNL     1      -1.835   8.862 -11.855  1.00  0.00     0.059 A 
ATOM     77  F   UNL     1      -3.861   8.908 -10.675  1.00  0.00    -0.206 F 
ATOM     78  C   UNL     1      -0.668   8.185 -12.204  1.00  0.00     0.060 A 
BRANCH  78  79
ATOM     79  S   UNL     1       0.549   8.960 -13.289  1.00  0.00     0.124 S 
ATOM     80  O   UNL     1       1.626   9.262 -12.350  1.00  0.00    -0.237 OA
ATOM     81  O   UNL     1       0.829   7.901 -14.253  1.00  0.00    -0.237 OA
ATOM     82  O   UNL     1      -0.160  10.119 -13.823  1.00  0.00    -0.744 OA
ENDBRANCH  78  79
ENDBRANCH  57  71
BRANCH  58  83
ATOM     83  C   UNL     1      -9.324   2.711  -4.557  1.00  0.00     0.058 A 
ATOM     84  C   UNL     1      -9.760   1.384  -4.691  1.00  0.00     0.135 A 
ATOM     85  C   UNL     1      -9.932   3.500  -3.567  1.00  0.00     0.135 A 
ATOM     86  F   UNL     1      -9.222   0.594  -5.633  1.00  0.00    -0.206 F 
ATOM     87  C   UNL     1     -10.774   0.865  -3.893  1.00  0.00     0.059 A 
ATOM     88  C   UNL     1     -10.929   2.996  -2.739  1.00  0.00     0.059 A 
ATOM     89  F   UNL     1      -9.547   4.774  -3.393  1.00  0.00    -0.206 F 
ATOM     90  C   UNL     1     -11.354   1.680  -2.919  1.00  0.00     0.060 A 
BRANCH  90  91
ATOM     91  S   UNL     1     -12.652   0.990  -1.869  1.00  0.00     0.124 S 
ATOM     92  O   UNL     1     -13.786   0.962  -2.785  1.00  0.00    -0.237 OA
ATOM     93  O   UNL     1     -12.095  -0.308  -1.503  1.00  0.00    -0.237 OA
ATOM     94  O   UNL     1     -12.746   1.954  -0.776  1.00  0.00    -0.744 OA
ENDBRANCH  90  91
ENDBRANCH  58  83
BRANCH  70  95
ATOM     95  C   UNL     1      -9.198   4.295 -11.352  1.00  0.00     0.058 A 
ATOM     96  C   UNL     1     -10.340   5.104 -11.451  1.00  0.00     0.135 A 
ATOM     97  C   UNL     1      -8.979   3.345 -12.363  1.00  0.00     0.135 A 
ATOM     98  F   UNL     1     -10.600   6.024 -10.509  1.00  0.00    -0.206 F 
ATOM     99  C   UNL     1     -11.241   4.964 -12.503  1.00  0.00     0.059 A 
ATOM    100  C   UNL     1      -9.852   3.205 -13.438  1.00  0.00     0.059 A 
ATOM    101  F   UNL     1      -7.895   2.553 -12.324  1.00  0.00    -0.206 F 
ATOM    102  C   UNL     1     -10.987   4.013 -13.493  1.00  0.00     0.060 A 
BRANCH 102 103
ATOM    103  S   UNL     1     -12.143   3.865 -14.873  1.00  0.00     0.124 S 
ATOM    104  O   UNL     1     -13.265   3.176 -14.245  1.00  0.00    -0.237 OA
ATOM    105  O   UNL     1     -12.378   5.259 -15.236  1.00  0.00    -0.237 OA
ATOM    106  O   UNL     1     -11.399   3.085 -15.857  1.00  0.00    -0.744 OA
ENDBRANCH 102 103
ENDBRANCH  70  95
ENDBRANCH  44  45
ENDBRANCH  37  39
ENDBRANCH  36  37
ENDBRANCH  35  36
ENDBRANCH  34  35
ENDBRANCH  33  34
ENDBRANCH  32  33
ENDBRANCH  31  32
ENDBRANCH   1  31
TORSDOF 26
