REMARK SMILES C[C@@H](CC(=O)OCCOCCOCCOC(=O)c1ccc(-c2c3nc(c(-c4c(F)cc(S(=O)(=O)[O-])cc4F)c4ccc([nH]4)c(-c4c(F)cc(S(=O)(=O)[O-])cc4F)c4nc(c(-c5c(F)cc(S(=O)(=O)[O-])cc5F)c5ccc2[nH]5)C=C4)C=C3)cc1)CC(=O)N(C)C[C@H]1CCC[N@H+]1C
REMARK SMILES IDX 9 1 8 2 7 3 6 4 4 5 5 6 3 7 2 8 1 9 84 10 85 11 86 12 87 13
REMARK SMILES IDX 88 14 89 15 90 16 91 17 94 18 92 19 93 20 95 21 10 23 11 24
REMARK SMILES IDX 12 25 13 26 14 27 15 28 16 29 17 30 18 31 19 32 83 33 20 34
REMARK SMILES IDX 82 35 21 36 22 37 23 38 76 39 24 40 81 41 75 42 77 43 25 44
REMARK SMILES IDX 80 45 74 46 73 47 26 49 60 50 39 51 59 52 40 53 43 54 58 55
REMARK SMILES IDX 78 56 41 57 42 58 57 60 79 61 44 62 27 63 28 64 37 65 29 66
REMARK SMILES IDX 30 67 36 68 38 69 31 70 32 71 33 72 34 73 35 74 61 75 62 76
REMARK SMILES IDX 71 77 63 78 64 79 70 80 72 81 65 82 66 83 67 84 68 85 69 86
REMARK SMILES IDX 45 87 46 88 55 89 47 90 48 91 54 92 56 93 49 94 50 95 51 96
REMARK SMILES IDX 52 97 53 98
REMARK H PARENT 94 22 77 48 43 59
REMARK Flexibility Score: inf
ROOT
ATOM      1  O   UNL     1      -1.092   5.104  -1.475  1.00  0.00    -0.376 OA
ENDROOT
BRANCH   1   2
ATOM      2  C   UNL     1      -0.242   4.395  -2.381  1.00  0.00     0.202 C 
BRANCH   2   3
ATOM      3  C   UNL     1       1.071   3.848  -1.800  1.00  0.00     0.261 C 
BRANCH   3   4
ATOM      4  O   UNL     1       0.898   2.840  -0.774  1.00  0.00    -0.463 OA
BRANCH   4   5
ATOM      5  C   UNL     1       1.803   2.910   0.242  1.00  0.00     0.306 C 
ATOM      6  O   UNL     1       2.740   3.701   0.275  1.00  0.00    -0.252 OA
BRANCH   5   7
ATOM      7  C   UNL     1       1.503   1.987   1.410  1.00  0.00     0.126 C 
BRANCH   7   8
ATOM      8  C   UNL     1       1.155   0.507   1.152  1.00  0.00     0.006 C 
ATOM      9  C   UNL     1       2.022  -0.100   0.053  1.00  0.00     0.009 C 
BRANCH   8  10
ATOM     10  C   UNL     1      -0.351   0.321   0.930  1.00  0.00     0.104 C 
BRANCH  10  11
ATOM     11  C   UNL     1      -0.859  -1.107   1.122  1.00  0.00     0.222 C 
ATOM     12  O   UNL     1      -1.200  -1.459   2.255  1.00  0.00    -0.275 OA
BRANCH  11  13
ATOM     13  N   UNL     1      -0.954  -1.961   0.030  1.00  0.00    -0.340 N 
ATOM     14  C   UNL     1      -0.630  -1.599  -1.341  1.00  0.00     0.147 C 
BRANCH  13  15
ATOM     15  C   UNL     1      -1.675  -3.235   0.210  1.00  0.00     0.184 C 
BRANCH  15  16
ATOM     16  C   UNL     1      -1.046  -4.298   1.164  1.00  0.00     0.203 C 
ATOM     17  C   UNL     1      -2.102  -5.367   1.514  1.00  0.00     0.073 C 
ATOM     18  N   UNL     1       0.059  -5.139   0.661  1.00  0.00    -0.333 N 
ATOM     19  C   UNL     1      -1.721  -6.622   0.732  1.00  0.00     0.068 C 
ATOM     20  C   UNL     1      -0.536  -6.214  -0.120  1.00  0.00     0.262 C 
ATOM     21  C   UNL     1       1.123  -4.446  -0.029  1.00  0.00     0.333 C 
ATOM     22  H   UNL     1       0.561  -5.510   1.467  1.00  0.00     0.348 HD
ENDBRANCH  15  16
ENDBRANCH  13  15
ENDBRANCH  11  13
ENDBRANCH  10  11
ENDBRANCH   8  10
ENDBRANCH   7   8
ENDBRANCH   5   7
ENDBRANCH   4   5
ENDBRANCH   3   4
ENDBRANCH   2   3
ENDBRANCH   1   2
BRANCH   1  23
ATOM     23  C   UNL     1      -1.494   4.405  -0.298  1.00  0.00     0.188 C 
BRANCH  23  24
ATOM     24  C   UNL     1      -2.394   3.184  -0.531  1.00  0.00     0.188 C 
BRANCH  24  25
ATOM     25  O   UNL     1      -1.982   2.403  -1.645  1.00  0.00    -0.376 OA
BRANCH  25  26
ATOM     26  C   UNL     1      -2.770   1.280  -2.019  1.00  0.00     0.202 C 
BRANCH  26  27
ATOM     27  C   UNL     1      -4.284   1.500  -2.117  1.00  0.00     0.261 C 
BRANCH  27  28
ATOM     28  O   UNL     1      -4.904   1.783  -0.851  1.00  0.00    -0.460 OA
BRANCH  28  29
ATOM     29  C   UNL     1      -4.681   0.907   0.158  1.00  0.00     0.338 C 
ATOM     30  O   UNL     1      -4.218  -0.216   0.053  1.00  0.00    -0.246 OA
BRANCH  29  31
ATOM     31  C   UNL     1      -4.870   1.633   1.435  1.00  0.00     0.060 A 
ATOM     32  C   UNL     1      -4.016   1.340   2.505  1.00  0.00     0.016 A 
ATOM     33  C   UNL     1      -5.841   2.634   1.564  1.00  0.00     0.016 A 
ATOM     34  C   UNL     1      -4.162   2.014   3.719  1.00  0.00     0.010 A 
ATOM     35  C   UNL     1      -5.988   3.306   2.778  1.00  0.00     0.010 A 
ATOM     36  C   UNL     1      -5.175   2.970   3.874  1.00  0.00    -0.014 A 
BRANCH  36  37
ATOM     37  C   UNL     1      -5.520   3.463   5.229  1.00  0.00     0.031 A 
ATOM     38  C   UNL     1      -6.689   2.833   5.938  1.00  0.00     0.074 A 
ATOM     39  C   UNL     1      -4.798   4.424   5.833  1.00  0.00     0.049 A 
ATOM     40  N   UNL     1      -7.182   3.091   7.120  1.00  0.00    -0.248 NA
ATOM     41  C   UNL     1      -7.401   1.769   5.209  1.00  0.00     0.031 C 
ATOM     42  C   UNL     1      -3.634   5.097   5.261  1.00  0.00     0.029 A 
ATOM     43  N   UNL     1      -4.945   4.999   7.071  1.00  0.00    -0.354 N 
ATOM     44  C   UNL     1      -8.256   2.224   7.278  1.00  0.00     0.074 A 
ATOM     45  C   UNL     1      -8.373   1.464   6.054  1.00  0.00     0.031 C 
ATOM     46  C   UNL     1      -3.169   5.994   6.149  1.00  0.00     0.029 A 
ATOM     47  C   UNL     1      -4.016   5.976   7.341  1.00  0.00     0.049 A 
ATOM     48  H   UNL     1      -5.650   4.736   7.706  1.00  0.00     0.167 HD
ATOM     49  C   UNL     1      -9.063   2.061   8.353  1.00  0.00     0.037 A 
ATOM     50  C   UNL     1      -3.875   6.767   8.423  1.00  0.00     0.037 A 
ATOM     51  C   UNL     1      -8.945   2.816   9.572  1.00  0.00     0.049 A 
ATOM     52  C   UNL     1      -4.819   6.604   9.588  1.00  0.00     0.074 A 
ATOM     53  C   UNL     1      -9.707   2.717  10.722  1.00  0.00     0.029 A 
ATOM     54  N   UNL     1      -8.008   3.813   9.798  1.00  0.00    -0.354 N 
ATOM     55  N   UNL     1      -5.816   5.763   9.735  1.00  0.00    -0.248 NA
ATOM     56  C   UNL     1      -4.614   7.494  10.740  1.00  0.00     0.031 C 
ATOM     57  C   UNL     1      -9.261   3.687  11.627  1.00  0.00     0.029 A 
ATOM     58  C   UNL     1      -8.186   4.352  11.061  1.00  0.00     0.049 A 
ATOM     59  H   UNL     1      -7.318   4.096   9.155  1.00  0.00     0.167 HD
ATOM     60  C   UNL     1      -6.335   6.002  11.005  1.00  0.00     0.074 A 
ATOM     61  C   UNL     1      -5.534   7.058  11.589  1.00  0.00     0.031 C 
ATOM     62  C   UNL     1      -7.378   5.401  11.632  1.00  0.00     0.037 A 
BRANCH  49  63
ATOM     63  C   UNL     1     -10.159   1.038   8.245  1.00  0.00     0.058 A 
ATOM     64  C   UNL     1      -9.886  -0.340   8.235  1.00  0.00     0.135 A 
ATOM     65  C   UNL     1     -11.502   1.440   8.166  1.00  0.00     0.135 A 
ATOM     66  F   UNL     1      -8.619  -0.779   8.284  1.00  0.00    -0.206 F 
ATOM     67  C   UNL     1     -10.904  -1.282   8.124  1.00  0.00     0.059 A 
ATOM     68  C   UNL     1     -12.538   0.515   8.083  1.00  0.00     0.059 A 
ATOM     69  F   UNL     1     -11.818   2.744   8.165  1.00  0.00    -0.206 F 
ATOM     70  C   UNL     1     -12.227  -0.844   8.048  1.00  0.00     0.060 A 
BRANCH  70  71
ATOM     71  S   UNL     1     -13.537  -2.078   7.906  1.00  0.00     0.124 S 
ATOM     72  O   UNL     1     -13.360  -2.532   6.530  1.00  0.00    -0.237 OA
ATOM     73  O   UNL     1     -13.175  -3.039   8.942  1.00  0.00    -0.237 OA
ATOM     74  O   UNL     1     -14.754  -1.313   8.162  1.00  0.00    -0.744 OA
ENDBRANCH  70  71
ENDBRANCH  49  63
BRANCH  50  75
ATOM     75  C   UNL     1      -2.794   7.790   8.464  1.00  0.00     0.058 A 
ATOM     76  C   UNL     1      -1.708   7.665   9.344  1.00  0.00     0.135 A 
ATOM     77  C   UNL     1      -2.834   8.921   7.634  1.00  0.00     0.135 A 
ATOM     78  F   UNL     1      -1.630   6.610  10.169  1.00  0.00    -0.206 F 
ATOM     79  C   UNL     1      -0.710   8.633   9.414  1.00  0.00     0.059 A 
ATOM     80  C   UNL     1      -1.835   9.889   7.666  1.00  0.00     0.059 A 
ATOM     81  F   UNL     1      -3.847   9.084   6.769  1.00  0.00    -0.206 F 
ATOM     82  C   UNL     1      -0.782   9.741   8.568  1.00  0.00     0.060 A 
BRANCH  82  83
ATOM     83  S   UNL     1       0.540  10.970   8.634  1.00  0.00     0.124 S 
ATOM     84  O   UNL     1       0.254  11.641   9.897  1.00  0.00    -0.237 OA
ATOM     85  O   UNL     1       1.736  10.135   8.611  1.00  0.00    -0.237 OA
ATOM     86  O   UNL     1       0.317  11.767   7.431  1.00  0.00    -0.744 OA
ENDBRANCH  82  83
ENDBRANCH  50  75
BRANCH  62  87
ATOM     87  C   UNL     1      -7.690   5.842  13.038  1.00  0.00     0.058 A 
ATOM     88  C   UNL     1      -8.256   7.096  13.314  1.00  0.00     0.135 A 
ATOM     89  C   UNL     1      -7.450   4.981  14.122  1.00  0.00     0.135 A 
ATOM     90  F   UNL     1      -8.506   7.959  12.316  1.00  0.00    -0.206 F 
ATOM     91  C   UNL     1      -8.539   7.496  14.617  1.00  0.00     0.059 A 
ATOM     92  C   UNL     1      -7.753   5.348  15.430  1.00  0.00     0.059 A 
ATOM     93  F   UNL     1      -6.925   3.763  13.915  1.00  0.00    -0.206 F 
ATOM     94  C   UNL     1      -8.280   6.616  15.669  1.00  0.00     0.060 A 
BRANCH  94  95
ATOM     95  S   UNL     1      -8.657   7.143  17.354  1.00  0.00     0.124 S 
ATOM     96  O   UNL     1      -7.571   8.081  17.618  1.00  0.00    -0.237 OA
ATOM     97  O   UNL     1      -9.984   7.733  17.209  1.00  0.00    -0.237 OA
ATOM     98  O   UNL     1      -8.612   5.899  18.117  1.00  0.00    -0.744 OA
ENDBRANCH  94  95
ENDBRANCH  62  87
ENDBRANCH  36  37
ENDBRANCH  29  31
ENDBRANCH  28  29
ENDBRANCH  27  28
ENDBRANCH  26  27
ENDBRANCH  25  26
ENDBRANCH  24  25
ENDBRANCH  23  24
ENDBRANCH   1  23
TORSDOF 26
