REMARK SMILES CC(C)[C@@H](CO)NC(=O)CC(C)(C)CC(=O)OCCOCCOCCOC(=O)c1ccc(-c2c3nc(c(-c4c(F)cc(S(=O)(=O)[O-])cc4F)c4ccc([nH]4)c(-c4c(F)cc(S(=O)(=O)[O-])cc4F)c4nc(c(-c5c(F)cc(S(=O)(=O)[O-])cc5F)c5ccc2[nH]5)C=C4)C=C3)cc1
REMARK SMILES IDX 20 1 19 2 18 3 17 4 15 5 16 6 14 7 11 8 12 9 13 10 10 11
REMARK SMILES IDX 8 12 7 13 9 15 4 16 2 17 1 18 3 19 5 20 6 21 21 23 22 24
REMARK SMILES IDX 23 25 24 26 25 27 26 28 27 29 28 30 29 31 30 32 94 33 31 34
REMARK SMILES IDX 93 35 32 36 33 37 34 38 87 39 35 40 92 41 86 42 88 43 36 44
REMARK SMILES IDX 91 45 85 46 84 47 37 49 71 50 50 51 70 52 51 53 54 54 69 55
REMARK SMILES IDX 89 56 52 57 53 58 68 60 90 61 55 62 38 63 39 64 48 65 40 66
REMARK SMILES IDX 41 67 47 68 49 69 42 70 43 71 44 72 45 73 46 74 72 75 73 76
REMARK SMILES IDX 82 77 74 78 75 79 81 80 83 81 76 82 77 83 78 84 79 85 80 86
REMARK SMILES IDX 56 87 57 88 66 89 58 90 59 91 65 92 67 93 60 94 61 95 62 96
REMARK SMILES IDX 63 97 64 98
REMARK H PARENT 7 14 6 22 88 48 54 59
REMARK Flexibility Score: inf
ROOT
ATOM      1  O   UNL     1      -3.251   1.080   8.522  1.00  0.00    -0.376 OA
ENDROOT
BRANCH   1   2
ATOM      2  C   UNL     1      -3.240   2.497   8.326  1.00  0.00     0.202 C 
BRANCH   2   3
ATOM      3  C   UNL     1      -2.023   3.071   7.573  1.00  0.00     0.261 C 
BRANCH   3   4
ATOM      4  O   UNL     1      -1.942   2.610   6.201  1.00  0.00    -0.463 OA
BRANCH   4   5
ATOM      5  C   UNL     1      -0.715   2.241   5.739  1.00  0.00     0.306 C 
ATOM      6  O   UNL     1       0.334   2.425   6.345  1.00  0.00    -0.252 OA
BRANCH   5   7
ATOM      7  C   UNL     1      -0.794   1.410   4.454  1.00  0.00     0.129 C 
BRANCH   7   8
ATOM      8  C   UNL     1      -1.388   2.017   3.150  1.00  0.00    -0.016 C 
ATOM      9  C   UNL     1      -0.256   2.301   2.146  1.00  0.00     0.012 C 
ATOM     10  C   UNL     1      -2.069   3.385   3.386  1.00  0.00     0.012 C 
BRANCH   8  11
ATOM     11  C   UNL     1      -2.458   1.108   2.474  1.00  0.00     0.107 C 
BRANCH  11  12
ATOM     12  C   UNL     1      -2.342  -0.397   2.273  1.00  0.00     0.220 C 
ATOM     13  N   UNL     1      -1.160  -1.027   2.053  1.00  0.00    -0.351 N 
ATOM     14  H   UNL     1      -0.757  -1.587   2.756  1.00  0.00     0.163 HD
ATOM     15  O   UNL     1      -3.363  -1.076   2.167  1.00  0.00    -0.275 OA
BRANCH  13  16
ATOM     16  C   UNL     1      -0.492  -0.867   0.766  1.00  0.00     0.110 C 
BRANCH  16  17
ATOM     17  C   UNL     1       1.028  -1.179   0.835  1.00  0.00     0.007 C 
ATOM     18  C   UNL     1       1.751  -0.311  -0.199  1.00  0.00     0.009 C 
ATOM     19  C   UNL     1       1.682  -1.010   2.213  1.00  0.00     0.009 C 
ENDBRANCH  16  17
BRANCH  16  20
ATOM     20  C   UNL     1      -1.201  -1.750  -0.302  1.00  0.00     0.181 C 
BRANCH  20  21
ATOM     21  O   UNL     1      -0.976  -3.136  -0.052  1.00  0.00    -0.394 OA
ATOM     22  H   UNL     1      -0.025  -3.321  -0.092  1.00  0.00     0.210 HD
ENDBRANCH  20  21
ENDBRANCH  16  20
ENDBRANCH  13  16
ENDBRANCH  11  12
ENDBRANCH   8  11
ENDBRANCH   7   8
ENDBRANCH   5   7
ENDBRANCH   4   5
ENDBRANCH   3   4
ENDBRANCH   2   3
ENDBRANCH   1   2
BRANCH   1  23
ATOM     23  C   UNL     1      -3.023   0.287   7.364  1.00  0.00     0.188 C 
BRANCH  23  24
ATOM     24  C   UNL     1      -4.057   0.431   6.238  1.00  0.00     0.188 C 
BRANCH  24  25
ATOM     25  O   UNL     1      -4.612   1.729   6.074  1.00  0.00    -0.376 OA
BRANCH  25  26
ATOM     26  C   UNL     1      -5.651   1.859   5.105  1.00  0.00     0.202 C 
BRANCH  26  27
ATOM     27  C   UNL     1      -6.938   1.069   5.411  1.00  0.00     0.261 C 
BRANCH  27  28
ATOM     28  O   UNL     1      -6.783  -0.365   5.470  1.00  0.00    -0.460 OA
BRANCH  28  29
ATOM     29  C   UNL     1      -6.284  -0.955   4.361  1.00  0.00     0.338 C 
ATOM     30  O   UNL     1      -6.153  -0.420   3.269  1.00  0.00    -0.246 OA
BRANCH  29  31
ATOM     31  C   UNL     1      -5.711  -2.270   4.737  1.00  0.00     0.060 A 
ATOM     32  C   UNL     1      -4.345  -2.481   4.538  1.00  0.00     0.016 A 
ATOM     33  C   UNL     1      -6.485  -3.298   5.266  1.00  0.00     0.016 A 
ATOM     34  C   UNL     1      -3.761  -3.725   4.735  1.00  0.00     0.010 A 
ATOM     35  C   UNL     1      -5.892  -4.547   5.511  1.00  0.00     0.010 A 
ATOM     36  C   UNL     1      -4.536  -4.785   5.199  1.00  0.00    -0.014 A 
BRANCH  36  37
ATOM     37  C   UNL     1      -3.965  -6.158   5.207  1.00  0.00     0.031 A 
ATOM     38  C   UNL     1      -4.532  -7.178   4.256  1.00  0.00     0.074 A 
ATOM     39  C   UNL     1      -2.913  -6.482   5.986  1.00  0.00     0.049 A 
ATOM     40  N   UNL     1      -4.325  -8.467   4.199  1.00  0.00    -0.248 NA
ATOM     41  C   UNL     1      -5.465  -6.674   3.234  1.00  0.00     0.031 C 
ATOM     42  C   UNL     1      -2.192  -5.563   6.867  1.00  0.00     0.029 A 
ATOM     43  N   UNL     1      -2.267  -7.683   6.161  1.00  0.00    -0.354 N 
ATOM     44  C   UNL     1      -5.141  -8.936   3.175  1.00  0.00     0.074 A 
ATOM     45  C   UNL     1      -5.852  -7.795   2.642  1.00  0.00     0.031 C 
ATOM     46  C   UNL     1      -1.207  -6.231   7.489  1.00  0.00     0.029 A 
ATOM     47  C   UNL     1      -1.275  -7.641   7.114  1.00  0.00     0.049 A 
ATOM     48  H   UNL     1      -2.492  -8.495   5.652  1.00  0.00     0.167 HD
ATOM     49  C   UNL     1      -5.283 -10.205   2.724  1.00  0.00     0.037 A 
ATOM     50  C   UNL     1      -0.543  -8.632   7.662  1.00  0.00     0.037 A 
ATOM     51  C   UNL     1      -4.531 -11.323   3.231  1.00  0.00     0.049 A 
ATOM     52  C   UNL     1      -0.772 -10.049   7.202  1.00  0.00     0.074 A 
ATOM     53  C   UNL     1      -4.596 -12.649   2.844  1.00  0.00     0.029 A 
ATOM     54  N   UNL     1      -3.567 -11.244   4.227  1.00  0.00    -0.354 N 
ATOM     55  N   UNL     1      -1.593 -10.494   6.279  1.00  0.00    -0.248 NA
ATOM     56  C   UNL     1       0.012 -11.101   7.864  1.00  0.00     0.031 C 
ATOM     57  C   UNL     1      -3.713 -13.382   3.643  1.00  0.00     0.029 A 
ATOM     58  C   UNL     1      -3.048 -12.502   4.483  1.00  0.00     0.049 A 
ATOM     59  H   UNL     1      -3.293 -10.416   4.684  1.00  0.00     0.167 HD
ATOM     60  C   UNL     1      -1.403 -11.872   6.231  1.00  0.00     0.074 A 
ATOM     61  C   UNL     1      -0.381 -12.185   7.208  1.00  0.00     0.031 C 
ATOM     62  C   UNL     1      -2.017 -12.794   5.449  1.00  0.00     0.037 A 
BRANCH  49  63
ATOM     63  C   UNL     1      -6.323 -10.464   1.667  1.00  0.00     0.058 A 
ATOM     64  C   UNL     1      -6.172 -10.035   0.340  1.00  0.00     0.135 A 
ATOM     65  C   UNL     1      -7.478 -11.197   1.988  1.00  0.00     0.135 A 
ATOM     66  F   UNL     1      -5.099  -9.313  -0.019  1.00  0.00    -0.206 F 
ATOM     67  C   UNL     1      -7.138 -10.304  -0.626  1.00  0.00     0.059 A 
ATOM     68  C   UNL     1      -8.441 -11.505   1.033  1.00  0.00     0.059 A 
ATOM     69  F   UNL     1      -7.678 -11.629   3.244  1.00  0.00    -0.206 F 
ATOM     70  C   UNL     1      -8.267 -11.044  -0.270  1.00  0.00     0.060 A 
BRANCH  70  71
ATOM     71  S   UNL     1      -9.499 -11.405  -1.540  1.00  0.00     0.124 S 
ATOM     72  O   UNL     1     -10.095 -10.090  -1.752  1.00  0.00    -0.237 OA
ATOM     73  O   UNL     1      -8.678 -11.912  -2.635  1.00  0.00    -0.237 OA
ATOM     74  O   UNL     1     -10.367 -12.391  -0.903  1.00  0.00    -0.744 OA
ENDBRANCH  70  71
ENDBRANCH  49  63
BRANCH  50  75
ATOM     75  C   UNL     1       0.432  -8.333   8.749  1.00  0.00     0.058 A 
ATOM     76  C   UNL     1       1.810  -8.517   8.567  1.00  0.00     0.135 A 
ATOM     77  C   UNL     1      -0.000  -7.865  10.002  1.00  0.00     0.135 A 
ATOM     78  F   UNL     1       2.277  -8.978   7.396  1.00  0.00    -0.206 F 
ATOM     79  C   UNL     1       2.723  -8.265   9.588  1.00  0.00     0.059 A 
ATOM     80  C   UNL     1       0.894  -7.573  11.026  1.00  0.00     0.059 A 
ATOM     81  F   UNL     1      -1.308  -7.666  10.232  1.00  0.00    -0.206 F 
ATOM     82  C   UNL     1       2.255  -7.788  10.814  1.00  0.00     0.060 A 
BRANCH  82  83
ATOM     83  S   UNL     1       3.450  -7.423  12.118  1.00  0.00     0.124 S 
ATOM     84  O   UNL     1       3.869  -8.762  12.515  1.00  0.00    -0.237 OA
ATOM     85  O   UNL     1       4.446  -6.628  11.405  1.00  0.00    -0.237 OA
ATOM     86  O   UNL     1       2.661  -6.690  13.103  1.00  0.00    -0.744 OA
ENDBRANCH  82  83
ENDBRANCH  50  75
BRANCH  62  87
ATOM     87  C   UNL     1      -1.567 -14.225   5.572  1.00  0.00     0.058 A 
ATOM     88  C   UNL     1      -1.877 -15.008   6.695  1.00  0.00     0.135 A 
ATOM     89  C   UNL     1      -0.866 -14.837   4.520  1.00  0.00     0.135 A 
ATOM     90  F   UNL     1      -2.539 -14.471   7.732  1.00  0.00    -0.206 F 
ATOM     91  C   UNL     1      -1.489 -16.341   6.779  1.00  0.00     0.059 A 
ATOM     92  C   UNL     1      -0.497 -16.177   4.569  1.00  0.00     0.059 A 
ATOM     93  F   UNL     1      -0.554 -14.137   3.417  1.00  0.00    -0.206 F 
ATOM     94  C   UNL     1      -0.803 -16.918   5.709  1.00  0.00     0.060 A 
BRANCH  94  95
ATOM     95  S   UNL     1      -0.339 -18.660   5.816  1.00  0.00     0.124 S 
ATOM     96  O   UNL     1       0.737 -18.618   6.801  1.00  0.00    -0.237 OA
ATOM     97  O   UNL     1      -1.581 -19.286   6.259  1.00  0.00    -0.237 OA
ATOM     98  O   UNL     1       0.070 -18.988   4.453  1.00  0.00    -0.744 OA
ENDBRANCH  94  95
ENDBRANCH  62  87
ENDBRANCH  36  37
ENDBRANCH  29  31
ENDBRANCH  28  29
ENDBRANCH  27  28
ENDBRANCH  26  27
ENDBRANCH  25  26
ENDBRANCH  24  25
ENDBRANCH  23  24
ENDBRANCH   1  23
TORSDOF 27
