REMARK SMILES NC(=O)c1c(-c2ccc(Cl)cc2)csc1NC(=O)[C@H]1[C@@H](C(=O)OCCOCCOCCOC(=O)c2ccc(-c3c4nc(c(-c5c(F)cc(S(=O)(=O)[O-])cc5F)c5ccc([nH]5)c(-c5c(F)cc(S(=O)(=O)[O-])cc5F)c5nc(c(-c6c(F)cc(S(=O)(=O)[O-])cc6F)c6ccc3[nH]6)C=C5)C=C4)cc2)[C@@H]2CC[C@H]1O2
REMARK SMILES IDX 27 1 26 2 25 3 24 4 23 5 21 6 22 7 20 8 19 9 104 10 101 11
REMARK SMILES IDX 103 12 105 13 102 14 17 15 16 16 18 18 15 19 4 20 5 21 13 22
REMARK SMILES IDX 14 23 2 24 1 25 3 28 6 29 7 30 12 31 8 32 11 33 9 34 10 35
REMARK SMILES IDX 28 36 29 37 30 38 31 39 32 40 33 41 34 42 35 43 36 44 100 45
REMARK SMILES IDX 37 46 99 47 38 48 39 49 40 50 93 51 41 52 98 53 92 54 94 55
REMARK SMILES IDX 42 56 97 57 91 58 90 59 43 61 77 62 56 63 76 64 57 65 60 66
REMARK SMILES IDX 75 67 95 68 58 69 59 70 74 72 96 73 61 74 44 75 45 76 54 77
REMARK SMILES IDX 46 78 47 79 53 80 55 81 48 82 49 83 50 84 51 85 52 86 78 87
REMARK SMILES IDX 79 88 88 89 80 90 81 91 87 92 89 93 82 94 83 95 84 96 85 97
REMARK SMILES IDX 86 98 62 99 63 100 72 101 64 102 65 103 71 104 73 105 66 106
REMARK SMILES IDX 67 107 68 108 69 109 70 110
REMARK H PARENT 16 17 1 26 1 27 94 60 60 71
REMARK Flexibility Score: inf
ROOT
ATOM      1  C   UNL     1       2.842   9.211  -0.470  1.00  0.00     0.188 C 
ENDROOT
BRANCH   1   2
ATOM      2  O   UNL     1       4.091   8.617  -0.141  1.00  0.00    -0.376 OA
BRANCH   2   3
ATOM      3  C   UNL     1       4.533   7.490  -0.876  1.00  0.00     0.202 C 
BRANCH   3   4
ATOM      4  C   UNL     1       3.617   6.264  -1.004  1.00  0.00     0.261 C 
BRANCH   4   5
ATOM      5  O   UNL     1       2.213   6.524  -1.205  1.00  0.00    -0.463 OA
BRANCH   5   6
ATOM      6  C   UNL     1       1.406   6.216  -0.160  1.00  0.00     0.312 C 
ATOM      7  O   UNL     1       1.812   5.851   0.939  1.00  0.00    -0.252 OA
BRANCH   6   8
ATOM      8  C   UNL     1      -0.077   6.394  -0.420  1.00  0.00     0.143 C 
ATOM      9  C   UNL     1      -0.752   5.618  -1.569  1.00  0.00     0.124 C 
ATOM     10  C   UNL     1      -1.784   6.631  -1.992  1.00  0.00     0.132 C 
ATOM     11  C   UNL     1      -0.564   7.832  -0.668  1.00  0.00     0.133 C 
ATOM     12  C   UNL     1      -2.780   7.074  -0.917  1.00  0.00     0.035 C 
ATOM     13  O   UNL     1      -0.941   7.804  -2.065  1.00  0.00    -0.373 OA
ATOM     14  C   UNL     1      -1.955   8.052  -0.086  1.00  0.00     0.036 C 
BRANCH   9  15
ATOM     15  C   UNL     1       0.211   5.012  -2.607  1.00  0.00     0.231 C 
ATOM     16  N   UNL     1       0.573   5.385  -3.863  1.00  0.00    -0.317 N 
ATOM     17  H   UNL     1       1.340   4.846  -4.163  1.00  0.00     0.170 HD
ATOM     18  O   UNL     1       0.840   4.013  -2.197  1.00  0.00    -0.274 OA
BRANCH  16  19
ATOM     19  C   UNL     1       0.207   6.282  -4.862  1.00  0.00     0.108 A 
ATOM     20  C   UNL     1       0.886   6.526  -6.066  1.00  0.00     0.082 A 
ATOM     21  C   UNL     1       0.246   7.606  -6.808  1.00  0.00     0.007 A 
ATOM     22  C   UNL     1      -0.867   8.085  -6.156  1.00  0.00     0.076 A 
ATOM     23  S   UNL     1      -1.273   7.083  -4.878  1.00  0.00    -0.125 S 
BRANCH  20  24
ATOM     24  C   UNL     1       2.054   5.737  -6.461  1.00  0.00     0.252 C 
ATOM     25  N   UNL     1       2.859   6.253  -7.433  1.00  0.00    -0.365 N 
ATOM     26  H   UNL     1       3.655   5.755  -7.728  1.00  0.00     0.159 HD
ATOM     27  H   UNL     1       2.645   7.124  -7.839  1.00  0.00     0.159 HD
ATOM     28  O   UNL     1       2.328   4.651  -5.956  1.00  0.00    -0.269 OA
ENDBRANCH  20  24
BRANCH  21  29
ATOM     29  C   UNL     1       0.449   8.104  -8.157  1.00  0.00    -0.017 A 
ATOM     30  C   UNL     1       0.778   9.446  -8.386  1.00  0.00     0.010 A 
ATOM     31  C   UNL     1       0.120   7.268  -9.231  1.00  0.00     0.010 A 
ATOM     32  C   UNL     1       0.763   9.950  -9.688  1.00  0.00     0.021 A 
ATOM     33  C   UNL     1       0.104   7.775 -10.529  1.00  0.00     0.021 A 
ATOM     34  C   UNL     1       0.419   9.115 -10.752  1.00  0.00     0.041 A 
ATOM     35  Cl  UNL     1       0.355   9.746 -12.350  1.00  0.00    -0.084 Cl
ENDBRANCH  21  29
ENDBRANCH  16  19
ENDBRANCH   9  15
ENDBRANCH   6   8
ENDBRANCH   5   6
ENDBRANCH   4   5
ENDBRANCH   3   4
ENDBRANCH   2   3
ENDBRANCH   1   2
BRANCH   1  36
ATOM     36  C   UNL     1       2.408   9.319  -1.952  1.00  0.00     0.188 C 
BRANCH  36  37
ATOM     37  O   UNL     1       3.478   9.089  -2.844  1.00  0.00    -0.376 OA
BRANCH  37  38
ATOM     38  C   UNL     1       3.971  10.178  -3.589  1.00  0.00     0.202 C 
BRANCH  38  39
ATOM     39  C   UNL     1       4.412  11.473  -2.885  1.00  0.00     0.261 C 
BRANCH  39  40
ATOM     40  O   UNL     1       3.766  11.826  -1.653  1.00  0.00    -0.460 OA
BRANCH  40  41
ATOM     41  C   UNL     1       2.639  12.576  -1.732  1.00  0.00     0.338 C 
ATOM     42  O   UNL     1       2.066  12.918  -2.744  1.00  0.00    -0.246 OA
BRANCH  41  43
ATOM     43  C   UNL     1       2.123  12.795  -0.356  1.00  0.00     0.060 A 
ATOM     44  C   UNL     1       0.888  12.243   0.011  1.00  0.00     0.016 A 
ATOM     45  C   UNL     1       2.849  13.558   0.562  1.00  0.00     0.016 A 
ATOM     46  C   UNL     1       0.364  12.478   1.289  1.00  0.00     0.010 A 
ATOM     47  C   UNL     1       2.314  13.806   1.833  1.00  0.00     0.010 A 
ATOM     48  C   UNL     1       1.055  13.292   2.197  1.00  0.00    -0.014 A 
BRANCH  48  49
ATOM     49  C   UNL     1       0.407  13.751   3.457  1.00  0.00     0.031 A 
ATOM     50  C   UNL     1      -0.172  15.142   3.506  1.00  0.00     0.074 A 
ATOM     51  C   UNL     1       0.339  12.965   4.548  1.00  0.00     0.049 A 
ATOM     52  N   UNL     1      -0.689  15.796   4.514  1.00  0.00    -0.248 NA
ATOM     53  C   UNL     1      -0.159  15.898   2.242  1.00  0.00     0.031 C 
ATOM     54  C   UNL     1       0.824  11.589   4.631  1.00  0.00     0.029 A 
ATOM     55  N   UNL     1      -0.150  13.224   5.808  1.00  0.00    -0.354 N 
ATOM     56  C   UNL     1      -1.052  17.041   4.013  1.00  0.00     0.074 A 
ATOM     57  C   UNL     1      -0.668  17.062   2.617  1.00  0.00     0.031 C 
ATOM     58  C   UNL     1       0.628  11.132   5.881  1.00  0.00     0.029 A 
ATOM     59  C   UNL     1       0.041  12.193   6.699  1.00  0.00     0.049 A 
ATOM     60  H   UNL     1      -0.594  14.069   6.049  1.00  0.00     0.167 HD
ATOM     61  C   UNL     1      -1.656  18.072   4.652  1.00  0.00     0.037 A 
ATOM     62  C   UNL     1      -0.200  12.124   8.025  1.00  0.00     0.037 A 
ATOM     63  C   UNL     1      -2.031  18.055   6.043  1.00  0.00     0.049 A 
ATOM     64  C   UNL     1      -0.802  13.313   8.737  1.00  0.00     0.074 A 
ATOM     65  C   UNL     1      -2.658  19.047   6.777  1.00  0.00     0.029 A 
ATOM     66  N   UNL     1      -1.805  16.998   6.913  1.00  0.00    -0.354 N 
ATOM     67  N   UNL     1      -1.159  14.477   8.247  1.00  0.00    -0.248 NA
ATOM     68  C   UNL     1      -1.036  13.178  10.183  1.00  0.00     0.031 C 
ATOM     69  C   UNL     1      -2.758  18.614   8.103  1.00  0.00     0.029 A 
ATOM     70  C   UNL     1      -2.257  17.325   8.182  1.00  0.00     0.049 A 
ATOM     71  H   UNL     1      -1.386  16.142   6.666  1.00  0.00     0.167 HD
ATOM     72  C   UNL     1      -1.688  15.197   9.316  1.00  0.00     0.074 A 
ATOM     73  C   UNL     1      -1.615  14.334  10.476  1.00  0.00     0.031 C 
ATOM     74  C   UNL     1      -2.192  16.457   9.333  1.00  0.00     0.037 A 
BRANCH  61  75
ATOM     75  C   UNL     1      -1.926  19.323   3.858  1.00  0.00     0.058 A 
ATOM     76  C   UNL     1      -2.895  19.362   2.842  1.00  0.00     0.135 A 
ATOM     77  C   UNL     1      -1.230  20.510   4.140  1.00  0.00     0.135 A 
ATOM     78  F   UNL     1      -3.580  18.253   2.518  1.00  0.00    -0.206 F 
ATOM     79  C   UNL     1      -3.143  20.523   2.116  1.00  0.00     0.059 A 
ATOM     80  C   UNL     1      -1.483  21.691   3.449  1.00  0.00     0.059 A 
ATOM     81  F   UNL     1      -0.291  20.531   5.100  1.00  0.00    -0.206 F 
ATOM     82  C   UNL     1      -2.432  21.683   2.428  1.00  0.00     0.060 A 
BRANCH  82  83
ATOM     83  S   UNL     1      -2.768  23.180   1.477  1.00  0.00     0.124 S 
ATOM     84  O   UNL     1      -2.192  22.837   0.180  1.00  0.00    -0.237 OA
ATOM     85  O   UNL     1      -4.225  23.256   1.522  1.00  0.00    -0.237 OA
ATOM     86  O   UNL     1      -2.065  24.221   2.219  1.00  0.00    -0.744 OA
ENDBRANCH  82  83
ENDBRANCH  61  75
BRANCH  62  87
ATOM     87  C   UNL     1       0.149  10.890   8.785  1.00  0.00     0.058 A 
ATOM     88  C   UNL     1      -0.846  10.076   9.349  1.00  0.00     0.135 A 
ATOM     89  C   UNL     1       1.486  10.507   8.976  1.00  0.00     0.135 A 
ATOM     90  F   UNL     1      -2.139  10.407   9.212  1.00  0.00    -0.206 F 
ATOM     91  C   UNL     1      -0.529   8.938  10.085  1.00  0.00     0.059 A 
ATOM     92  C   UNL     1       1.827   9.357   9.682  1.00  0.00     0.059 A 
ATOM     93  F   UNL     1       2.478  11.248   8.458  1.00  0.00    -0.206 F 
ATOM     94  C   UNL     1       0.811   8.584  10.242  1.00  0.00     0.060 A 
BRANCH  94  95
ATOM     95  S   UNL     1       1.207   7.078  11.159  1.00  0.00     0.124 S 
ATOM     96  O   UNL     1       0.876   7.469  12.524  1.00  0.00    -0.237 OA
ATOM     97  O   UNL     1       0.315   6.103  10.541  1.00  0.00    -0.237 OA
ATOM     98  O   UNL     1       2.627   6.881  10.885  1.00  0.00    -0.744 OA
ENDBRANCH  94  95
ENDBRANCH  62  87
BRANCH  74  99
ATOM     99  C   UNL     1      -2.754  16.974  10.632  1.00  0.00     0.058 A 
ATOM    100  C   UNL     1      -1.933  17.302  11.723  1.00  0.00     0.135 A 
ATOM    101  C   UNL     1      -4.135  17.202  10.766  1.00  0.00     0.135 A 
ATOM    102  F   UNL     1      -0.607  17.101  11.654  1.00  0.00    -0.206 F 
ATOM    103  C   UNL     1      -2.461  17.813  12.905  1.00  0.00     0.059 A 
ATOM    104  C   UNL     1      -4.681  17.743  11.926  1.00  0.00     0.059 A 
ATOM    105  F   UNL     1      -4.968  16.919   9.752  1.00  0.00    -0.206 F 
ATOM    106  C   UNL     1      -3.837  18.034  12.996  1.00  0.00     0.060 A 
BRANCH 106 107
ATOM    107  S   UNL     1      -4.504  18.730  14.523  1.00  0.00     0.124 S 
ATOM    108  O   UNL     1      -4.369  17.607  15.444  1.00  0.00    -0.237 OA
ATOM    109  O   UNL     1      -3.612  19.860  14.766  1.00  0.00    -0.237 OA
ATOM    110  O   UNL     1      -5.874  19.087  14.166  1.00  0.00    -0.744 OA
ENDBRANCH 106 107
ENDBRANCH  74  99
ENDBRANCH  48  49
ENDBRANCH  41  43
ENDBRANCH  40  41
ENDBRANCH  39  40
ENDBRANCH  38  39
ENDBRANCH  37  38
ENDBRANCH  36  37
ENDBRANCH   1  36
TORSDOF 24
