REMARK SMILES Cc1ccc(C(=O)OCCOCCOCCOC(=O)c2ccc(-c3c4nc(c(-c5c(F)cc(S(=O)(=O)[O-])cc5F)c5ccc([nH]5)c(-c5c(F)cc(S(=O)(=O)[O-])cc5F)c5nc(c(-c6c(F)cc(S(=O)(=O)[O-])cc6F)c6ccc3[nH]6)C=C5)C=C4)cc2)c(Cl)c1
REMARK SMILES IDX 14 1 13 2 12 3 11 4 10 5 9 6 8 7 6 8 7 9 5 10 1 11 2 12 3 13
REMARK SMILES IDX 88 14 4 15 86 16 87 17 15 18 16 19 17 20 18 21 19 22 20 23
REMARK SMILES IDX 21 24 85 25 22 26 84 27 23 28 24 29 25 30 78 31 26 32 83 33
REMARK SMILES IDX 77 34 79 35 27 36 82 37 76 38 75 39 28 41 62 42 41 43 61 44
REMARK SMILES IDX 42 45 45 46 60 47 80 48 43 49 44 50 59 52 81 53 46 54 29 55
REMARK SMILES IDX 30 56 39 57 31 58 32 59 38 60 40 61 33 62 34 63 35 64 36 65
REMARK SMILES IDX 37 66 63 67 64 68 73 69 65 70 66 71 72 72 74 73 67 74 68 75
REMARK SMILES IDX 69 76 70 77 71 78 47 79 48 80 57 81 49 82 50 83 56 84 58 85
REMARK SMILES IDX 51 86 52 87 53 88 54 89 55 90
REMARK H PARENT 79 40 45 51
REMARK Flexibility Score: inf
ROOT
ATOM      1  O   UNL     1       0.882  -3.914  -2.881  1.00  0.00    -0.376 OA
ENDROOT
BRANCH   1   2
ATOM      2  C   UNL     1       1.409  -2.738  -2.277  1.00  0.00     0.188 C 
BRANCH   2   3
ATOM      3  C   UNL     1       2.778  -2.771  -1.564  1.00  0.00     0.188 C 
BRANCH   3   4
ATOM      4  O   UNL     1       3.255  -4.086  -1.319  1.00  0.00    -0.376 OA
BRANCH   4   5
ATOM      5  C   UNL     1       3.322  -4.489   0.040  1.00  0.00     0.202 C 
BRANCH   5   6
ATOM      6  C   UNL     1       1.973  -4.686   0.741  1.00  0.00     0.261 C 
BRANCH   6   7
ATOM      7  O   UNL     1       1.067  -3.583   0.589  1.00  0.00    -0.460 OA
BRANCH   7   8
ATOM      8  C   UNL     1       1.107  -2.597   1.512  1.00  0.00     0.339 C 
ATOM      9  O   UNL     1       1.814  -2.560   2.502  1.00  0.00    -0.246 OA
BRANCH   8  10
ATOM     10  C   UNL     1       0.159  -1.542   1.081  1.00  0.00     0.078 A 
ATOM     11  C   UNL     1      -2.679   1.453  -0.193  1.00  0.00     0.044 C 
ATOM     12  C   UNL     1      -1.698   0.400   0.238  1.00  0.00    -0.050 A 
ATOM     13  C   UNL     1      -2.078  -0.942   0.336  1.00  0.00     0.004 A 
ATOM     14  C   UNL     1      -0.375   0.757   0.537  1.00  0.00     0.024 A 
ATOM     15  C   UNL     1      -1.158  -1.907   0.757  1.00  0.00     0.017 A 
ATOM     16  C   UNL     1       0.554  -0.207   0.955  1.00  0.00     0.055 A 
ATOM     17  Cl  UNL     1       2.178   0.316   1.213  1.00  0.00    -0.083 Cl
ENDBRANCH   8  10
ENDBRANCH   7   8
ENDBRANCH   6   7
ENDBRANCH   5   6
ENDBRANCH   4   5
ENDBRANCH   3   4
ENDBRANCH   2   3
ENDBRANCH   1   2
BRANCH   1  18
ATOM     18  C   UNL     1       1.754  -4.787  -3.585  1.00  0.00     0.202 C 
BRANCH  18  19
ATOM     19  C   UNL     1       2.522  -4.245  -4.797  1.00  0.00     0.261 C 
BRANCH  19  20
ATOM     20  O   UNL     1       3.228  -3.016  -4.567  1.00  0.00    -0.460 OA
BRANCH  20  21
ATOM     21  C   UNL     1       2.719  -1.931  -5.203  1.00  0.00     0.338 C 
ATOM     22  O   UNL     1       1.758  -1.900  -5.954  1.00  0.00    -0.246 OA
BRANCH  21  23
ATOM     23  C   UNL     1       3.400  -0.709  -4.732  1.00  0.00     0.060 A 
ATOM     24  C   UNL     1       2.620   0.296  -4.146  1.00  0.00     0.016 A 
ATOM     25  C   UNL     1       4.769  -0.519  -4.929  1.00  0.00     0.016 A 
ATOM     26  C   UNL     1       3.202   1.507  -3.772  1.00  0.00     0.010 A 
ATOM     27  C   UNL     1       5.347   0.707  -4.578  1.00  0.00     0.010 A 
ATOM     28  C   UNL     1       4.561   1.734  -4.024  1.00  0.00    -0.014 A 
BRANCH  28  29
ATOM     29  C   UNL     1       5.116   3.100  -3.866  1.00  0.00     0.031 A 
ATOM     30  C   UNL     1       5.181   3.996  -5.073  1.00  0.00     0.074 A 
ATOM     31  C   UNL     1       5.537   3.544  -2.668  1.00  0.00     0.049 A 
ATOM     32  N   UNL     1       5.666   5.205  -5.183  1.00  0.00    -0.248 NA
ATOM     33  C   UNL     1       4.620   3.456  -6.323  1.00  0.00     0.031 C 
ATOM     34  C   UNL     1       5.484   2.787  -1.418  1.00  0.00     0.029 A 
ATOM     35  N   UNL     1       6.103   4.743  -2.313  1.00  0.00    -0.354 N 
ATOM     36  C   UNL     1       5.472   5.571  -6.510  1.00  0.00     0.074 A 
ATOM     37  C   UNL     1       4.847   4.447  -7.173  1.00  0.00     0.031 C 
ATOM     38  C   UNL     1       6.019   3.533  -0.435  1.00  0.00     0.029 A 
ATOM     39  C   UNL     1       6.474   4.807  -0.991  1.00  0.00     0.049 A 
ATOM     40  H   UNL     1       6.231   5.487  -2.945  1.00  0.00     0.167 HD
ATOM     41  C   UNL     1       5.779   6.740  -7.119  1.00  0.00     0.037 A 
ATOM     42  C   UNL     1       7.128   5.774  -0.316  1.00  0.00     0.037 A 
ATOM     43  C   UNL     1       6.408   7.854  -6.460  1.00  0.00     0.049 A 
ATOM     44  C   UNL     1       7.530   7.037  -1.035  1.00  0.00     0.074 A 
ATOM     45  C   UNL     1       6.753   9.085  -6.991  1.00  0.00     0.029 A 
ATOM     46  N   UNL     1       6.793   7.871  -5.128  1.00  0.00    -0.354 N 
ATOM     47  N   UNL     1       7.322   7.378  -2.285  1.00  0.00    -0.248 NA
ATOM     48  C   UNL     1       8.256   8.048  -0.252  1.00  0.00     0.031 C 
ATOM     49  C   UNL     1       7.386   9.831  -5.990  1.00  0.00     0.029 A 
ATOM     50  C   UNL     1       7.392   9.082  -4.824  1.00  0.00     0.049 A 
ATOM     51  H   UNL     1       6.660   7.131  -4.492  1.00  0.00     0.167 HD
ATOM     52  C   UNL     1       7.866   8.652  -2.429  1.00  0.00     0.074 A 
ATOM     53  C   UNL     1       8.404   9.024  -1.137  1.00  0.00     0.031 C 
ATOM     54  C   UNL     1       7.913   9.443  -3.530  1.00  0.00     0.037 A 
BRANCH  41  55
ATOM     55  C   UNL     1       5.459   6.866  -8.582  1.00  0.00     0.058 A 
ATOM     56  C   UNL     1       4.140   7.025  -9.034  1.00  0.00     0.135 A 
ATOM     57  C   UNL     1       6.486   6.864  -9.539  1.00  0.00     0.135 A 
ATOM     58  F   UNL     1       3.119   7.013  -8.162  1.00  0.00    -0.206 F 
ATOM     59  C   UNL     1       3.848   7.159 -10.388  1.00  0.00     0.059 A 
ATOM     60  C   UNL     1       6.219   7.019 -10.896  1.00  0.00     0.059 A 
ATOM     61  F   UNL     1       7.764   6.710  -9.158  1.00  0.00    -0.206 F 
ATOM     62  C   UNL     1       4.895   7.155 -11.311  1.00  0.00     0.060 A 
BRANCH  62  63
ATOM     63  S   UNL     1       4.502   7.342 -13.063  1.00  0.00     0.124 S 
ATOM     64  O   UNL     1       3.934   6.034 -13.375  1.00  0.00    -0.237 OA
ATOM     65  O   UNL     1       3.559   8.456 -13.055  1.00  0.00    -0.237 OA
ATOM     66  O   UNL     1       5.797   7.625 -13.674  1.00  0.00    -0.744 OA
ENDBRANCH  62  63
ENDBRANCH  41  55
BRANCH  42  67
ATOM     67  C   UNL     1       7.468   5.584   1.119  1.00  0.00     0.058 A 
ATOM     68  C   UNL     1       6.845   6.343   2.120  1.00  0.00     0.135 A 
ATOM     69  C   UNL     1       8.444   4.655   1.516  1.00  0.00     0.135 A 
ATOM     70  F   UNL     1       5.916   7.253   1.790  1.00  0.00    -0.206 F 
ATOM     71  C   UNL     1       7.191   6.206   3.461  1.00  0.00     0.059 A 
ATOM     72  C   UNL     1       8.789   4.482   2.852  1.00  0.00     0.059 A 
ATOM     73  F   UNL     1       9.065   3.899   0.597  1.00  0.00    -0.206 F 
ATOM     74  C   UNL     1       8.166   5.273   3.817  1.00  0.00     0.060 A 
BRANCH  74  75
ATOM     75  S   UNL     1       8.592   5.083   5.562  1.00  0.00     0.124 S 
ATOM     76  O   UNL     1       9.390   6.280   5.801  1.00  0.00    -0.237 OA
ATOM     77  O   UNL     1       7.279   5.055   6.198  1.00  0.00    -0.237 OA
ATOM     78  O   UNL     1       9.323   3.820   5.593  1.00  0.00    -0.744 OA
ENDBRANCH  74  75
ENDBRANCH  42  67
BRANCH  54  79
ATOM     79  C   UNL     1       8.534  10.805  -3.383  1.00  0.00     0.058 A 
ATOM     80  C   UNL     1       9.922  10.975  -3.269  1.00  0.00     0.135 A 
ATOM     81  C   UNL     1       7.733  11.958  -3.418  1.00  0.00     0.135 A 
ATOM     82  F   UNL     1      10.733   9.906  -3.226  1.00  0.00    -0.206 F 
ATOM     83  C   UNL     1      10.494  12.240  -3.174  1.00  0.00     0.059 A 
ATOM     84  C   UNL     1       8.284  13.233  -3.350  1.00  0.00     0.059 A 
ATOM     85  F   UNL     1       6.400  11.851  -3.538  1.00  0.00    -0.206 F 
ATOM     86  C   UNL     1       9.666  13.364  -3.217  1.00  0.00     0.060 A 
BRANCH  86  87
ATOM     87  S   UNL     1      10.421  15.002  -3.131  1.00  0.00     0.124 S 
ATOM     88  O   UNL     1      10.760  15.096  -1.714  1.00  0.00    -0.237 OA
ATOM     89  O   UNL     1      11.551  14.876  -4.046  1.00  0.00    -0.237 OA
ATOM     90  O   UNL     1       9.355  15.892  -3.581  1.00  0.00    -0.744 OA
ENDBRANCH  86  87
ENDBRANCH  54  79
ENDBRANCH  28  29
ENDBRANCH  21  23
ENDBRANCH  20  21
ENDBRANCH  19  20
ENDBRANCH  18  19
ENDBRANCH   1  18
TORSDOF 20
