REMARK SMILES O=C(OCCOCCOCCOC(=O)c1nnn(-c2cccc(C(F)(F)F)c2)c1[C@@H]1COc2ccccc2O1)c1ccc(-c2c3nc(c(-c4c(F)cc(S(=O)(=O)[O-])cc4F)c4ccc([nH]4)c(-c4c(F)cc(S(=O)(=O)[O-])cc4F)c4nc(c(-c5c(F)cc(S(=O)(=O)[O-])cc5F)c5ccc2[nH]5)C=C4)C=C3)cc1
REMARK SMILES IDX 7 1 6 2 5 3 4 4 3 5 2 6 1 7 40 8 41 9 105 10 42 11 104 12
REMARK SMILES IDX 43 13 44 14 45 15 98 16 46 17 103 18 97 19 99 20 47 21
REMARK SMILES IDX 102 22 96 23 95 24 48 26 82 27 61 28 81 29 62 30 65 31 80 32
REMARK SMILES IDX 100 33 63 34 64 35 79 37 101 38 66 39 49 40 50 41 59 42
REMARK SMILES IDX 51 43 52 44 58 45 60 46 53 47 54 48 55 49 56 50 57 51 83 52
REMARK SMILES IDX 84 53 93 54 85 55 86 56 92 57 94 58 87 59 88 60 89 61 90 62
REMARK SMILES IDX 91 63 67 64 68 65 77 66 69 67 70 68 76 69 78 70 71 71 72 72
REMARK SMILES IDX 73 73 74 74 75 75 8 76 9 77 10 78 11 79 12 80 13 81 14 82
REMARK SMILES IDX 15 83 16 84 29 85 17 86 18 87 30 88 31 89 39 90 32 91 38 92
REMARK SMILES IDX 33 93 37 94 34 95 36 96 35 97 19 98 20 99 28 100 21 101
REMARK SMILES IDX 23 102 22 103 24 104 25 105 26 106 27 107
REMARK H PARENT 99 25 65 36
REMARK Flexibility Score: inf
ROOT
ATOM      1  C   UNL     1       3.341   1.389  -1.193  1.00  0.00     0.188 C 
ENDROOT
BRANCH   1   2
ATOM      2  O   UNL     1       4.678   0.949  -1.395  1.00  0.00    -0.376 OA
BRANCH   2   3
ATOM      3  C   UNL     1       5.238   0.174  -0.342  1.00  0.00     0.202 C 
BRANCH   3   4
ATOM      4  C   UNL     1       4.768  -1.282  -0.287  1.00  0.00     0.261 C 
BRANCH   4   5
ATOM      5  O   UNL     1       3.365  -1.491  -0.514  1.00  0.00    -0.460 OA
BRANCH   5   6
ATOM      6  C   UNL     1       2.301  -1.470   0.308  1.00  0.00     0.338 C 
ATOM      7  O   UNL     1       1.245  -1.970  -0.078  1.00  0.00    -0.246 OA
BRANCH   6   8
ATOM      8  C   UNL     1       2.278  -0.737   1.595  1.00  0.00     0.060 A 
ATOM      9  C   UNL     1       3.356  -0.637   2.474  1.00  0.00     0.016 A 
ATOM     10  C   UNL     1       1.019  -0.231   1.982  1.00  0.00     0.016 A 
ATOM     11  C   UNL     1       3.151  -0.157   3.759  1.00  0.00     0.010 A 
ATOM     12  C   UNL     1       0.810   0.242   3.266  1.00  0.00     0.010 A 
ATOM     13  C   UNL     1       1.865   0.202   4.170  1.00  0.00    -0.014 A 
BRANCH  13  14
ATOM     14  C   UNL     1       1.668   0.477   5.585  1.00  0.00     0.031 A 
ATOM     15  C   UNL     1       2.283   1.730   6.084  1.00  0.00     0.074 A 
ATOM     16  C   UNL     1       0.919  -0.333   6.361  1.00  0.00     0.049 A 
ATOM     17  N   UNL     1       3.231   1.871   6.953  1.00  0.00    -0.248 NA
ATOM     18  C   UNL     1       1.877   2.984   5.433  1.00  0.00     0.031 C 
ATOM     19  C   UNL     1       0.053  -1.432   5.920  1.00  0.00     0.029 A 
ATOM     20  N   UNL     1       0.681  -0.273   7.700  1.00  0.00    -0.354 N 
ATOM     21  C   UNL     1       3.367   3.245   7.138  1.00  0.00     0.074 A 
ATOM     22  C   UNL     1       2.662   3.867   6.049  1.00  0.00     0.031 C 
ATOM     23  C   UNL     1      -0.783  -1.766   6.926  1.00  0.00     0.029 A 
ATOM     24  C   UNL     1      -0.435  -0.995   8.107  1.00  0.00     0.049 A 
ATOM     25  H   UNL     1       1.247   0.236   8.324  1.00  0.00     0.167 HD
ATOM     26  C   UNL     1       3.814   3.760   8.318  1.00  0.00     0.037 A 
ATOM     27  C   UNL     1      -1.083  -0.890   9.295  1.00  0.00     0.037 A 
ATOM     28  C   UNL     1       4.548   2.774   9.075  1.00  0.00     0.049 A 
ATOM     29  C   UNL     1      -0.140  -0.270  10.263  1.00  0.00     0.074 A 
ATOM     30  C   UNL     1       5.653   1.979   8.830  1.00  0.00     0.029 A 
ATOM     31  N   UNL     1       3.955   2.243  10.195  1.00  0.00    -0.354 N 
ATOM     32  N   UNL     1       0.943  -0.850  10.706  1.00  0.00    -0.248 NA
ATOM     33  C   UNL     1      -0.175   1.177  10.421  1.00  0.00     0.031 C 
ATOM     34  C   UNL     1       5.393   0.755   9.513  1.00  0.00     0.029 A 
ATOM     35  C   UNL     1       4.171   0.891  10.172  1.00  0.00     0.049 A 
ATOM     36  H   UNL     1       3.465   2.743  10.887  1.00  0.00     0.167 HD
ATOM     37  C   UNL     1       1.880   0.169  10.800  1.00  0.00     0.074 A 
ATOM     38  C   UNL     1       1.107   1.404  10.717  1.00  0.00     0.031 C 
ATOM     39  C   UNL     1       3.215  -0.083  10.652  1.00  0.00     0.037 A 
BRANCH  26  40
ATOM     40  C   UNL     1       3.227   5.003   8.970  1.00  0.00     0.058 A 
ATOM     41  C   UNL     1       3.776   5.453  10.191  1.00  0.00     0.135 A 
ATOM     42  C   UNL     1       1.971   5.559   8.635  1.00  0.00     0.135 A 
ATOM     43  F   UNL     1       4.981   5.025  10.598  1.00  0.00    -0.206 F 
ATOM     44  C   UNL     1       3.066   6.266  11.076  1.00  0.00     0.059 A 
ATOM     45  C   UNL     1       1.271   6.412   9.478  1.00  0.00     0.059 A 
ATOM     46  F   UNL     1       1.307   5.237   7.520  1.00  0.00    -0.206 F 
ATOM     47  C   UNL     1       1.797   6.709  10.722  1.00  0.00     0.060 A 
BRANCH  47  48
ATOM     48  S   UNL     1       0.801   7.605  11.923  1.00  0.00     0.124 S 
ATOM     49  O   UNL     1       0.483   6.546  12.873  1.00  0.00    -0.237 OA
ATOM     50  O   UNL     1       1.734   8.626  12.386  1.00  0.00    -0.237 OA
ATOM     51  O   UNL     1      -0.317   8.100  11.125  1.00  0.00    -0.744 OA
ENDBRANCH  47  48
ENDBRANCH  26  40
BRANCH  27  52
ATOM     52  C   UNL     1      -2.550  -0.974   9.531  1.00  0.00     0.058 A 
ATOM     53  C   UNL     1      -3.077  -1.061  10.832  1.00  0.00     0.135 A 
ATOM     54  C   UNL     1      -3.483  -0.710   8.506  1.00  0.00     0.135 A 
ATOM     55  F   UNL     1      -2.264  -1.284  11.876  1.00  0.00    -0.206 F 
ATOM     56  C   UNL     1      -4.436  -0.857  11.103  1.00  0.00     0.059 A 
ATOM     57  C   UNL     1      -4.841  -0.524   8.748  1.00  0.00     0.059 A 
ATOM     58  F   UNL     1      -3.091  -0.528   7.236  1.00  0.00    -0.206 F 
ATOM     59  C   UNL     1      -5.309  -0.573  10.054  1.00  0.00     0.060 A 
BRANCH  59  60
ATOM     60  S   UNL     1      -7.029  -0.144  10.408  1.00  0.00     0.124 S 
ATOM     61  O   UNL     1      -7.573  -1.422  10.853  1.00  0.00    -0.237 OA
ATOM     62  O   UNL     1      -6.886   0.882  11.436  1.00  0.00    -0.237 OA
ATOM     63  O   UNL     1      -7.532   0.334   9.122  1.00  0.00    -0.744 OA
ENDBRANCH  59  60
ENDBRANCH  27  52
BRANCH  39  64
ATOM     64  C   UNL     1       3.689  -1.507  10.744  1.00  0.00     0.058 A 
ATOM     65  C   UNL     1       3.326  -2.524   9.843  1.00  0.00     0.135 A 
ATOM     66  C   UNL     1       4.670  -1.816  11.699  1.00  0.00     0.135 A 
ATOM     67  F   UNL     1       2.481  -2.280   8.831  1.00  0.00    -0.206 F 
ATOM     68  C   UNL     1       3.880  -3.802   9.919  1.00  0.00     0.059 A 
ATOM     69  C   UNL     1       5.260  -3.075  11.772  1.00  0.00     0.059 A 
ATOM     70  F   UNL     1       5.109  -0.868  12.544  1.00  0.00    -0.206 F 
ATOM     71  C   UNL     1       4.850  -4.068  10.886  1.00  0.00     0.060 A 
BRANCH  71  72
ATOM     72  S   UNL     1       5.630  -5.696  10.923  1.00  0.00     0.124 S 
ATOM     73  O   UNL     1       4.564  -6.537  11.456  1.00  0.00    -0.237 OA
ATOM     74  O   UNL     1       5.971  -5.916   9.520  1.00  0.00    -0.237 OA
ATOM     75  O   UNL     1       6.777  -5.505  11.808  1.00  0.00    -0.744 OA
ENDBRANCH  71  72
ENDBRANCH  39  64
ENDBRANCH  13  14
ENDBRANCH   6   8
ENDBRANCH   5   6
ENDBRANCH   4   5
ENDBRANCH   3   4
ENDBRANCH   2   3
ENDBRANCH   1   2
BRANCH   1  76
ATOM     76  C   UNL     1       2.278   0.838  -2.172  1.00  0.00     0.188 C 
BRANCH  76  77
ATOM     77  O   UNL     1       2.578   0.328  -3.467  1.00  0.00    -0.376 OA
BRANCH  77  78
ATOM     78  C   UNL     1       3.896   0.346  -3.972  1.00  0.00     0.202 C 
BRANCH  78  79
ATOM     79  C   UNL     1       4.348   1.698  -4.529  1.00  0.00     0.261 C 
BRANCH  79  80
ATOM     80  O   UNL     1       3.930   2.830  -3.755  1.00  0.00    -0.458 OA
BRANCH  80  81
ATOM     81  C   UNL     1       2.727   3.378  -4.097  1.00  0.00     0.361 C 
ATOM     82  O   UNL     1       2.028   2.994  -5.029  1.00  0.00    -0.244 OA
BRANCH  81  83
ATOM     83  C   UNL     1       2.352   4.481  -3.222  1.00  0.00     0.198 A 
ATOM     84  N   UNL     1       1.040   4.731  -2.909  1.00  0.00    -0.122 NA
ATOM     85  C   UNL     1       3.158   5.394  -2.549  1.00  0.00     0.123 A 
ATOM     86  N   UNL     1       0.998   5.765  -2.083  1.00  0.00    -0.061 NA
ATOM     87  N   UNL     1       2.246   6.280  -1.992  1.00  0.00    -0.213 N 
BRANCH  85  88
ATOM     88  C   UNL     1       4.644   5.435  -2.344  1.00  0.00     0.262 C 
ATOM     89  C   UNL     1       5.072   5.089  -0.913  1.00  0.00     0.281 C 
ATOM     90  O   UNL     1       5.192   6.661  -2.841  1.00  0.00    -0.477 OA
ATOM     91  O   UNL     1       4.850   6.173  -0.010  1.00  0.00    -0.485 OA
ATOM     92  C   UNL     1       5.641   7.516  -1.868  1.00  0.00     0.162 A 
ATOM     93  C   UNL     1       5.440   7.306  -0.502  1.00  0.00     0.161 A 
ATOM     94  C   UNL     1       6.254   8.689  -2.305  1.00  0.00     0.050 A 
ATOM     95  C   UNL     1       5.779   8.292   0.421  1.00  0.00     0.050 A 
ATOM     96  C   UNL     1       6.624   9.666  -1.380  1.00  0.00     0.004 A 
ATOM     97  C   UNL     1       6.372   9.475  -0.020  1.00  0.00     0.004 A 
ENDBRANCH  85  88
BRANCH  87  98
ATOM     98  C   UNL     1       2.360   7.678  -1.869  1.00  0.00     0.067 A 
ATOM     99  C   UNL     1       2.201   8.285  -0.624  1.00  0.00     0.028 A 
ATOM    100  C   UNL     1       2.594   8.435  -3.024  1.00  0.00     0.041 A 
ATOM    101  C   UNL     1       2.375   9.666  -0.525  1.00  0.00     0.003 A 
ATOM    102  C   UNL     1       2.717   9.826  -2.934  1.00  0.00     0.058 A 
ATOM    103  C   UNL     1       2.638  10.430  -1.668  1.00  0.00     0.013 A 
BRANCH 102 104
ATOM    104  C   UNL     1       2.964  10.651  -4.170  1.00  0.00     0.416 C 
ATOM    105  F   UNL     1       2.282  11.831  -4.168  1.00  0.00    -0.166 F 
ATOM    106  F   UNL     1       4.277  10.979  -4.327  1.00  0.00    -0.166 F 
ATOM    107  F   UNL     1       2.600  10.020  -5.323  1.00  0.00    -0.166 F 
ENDBRANCH 102 104
ENDBRANCH  87  98
ENDBRANCH  81  83
ENDBRANCH  80  81
ENDBRANCH  79  80
ENDBRANCH  78  79
ENDBRANCH  77  78
ENDBRANCH  76  77
ENDBRANCH   1  76
TORSDOF 23
