REMARK SMILES O=C(OCCOCCOCCOC(=O)[C@H]1[NH2+]CC[C@H]1c1cccc(Oc2ccccc2)c1)c1ccc(-c2c3nc(c(-c4c(F)cc(S(=O)(=O)[O-])cc4F)c4ccc([nH]4)c(-c4c(F)cc(S(=O)(=O)[O-])cc4F)c4nc(c(-c5c(F)cc(S(=O)(=O)[O-])cc5F)c5ccc2[nH]5)C=C4)C=C3)cc1
REMARK SMILES IDX 7 1 6 2 5 3 4 4 3 5 2 6 1 7 33 8 34 9 98 10 35 11 97 12
REMARK SMILES IDX 36 13 37 14 38 15 91 16 39 17 96 18 90 19 92 20 40 21 95 22
REMARK SMILES IDX 89 23 88 24 41 26 75 27 54 28 74 29 55 30 58 31 73 32 93 33
REMARK SMILES IDX 56 34 57 35 72 37 94 38 59 39 42 40 43 41 52 42 44 43 45 44
REMARK SMILES IDX 51 45 53 46 46 47 47 48 48 49 49 50 50 51 76 52 77 53 86 54
REMARK SMILES IDX 78 55 79 56 85 57 87 58 80 59 81 60 82 61 83 62 84 63 60 64
REMARK SMILES IDX 61 65 70 66 62 67 63 68 69 69 71 70 64 71 65 72 66 73 67 74
REMARK SMILES IDX 68 75 8 76 9 77 10 78 11 79 12 80 13 81 14 82 15 83 16 84
REMARK SMILES IDX 19 85 17 86 18 89 20 90 21 91 32 92 22 93 24 94 23 95 25 96
REMARK SMILES IDX 26 97 27 98 31 99 28 100 30 101 29 102
REMARK H PARENT 92 25 58 36 16 87 16 88
REMARK Flexibility Score: inf
ROOT
ATOM      1  C   UNL     1       2.252   0.705  -1.310  1.00  0.00     0.188 C 
ENDROOT
BRANCH   1   2
ATOM      2  O   UNL     1       3.611   0.882  -0.898  1.00  0.00    -0.376 OA
BRANCH   2   3
ATOM      3  C   UNL     1       4.515  -0.108  -1.403  1.00  0.00     0.202 C 
BRANCH   3   4
ATOM      4  C   UNL     1       4.348  -1.524  -0.825  1.00  0.00     0.261 C 
BRANCH   4   5
ATOM      5  O   UNL     1       3.025  -1.819  -0.346  1.00  0.00    -0.460 OA
BRANCH   5   6
ATOM      6  C   UNL     1       2.456  -1.526   0.851  1.00  0.00     0.338 C 
ATOM      7  O   UNL     1       1.285  -1.863   1.028  1.00  0.00    -0.246 OA
BRANCH   6   8
ATOM      8  C   UNL     1       3.157  -0.812   1.965  1.00  0.00     0.060 A 
ATOM      9  C   UNL     1       4.341  -0.088   1.841  1.00  0.00     0.016 A 
ATOM     10  C   UNL     1       2.557  -0.861   3.235  1.00  0.00     0.016 A 
ATOM     11  C   UNL     1       4.982   0.468   2.934  1.00  0.00     0.010 A 
ATOM     12  C   UNL     1       3.173  -0.270   4.343  1.00  0.00     0.010 A 
ATOM     13  C   UNL     1       4.419   0.352   4.194  1.00  0.00    -0.014 A 
BRANCH  13  14
ATOM     14  C   UNL     1       5.258   0.701   5.351  1.00  0.00     0.031 A 
ATOM     15  C   UNL     1       5.850  -0.419   6.139  1.00  0.00     0.074 A 
ATOM     16  C   UNL     1       5.605   1.975   5.595  1.00  0.00     0.049 A 
ATOM     17  N   UNL     1       6.596  -0.362   7.204  1.00  0.00    -0.248 NA
ATOM     18  C   UNL     1       5.620  -1.782   5.626  1.00  0.00     0.031 C 
ATOM     19  C   UNL     1       5.273   3.102   4.733  1.00  0.00     0.029 A 
ATOM     20  N   UNL     1       6.296   2.547   6.628  1.00  0.00    -0.354 N 
ATOM     21  C   UNL     1       6.942  -1.676   7.478  1.00  0.00     0.074 A 
ATOM     22  C   UNL     1       6.284  -2.515   6.504  1.00  0.00     0.031 C 
ATOM     23  C   UNL     1       5.651   4.238   5.330  1.00  0.00     0.029 A 
ATOM     24  C   UNL     1       6.263   3.921   6.600  1.00  0.00     0.049 A 
ATOM     25  H   UNL     1       6.767   2.028   7.320  1.00  0.00     0.167 HD
ATOM     26  C   UNL     1       7.763  -2.124   8.451  1.00  0.00     0.037 A 
ATOM     27  C   UNL     1       6.657   4.831   7.506  1.00  0.00     0.037 A 
ATOM     28  C   UNL     1       8.379  -1.252   9.412  1.00  0.00     0.049 A 
ATOM     29  C   UNL     1       7.385   4.306   8.701  1.00  0.00     0.074 A 
ATOM     30  C   UNL     1       9.180  -1.580  10.487  1.00  0.00     0.029 A 
ATOM     31  N   UNL     1       8.244   0.134   9.416  1.00  0.00    -0.354 N 
ATOM     32  N   UNL     1       7.670   3.057   8.988  1.00  0.00    -0.248 NA
ATOM     33  C   UNL     1       7.885   5.287   9.665  1.00  0.00     0.031 C 
ATOM     34  C   UNL     1       9.477  -0.400  11.178  1.00  0.00     0.029 A 
ATOM     35  C   UNL     1       8.916   0.673  10.498  1.00  0.00     0.049 A 
ATOM     36  H   UNL     1       7.742   0.653   8.748  1.00  0.00     0.167 HD
ATOM     37  C   UNL     1       8.436   3.100  10.139  1.00  0.00     0.074 A 
ATOM     38  C   UNL     1       8.558   4.503  10.498  1.00  0.00     0.031 C 
ATOM     39  C   UNL     1       9.004   2.077  10.822  1.00  0.00     0.037 A 
BRANCH  26  40
ATOM     40  C   UNL     1       7.960  -3.608   8.536  1.00  0.00     0.058 A 
ATOM     41  C   UNL     1       8.691  -4.320   7.571  1.00  0.00     0.135 A 
ATOM     42  C   UNL     1       7.356  -4.337   9.571  1.00  0.00     0.135 A 
ATOM     43  F   UNL     1       9.252  -3.676   6.534  1.00  0.00    -0.206 F 
ATOM     44  C   UNL     1       8.794  -5.707   7.615  1.00  0.00     0.059 A 
ATOM     45  C   UNL     1       7.467  -5.720   9.650  1.00  0.00     0.059 A 
ATOM     46  F   UNL     1       6.624  -3.706  10.503  1.00  0.00    -0.206 F 
ATOM     47  C   UNL     1       8.176  -6.398   8.659  1.00  0.00     0.060 A 
BRANCH  47  48
ATOM     48  S   UNL     1       8.312  -8.197   8.699  1.00  0.00     0.124 S 
ATOM     49  O   UNL     1       7.454  -8.580   7.584  1.00  0.00    -0.237 OA
ATOM     50  O   UNL     1       9.740  -8.405   8.503  1.00  0.00    -0.237 OA
ATOM     51  O   UNL     1       7.806  -8.545  10.028  1.00  0.00    -0.744 OA
ENDBRANCH  47  48
ENDBRANCH  26  40
BRANCH  27  52
ATOM     52  C   UNL     1       6.379   6.279   7.302  1.00  0.00     0.058 A 
ATOM     53  C   UNL     1       7.406   7.198   7.045  1.00  0.00     0.135 A 
ATOM     54  C   UNL     1       5.061   6.772   7.333  1.00  0.00     0.135 A 
ATOM     55  F   UNL     1       8.678   6.779   6.984  1.00  0.00    -0.206 F 
ATOM     56  C   UNL     1       7.145   8.554   6.862  1.00  0.00     0.059 A 
ATOM     57  C   UNL     1       4.773   8.119   7.131  1.00  0.00     0.059 A 
ATOM     58  F   UNL     1       4.033   5.933   7.535  1.00  0.00    -0.206 F 
ATOM     59  C   UNL     1       5.825   9.006   6.912  1.00  0.00     0.060 A 
BRANCH  59  60
ATOM     60  S   UNL     1       5.504  10.767   6.671  1.00  0.00     0.124 S 
ATOM     61  O   UNL     1       6.080  11.339   7.881  1.00  0.00    -0.237 OA
ATOM     62  O   UNL     1       6.221  11.037   5.430  1.00  0.00    -0.237 OA
ATOM     63  O   UNL     1       4.047  10.832   6.574  1.00  0.00    -0.744 OA
ENDBRANCH  59  60
ENDBRANCH  27  52
BRANCH  39  64
ATOM     64  C   UNL     1       9.836   2.457  12.006  1.00  0.00     0.058 A 
ATOM     65  C   UNL     1       9.257   2.936  13.189  1.00  0.00     0.135 A 
ATOM     66  C   UNL     1      11.230   2.303  11.959  1.00  0.00     0.135 A 
ATOM     67  F   UNL     1       7.928   3.114  13.269  1.00  0.00    -0.206 F 
ATOM     68  C   UNL     1      10.038   3.276  14.284  1.00  0.00     0.059 A 
ATOM     69  C   UNL     1      12.027   2.602  13.055  1.00  0.00     0.059 A 
ATOM     70  F   UNL     1      11.825   1.843  10.847  1.00  0.00    -0.206 F 
ATOM     71  C   UNL     1      11.421   3.100  14.207  1.00  0.00     0.060 A 
BRANCH  71  72
ATOM     72  S   UNL     1      12.418   3.506  15.652  1.00  0.00     0.124 S 
ATOM     73  O   UNL     1      12.389   4.965  15.626  1.00  0.00    -0.237 OA
ATOM     74  O   UNL     1      11.669   2.875  16.733  1.00  0.00    -0.237 OA
ATOM     75  O   UNL     1      13.712   2.897  15.353  1.00  0.00    -0.744 OA
ENDBRANCH  71  72
ENDBRANCH  39  64
ENDBRANCH  13  14
ENDBRANCH   6   8
ENDBRANCH   5   6
ENDBRANCH   4   5
ENDBRANCH   3   4
ENDBRANCH   2   3
ENDBRANCH   1   2
BRANCH   1  76
ATOM     76  C   UNL     1       1.571   1.962  -1.843  1.00  0.00     0.188 C 
BRANCH  76  77
ATOM     77  O   UNL     1       2.188   2.588  -2.959  1.00  0.00    -0.376 OA
BRANCH  77  78
ATOM     78  C   UNL     1       3.560   2.913  -2.809  1.00  0.00     0.202 C 
BRANCH  78  79
ATOM     79  C   UNL     1       3.977   3.898  -1.713  1.00  0.00     0.261 C 
BRANCH  79  80
ATOM     80  O   UNL     1       3.412   3.783  -0.400  1.00  0.00    -0.459 OA
BRANCH  80  81
ATOM     81  C   UNL     1       2.424   4.692  -0.144  1.00  0.00     0.365 C 
ATOM     82  O   UNL     1       1.821   5.329  -1.007  1.00  0.00    -0.245 OA
BRANCH  81  83
ATOM     83  C   UNL     1       2.196   4.960   1.329  1.00  0.00     0.301 C 
ATOM     84  N   UNL     1       2.538   3.841   2.240  1.00  0.00    -0.334 N 
ATOM     85  C   UNL     1       2.917   6.192   1.929  1.00  0.00     0.095 C 
ATOM     86  C   UNL     1       2.311   4.442   3.560  1.00  0.00     0.262 C 
ATOM     87  H   UNL     1       3.511   3.555   2.126  1.00  0.00     0.347 HD
ATOM     88  H   UNL     1       1.994   2.994   2.074  1.00  0.00     0.347 HD
ATOM     89  C   UNL     1       2.655   5.928   3.432  1.00  0.00     0.076 C 
BRANCH  85  90
ATOM     90  C   UNL     1       4.369   6.429   1.482  1.00  0.00    -0.034 A 
ATOM     91  C   UNL     1       5.456   6.523   2.352  1.00  0.00     0.004 A 
ATOM     92  C   UNL     1       4.649   6.675   0.119  1.00  0.00     0.051 A 
ATOM     93  C   UNL     1       6.764   6.690   1.881  1.00  0.00     0.004 A 
ATOM     94  C   UNL     1       5.948   6.857  -0.381  1.00  0.00     0.127 A 
ATOM     95  C   UNL     1       7.010   6.831   0.518  1.00  0.00     0.047 A 
BRANCH  94  96
ATOM     96  O   UNL     1       6.311   7.104  -1.695  1.00  0.00    -0.457 OA
BRANCH  96  97
ATOM     97  C   UNL     1       5.426   6.875  -2.721  1.00  0.00     0.127 A 
ATOM     98  C   UNL     1       5.789   5.937  -3.694  1.00  0.00     0.047 A 
ATOM     99  C   UNL     1       4.219   7.564  -2.844  1.00  0.00     0.047 A 
ATOM    100  C   UNL     1       4.893   5.608  -4.715  1.00  0.00     0.004 A 
ATOM    101  C   UNL     1       3.300   7.191  -3.827  1.00  0.00     0.004 A 
ATOM    102  C   UNL     1       3.631   6.203  -4.754  1.00  0.00     0.000 A 
ENDBRANCH  96  97
ENDBRANCH  94  96
ENDBRANCH  85  90
ENDBRANCH  81  83
ENDBRANCH  80  81
ENDBRANCH  79  80
ENDBRANCH  78  79
ENDBRANCH  77  78
ENDBRANCH  76  77
ENDBRANCH   1  76
TORSDOF 23
