REMARK SMILES CCN1CCN([C@H](C)c2ccc(C(=O)OCCOCCOCCOC(=O)c3ccc(-c4c5nc(c(-c6c(F)cc(S(=O)(=O)[O-])cc6F)c6ccc([nH]6)c(-c6c(F)cc(S(=O)(=O)[O-])cc6F)c6nc(c(-c7c(F)cc(S(=O)(=O)[O-])cc7F)c7ccc4[nH]7)C=C6)C=C5)cc3)o2)C(=O)C1=O
REMARK SMILES IDX 19 1 18 2 17 3 16 4 15 5 13 6 14 7 12 8 9 9 10 10 93 11
REMARK SMILES IDX 11 12 7 13 8 14 6 15 3 16 4 17 96 18 5 19 94 20 97 21 95 22
REMARK SMILES IDX 2 23 1 24 20 25 21 26 22 27 23 28 24 29 25 30 26 31 27 32
REMARK SMILES IDX 28 33 92 34 29 35 91 36 30 37 31 38 32 39 85 40 33 41 90 42
REMARK SMILES IDX 84 43 86 44 34 45 89 46 83 47 82 48 35 50 69 51 48 52 68 53
REMARK SMILES IDX 49 54 52 55 67 56 87 57 50 58 51 59 66 61 88 62 53 63 36 64
REMARK SMILES IDX 37 65 46 66 38 67 39 68 45 69 47 70 40 71 41 72 42 73 43 74
REMARK SMILES IDX 44 75 70 76 71 77 80 78 72 79 73 80 79 81 81 82 74 83 75 84
REMARK SMILES IDX 76 85 77 86 78 87 54 88 55 89 64 90 56 91 57 92 63 93 65 94
REMARK SMILES IDX 58 95 59 96 60 97 61 98 62 99
REMARK H PARENT 86 49 52 60
REMARK Flexibility Score: inf
ROOT
ATOM      1  C   UNL     1      -1.391   6.416  -8.701  1.00  0.00     0.188 C 
ENDROOT
BRANCH   1   2
ATOM      2  O   UNL     1      -2.116   5.887  -9.797  1.00  0.00    -0.376 OA
BRANCH   2   3
ATOM      3  C   UNL     1      -3.300   5.138  -9.544  1.00  0.00     0.202 C 
BRANCH   3   4
ATOM      4  C   UNL     1      -3.202   3.937  -8.605  1.00  0.00     0.261 C 
BRANCH   4   5
ATOM      5  O   UNL     1      -3.024   4.372  -7.246  1.00  0.00    -0.457 OA
BRANCH   5   6
ATOM      6  C   UNL     1      -2.018   3.762  -6.551  1.00  0.00     0.374 C 
ATOM      7  O   UNL     1      -1.378   2.802  -6.961  1.00  0.00    -0.242 OA
BRANCH   6   8
ATOM      8  C   UNL     1      -1.770   4.495  -5.332  1.00  0.00     0.211 A 
ATOM      9  C   UNL     1      -0.501   5.270  -3.699  1.00  0.00     0.127 A 
ATOM     10  C   UNL     1      -1.737   5.870  -3.555  1.00  0.00     0.049 A 
ATOM     11  O   UNL     1      -0.523   4.422  -4.767  1.00  0.00    -0.452 OA
ATOM     12  C   UNL     1      -2.552   5.370  -4.597  1.00  0.00     0.058 A 
BRANCH   9  13
ATOM     13  C   UNL     1       0.761   5.390  -2.893  1.00  0.00     0.149 C 
ATOM     14  C   UNL     1       0.621   4.603  -1.587  1.00  0.00     0.040 C 
BRANCH  13  15
ATOM     15  N   UNL     1       1.969   5.144  -3.694  1.00  0.00    -0.323 N 
ATOM     16  N   UNL     1       4.550   5.086  -4.956  1.00  0.00    -0.333 N 
ATOM     17  C   UNL     1       3.831   6.333  -4.766  1.00  0.00     0.141 C 
ATOM     18  C   UNL     1       4.010   3.883  -4.484  1.00  0.00     0.312 C 
ATOM     19  C   UNL     1       2.323   6.101  -4.734  1.00  0.00     0.142 C 
ATOM     20  C   UNL     1       2.735   3.976  -3.591  1.00  0.00     0.312 C 
ATOM     21  O   UNL     1       4.496   2.783  -4.719  1.00  0.00    -0.263 OA
ATOM     22  O   UNL     1       2.501   3.062  -2.810  1.00  0.00    -0.263 OA
BRANCH  16  23
ATOM     23  C   UNL     1       5.802   5.047  -5.714  1.00  0.00     0.116 C 
ATOM     24  C   UNL     1       6.657   6.305  -5.643  1.00  0.00     0.027 C 
ENDBRANCH  16  23
ENDBRANCH  13  15
ENDBRANCH   9  13
ENDBRANCH   6   8
ENDBRANCH   5   6
ENDBRANCH   4   5
ENDBRANCH   3   4
ENDBRANCH   2   3
ENDBRANCH   1   2
BRANCH   1  25
ATOM     25  C   UNL     1      -2.072   7.414  -7.743  1.00  0.00     0.188 C 
BRANCH  25  26
ATOM     26  O   UNL     1      -3.382   7.896  -7.975  1.00  0.00    -0.376 OA
BRANCH  26  27
ATOM     27  C   UNL     1      -3.712   8.516  -9.209  1.00  0.00     0.202 C 
BRANCH  27  28
ATOM     28  C   UNL     1      -2.837   9.623  -9.804  1.00  0.00     0.261 C 
BRANCH  28  29
ATOM     29  O   UNL     1      -1.442   9.315  -9.877  1.00  0.00    -0.460 OA
BRANCH  29  30
ATOM     30  C   UNL     1      -0.651  10.100  -9.105  1.00  0.00     0.338 C 
ATOM     31  O   UNL     1      -1.001  10.991  -8.350  1.00  0.00    -0.246 OA
BRANCH  30  32
ATOM     32  C   UNL     1       0.734   9.613  -9.175  1.00  0.00     0.060 A 
ATOM     33  C   UNL     1       1.346   9.203  -7.985  1.00  0.00     0.016 A 
ATOM     34  C   UNL     1       1.444   9.632 -10.377  1.00  0.00     0.016 A 
ATOM     35  C   UNL     1       2.686   8.829  -7.994  1.00  0.00     0.010 A 
ATOM     36  C   UNL     1       2.794   9.273 -10.380  1.00  0.00     0.010 A 
ATOM     37  C   UNL     1       3.424   8.892  -9.184  1.00  0.00    -0.014 A 
BRANCH  37  38
ATOM     38  C   UNL     1       4.891   8.704  -9.128  1.00  0.00     0.031 A 
ATOM     39  C   UNL     1       5.759   9.897  -8.844  1.00  0.00     0.074 A 
ATOM     40  C   UNL     1       5.431   7.481  -9.271  1.00  0.00     0.049 A 
ATOM     41  N   UNL     1       7.052   9.955  -8.667  1.00  0.00    -0.248 NA
ATOM     42  C   UNL     1       5.074  11.196  -8.738  1.00  0.00     0.031 C 
ATOM     43  C   UNL     1       4.679   6.248  -9.498  1.00  0.00     0.029 A 
ATOM     44  N   UNL     1       6.739   7.071  -9.204  1.00  0.00    -0.354 N 
ATOM     45  C   UNL     1       7.343  11.299  -8.462  1.00  0.00     0.074 A 
ATOM     46  C   UNL     1       6.089  12.018  -8.514  1.00  0.00     0.031 C 
ATOM     47  C   UNL     1       5.535   5.211  -9.502  1.00  0.00     0.029 A 
ATOM     48  C   UNL     1       6.894   5.707  -9.289  1.00  0.00     0.049 A 
ATOM     49  H   UNL     1       7.495   7.694  -9.106  1.00  0.00     0.167 HD
ATOM     50  C   UNL     1       8.550  11.882  -8.271  1.00  0.00     0.037 A 
ATOM     51  C   UNL     1       8.002   4.951  -9.162  1.00  0.00     0.037 A 
ATOM     52  C   UNL     1       9.796  11.166  -8.238  1.00  0.00     0.049 A 
ATOM     53  C   UNL     1       9.332   5.625  -8.934  1.00  0.00     0.074 A 
ATOM     54  C   UNL     1      11.076  11.672  -8.092  1.00  0.00     0.029 A 
ATOM     55  N   UNL     1       9.920   9.790  -8.358  1.00  0.00    -0.354 N 
ATOM     56  N   UNL     1       9.592   6.896  -8.736  1.00  0.00    -0.248 NA
ATOM     57  C   UNL     1      10.521   4.760  -8.925  1.00  0.00     0.031 C 
ATOM     58  C   UNL     1      11.977  10.604  -8.164  1.00  0.00     0.029 A 
ATOM     59  C   UNL     1      11.256   9.430  -8.309  1.00  0.00     0.049 A 
ATOM     60  H   UNL     1       9.169   9.162  -8.463  1.00  0.00     0.167 HD
ATOM     61  C   UNL     1      10.973   6.981  -8.578  1.00  0.00     0.074 A 
ATOM     62  C   UNL     1      11.488   5.630  -8.665  1.00  0.00     0.031 C 
ATOM     63  C   UNL     1      11.749   8.078  -8.395  1.00  0.00     0.037 A 
BRANCH  50  64
ATOM     64  C   UNL     1       8.580  13.378  -8.155  1.00  0.00     0.058 A 
ATOM     65  C   UNL     1       8.173  14.041  -6.988  1.00  0.00     0.135 A 
ATOM     66  C   UNL     1       9.035  14.156  -9.232  1.00  0.00     0.135 A 
ATOM     67  F   UNL     1       7.705  13.342  -5.942  1.00  0.00    -0.206 F 
ATOM     68  C   UNL     1       8.198  15.429  -6.899  1.00  0.00     0.059 A 
ATOM     69  C   UNL     1       9.088  15.544  -9.157  1.00  0.00     0.059 A 
ATOM     70  F   UNL     1       9.426  13.568 -10.373  1.00  0.00    -0.206 F 
ATOM     71  C   UNL     1       8.654  16.172  -7.991  1.00  0.00     0.060 A 
BRANCH  71  72
ATOM     72  S   UNL     1       8.673  17.973  -7.866  1.00  0.00     0.124 S 
ATOM     73  O   UNL     1       7.253  18.286  -7.998  1.00  0.00    -0.237 OA
ATOM     74  O   UNL     1       9.249  18.189  -6.543  1.00  0.00    -0.237 OA
ATOM     75  O   UNL     1       9.513  18.381  -8.987  1.00  0.00    -0.744 OA
ENDBRANCH  71  72
ENDBRANCH  50  64
BRANCH  51  76
ATOM     76  C   UNL     1       7.910   3.467  -9.177  1.00  0.00     0.058 A 
ATOM     77  C   UNL     1       8.165   2.731  -8.009  1.00  0.00     0.135 A 
ATOM     78  C   UNL     1       7.592   2.754 -10.341  1.00  0.00     0.135 A 
ATOM     79  F   UNL     1       8.481   3.372  -6.873  1.00  0.00    -0.206 F 
ATOM     80  C   UNL     1       8.136   1.340  -7.999  1.00  0.00     0.059 A 
ATOM     81  C   UNL     1       7.536   1.363 -10.352  1.00  0.00     0.059 A 
ATOM     82  F   UNL     1       7.327   3.411 -11.481  1.00  0.00    -0.206 F 
ATOM     83  C   UNL     1       7.829   0.664  -9.180  1.00  0.00     0.060 A 
BRANCH  83  84
ATOM     84  S   UNL     1       7.796  -1.143  -9.178  1.00  0.00     0.124 S 
ATOM     85  O   UNL     1       9.214  -1.458  -9.308  1.00  0.00    -0.237 OA
ATOM     86  O   UNL     1       7.190  -1.450  -7.888  1.00  0.00    -0.237 OA
ATOM     87  O   UNL     1       6.971  -1.458 -10.341  1.00  0.00    -0.744 OA
ENDBRANCH  83  84
ENDBRANCH  51  76
BRANCH  63  88
ATOM     88  C   UNL     1      13.236   7.875  -8.286  1.00  0.00     0.058 A 
ATOM     89  C   UNL     1      14.012   7.557  -9.412  1.00  0.00     0.135 A 
ATOM     90  C   UNL     1      13.901   8.078  -7.066  1.00  0.00     0.135 A 
ATOM     91  F   UNL     1      13.424   7.354 -10.602  1.00  0.00    -0.206 F 
ATOM     92  C   UNL     1      15.395   7.432  -9.329  1.00  0.00     0.059 A 
ATOM     93  C   UNL     1      15.286   7.981  -6.966  1.00  0.00     0.059 A 
ATOM     94  F   UNL     1      13.207   8.398  -5.963  1.00  0.00    -0.206 F 
ATOM     95  C   UNL     1      16.024   7.649  -8.102  1.00  0.00     0.060 A 
BRANCH  95  96
ATOM     96  S   UNL     1      17.824   7.538  -8.020  1.00  0.00     0.124 S 
ATOM     97  O   UNL     1      18.031   6.094  -8.036  1.00  0.00    -0.237 OA
ATOM     98  O   UNL     1      18.239   8.251  -9.225  1.00  0.00    -0.237 OA
ATOM     99  O   UNL     1      18.148   8.206  -6.763  1.00  0.00    -0.744 OA
ENDBRANCH  95  96
ENDBRANCH  63  88
ENDBRANCH  37  38
ENDBRANCH  30  32
ENDBRANCH  29  30
ENDBRANCH  28  29
ENDBRANCH  27  28
ENDBRANCH  26  27
ENDBRANCH  25  26
ENDBRANCH   1  25
TORSDOF 23
