REMARK SMILES CCC[NH2+][C@]1(C(=O)OCCOCCOCCOC(=O)c2ccc(-c3c4nc(c(-c5c(F)cc(S(=O)(=O)[O-])cc5F)c5ccc([nH]5)c(-c5c(F)cc(S(=O)(=O)[O-])cc5F)c5nc(c(-c6c(F)cc(S(=O)(=O)[O-])cc6F)c6ccc3[nH]6)C=C5)C=C4)cc2)CCC[C@H](Sc2nnc(C)o2)C1
REMARK SMILES IDX 12 1 11 2 10 3 9 4 8 5 6 6 7 7 5 8 86 9 97 10 87 11 89 12
REMARK SMILES IDX 88 13 4 14 3 17 2 18 1 19 90 20 91 21 92 22 96 23 93 24
REMARK SMILES IDX 94 25 95 26 13 27 14 28 15 29 16 30 17 31 18 32 19 33 20 34
REMARK SMILES IDX 21 35 85 36 22 37 84 38 23 39 24 40 25 41 78 42 26 43 83 44
REMARK SMILES IDX 77 45 79 46 27 47 82 48 76 49 75 50 28 52 62 53 41 54 61 55
REMARK SMILES IDX 42 56 45 57 60 58 80 59 43 60 44 61 59 63 81 64 46 65 29 66
REMARK SMILES IDX 30 67 39 68 31 69 32 70 38 71 40 72 33 73 34 74 35 75 36 76
REMARK SMILES IDX 37 77 63 78 64 79 73 80 65 81 66 82 72 83 74 84 67 85 68 86
REMARK SMILES IDX 69 87 70 88 71 89 47 90 48 91 57 92 49 93 50 94 56 95 58 96
REMARK SMILES IDX 51 97 52 98 53 99 54 100 55 101
REMARK H PARENT 4 15 4 16 79 51 45 62
REMARK Flexibility Score: inf
ROOT
ATOM      1  C   UNL     1      -1.108   2.238  -0.200  1.00  0.00     0.188 C 
ENDROOT
BRANCH   1   2
ATOM      2  O   UNL     1      -1.257   0.874  -0.493  1.00  0.00    -0.376 OA
BRANCH   2   3
ATOM      3  C   UNL     1      -0.576  -0.107   0.263  1.00  0.00     0.202 C 
BRANCH   3   4
ATOM      4  C   UNL     1       0.352   0.140   1.470  1.00  0.00     0.261 C 
BRANCH   4   5
ATOM      5  O   UNL     1       0.442   1.445   2.051  1.00  0.00    -0.459 OA
BRANCH   5   6
ATOM      6  C   UNL     1       1.514   2.183   1.657  1.00  0.00     0.368 C 
ATOM      7  O   UNL     1       2.265   1.837   0.744  1.00  0.00    -0.245 OA
BRANCH   6   8
ATOM      8  C   UNL     1       1.696   3.550   2.433  1.00  0.00     0.195 C 
ATOM      9  C   UNL     1       1.349   4.668   1.421  1.00  0.00     0.081 C 
ATOM     10  C   UNL     1       0.800   3.682   3.695  1.00  0.00     0.096 C 
ATOM     11  C   UNL     1       1.412   6.071   2.005  1.00  0.00     0.008 C 
ATOM     12  C   UNL     1       0.498   5.110   4.240  1.00  0.00     0.063 C 
ATOM     13  C   UNL     1       0.472   6.233   3.192  1.00  0.00     0.015 C 
BRANCH   8  14
ATOM     14  N   UNL     1       3.148   3.547   2.689  1.00  0.00    -0.332 N 
ATOM     15  H   UNL     1       3.414   2.569   2.806  1.00  0.00     0.347 HD
ATOM     16  H   UNL     1       3.504   4.070   1.889  1.00  0.00     0.347 HD
BRANCH  14  17
ATOM     17  C   UNL     1       3.736   4.255   3.791  1.00  0.00     0.261 C 
BRANCH  17  18
ATOM     18  C   UNL     1       5.262   4.181   3.726  1.00  0.00     0.058 C 
ATOM     19  C   UNL     1       5.843   4.881   2.504  1.00  0.00     0.010 C 
ENDBRANCH  17  18
ENDBRANCH  14  17
ENDBRANCH   8  14
BRANCH  12  20
ATOM     20  S   UNL     1       1.270   5.367   5.886  1.00  0.00    -0.062 SA
BRANCH  20  21
ATOM     21  C   UNL     1       2.202   6.823   5.829  1.00  0.00     0.276 A 
ATOM     22  N   UNL     1       1.729   8.034   5.620  1.00  0.00    -0.101 NA
ATOM     23  O   UNL     1       3.522   6.848   6.214  1.00  0.00    -0.416 OA
ATOM     24  N   UNL     1       2.765   8.918   5.854  1.00  0.00    -0.112 NA
ATOM     25  C   UNL     1       3.796   8.187   6.213  1.00  0.00     0.214 A 
ATOM     26  C   UNL     1       5.137   8.604   6.661  1.00  0.00     0.113 C 
ENDBRANCH  20  21
ENDBRANCH  12  20
ENDBRANCH   6   8
ENDBRANCH   5   6
ENDBRANCH   4   5
ENDBRANCH   3   4
ENDBRANCH   2   3
ENDBRANCH   1   2
BRANCH   1  27
ATOM     27  C   UNL     1      -1.893   2.767   1.015  1.00  0.00     0.188 C 
BRANCH  27  28
ATOM     28  O   UNL     1      -2.681   1.893   1.798  1.00  0.00    -0.376 OA
BRANCH  28  29
ATOM     29  C   UNL     1      -3.693   1.127   1.166  1.00  0.00     0.202 C 
BRANCH  29  30
ATOM     30  C   UNL     1      -4.615   1.725   0.088  1.00  0.00     0.261 C 
BRANCH  30  31
ATOM     31  O   UNL     1      -3.986   2.525  -0.923  1.00  0.00    -0.460 OA
BRANCH  31  32
ATOM     32  C   UNL     1      -4.227   3.862  -0.847  1.00  0.00     0.338 C 
ATOM     33  O   UNL     1      -4.889   4.442  -0.008  1.00  0.00    -0.246 OA
BRANCH  32  34
ATOM     34  C   UNL     1      -3.394   4.562  -1.847  1.00  0.00     0.060 A 
ATOM     35  C   UNL     1      -2.393   5.448  -1.413  1.00  0.00     0.016 A 
ATOM     36  C   UNL     1      -3.635   4.375  -3.205  1.00  0.00     0.016 A 
ATOM     37  C   UNL     1      -1.640   6.166  -2.344  1.00  0.00     0.010 A 
ATOM     38  C   UNL     1      -2.903   5.117  -4.133  1.00  0.00     0.010 A 
ATOM     39  C   UNL     1      -1.924   6.036  -3.708  1.00  0.00    -0.014 A 
BRANCH  39  40
ATOM     40  C   UNL     1      -1.373   6.989  -4.700  1.00  0.00     0.031 A 
ATOM     41  C   UNL     1      -2.251   8.126  -5.144  1.00  0.00     0.074 A 
ATOM     42  C   UNL     1      -0.158   6.815  -5.249  1.00  0.00     0.049 A 
ATOM     43  N   UNL     1      -2.100   8.954  -6.143  1.00  0.00    -0.248 NA
ATOM     44  C   UNL     1      -3.476   8.343  -4.357  1.00  0.00     0.031 C 
ATOM     45  C   UNL     1       0.806   5.788  -4.863  1.00  0.00     0.029 A 
ATOM     46  N   UNL     1       0.453   7.484  -6.282  1.00  0.00    -0.354 N 
ATOM     47  C   UNL     1      -3.226   9.769  -6.127  1.00  0.00     0.074 A 
ATOM     48  C   UNL     1      -4.056   9.326  -5.027  1.00  0.00     0.031 C 
ATOM     49  C   UNL     1       1.876   5.871  -5.675  1.00  0.00     0.029 A 
ATOM     50  C   UNL     1       1.647   6.921  -6.668  1.00  0.00     0.049 A 
ATOM     51  H   UNL     1       0.073   8.287  -6.705  1.00  0.00     0.167 HD
ATOM     52  C   UNL     1      -3.542  10.788  -6.960  1.00  0.00     0.037 A 
ATOM     53  C   UNL     1       2.436   7.192  -7.728  1.00  0.00     0.037 A 
ATOM     54  C   UNL     1      -2.710  11.211  -8.056  1.00  0.00     0.049 A 
ATOM     55  C   UNL     1       2.035   8.283  -8.690  1.00  0.00     0.074 A 
ATOM     56  C   UNL     1      -2.929  12.240  -8.954  1.00  0.00     0.029 A 
ATOM     57  N   UNL     1      -1.506  10.619  -8.411  1.00  0.00    -0.354 N 
ATOM     58  N   UNL     1       0.971   9.051  -8.671  1.00  0.00    -0.248 NA
ATOM     59  C   UNL     1       2.939   8.545  -9.819  1.00  0.00     0.031 C 
ATOM     60  C   UNL     1      -1.889  12.232  -9.888  1.00  0.00     0.029 A 
ATOM     61  C   UNL     1      -0.982  11.246  -9.529  1.00  0.00     0.049 A 
ATOM     62  H   UNL     1      -1.086   9.865  -7.938  1.00  0.00     0.167 HD
ATOM     63  C   UNL     1       1.099   9.912  -9.757  1.00  0.00     0.074 A 
ATOM     64  C   UNL     1       2.340   9.566 -10.417  1.00  0.00     0.031 C 
ATOM     65  C   UNL     1       0.269  10.905 -10.164  1.00  0.00     0.037 A 
BRANCH  52  66
ATOM     66  C   UNL     1      -4.863  11.476  -6.748  1.00  0.00     0.058 A 
ATOM     67  C   UNL     1      -5.115  12.277  -5.622  1.00  0.00     0.135 A 
ATOM     68  C   UNL     1      -5.893  11.335  -7.693  1.00  0.00     0.135 A 
ATOM     69  F   UNL     1      -4.174  12.432  -4.678  1.00  0.00    -0.206 F 
ATOM     70  C   UNL     1      -6.353  12.880  -5.421  1.00  0.00     0.059 A 
ATOM     71  C   UNL     1      -7.127  11.957  -7.529  1.00  0.00     0.059 A 
ATOM     72  F   UNL     1      -5.709  10.579  -8.787  1.00  0.00    -0.206 F 
ATOM     73  C   UNL     1      -7.354  12.711  -6.380  1.00  0.00     0.060 A 
BRANCH  73  74
ATOM     74  S   UNL     1      -8.959  13.487  -6.097  1.00  0.00     0.124 S 
ATOM     75  O   UNL     1      -9.492  12.665  -5.014  1.00  0.00    -0.237 OA
ATOM     76  O   UNL     1      -8.586  14.850  -5.733  1.00  0.00    -0.237 OA
ATOM     77  O   UNL     1      -9.636  13.347  -7.382  1.00  0.00    -0.744 OA
ENDBRANCH  73  74
ENDBRANCH  52  66
BRANCH  53  78
ATOM     78  C   UNL     1       3.678   6.401  -7.945  1.00  0.00     0.058 A 
ATOM     79  C   UNL     1       4.944   6.982  -7.780  1.00  0.00     0.135 A 
ATOM     80  C   UNL     1       3.626   5.043  -8.299  1.00  0.00     0.135 A 
ATOM     81  F   UNL     1       5.048   8.281  -7.460  1.00  0.00    -0.206 F 
ATOM     82  C   UNL     1       6.113   6.249  -7.960  1.00  0.00     0.059 A 
ATOM     83  C   UNL     1       4.780   4.281  -8.456  1.00  0.00     0.059 A 
ATOM     84  F   UNL     1       2.440   4.436  -8.464  1.00  0.00    -0.206 F 
ATOM     85  C   UNL     1       6.020   4.895  -8.288  1.00  0.00     0.060 A 
BRANCH  85  86
ATOM     86  S   UNL     1       7.545   3.938  -8.442  1.00  0.00     0.124 S 
ATOM     87  O   UNL     1       8.109   4.479  -9.673  1.00  0.00    -0.237 OA
ATOM     88  O   UNL     1       8.247   4.285  -7.211  1.00  0.00    -0.237 OA
ATOM     89  O   UNL     1       7.071   2.560  -8.518  1.00  0.00    -0.744 OA
ENDBRANCH  85  86
ENDBRANCH  53  78
BRANCH  65  90
ATOM     90  C   UNL     1       0.694  11.751 -11.336  1.00  0.00     0.058 A 
ATOM     91  C   UNL     1       0.667  11.271 -12.654  1.00  0.00     0.135 A 
ATOM     92  C   UNL     1       1.041  13.098 -11.136  1.00  0.00     0.135 A 
ATOM     93  F   UNL     1       0.349   9.991 -12.902  1.00  0.00    -0.206 F 
ATOM     94  C   UNL     1       0.976  12.096 -13.733  1.00  0.00     0.059 A 
ATOM     95  C   UNL     1       1.324  13.948 -12.201  1.00  0.00     0.059 A 
ATOM     96  F   UNL     1       1.073  13.611  -9.896  1.00  0.00    -0.206 F 
ATOM     97  C   UNL     1       1.294  13.436 -13.496  1.00  0.00     0.060 A 
BRANCH  97  98
ATOM     98  S   UNL     1       1.629  14.510 -14.909  1.00  0.00     0.124 S 
ATOM     99  O   UNL     1       2.931  14.019 -15.351  1.00  0.00    -0.237 OA
ATOM    100  O   UNL     1       0.507  14.217 -15.795  1.00  0.00    -0.237 OA
ATOM    101  O   UNL     1       1.628  15.849 -14.328  1.00  0.00    -0.744 OA
ENDBRANCH  97  98
ENDBRANCH  65  90
ENDBRANCH  39  40
ENDBRANCH  32  34
ENDBRANCH  31  32
ENDBRANCH  30  31
ENDBRANCH  29  30
ENDBRANCH  28  29
ENDBRANCH  27  28
ENDBRANCH   1  27
TORSDOF 25
