REMARK SMILES CCCOc1cncc(N[C@@](C)(C(=O)OCCOCCOCCOC(=O)c2ccc(-c3c4nc(c(-c5c(F)cc(S(=O)(=O)[O-])cc5F)c5ccc([nH]5)c(-c5c(F)cc(S(=O)(=O)[O-])cc5F)c5nc(c(-c6c(F)cc(S(=O)(=O)[O-])cc6F)c6ccc3[nH]6)C=C5)C=C4)cc2)C(F)(F)F)n1
REMARK SMILES IDX 19 1 18 2 17 3 16 4 15 5 13 6 14 7 11 8 12 9 10 10 9 12 5 13
REMARK SMILES IDX 6 14 97 15 7 16 8 17 4 18 3 19 2 20 1 21 93 22 94 23 95 24
REMARK SMILES IDX 96 25 20 26 21 27 22 28 23 29 24 30 25 31 26 32 27 33 28 34
REMARK SMILES IDX 92 35 29 36 91 37 30 38 31 39 32 40 85 41 33 42 90 43 84 44
REMARK SMILES IDX 86 45 34 46 89 47 83 48 82 49 35 51 69 52 48 53 68 54 49 55
REMARK SMILES IDX 52 56 67 57 87 58 50 59 51 60 66 62 88 63 53 64 36 65 37 66
REMARK SMILES IDX 46 67 38 68 39 69 45 70 47 71 40 72 41 73 42 74 43 75 44 76
REMARK SMILES IDX 70 77 71 78 80 79 72 80 73 81 79 82 81 83 74 84 75 85 76 86
REMARK SMILES IDX 77 87 78 88 54 89 55 90 64 91 56 92 57 93 63 94 65 95 58 96
REMARK SMILES IDX 59 97 60 98 61 99 62 100
REMARK H PARENT 10 11 86 50 52 61
REMARK Flexibility Score: inf
ROOT
ATOM      1  C   UNL     1       4.972  -0.725  -6.018  1.00  0.00     0.188 C 
ENDROOT
BRANCH   1   2
ATOM      2  O   UNL     1       5.805  -0.929  -7.159  1.00  0.00    -0.376 OA
BRANCH   2   3
ATOM      3  C   UNL     1       5.675  -0.063  -8.275  1.00  0.00     0.202 C 
BRANCH   3   4
ATOM      4  C   UNL     1       4.290   0.052  -8.924  1.00  0.00     0.261 C 
BRANCH   4   5
ATOM      5  O   UNL     1       3.188   0.081  -7.989  1.00  0.00    -0.461 OA
BRANCH   5   6
ATOM      6  C   UNL     1       2.148  -0.745  -8.271  1.00  0.00     0.341 C 
ATOM      7  O   UNL     1       2.064  -1.329  -9.348  1.00  0.00    -0.249 OA
BRANCH   6   8
ATOM      8  C   UNL     1       1.044  -0.824  -7.187  1.00  0.00     0.230 C 
ATOM      9  C   UNL     1      -0.224  -0.347  -7.913  1.00  0.00     0.058 C 
BRANCH   8  10
ATOM     10  N   UNL     1       1.254   0.095  -5.991  1.00  0.00    -0.346 N 
ATOM     11  H   UNL     1       1.849   0.860  -6.168  1.00  0.00     0.163 HD
BRANCH  10  12
ATOM     12  C   UNL     1       0.759   0.047  -4.700  1.00  0.00     0.149 A 
ATOM     13  C   UNL     1       0.288   1.193  -2.722  1.00  0.00     0.234 A 
ATOM     14  C   UNL     1      -0.393   0.100  -2.224  1.00  0.00     0.179 A 
ATOM     15  N   UNL     1       0.833   1.203  -3.980  1.00  0.00    -0.193 NA
ATOM     16  N   UNL     1      -0.397  -1.076  -2.859  1.00  0.00    -0.255 NA
ATOM     17  C   UNL     1       0.218  -1.075  -4.069  1.00  0.00     0.158 A 
BRANCH  13  18
ATOM     18  O   UNL     1       0.308   2.357  -1.984  1.00  0.00    -0.477 OA
BRANCH  18  19
ATOM     19  C   UNL     1       1.237   2.323  -0.879  1.00  0.00     0.231 C 
BRANCH  19  20
ATOM     20  C   UNL     1       0.773   1.538   0.364  1.00  0.00     0.038 C 
ATOM     21  C   UNL     1       1.494   0.201   0.526  1.00  0.00     0.007 C 
ENDBRANCH  19  20
ENDBRANCH  18  19
ENDBRANCH  13  18
ENDBRANCH  10  12
ENDBRANCH   8  10
BRANCH   8  22
ATOM     22  C   UNL     1       0.969  -2.336  -6.893  1.00  0.00     0.422 C 
ATOM     23  F   UNL     1       1.926  -2.708  -6.008  1.00  0.00    -0.168 F 
ATOM     24  F   UNL     1      -0.236  -2.653  -6.352  1.00  0.00    -0.168 F 
ATOM     25  F   UNL     1       1.089  -3.135  -7.971  1.00  0.00    -0.168 F 
ENDBRANCH   8  22
ENDBRANCH   6   8
ENDBRANCH   5   6
ENDBRANCH   4   5
ENDBRANCH   3   4
ENDBRANCH   2   3
ENDBRANCH   1   2
BRANCH   1  26
ATOM     26  C   UNL     1       4.536   0.704  -5.630  1.00  0.00     0.188 C 
BRANCH  26  27
ATOM     27  O   UNL     1       5.285   1.728  -6.257  1.00  0.00    -0.376 OA
BRANCH  27  28
ATOM     28  C   UNL     1       5.980   2.600  -5.387  1.00  0.00     0.202 C 
BRANCH  28  29
ATOM     29  C   UNL     1       7.154   1.954  -4.638  1.00  0.00     0.261 C 
BRANCH  29  30
ATOM     30  O   UNL     1       6.846   0.746  -3.916  1.00  0.00    -0.460 OA
BRANCH  30  31
ATOM     31  C   UNL     1       6.096   0.875  -2.795  1.00  0.00     0.338 C 
ATOM     32  O   UNL     1       5.683   1.913  -2.315  1.00  0.00    -0.246 OA
BRANCH  31  33
ATOM     33  C   UNL     1       5.673  -0.480  -2.360  1.00  0.00     0.060 A 
ATOM     34  C   UNL     1       4.303  -0.764  -2.265  1.00  0.00     0.016 A 
ATOM     35  C   UNL     1       6.616  -1.458  -2.036  1.00  0.00     0.016 A 
ATOM     36  C   UNL     1       3.874  -2.008  -1.793  1.00  0.00     0.010 A 
ATOM     37  C   UNL     1       6.185  -2.696  -1.544  1.00  0.00     0.010 A 
ATOM     38  C   UNL     1       4.813  -2.961  -1.377  1.00  0.00    -0.014 A 
BRANCH  38  39
ATOM     39  C   UNL     1       4.366  -4.123  -0.564  1.00  0.00     0.031 A 
ATOM     40  C   UNL     1       4.472  -4.029   0.937  1.00  0.00     0.074 A 
ATOM     41  C   UNL     1       3.851  -5.232  -1.125  1.00  0.00     0.049 A 
ATOM     42  N   UNL     1       4.144  -4.901   1.855  1.00  0.00    -0.248 NA
ATOM     43  C   UNL     1       5.033  -2.777   1.469  1.00  0.00     0.031 C 
ATOM     44  C   UNL     1       3.673  -5.451  -2.557  1.00  0.00     0.029 A 
ATOM     45  N   UNL     1       3.391  -6.390  -0.545  1.00  0.00    -0.354 N 
ATOM     46  C   UNL     1       4.461  -4.307   3.072  1.00  0.00     0.074 A 
ATOM     47  C   UNL     1       5.047  -3.018   2.770  1.00  0.00     0.031 C 
ATOM     48  C   UNL     1       3.155  -6.677  -2.748  1.00  0.00     0.029 A 
ATOM     49  C   UNL     1       2.983  -7.337  -1.452  1.00  0.00     0.049 A 
ATOM     50  H   UNL     1       3.357  -6.527   0.429  1.00  0.00     0.167 HD
ATOM     51  C   UNL     1       4.274  -4.782   4.327  1.00  0.00     0.037 A 
ATOM     52  C   UNL     1       2.535  -8.595  -1.262  1.00  0.00     0.037 A 
ATOM     53  C   UNL     1       3.708  -6.072   4.629  1.00  0.00     0.049 A 
ATOM     54  C   UNL     1       2.366  -9.125   0.139  1.00  0.00     0.074 A 
ATOM     55  C   UNL     1       3.464  -6.637   5.868  1.00  0.00     0.029 A 
ATOM     56  N   UNL     1       3.314  -7.006   3.681  1.00  0.00    -0.354 N 
ATOM     57  N   UNL     1       2.636  -8.541   1.283  1.00  0.00    -0.248 NA
ATOM     58  C   UNL     1       1.815 -10.481   0.275  1.00  0.00     0.031 C 
ATOM     59  C   UNL     1       2.972  -7.933   5.670  1.00  0.00     0.029 A 
ATOM     60  C   UNL     1       2.849  -8.152   4.307  1.00  0.00     0.049 A 
ATOM     61  H   UNL     1       3.358  -6.873   2.707  1.00  0.00     0.167 HD
ATOM     62  C   UNL     1       2.261  -9.445   2.274  1.00  0.00     0.074 A 
ATOM     63  C   UNL     1       1.737 -10.611   1.592  1.00  0.00     0.031 C 
ATOM     64  C   UNL     1       2.337  -9.317   3.624  1.00  0.00     0.037 A 
BRANCH  51  65
ATOM     65  C   UNL     1       4.732  -3.904   5.462  1.00  0.00     0.058 A 
ATOM     66  C   UNL     1       4.094  -2.689   5.766  1.00  0.00     0.135 A 
ATOM     67  C   UNL     1       5.846  -4.266   6.235  1.00  0.00     0.135 A 
ATOM     68  F   UNL     1       3.033  -2.283   5.049  1.00  0.00    -0.206 F 
ATOM     69  C   UNL     1       4.580  -1.839   6.755  1.00  0.00     0.059 A 
ATOM     70  C   UNL     1       6.330  -3.447   7.251  1.00  0.00     0.059 A 
ATOM     71  F   UNL     1       6.494  -5.417   5.992  1.00  0.00    -0.206 F 
ATOM     72  C   UNL     1       5.706  -2.223   7.485  1.00  0.00     0.060 A 
BRANCH  72  73
ATOM     73  S   UNL     1       6.359  -1.087   8.726  1.00  0.00     0.124 S 
ATOM     74  O   UNL     1       6.980  -0.067   7.887  1.00  0.00    -0.237 OA
ATOM     75  O   UNL     1       5.154  -0.673   9.437  1.00  0.00    -0.237 OA
ATOM     76  O   UNL     1       7.283  -1.916   9.493  1.00  0.00    -0.744 OA
ENDBRANCH  72  73
ENDBRANCH  51  65
BRANCH  52  77
ATOM     77  C   UNL     1       2.206  -9.438  -2.444  1.00  0.00     0.058 A 
ATOM     78  C   UNL     1       0.879  -9.747  -2.776  1.00  0.00     0.135 A 
ATOM     79  C   UNL     1       3.220  -9.918  -3.289  1.00  0.00     0.135 A 
ATOM     80  F   UNL     1      -0.124  -9.328  -1.990  1.00  0.00    -0.206 F 
ATOM     81  C   UNL     1       0.566 -10.494  -3.908  1.00  0.00     0.059 A 
ATOM     82  C   UNL     1       2.931 -10.647  -4.439  1.00  0.00     0.059 A 
ATOM     83  F   UNL     1       4.506  -9.649  -3.015  1.00  0.00    -0.206 F 
ATOM     84  C   UNL     1       1.600 -10.929  -4.740  1.00  0.00     0.060 A 
BRANCH  84  85
ATOM     85  S   UNL     1       1.176 -11.812  -6.258  1.00  0.00     0.124 S 
ATOM     86  O   UNL     1       0.736 -13.101  -5.737  1.00  0.00    -0.237 OA
ATOM     87  O   UNL     1       0.133 -10.963  -6.824  1.00  0.00    -0.237 OA
ATOM     88  O   UNL     1       2.433 -11.827  -7.001  1.00  0.00    -0.744 OA
ENDBRANCH  84  85
ENDBRANCH  52  77
BRANCH  64  89
ATOM     89  C   UNL     1       1.804 -10.452   4.461  1.00  0.00     0.058 A 
ATOM     90  C   UNL     1       2.450 -11.697   4.531  1.00  0.00     0.135 A 
ATOM     91  C   UNL     1       0.635 -10.282   5.223  1.00  0.00     0.135 A 
ATOM     92  F   UNL     1       3.571 -11.917   3.826  1.00  0.00    -0.206 F 
ATOM     93  C   UNL     1       1.931 -12.746   5.286  1.00  0.00     0.059 A 
ATOM     94  C   UNL     1       0.117 -11.307   6.011  1.00  0.00     0.059 A 
ATOM     95  F   UNL     1      -0.015  -9.108   5.212  1.00  0.00    -0.206 F 
ATOM     96  C   UNL     1       0.760 -12.543   6.018  1.00  0.00     0.060 A 
BRANCH  96  97
ATOM     97  S   UNL     1       0.088 -13.913   6.984  1.00  0.00     0.124 S 
ATOM     98  O   UNL     1      -0.479 -14.759   5.939  1.00  0.00    -0.237 OA
ATOM     99  O   UNL     1       1.276 -14.439   7.651  1.00  0.00    -0.237 OA
ATOM    100  O   UNL     1      -0.881 -13.266   7.864  1.00  0.00    -0.744 OA
ENDBRANCH  96  97
ENDBRANCH  64  89
ENDBRANCH  38  39
ENDBRANCH  31  33
ENDBRANCH  30  31
ENDBRANCH  29  30
ENDBRANCH  28  29
ENDBRANCH  27  28
ENDBRANCH  26  27
ENDBRANCH   1  26
TORSDOF 26
