REMARK SMILES O=C(OCCOCCOCCOC(=O)c1cccn2c(=O)c3ccc(Cl)cc3nc12)c1ccc(-c2c3nc(c(-c4c(F)cc(S(=O)(=O)[O-])cc4F)c4ccc([nH]4)c(-c4c(F)cc(S(=O)(=O)[O-])cc4F)c4nc(c(-c5c(F)cc(S(=O)(=O)[O-])cc5F)c5ccc2[nH]5)C=C4)C=C3)cc1
REMARK SMILES IDX 6 1 5 2 4 3 3 4 2 5 1 6 31 7 32 8 96 9 33 10 95 11 34 12
REMARK SMILES IDX 35 13 36 14 89 15 37 16 94 17 88 18 90 19 38 20 93 21 87 22
REMARK SMILES IDX 86 23 39 25 73 26 52 27 72 28 53 29 56 30 71 31 91 32 54 33
REMARK SMILES IDX 55 34 70 36 92 37 57 38 40 39 41 40 50 41 42 42 43 43 49 44
REMARK SMILES IDX 51 45 44 46 45 47 46 48 47 49 48 50 74 51 75 52 84 53 76 54
REMARK SMILES IDX 77 55 83 56 85 57 78 58 79 59 80 60 81 61 82 62 58 63 59 64
REMARK SMILES IDX 68 65 60 66 61 67 67 68 69 69 62 70 63 71 64 72 65 73 66 74
REMARK SMILES IDX 7 75 8 76 9 77 10 78 11 79 12 80 13 81 14 82 15 83 16 84
REMARK SMILES IDX 30 85 17 86 19 87 29 88 18 89 20 90 28 91 21 92 22 93 27 94
REMARK SMILES IDX 23 95 25 96 24 97 26 98
REMARK H PARENT 90 24 56 35
REMARK Flexibility Score: inf
ROOT
ATOM      1  O   UNL     1       3.859  -0.066   1.493  1.00  0.00    -0.376 OA
ENDROOT
BRANCH   1   2
ATOM      2  C   UNL     1       4.838   0.933   1.205  1.00  0.00     0.202 C 
BRANCH   2   3
ATOM      3  C   UNL     1       4.787   1.482  -0.223  1.00  0.00     0.261 C 
BRANCH   3   4
ATOM      4  O   UNL     1       3.474   1.460  -0.795  1.00  0.00    -0.460 OA
BRANCH   4   5
ATOM      5  C   UNL     1       2.862   0.471  -1.493  1.00  0.00     0.338 C 
ATOM      6  O   UNL     1       1.776   0.743  -2.007  1.00  0.00    -0.246 OA
BRANCH   5   7
ATOM      7  C   UNL     1       3.380  -0.934  -1.666  1.00  0.00     0.060 A 
ATOM      8  C   UNL     1       2.579  -1.803  -2.434  1.00  0.00     0.016 A 
ATOM      9  C   UNL     1       4.565  -1.460  -1.148  1.00  0.00     0.016 A 
ATOM     10  C   UNL     1       2.954  -3.131  -2.681  1.00  0.00     0.010 A 
ATOM     11  C   UNL     1       4.965  -2.772  -1.416  1.00  0.00     0.010 A 
ATOM     12  C   UNL     1       4.170  -3.613  -2.192  1.00  0.00    -0.014 A 
BRANCH  12  13
ATOM     13  C   UNL     1       4.733  -4.900  -2.648  1.00  0.00     0.031 A 
ATOM     14  C   UNL     1       4.838  -6.092  -1.749  1.00  0.00     0.074 A 
ATOM     15  C   UNL     1       5.293  -4.926  -3.872  1.00  0.00     0.049 A 
ATOM     16  N   UNL     1       5.212  -7.309  -2.049  1.00  0.00    -0.248 NA
ATOM     17  C   UNL     1       4.499  -5.901  -0.332  1.00  0.00     0.031 C 
ATOM     18  C   UNL     1       5.363  -3.786  -4.792  1.00  0.00     0.029 A 
ATOM     19  N   UNL     1       5.956  -5.926  -4.528  1.00  0.00    -0.354 N 
ATOM     20  C   UNL     1       5.034  -8.054  -0.893  1.00  0.00     0.074 A 
ATOM     21  C   UNL     1       4.659  -7.130   0.150  1.00  0.00     0.031 C 
ATOM     22  C   UNL     1       6.068  -4.142  -5.875  1.00  0.00     0.029 A 
ATOM     23  C   UNL     1       6.489  -5.531  -5.728  1.00  0.00     0.049 A 
ATOM     24  H   UNL     1       6.041  -6.841  -4.173  1.00  0.00     0.167 HD
ATOM     25  C   UNL     1       5.132  -9.394  -0.739  1.00  0.00     0.037 A 
ATOM     26  C   UNL     1       7.240  -6.214  -6.609  1.00  0.00     0.037 A 
ATOM     27  C   UNL     1       5.671 -10.272  -1.741  1.00  0.00     0.049 A 
ATOM     28  C   UNL     1       7.514  -7.667  -6.351  1.00  0.00     0.074 A 
ATOM     29  C   UNL     1       5.826 -11.646  -1.696  1.00  0.00     0.029 A 
ATOM     30  N   UNL     1       6.206  -9.845  -2.946  1.00  0.00    -0.354 N 
ATOM     31  N   UNL     1       7.137  -8.407  -5.336  1.00  0.00    -0.248 NA
ATOM     32  C   UNL     1       8.290  -8.385  -7.369  1.00  0.00     0.031 C 
ATOM     33  C   UNL     1       6.519 -12.040  -2.846  1.00  0.00     0.029 A 
ATOM     34  C   UNL     1       6.749 -10.918  -3.627  1.00  0.00     0.049 A 
ATOM     35  H   UNL     1       6.200  -8.915  -3.268  1.00  0.00     0.167 HD
ATOM     36  C   UNL     1       7.586  -9.691  -5.617  1.00  0.00     0.074 A 
ATOM     37  C   UNL     1       8.274  -9.622  -6.890  1.00  0.00     0.031 C 
ATOM     38  C   UNL     1       7.427 -10.827  -4.894  1.00  0.00     0.037 A 
BRANCH  25  39
ATOM     39  C   UNL     1       4.593 -10.010   0.518  1.00  0.00     0.058 A 
ATOM     40  C   UNL     1       3.212 -10.233   0.648  1.00  0.00     0.135 A 
ATOM     41  C   UNL     1       5.434 -10.501   1.526  1.00  0.00     0.135 A 
ATOM     42  F   UNL     1       2.362  -9.770  -0.282  1.00  0.00    -0.206 F 
ATOM     43  C   UNL     1       2.683 -10.924   1.732  1.00  0.00     0.059 A 
ATOM     44  C   UNL     1       4.927 -11.203   2.619  1.00  0.00     0.059 A 
ATOM     45  F   UNL     1       6.760 -10.314   1.449  1.00  0.00    -0.206 F 
ATOM     46  C   UNL     1       3.550 -11.410   2.711  1.00  0.00     0.060 A 
BRANCH  46  47
ATOM     47  S   UNL     1       2.841 -12.323   4.098  1.00  0.00     0.124 S 
ATOM     48  O   UNL     1       2.121 -11.262   4.798  1.00  0.00    -0.237 OA
ATOM     49  O   UNL     1       2.010 -13.315   3.424  1.00  0.00    -0.237 OA
ATOM     50  O   UNL     1       4.011 -12.850   4.792  1.00  0.00    -0.744 OA
ENDBRANCH  46  47
ENDBRANCH  25  39
BRANCH  26  51
ATOM     51  C   UNL     1       7.732  -5.532  -7.830  1.00  0.00     0.058 A 
ATOM     52  C   UNL     1       7.164  -5.804  -9.081  1.00  0.00     0.135 A 
ATOM     53  C   UNL     1       8.744  -4.562  -7.761  1.00  0.00     0.135 A 
ATOM     54  F   UNL     1       6.189  -6.718  -9.190  1.00  0.00    -0.206 F 
ATOM     55  C   UNL     1       7.594  -5.150 -10.229  1.00  0.00     0.059 A 
ATOM     56  C   UNL     1       9.177  -3.880  -8.893  1.00  0.00     0.059 A 
ATOM     57  F   UNL     1       9.298  -4.249  -6.579  1.00  0.00    -0.206 F 
ATOM     58  C   UNL     1       8.602  -4.189 -10.125  1.00  0.00     0.060 A 
BRANCH  58  59
ATOM     59  S   UNL     1       9.124  -3.320 -11.618  1.00  0.00     0.124 S 
ATOM     60  O   UNL     1       9.890  -4.353 -12.304  1.00  0.00    -0.237 OA
ATOM     61  O   UNL     1       7.847  -2.960 -12.226  1.00  0.00    -0.237 OA
ATOM     62  O   UNL     1       9.900  -2.198 -11.098  1.00  0.00    -0.744 OA
ENDBRANCH  58  59
ENDBRANCH  26  51
BRANCH  38  63
ATOM     63  C   UNL     1       7.980 -12.093  -5.476  1.00  0.00     0.058 A 
ATOM     64  C   UNL     1       9.358 -12.354  -5.484  1.00  0.00     0.135 A 
ATOM     65  C   UNL     1       7.115 -13.076  -5.981  1.00  0.00     0.135 A 
ATOM     66  F   UNL     1      10.223 -11.441  -5.016  1.00  0.00    -0.206 F 
ATOM     67  C   UNL     1       9.863 -13.543  -5.997  1.00  0.00     0.059 A 
ATOM     68  C   UNL     1       7.597 -14.282  -6.475  1.00  0.00     0.059 A 
ATOM     69  F   UNL     1       5.788 -12.875  -5.981  1.00  0.00    -0.206 F 
ATOM     70  C   UNL     1       8.974 -14.501  -6.490  1.00  0.00     0.060 A 
BRANCH  70  71
ATOM     71  S   UNL     1       9.640 -16.053  -7.124  1.00  0.00     0.124 S 
ATOM     72  O   UNL     1      10.171 -15.636  -8.418  1.00  0.00    -0.237 OA
ATOM     73  O   UNL     1      10.635 -16.402  -6.114  1.00  0.00    -0.237 OA
ATOM     74  O   UNL     1       8.473 -16.928  -7.174  1.00  0.00    -0.744 OA
ENDBRANCH  70  71
ENDBRANCH  38  63
ENDBRANCH  12  13
ENDBRANCH   5   7
ENDBRANCH   4   5
ENDBRANCH   3   4
ENDBRANCH   2   3
ENDBRANCH   1   2
BRANCH   1  75
ATOM     75  C   UNL     1       2.595   0.479   1.897  1.00  0.00     0.188 C 
BRANCH  75  76
ATOM     76  C   UNL     1       1.955  -0.345   3.015  1.00  0.00     0.188 C 
BRANCH  76  77
ATOM     77  O   UNL     1       2.615  -0.297   4.282  1.00  0.00    -0.376 OA
BRANCH  77  78
ATOM     78  C   UNL     1       3.957  -0.767   4.329  1.00  0.00     0.202 C 
BRANCH  78  79
ATOM     79  C   UNL     1       4.204  -2.277   4.207  1.00  0.00     0.261 C 
BRANCH  79  80
ATOM     80  O   UNL     1       3.515  -2.962   3.150  1.00  0.00    -0.460 OA
BRANCH  80  81
ATOM     81  C   UNL     1       2.397  -3.628   3.556  1.00  0.00     0.342 C 
ATOM     82  O   UNL     1       1.881  -3.554   4.661  1.00  0.00    -0.246 OA
BRANCH  81  83
ATOM     83  C   UNL     1       1.994  -4.628   2.556  1.00  0.00     0.103 A 
ATOM     84  C   UNL     1       2.266  -5.897   2.901  1.00  0.00     0.021 A 
ATOM     85  C   UNL     1       1.233  -4.339   1.299  1.00  0.00     0.154 A 
ATOM     86  C   UNL     1       1.875  -6.986   2.055  1.00  0.00     0.019 A 
ATOM     87  N   UNL     1       0.948  -5.448   0.485  1.00  0.00    -0.267 N 
ATOM     88  N   UNL     1       0.847  -3.132   1.008  1.00  0.00    -0.229 NA
ATOM     89  C   UNL     1       1.275  -6.739   0.887  1.00  0.00     0.096 A 
ATOM     90  C   UNL     1       0.301  -5.299  -0.743  1.00  0.00     0.265 A 
ATOM     91  C   UNL     1       0.074  -2.930  -0.147  1.00  0.00     0.080 A 
ATOM     92  O   UNL     1       0.102  -6.196  -1.559  1.00  0.00    -0.268 OA
ATOM     93  C   UNL     1      -0.203  -3.955  -1.050  1.00  0.00     0.066 A 
ATOM     94  C   UNL     1      -0.463  -1.664  -0.398  1.00  0.00     0.049 A 
ATOM     95  C   UNL     1      -0.982  -3.735  -2.195  1.00  0.00     0.017 A 
ATOM     96  C   UNL     1      -1.260  -1.442  -1.527  1.00  0.00     0.043 A 
ATOM     97  C   UNL     1      -1.516  -2.471  -2.431  1.00  0.00     0.021 A 
ATOM     98  Cl  UNL     1      -1.953   0.110  -1.795  1.00  0.00    -0.084 Cl
ENDBRANCH  81  83
ENDBRANCH  80  81
ENDBRANCH  79  80
ENDBRANCH  78  79
ENDBRANCH  77  78
ENDBRANCH  76  77
ENDBRANCH  75  76
ENDBRANCH   1  75
TORSDOF 20
