REMARK SMILES CC[C@@H](C(=O)OCCOCCOCCOC(=O)c1ccc(-c2c3nc(c(-c4c(F)cc(S(=O)(=O)[O-])cc4F)c4ccc([nH]4)c(-c4c(F)cc(S(=O)(=O)[O-])cc4F)c4nc(c(-c5c(F)cc(S(=O)(=O)[O-])cc5F)c5ccc2[nH]5)C=C4)C=C3)cc1)N(C)C(=O)N(C)CC(C)(C)O
REMARK SMILES IDX 9 1 8 2 7 3 6 4 4 5 5 6 3 7 2 8 1 9 84 10 85 11 86 12 87 13
REMARK SMILES IDX 88 14 89 15 90 16 91 17 92 18 93 19 94 20 10 22 11 23 12 24
REMARK SMILES IDX 13 25 14 26 15 27 16 28 17 29 18 30 19 31 83 32 20 33 82 34
REMARK SMILES IDX 21 35 22 36 23 37 76 38 24 39 81 40 75 41 77 42 25 43 80 44
REMARK SMILES IDX 74 45 73 46 26 48 60 49 39 50 59 51 40 52 43 53 58 54 78 55
REMARK SMILES IDX 41 56 42 57 57 59 79 60 44 61 27 62 28 63 37 64 29 65 30 66
REMARK SMILES IDX 36 67 38 68 31 69 32 70 33 71 34 72 35 73 61 74 62 75 71 76
REMARK SMILES IDX 63 77 64 78 70 79 72 80 65 81 66 82 67 83 68 84 69 85 45 86
REMARK SMILES IDX 46 87 55 88 47 89 48 90 54 91 56 92 49 93 50 94 51 95 52 96
REMARK SMILES IDX 53 97
REMARK H PARENT 94 21 77 47 43 58
REMARK Flexibility Score: inf
ROOT
ATOM      1  O   UNL     1      -1.136  -1.449   3.580  1.00  0.00    -0.376 OA
ENDROOT
BRANCH   1   2
ATOM      2  C   UNL     1      -0.061  -1.095   4.448  1.00  0.00     0.202 C 
BRANCH   2   3
ATOM      3  C   UNL     1       1.387  -1.536   4.110  1.00  0.00     0.261 C 
BRANCH   3   4
ATOM      4  O   UNL     1       1.726  -1.503   2.705  1.00  0.00    -0.462 OA
BRANCH   4   5
ATOM      5  C   UNL     1       1.887  -2.714   2.098  1.00  0.00     0.328 C 
ATOM      6  O   UNL     1       2.023  -3.757   2.733  1.00  0.00    -0.250 OA
BRANCH   5   7
ATOM      7  C   UNL     1       1.967  -2.650   0.538  1.00  0.00     0.196 C 
BRANCH   7   8
ATOM      8  C   UNL     1       1.465  -1.406  -0.240  1.00  0.00     0.034 C 
ATOM      9  C   UNL     1       2.036  -0.047   0.127  1.00  0.00     0.007 C 
ENDBRANCH   7   8
BRANCH   7  10
ATOM     10  N   UNL     1       1.393  -3.950   0.018  1.00  0.00    -0.314 N 
ATOM     11  C   UNL     1       2.324  -5.062  -0.024  1.00  0.00     0.149 C 
BRANCH  10  12
ATOM     12  C   UNL     1       0.019  -4.067  -0.115  1.00  0.00     0.320 C 
ATOM     13  O   UNL     1      -0.658  -3.079  -0.402  1.00  0.00    -0.248 OA
BRANCH  12  14
ATOM     14  N   UNL     1      -0.646  -5.235   0.196  1.00  0.00    -0.325 N 
ATOM     15  C   UNL     1      -0.333  -6.547  -0.363  1.00  0.00     0.148 C 
BRANCH  14  16
ATOM     16  C   UNL     1      -2.057  -5.067   0.646  1.00  0.00     0.155 C 
BRANCH  16  17
ATOM     17  C   UNL     1      -2.431  -5.503   2.113  1.00  0.00     0.077 C 
ATOM     18  C   UNL     1      -2.451  -4.232   2.954  1.00  0.00     0.043 C 
ATOM     19  C   UNL     1      -3.800  -6.170   2.340  1.00  0.00     0.043 C 
BRANCH  17  20
ATOM     20  O   UNL     1      -1.448  -6.393   2.643  1.00  0.00    -0.389 OA
ATOM     21  H   UNL     1      -0.566  -6.010   2.520  1.00  0.00     0.211 HD
ENDBRANCH  17  20
ENDBRANCH  16  17
ENDBRANCH  14  16
ENDBRANCH  12  14
ENDBRANCH  10  12
ENDBRANCH   7  10
ENDBRANCH   5   7
ENDBRANCH   4   5
ENDBRANCH   3   4
ENDBRANCH   2   3
ENDBRANCH   1   2
BRANCH   1  22
ATOM     22  C   UNL     1      -0.854  -1.208   2.204  1.00  0.00     0.188 C 
BRANCH  22  23
ATOM     23  C   UNL     1      -2.071  -0.952   1.354  1.00  0.00     0.188 C 
BRANCH  23  24
ATOM     24  O   UNL     1      -2.322   0.450   1.263  1.00  0.00    -0.376 OA
BRANCH  24  25
ATOM     25  C   UNL     1      -3.111   0.921   2.339  1.00  0.00     0.202 C 
BRANCH  25  26
ATOM     26  C   UNL     1      -4.615   0.708   2.107  1.00  0.00     0.261 C 
BRANCH  26  27
ATOM     27  O   UNL     1      -4.976  -0.605   1.611  1.00  0.00    -0.460 OA
BRANCH  27  28
ATOM     28  C   UNL     1      -4.927  -0.788   0.250  1.00  0.00     0.338 C 
ATOM     29  O   UNL     1      -4.721   0.066  -0.579  1.00  0.00    -0.246 OA
BRANCH  28  30
ATOM     30  C   UNL     1      -5.061  -2.254  -0.071  1.00  0.00     0.060 A 
ATOM     31  C   UNL     1      -4.345  -2.826  -1.138  1.00  0.00     0.016 A 
ATOM     32  C   UNL     1      -5.910  -3.077   0.665  1.00  0.00     0.016 A 
ATOM     33  C   UNL     1      -4.461  -4.210  -1.453  1.00  0.00     0.010 A 
ATOM     34  C   UNL     1      -6.030  -4.444   0.345  1.00  0.00     0.010 A 
ATOM     35  C   UNL     1      -5.289  -5.058  -0.699  1.00  0.00    -0.014 A 
BRANCH  35  36
ATOM     36  C   UNL     1      -5.673  -6.479  -1.090  1.00  0.00     0.031 A 
ATOM     37  C   UNL     1      -6.961  -6.573  -1.866  1.00  0.00     0.074 A 
ATOM     38  C   UNL     1      -5.089  -7.660  -0.738  1.00  0.00     0.049 A 
ATOM     39  N   UNL     1      -7.645  -7.632  -2.205  1.00  0.00    -0.248 NA
ATOM     40  C   UNL     1      -7.538  -5.299  -2.333  1.00  0.00     0.031 C 
ATOM     41  C   UNL     1      -3.781  -7.875  -0.152  1.00  0.00     0.029 A 
ATOM     42  N   UNL     1      -5.577  -8.963  -0.768  1.00  0.00    -0.354 N 
ATOM     43  C   UNL     1      -8.690  -7.157  -2.978  1.00  0.00     0.074 A 
ATOM     44  C   UNL     1      -8.626  -5.714  -2.957  1.00  0.00     0.031 C 
ATOM     45  C   UNL     1      -3.630  -9.125   0.301  1.00  0.00     0.029 A 
ATOM     46  C   UNL     1      -4.806  -9.876  -0.058  1.00  0.00     0.049 A 
ATOM     47  H   UNL     1      -6.397  -9.216  -1.250  1.00  0.00     0.167 HD
ATOM     48  C   UNL     1      -9.589  -7.859  -3.701  1.00  0.00     0.037 A 
ATOM     49  C   UNL     1      -4.957 -11.178   0.262  1.00  0.00     0.037 A 
ATOM     50  C   UNL     1      -9.695  -9.289  -3.700  1.00  0.00     0.049 A 
ATOM     51  C   UNL     1      -6.078 -11.926  -0.384  1.00  0.00     0.074 A 
ATOM     52  C   UNL     1     -10.588 -10.078  -4.401  1.00  0.00     0.029 A 
ATOM     53  N   UNL     1      -8.903 -10.144  -2.950  1.00  0.00    -0.354 N 
ATOM     54  N   UNL     1      -7.007 -11.457  -1.177  1.00  0.00    -0.248 NA
ATOM     55  C   UNL     1      -6.126 -13.379  -0.178  1.00  0.00     0.031 C 
ATOM     56  C   UNL     1     -10.374 -11.409  -4.032  1.00  0.00     0.029 A 
ATOM     57  C   UNL     1      -9.309 -11.453  -3.148  1.00  0.00     0.049 A 
ATOM     58  H   UNL     1      -8.163  -9.863  -2.365  1.00  0.00     0.167 HD
ATOM     59  C   UNL     1      -7.694 -12.567  -1.639  1.00  0.00     0.074 A 
ATOM     60  C   UNL     1      -7.095 -13.727  -1.013  1.00  0.00     0.031 C 
ATOM     61  C   UNL     1      -8.706 -12.608  -2.534  1.00  0.00     0.037 A 
BRANCH  48  62
ATOM     62  C   UNL     1     -10.510  -7.054  -4.562  1.00  0.00     0.058 A 
ATOM     63  C   UNL     1     -10.032  -6.382  -5.700  1.00  0.00     0.135 A 
ATOM     64  C   UNL     1     -11.866  -6.925  -4.236  1.00  0.00     0.135 A 
ATOM     65  F   UNL     1      -8.731  -6.446  -6.029  1.00  0.00    -0.206 F 
ATOM     66  C   UNL     1     -10.865  -5.584  -6.471  1.00  0.00     0.059 A 
ATOM     67  C   UNL     1     -12.725  -6.156  -5.011  1.00  0.00     0.059 A 
ATOM     68  F   UNL     1     -12.361  -7.533  -3.146  1.00  0.00    -0.206 F 
ATOM     69  C   UNL     1     -12.211  -5.480  -6.118  1.00  0.00     0.060 A 
BRANCH  69  70
ATOM     70  S   UNL     1     -13.282  -4.446  -7.136  1.00  0.00     0.124 S 
ATOM     71  O   UNL     1     -12.815  -3.109  -6.784  1.00  0.00    -0.237 OA
ATOM     72  O   UNL     1     -12.957  -4.898  -8.485  1.00  0.00    -0.237 OA
ATOM     73  O   UNL     1     -14.623  -4.785  -6.669  1.00  0.00    -0.744 OA
ENDBRANCH  69  70
ENDBRANCH  48  62
BRANCH  49  74
ATOM     74  C   UNL     1      -3.974 -11.892   1.139  1.00  0.00     0.058 A 
ATOM     75  C   UNL     1      -3.065 -12.824   0.614  1.00  0.00     0.135 A 
ATOM     76  C   UNL     1      -3.948 -11.684   2.529  1.00  0.00     0.135 A 
ATOM     77  F   UNL     1      -3.040 -13.061  -0.707  1.00  0.00    -0.206 F 
ATOM     78  C   UNL     1      -2.201 -13.553   1.430  1.00  0.00     0.059 A 
ATOM     79  C   UNL     1      -3.079 -12.388   3.365  1.00  0.00     0.059 A 
ATOM     80  F   UNL     1      -4.778 -10.790   3.090  1.00  0.00    -0.206 F 
ATOM     81  C   UNL     1      -2.221 -13.335   2.808  1.00  0.00     0.060 A 
BRANCH  81  82
ATOM     82  S   UNL     1      -1.103 -14.300   3.853  1.00  0.00     0.124 S 
ATOM     83  O   UNL     1      -1.680 -15.636   3.748  1.00  0.00    -0.237 OA
ATOM     84  O   UNL     1       0.181 -14.106   3.188  1.00  0.00    -0.237 OA
ATOM     85  O   UNL     1      -1.228 -13.662   5.160  1.00  0.00    -0.744 OA
ENDBRANCH  81  82
ENDBRANCH  49  74
BRANCH  61  86
ATOM     86  C   UNL     1      -9.207 -13.958  -2.943  1.00  0.00     0.058 A 
ATOM     87  C   UNL     1      -9.958 -14.762  -2.075  1.00  0.00     0.135 A 
ATOM     88  C   UNL     1      -8.980 -14.422  -4.249  1.00  0.00     0.135 A 
ATOM     89  F   UNL     1     -10.183 -14.368  -0.811  1.00  0.00    -0.206 F 
ATOM     90  C   UNL     1     -10.463 -15.988  -2.486  1.00  0.00     0.059 A 
ATOM     91  C   UNL     1      -9.504 -15.629  -4.691  1.00  0.00     0.059 A 
ATOM     92  F   UNL     1      -8.263 -13.687  -5.114  1.00  0.00    -0.206 F 
ATOM     93  C   UNL     1     -10.241 -16.407  -3.799  1.00  0.00     0.060 A 
BRANCH  93  94
ATOM     94  S   UNL     1     -10.972 -17.964  -4.340  1.00  0.00     0.124 S 
ATOM     95  O   UNL     1     -10.129 -18.938  -3.655  1.00  0.00    -0.237 OA
ATOM     96  O   UNL     1     -12.341 -17.851  -3.847  1.00  0.00    -0.237 OA
ATOM     97  O   UNL     1     -10.829 -17.920  -5.793  1.00  0.00    -0.744 OA
ENDBRANCH  93  94
ENDBRANCH  61  86
ENDBRANCH  35  36
ENDBRANCH  28  30
ENDBRANCH  27  28
ENDBRANCH  26  27
ENDBRANCH  25  26
ENDBRANCH  24  25
ENDBRANCH  23  24
ENDBRANCH  22  23
ENDBRANCH   1  22
TORSDOF 27
