REMARK SMILES CC1(C)[C@H](C(=O)Nc2ccc(C(=O)Nc3cccnc3)c(Cl)c2)[C@H]1C(=O)OCCOCCOCCOC(=O)c1ccc(-c2c3nc(c(-c4c(F)cc(S(=O)(=O)[O-])cc4F)c4ccc([nH]4)c(-c4c(F)cc(S(=O)(=O)[O-])cc4F)c4nc(c(-c5c(F)cc(S(=O)(=O)[O-])cc5F)c5ccc2[nH]5)C=C4)C=C3)cc1
REMARK SMILES IDX 31 1 30 2 29 3 28 4 27 5 25 6 26 7 24 8 1 9 2 10 3 11 4 12
REMARK SMILES IDX 5 13 6 14 7 15 8 17 9 18 23 19 10 20 21 21 11 22 22 23 12 24
REMARK SMILES IDX 13 25 14 26 15 28 16 29 20 30 17 31 19 32 18 33 32 34 33 35
REMARK SMILES IDX 34 36 35 37 36 38 37 39 38 40 39 41 40 42 104 43 41 44
REMARK SMILES IDX 103 45 42 46 43 47 44 48 97 49 45 50 102 51 96 52 98 53
REMARK SMILES IDX 46 54 101 55 95 56 94 57 47 59 81 60 60 61 80 62 61 63 64 64
REMARK SMILES IDX 79 65 99 66 62 67 63 68 78 70 100 71 65 72 48 73 49 74 58 75
REMARK SMILES IDX 50 76 51 77 57 78 59 79 52 80 53 81 54 82 55 83 56 84 82 85
REMARK SMILES IDX 83 86 92 87 84 88 85 89 91 90 93 91 86 92 87 93 88 94 89 95
REMARK SMILES IDX 90 96 66 97 67 98 76 99 68 100 69 101 75 102 77 103 70 104
REMARK SMILES IDX 71 105 72 106 73 107 74 108
REMARK H PARENT 7 16 14 27 98 58 64 69
REMARK Flexibility Score: inf
ROOT
ATOM      1  C   UNL     1      -1.246  -1.083   3.882  1.00  0.00     0.188 C 
ENDROOT
BRANCH   1   2
ATOM      2  O   UNL     1      -2.044  -2.125   4.436  1.00  0.00    -0.376 OA
BRANCH   2   3
ATOM      3  C   UNL     1      -2.379  -3.247   3.618  1.00  0.00     0.202 C 
BRANCH   3   4
ATOM      4  C   UNL     1      -2.899  -2.982   2.196  1.00  0.00     0.261 C 
BRANCH   4   5
ATOM      5  O   UNL     1      -1.938  -2.271   1.399  1.00  0.00    -0.463 OA
BRANCH   5   6
ATOM      6  C   UNL     1      -2.438  -1.320   0.563  1.00  0.00     0.310 C 
ATOM      7  O   UNL     1      -3.598  -1.163   0.269  1.00  0.00    -0.252 OA
BRANCH   6   8
ATOM      8  C   UNL     1      -1.389  -0.351   0.131  1.00  0.00     0.118 C 
ATOM      9  C   UNL     1       0.446  -2.154  -0.596  1.00  0.00     0.013 C 
ATOM     10  C   UNL     1       0.008  -0.717  -0.397  1.00  0.00    -0.009 C 
ATOM     11  C   UNL     1       1.159   0.112   0.115  1.00  0.00     0.013 C 
ATOM     12  C   UNL     1      -1.104  -0.249  -1.339  1.00  0.00     0.100 C 
BRANCH  12  13
ATOM     13  C   UNL     1      -1.292   0.984  -2.164  1.00  0.00     0.228 C 
ATOM     14  O   UNL     1      -1.325   0.832  -3.385  1.00  0.00    -0.274 OA
ATOM     15  N   UNL     1      -1.768   2.164  -1.634  1.00  0.00    -0.326 N 
ATOM     16  H   UNL     1      -2.717   2.366  -1.804  1.00  0.00     0.169 HD
BRANCH  15  17
ATOM     17  C   UNL     1      -1.058   3.113  -0.881  1.00  0.00     0.042 A 
ATOM     18  C   UNL     1       0.277   2.958  -0.565  1.00  0.00     0.027 A 
ATOM     19  C   UNL     1      -1.661   4.314  -0.529  1.00  0.00     0.047 A 
ATOM     20  C   UNL     1       0.866   3.731   0.433  1.00  0.00     0.017 A 
ATOM     21  C   UNL     1      -0.975   5.221   0.293  1.00  0.00     0.055 A 
ATOM     22  C   UNL     1       0.174   4.813   0.973  1.00  0.00     0.058 A 
ATOM     23  Cl  UNL     1      -1.471   6.873   0.208  1.00  0.00    -0.083 Cl
BRANCH  22  24
ATOM     24  C   UNL     1       0.736   5.404   2.223  1.00  0.00     0.257 C 
ATOM     25  O   UNL     1       1.952   5.329   2.406  1.00  0.00    -0.269 OA
ATOM     26  N   UNL     1      -0.056   5.970   3.202  1.00  0.00    -0.321 N 
ATOM     27  H   UNL     1       0.423   6.369   3.964  1.00  0.00     0.170 HD
BRANCH  26  28
ATOM     28  C   UNL     1      -1.454   6.049   3.250  1.00  0.00     0.059 A 
ATOM     29  C   UNL     1      -2.296   4.959   3.018  1.00  0.00     0.029 A 
ATOM     30  C   UNL     1      -2.033   7.300   3.399  1.00  0.00     0.137 A 
ATOM     31  C   UNL     1      -3.662   5.176   2.832  1.00  0.00     0.022 A 
ATOM     32  N   UNL     1      -3.339   7.534   3.155  1.00  0.00    -0.263 NA
ATOM     33  C   UNL     1      -4.126   6.477   2.869  1.00  0.00     0.111 A 
ENDBRANCH  26  28
ENDBRANCH  22  24
ENDBRANCH  15  17
ENDBRANCH  12  13
ENDBRANCH   6   8
ENDBRANCH   5   6
ENDBRANCH   4   5
ENDBRANCH   3   4
ENDBRANCH   2   3
ENDBRANCH   1   2
BRANCH   1  34
ATOM     34  C   UNL     1       0.092  -1.455   3.215  1.00  0.00     0.188 C 
BRANCH  34  35
ATOM     35  O   UNL     1       0.320  -2.838   3.099  1.00  0.00    -0.376 OA
BRANCH  35  36
ATOM     36  C   UNL     1       1.249  -3.459   3.966  1.00  0.00     0.202 C 
BRANCH  36  37
ATOM     37  C   UNL     1       1.459  -3.034   5.434  1.00  0.00     0.261 C 
BRANCH  37  38
ATOM     38  O   UNL     1       1.112  -1.696   5.815  1.00  0.00    -0.460 OA
BRANCH  38  39
ATOM     39  C   UNL     1       2.084  -0.759   5.700  1.00  0.00     0.338 C 
ATOM     40  O   UNL     1       3.204  -0.922   5.248  1.00  0.00    -0.246 OA
BRANCH  39  41
ATOM     41  C   UNL     1       1.506   0.557   6.048  1.00  0.00     0.060 A 
ATOM     42  C   UNL     1       1.298   1.500   5.034  1.00  0.00     0.016 A 
ATOM     43  C   UNL     1       1.223   0.879   7.377  1.00  0.00     0.016 A 
ATOM     44  C   UNL     1       0.828   2.776   5.351  1.00  0.00     0.010 A 
ATOM     45  C   UNL     1       0.770   2.168   7.695  1.00  0.00     0.010 A 
ATOM     46  C   UNL     1       0.599   3.135   6.687  1.00  0.00    -0.014 A 
BRANCH  46  47
ATOM     47  C   UNL     1       0.392   4.571   7.028  1.00  0.00     0.031 A 
ATOM     48  C   UNL     1       1.591   5.378   7.450  1.00  0.00     0.074 A 
ATOM     49  C   UNL     1      -0.815   5.161   6.918  1.00  0.00     0.049 A 
ATOM     50  N   UNL     1       1.670   6.647   7.753  1.00  0.00    -0.248 NA
ATOM     51  C   UNL     1       2.869   4.654   7.558  1.00  0.00     0.031 C 
ATOM     52  C   UNL     1      -2.037   4.482   6.500  1.00  0.00     0.029 A 
ATOM     53  N   UNL     1      -1.209   6.467   7.111  1.00  0.00    -0.354 N 
ATOM     54  C   UNL     1       2.985   6.858   8.153  1.00  0.00     0.074 A 
ATOM     55  C   UNL     1       3.675   5.594   8.027  1.00  0.00     0.031 C 
ATOM     56  C   UNL     1      -3.028   5.387   6.405  1.00  0.00     0.029 A 
ATOM     57  C   UNL     1      -2.530   6.710   6.785  1.00  0.00     0.049 A 
ATOM     58  H   UNL     1      -0.603   7.165   7.451  1.00  0.00     0.167 HD
ATOM     59  C   UNL     1       3.557   7.997   8.609  1.00  0.00     0.037 A 
ATOM     60  C   UNL     1      -3.232   7.870   6.765  1.00  0.00     0.037 A 
ATOM     61  C   UNL     1       2.873   9.259   8.704  1.00  0.00     0.049 A 
ATOM     62  C   UNL     1      -2.527   9.139   7.191  1.00  0.00     0.074 A 
ATOM     63  C   UNL     1       3.360  10.470   9.164  1.00  0.00     0.029 A 
ATOM     64  N   UNL     1       1.556   9.476   8.327  1.00  0.00    -0.354 N 
ATOM     65  N   UNL     1      -1.264   9.326   7.502  1.00  0.00    -0.248 NA
ATOM     66  C   UNL     1      -3.344  10.360   7.268  1.00  0.00     0.031 C 
ATOM     67  C   UNL     1       2.325  11.408   9.107  1.00  0.00     0.029 A 
ATOM     68  C   UNL     1       1.210  10.796   8.559  1.00  0.00     0.049 A 
ATOM     69  H   UNL     1       0.957   8.792   7.951  1.00  0.00     0.167 HD
ATOM     70  C   UNL     1      -1.143  10.683   7.795  1.00  0.00     0.074 A 
ATOM     71  C   UNL     1      -2.435  11.281   7.546  1.00  0.00     0.031 C 
ATOM     72  C   UNL     1      -0.076  11.373   8.269  1.00  0.00     0.037 A 
BRANCH  59  73
ATOM     73  C   UNL     1       4.972   7.917   9.111  1.00  0.00     0.058 A 
ATOM     74  C   UNL     1       6.069   7.765   8.250  1.00  0.00     0.135 A 
ATOM     75  C   UNL     1       5.229   8.027  10.488  1.00  0.00     0.135 A 
ATOM     76  F   UNL     1       5.878   7.631   6.928  1.00  0.00    -0.206 F 
ATOM     77  C   UNL     1       7.370   7.703   8.739  1.00  0.00     0.059 A 
ATOM     78  C   UNL     1       6.524   7.998  10.995  1.00  0.00     0.059 A 
ATOM     79  F   UNL     1       4.215   8.168  11.356  1.00  0.00    -0.206 F 
ATOM     80  C   UNL     1       7.588   7.822  10.113  1.00  0.00     0.060 A 
BRANCH  80  81
ATOM     81  S   UNL     1       9.281   7.751  10.733  1.00  0.00     0.124 S 
ATOM     82  O   UNL     1       9.593   6.334  10.566  1.00  0.00    -0.237 OA
ATOM     83  O   UNL     1       9.981   8.663   9.834  1.00  0.00    -0.237 OA
ATOM     84  O   UNL     1       9.159   8.207  12.114  1.00  0.00    -0.744 OA
ENDBRANCH  80  81
ENDBRANCH  59  73
BRANCH  60  85
ATOM     85  C   UNL     1      -4.643   7.933   6.247  1.00  0.00     0.058 A 
ATOM     86  C   UNL     1      -4.991   8.801   5.191  1.00  0.00     0.135 A 
ATOM     87  C   UNL     1      -5.674   7.133   6.761  1.00  0.00     0.135 A 
ATOM     88  F   UNL     1      -4.083   9.653   4.688  1.00  0.00    -0.206 F 
ATOM     89  C   UNL     1      -6.262   8.819   4.625  1.00  0.00     0.059 A 
ATOM     90  C   UNL     1      -6.951   7.115   6.197  1.00  0.00     0.059 A 
ATOM     91  F   UNL     1      -5.445   6.325   7.808  1.00  0.00    -0.206 F 
ATOM     92  C   UNL     1      -7.229   7.949   5.116  1.00  0.00     0.060 A 
BRANCH  92  93
ATOM     93  S   UNL     1      -8.825   7.878   4.278  1.00  0.00     0.124 S 
ATOM     94  O   UNL     1      -9.355   9.214   4.523  1.00  0.00    -0.237 OA
ATOM     95  O   UNL     1      -8.425   7.586   2.904  1.00  0.00    -0.237 OA
ATOM     96  O   UNL     1      -9.517   6.790   4.963  1.00  0.00    -0.744 OA
ENDBRANCH  92  93
ENDBRANCH  60  85
BRANCH  72  97
ATOM     97  C   UNL     1      -0.263  12.844   8.535  1.00  0.00     0.058 A 
ATOM     98  C   UNL     1      -1.084  13.302   9.579  1.00  0.00     0.135 A 
ATOM     99  C   UNL     1       0.416  13.805   7.769  1.00  0.00     0.135 A 
ATOM    100  F   UNL     1      -1.757  12.427  10.343  1.00  0.00    -0.206 F 
ATOM    101  C   UNL     1      -1.257  14.658   9.828  1.00  0.00     0.059 A 
ATOM    102  C   UNL     1       0.285  15.168   8.023  1.00  0.00     0.059 A 
ATOM    103  F   UNL     1       1.228  13.424   6.769  1.00  0.00    -0.206 F 
ATOM    104  C   UNL     1      -0.568  15.585   9.045  1.00  0.00     0.060 A 
BRANCH 104 105
ATOM    105  S   UNL     1      -0.782  17.342   9.399  1.00  0.00     0.124 S 
ATOM    106  O   UNL     1      -2.123  17.585   8.877  1.00  0.00    -0.237 OA
ATOM    107  O   UNL     1      -0.650  17.386  10.852  1.00  0.00    -0.237 OA
ATOM    108  O   UNL     1       0.304  17.973   8.657  1.00  0.00    -0.744 OA
ENDBRANCH 104 105
ENDBRANCH  72  97
ENDBRANCH  46  47
ENDBRANCH  39  41
ENDBRANCH  38  39
ENDBRANCH  37  38
ENDBRANCH  36  37
ENDBRANCH  35  36
ENDBRANCH  34  35
ENDBRANCH   1  34
TORSDOF 24
