REMARK SMILES O=C(OCCOCCOCCOC(=O)[C@H]1CCCN1S(=O)(=O)c1ccccc1Cl)c1ccc(-c2c3nc(c(-c4c(F)cc(S(=O)(=O)[O-])cc4F)c4ccc([nH]4)c(-c4c(F)cc(S(=O)(=O)[O-])cc4F)c4nc(c(-c5c(F)cc(S(=O)(=O)[O-])cc5F)c5ccc2[nH]5)C=C4)C=C3)cc1
REMARK SMILES IDX 7 1 6 2 5 3 4 4 3 5 2 6 1 7 30 8 31 9 95 10 32 11 94 12
REMARK SMILES IDX 33 13 34 14 35 15 88 16 36 17 93 18 87 19 89 20 37 21 92 22
REMARK SMILES IDX 86 23 85 24 38 26 72 27 51 28 71 29 52 30 55 31 70 32 90 33
REMARK SMILES IDX 53 34 54 35 69 37 91 38 56 39 39 40 40 41 49 42 41 43 42 44
REMARK SMILES IDX 48 45 50 46 43 47 44 48 45 49 46 50 47 51 73 52 74 53 83 54
REMARK SMILES IDX 75 55 76 56 82 57 84 58 77 59 78 60 79 61 80 62 81 63 57 64
REMARK SMILES IDX 58 65 67 66 59 67 60 68 66 69 68 70 61 71 62 72 63 73 64 74
REMARK SMILES IDX 65 75 8 76 9 77 10 78 11 79 12 80 13 81 14 82 15 83 16 84
REMARK SMILES IDX 19 85 17 86 18 87 20 88 21 89 22 90 23 91 24 92 28 93 25 94
REMARK SMILES IDX 27 95 29 96 26 97
REMARK H PARENT 89 25 55 36
REMARK Flexibility Score: inf
ROOT
ATOM      1  C   UNL     1      -1.176   5.627   2.813  1.00  0.00     0.188 C 
ENDROOT
BRANCH   1   2
ATOM      2  O   UNL     1      -1.113   4.271   3.252  1.00  0.00    -0.376 OA
BRANCH   2   3
ATOM      3  C   UNL     1      -2.018   3.979   4.326  1.00  0.00     0.202 C 
BRANCH   3   4
ATOM      4  C   UNL     1      -1.714   4.656   5.682  1.00  0.00     0.261 C 
BRANCH   4   5
ATOM      5  O   UNL     1      -1.023   5.916   5.580  1.00  0.00    -0.460 OA
BRANCH   5   6
ATOM      6  C   UNL     1       0.308   6.173   5.647  1.00  0.00     0.338 C 
ATOM      7  O   UNL     1       0.672   7.349   5.672  1.00  0.00    -0.246 OA
BRANCH   6   8
ATOM      8  C   UNL     1       1.366   5.114   5.641  1.00  0.00     0.060 A 
ATOM      9  C   UNL     1       1.156   3.785   5.281  1.00  0.00     0.016 A 
ATOM     10  C   UNL     1       2.680   5.498   5.964  1.00  0.00     0.016 A 
ATOM     11  C   UNL     1       2.167   2.838   5.343  1.00  0.00     0.010 A 
ATOM     12  C   UNL     1       3.724   4.562   5.971  1.00  0.00     0.010 A 
ATOM     13  C   UNL     1       3.455   3.213   5.702  1.00  0.00    -0.014 A 
BRANCH  13  14
ATOM     14  C   UNL     1       4.427   2.138   5.983  1.00  0.00     0.031 A 
ATOM     15  C   UNL     1       4.753   1.851   7.420  1.00  0.00     0.074 A 
ATOM     16  C   UNL     1       4.845   1.302   5.014  1.00  0.00     0.049 A 
ATOM     17  N   UNL     1       5.541   0.942   7.923  1.00  0.00    -0.248 NA
ATOM     18  C   UNL     1       4.052   2.666   8.428  1.00  0.00     0.031 C 
ATOM     19  C   UNL     1       4.398   1.325   3.619  1.00  0.00     0.029 A 
ATOM     20  N   UNL     1       5.707   0.236   5.065  1.00  0.00    -0.354 N 
ATOM     21  C   UNL     1       5.420   1.065   9.300  1.00  0.00     0.074 A 
ATOM     22  C   UNL     1       4.526   2.169   9.558  1.00  0.00     0.031 C 
ATOM     23  C   UNL     1       4.995   0.320   2.960  1.00  0.00     0.029 A 
ATOM     24  C   UNL     1       5.951  -0.325   3.835  1.00  0.00     0.049 A 
ATOM     25  H   UNL     1       6.111  -0.094   5.900  1.00  0.00     0.167 HD
ATOM     26  C   UNL     1       5.982   0.300  10.262  1.00  0.00     0.037 A 
ATOM     27  C   UNL     1       6.878  -1.220   3.450  1.00  0.00     0.037 A 
ATOM     28  C   UNL     1       6.872  -0.793   9.984  1.00  0.00     0.049 A 
ATOM     29  C   UNL     1       7.693  -1.878   4.516  1.00  0.00     0.074 A 
ATOM     30  C   UNL     1       7.532  -1.617  10.874  1.00  0.00     0.029 A 
ATOM     31  N   UNL     1       7.236  -1.202   8.708  1.00  0.00    -0.354 N 
ATOM     32  N   UNL     1       7.615  -1.720   5.814  1.00  0.00    -0.248 NA
ATOM     33  C   UNL     1       8.676  -2.872   4.075  1.00  0.00     0.031 C 
ATOM     34  C   UNL     1       8.340  -2.490  10.137  1.00  0.00     0.029 A 
ATOM     35  C   UNL     1       8.141  -2.246   8.787  1.00  0.00     0.049 A 
ATOM     36  H   UNL     1       6.900  -0.809   7.870  1.00  0.00     0.167 HD
ATOM     37  C   UNL     1       8.494  -2.643   6.355  1.00  0.00     0.074 A 
ATOM     38  C   UNL     1       9.110  -3.336   5.238  1.00  0.00     0.031 C 
ATOM     39  C   UNL     1       8.739  -2.916   7.659  1.00  0.00     0.037 A 
BRANCH  26  40
ATOM     40  C   UNL     1       5.686   0.679  11.683  1.00  0.00     0.058 A 
ATOM     41  C   UNL     1       4.421   0.479  12.261  1.00  0.00     0.135 A 
ATOM     42  C   UNL     1       6.669   1.313  12.458  1.00  0.00     0.135 A 
ATOM     43  F   UNL     1       3.434  -0.090  11.550  1.00  0.00    -0.206 F 
ATOM     44  C   UNL     1       4.130   0.932  13.543  1.00  0.00     0.059 A 
ATOM     45  C   UNL     1       6.407   1.751  13.752  1.00  0.00     0.059 A 
ATOM     46  F   UNL     1       7.889   1.542  11.947  1.00  0.00    -0.206 F 
ATOM     47  C   UNL     1       5.128   1.575  14.277  1.00  0.00     0.060 A 
BRANCH  47  48
ATOM     48  S   UNL     1       4.726   2.197  15.923  1.00  0.00     0.124 S 
ATOM     49  O   UNL     1       3.894   3.353  15.602  1.00  0.00    -0.237 OA
ATOM     50  O   UNL     1       4.029   1.063  16.523  1.00  0.00    -0.237 OA
ATOM     51  O   UNL     1       6.031   2.503  16.499  1.00  0.00    -0.744 OA
ENDBRANCH  47  48
ENDBRANCH  26  40
BRANCH  27  52
ATOM     52  C   UNL     1       7.128  -1.512   2.015  1.00  0.00     0.058 A 
ATOM     53  C   UNL     1       6.652  -2.679   1.406  1.00  0.00     0.135 A 
ATOM     54  C   UNL     1       7.899  -0.634   1.235  1.00  0.00     0.135 A 
ATOM     55  F   UNL     1       5.924  -3.555   2.114  1.00  0.00    -0.206 F 
ATOM     56  C   UNL     1       6.921  -2.963   0.070  1.00  0.00     0.059 A 
ATOM     57  C   UNL     1       8.173  -0.890  -0.106  1.00  0.00     0.059 A 
ATOM     58  F   UNL     1       8.380   0.496   1.774  1.00  0.00    -0.206 F 
ATOM     59  C   UNL     1       7.676  -2.058  -0.682  1.00  0.00     0.060 A 
BRANCH  59  60
ATOM     60  S   UNL     1       7.880  -2.366  -2.452  1.00  0.00     0.124 S 
ATOM     61  O   UNL     1       8.869  -3.436  -2.456  1.00  0.00    -0.237 OA
ATOM     62  O   UNL     1       6.525  -2.744  -2.848  1.00  0.00    -0.237 OA
ATOM     63  O   UNL     1       8.334  -1.079  -2.968  1.00  0.00    -0.744 OA
ENDBRANCH  59  60
ENDBRANCH  27  52
BRANCH  39  64
ATOM     64  C   UNL     1       9.665  -4.058   7.937  1.00  0.00     0.058 A 
ATOM     65  C   UNL     1      11.046  -3.959   7.721  1.00  0.00     0.135 A 
ATOM     66  C   UNL     1       9.153  -5.262   8.444  1.00  0.00     0.135 A 
ATOM     67  F   UNL     1      11.575  -2.833   7.217  1.00  0.00    -0.206 F 
ATOM     68  C   UNL     1      11.891  -5.031   7.976  1.00  0.00     0.059 A 
ATOM     69  C   UNL     1       9.983  -6.335   8.737  1.00  0.00     0.059 A 
ATOM     70  F   UNL     1       7.836  -5.399   8.667  1.00  0.00    -0.206 F 
ATOM     71  C   UNL     1      11.350  -6.214   8.486  1.00  0.00     0.060 A 
BRANCH  71  72
ATOM     72  S   UNL     1      12.460  -7.587   8.847  1.00  0.00     0.124 S 
ATOM     73  O   UNL     1      12.738  -8.097   7.509  1.00  0.00    -0.237 OA
ATOM     74  O   UNL     1      13.572  -6.921   9.517  1.00  0.00    -0.237 OA
ATOM     75  O   UNL     1      11.655  -8.458   9.698  1.00  0.00    -0.744 OA
ENDBRANCH  71  72
ENDBRANCH  39  64
ENDBRANCH  13  14
ENDBRANCH   6   8
ENDBRANCH   5   6
ENDBRANCH   4   5
ENDBRANCH   3   4
ENDBRANCH   2   3
ENDBRANCH   1   2
BRANCH   1  76
ATOM     76  C   UNL     1      -1.245   5.839   1.302  1.00  0.00     0.188 C 
BRANCH  76  77
ATOM     77  O   UNL     1      -2.172   5.074   0.552  1.00  0.00    -0.376 OA
BRANCH  77  78
ATOM     78  C   UNL     1      -2.049   3.659   0.627  1.00  0.00     0.202 C 
BRANCH  78  79
ATOM     79  C   UNL     1      -0.729   2.971   0.210  1.00  0.00     0.261 C 
BRANCH  79  80
ATOM     80  O   UNL     1       0.518   3.583   0.614  1.00  0.00    -0.462 OA
BRANCH  80  81
ATOM     81  C   UNL     1       1.198   4.188  -0.402  1.00  0.00     0.324 C 
ATOM     82  O   UNL     1       0.733   4.329  -1.533  1.00  0.00    -0.250 OA
BRANCH  81  83
ATOM     83  C   UNL     1       2.554   4.771  -0.050  1.00  0.00     0.183 C 
ATOM     84  C   UNL     1       2.500   6.225   0.406  1.00  0.00     0.034 C 
ATOM     85  N   UNL     1       3.483   4.091   0.897  1.00  0.00    -0.184 NA
ATOM     86  C   UNL     1       2.915   6.237   1.864  1.00  0.00     0.019 C 
ATOM     87  C   UNL     1       3.407   4.838   2.184  1.00  0.00     0.103 C 
BRANCH  85  88
ATOM     88  S   UNL     1       5.107   3.933   0.293  1.00  0.00     0.245 S 
ATOM     89  O   UNL     1       5.462   5.184  -0.343  1.00  0.00    -0.207 OA
ATOM     90  O   UNL     1       5.909   3.433   1.389  1.00  0.00    -0.207 OA
BRANCH  88  91
ATOM     91  C   UNL     1       4.947   2.631  -0.904  1.00  0.00     0.101 A 
ATOM     92  C   UNL     1       5.183   1.334  -0.434  1.00  0.00     0.023 A 
ATOM     93  C   UNL     1       4.587   2.807  -2.238  1.00  0.00     0.061 A 
ATOM     94  C   UNL     1       4.907   0.218  -1.219  1.00  0.00     0.002 A 
ATOM     95  C   UNL     1       4.305   1.679  -3.026  1.00  0.00     0.022 A 
ATOM     96  Cl  UNL     1       4.506   4.323  -3.059  1.00  0.00    -0.083 Cl
ATOM     97  C   UNL     1       4.445   0.390  -2.513  1.00  0.00     0.002 A 
ENDBRANCH  88  91
ENDBRANCH  85  88
ENDBRANCH  81  83
ENDBRANCH  80  81
ENDBRANCH  79  80
ENDBRANCH  78  79
ENDBRANCH  77  78
ENDBRANCH  76  77
ENDBRANCH   1  76
TORSDOF 22
