REMARK SMILES Cc1ccccc1N(CCC(=O)OCCOCCOCCOC(=O)c1ccc(-c2c3nc(c(-c4c(F)cc(S(=O)(=O)[O-])cc4F)c4ccc([nH]4)c(-c4c(F)cc(S(=O)(=O)[O-])cc4F)c4nc(c(-c5c(F)cc(S(=O)(=O)[O-])cc5F)c5ccc2[nH]5)C=C4)C=C3)cc1)[C@@H](C)[C@@H](C)O
REMARK SMILES IDX 17 1 16 2 15 3 14 4 13 5 11 6 12 7 10 8 9 9 8 10 7 11 1 12
REMARK SMILES IDX 2 13 3 14 4 15 6 16 5 17 91 18 92 19 93 20 94 21 95 22 18 24
REMARK SMILES IDX 19 25 20 26 21 27 22 28 23 29 24 30 25 31 26 32 90 33 27 34
REMARK SMILES IDX 89 35 28 36 29 37 30 38 83 39 31 40 88 41 82 42 84 43 32 44
REMARK SMILES IDX 87 45 81 46 80 47 33 49 67 50 46 51 66 52 47 53 50 54 65 55
REMARK SMILES IDX 85 56 48 57 49 58 64 60 86 61 51 62 34 63 35 64 44 65 36 66
REMARK SMILES IDX 37 67 43 68 45 69 38 70 39 71 40 72 41 73 42 74 68 75 69 76
REMARK SMILES IDX 78 77 70 78 71 79 77 80 79 81 72 82 73 83 74 84 75 85 76 86
REMARK SMILES IDX 52 87 53 88 62 89 54 90 55 91 61 92 63 93 56 94 57 95 58 96
REMARK SMILES IDX 59 97 60 98
REMARK H PARENT 95 23 84 48 50 59
REMARK Flexibility Score: inf
ROOT
ATOM      1  C   UNL     1       5.547   6.697  -0.796  1.00  0.00     0.188 C 
ENDROOT
BRANCH   1   2
ATOM      2  O   UNL     1       5.352   5.814   0.312  1.00  0.00    -0.376 OA
BRANCH   2   3
ATOM      3  C   UNL     1       6.073   4.591   0.393  1.00  0.00     0.202 C 
BRANCH   3   4
ATOM      4  C   UNL     1       5.425   3.605   1.409  1.00  0.00     0.261 C 
BRANCH   4   5
ATOM      5  O   UNL     1       4.014   3.306   1.234  1.00  0.00    -0.463 OA
BRANCH   5   6
ATOM      6  C   UNL     1       3.614   2.786   0.042  1.00  0.00     0.307 C 
ATOM      7  O   UNL     1       4.404   2.505  -0.855  1.00  0.00    -0.252 OA
BRANCH   6   8
ATOM      8  C   UNL     1       2.064   2.729  -0.080  1.00  0.00     0.144 C 
BRANCH   8   9
ATOM      9  C   UNL     1       1.000   1.665  -0.388  1.00  0.00     0.128 C 
BRANCH   9  10
ATOM     10  N   UNL     1       1.352   0.245  -0.535  1.00  0.00    -0.365 N 
BRANCH  10  11
ATOM     11  C   UNL     1       0.333  -0.710  -0.494  1.00  0.00     0.040 A 
ATOM     12  C   UNL     1       1.811  -2.847  -0.271  1.00  0.00     0.046 C 
ATOM     13  C   UNL     1       0.507  -2.105  -0.346  1.00  0.00    -0.028 A 
ATOM     14  C   UNL     1      -0.617  -2.950  -0.144  1.00  0.00     0.005 A 
ATOM     15  C   UNL     1      -1.920  -2.475  -0.157  1.00  0.00     0.000 A 
ATOM     16  C   UNL     1      -1.028  -0.285  -0.559  1.00  0.00     0.026 A 
ATOM     17  C   UNL     1      -2.129  -1.135  -0.392  1.00  0.00     0.002 A 
ENDBRANCH  10  11
BRANCH  10  18
ATOM     18  C   UNL     1       2.748   0.018  -0.893  1.00  0.00     0.107 C 
ATOM     19  C   UNL     1       3.628  -0.356   0.305  1.00  0.00     0.034 C 
BRANCH  18  20
ATOM     20  C   UNL     1       3.092  -0.273  -2.372  1.00  0.00     0.133 C 
ATOM     21  C   UNL     1       2.400   0.724  -3.326  1.00  0.00     0.040 C 
BRANCH  20  22
ATOM     22  O   UNL     1       4.509  -0.082  -2.577  1.00  0.00    -0.391 OA
ATOM     23  H   UNL     1       4.743   0.838  -2.379  1.00  0.00     0.211 HD
ENDBRANCH  20  22
ENDBRANCH  18  20
ENDBRANCH  10  18
ENDBRANCH   9  10
ENDBRANCH   8   9
ENDBRANCH   6   8
ENDBRANCH   5   6
ENDBRANCH   4   5
ENDBRANCH   3   4
ENDBRANCH   2   3
ENDBRANCH   1   2
BRANCH   1  24
ATOM     24  C   UNL     1       5.682   6.156  -2.239  1.00  0.00     0.188 C 
BRANCH  24  25
ATOM     25  O   UNL     1       5.034   4.902  -2.427  1.00  0.00    -0.376 OA
BRANCH  25  26
ATOM     26  C   UNL     1       4.706   4.540  -3.772  1.00  0.00     0.202 C 
BRANCH  26  27
ATOM     27  C   UNL     1       3.428   5.216  -4.359  1.00  0.00     0.261 C 
BRANCH  27  28
ATOM     28  O   UNL     1       2.209   4.720  -3.732  1.00  0.00    -0.460 OA
BRANCH  28  29
ATOM     29  C   UNL     1       1.179   5.622  -3.486  1.00  0.00     0.338 C 
ATOM     30  O   UNL     1       0.347   5.915  -4.320  1.00  0.00    -0.246 OA
BRANCH  29  31
ATOM     31  C   UNL     1       1.073   5.849  -2.000  1.00  0.00     0.060 A 
ATOM     32  C   UNL     1      -0.046   6.067  -1.179  1.00  0.00     0.016 A 
ATOM     33  C   UNL     1       2.259   5.738  -1.350  1.00  0.00     0.016 A 
ATOM     34  C   UNL     1       0.044   5.987   0.275  1.00  0.00     0.010 A 
ATOM     35  C   UNL     1       2.315   5.596   0.008  1.00  0.00     0.010 A 
ATOM     36  C   UNL     1       1.251   5.674   0.902  1.00  0.00    -0.014 A 
BRANCH  36  37
ATOM     37  C   UNL     1       1.742   5.450   2.321  1.00  0.00     0.031 A 
ATOM     38  C   UNL     1       1.568   4.233   3.226  1.00  0.00     0.074 A 
ATOM     39  C   UNL     1       2.872   6.184   2.564  1.00  0.00     0.049 A 
ATOM     40  N   UNL     1       2.212   4.101   4.349  1.00  0.00    -0.248 NA
ATOM     41  C   UNL     1       0.761   3.030   2.990  1.00  0.00     0.031 C 
ATOM     42  C   UNL     1       4.003   5.977   3.466  1.00  0.00     0.029 A 
ATOM     43  N   UNL     1       3.272   7.352   1.887  1.00  0.00    -0.354 N 
ATOM     44  C   UNL     1       2.253   2.769   4.721  1.00  0.00     0.074 A 
ATOM     45  C   UNL     1       1.241   2.159   3.899  1.00  0.00     0.031 C 
ATOM     46  C   UNL     1       4.725   7.111   3.544  1.00  0.00     0.029 A 
ATOM     47  C   UNL     1       3.993   8.120   2.801  1.00  0.00     0.049 A 
ATOM     48  H   UNL     1       3.079   7.582   0.949  1.00  0.00     0.167 HD
ATOM     49  C   UNL     1       3.213   2.344   5.609  1.00  0.00     0.037 A 
ATOM     50  C   UNL     1       3.347   9.217   3.291  1.00  0.00     0.037 A 
ATOM     51  C   UNL     1       3.871   3.495   6.240  1.00  0.00     0.049 A 
ATOM     52  C   UNL     1       3.016   9.007   4.750  1.00  0.00     0.074 A 
ATOM     53  C   UNL     1       5.154   4.011   6.269  1.00  0.00     0.029 A 
ATOM     54  N   UNL     1       3.060   4.454   6.841  1.00  0.00    -0.354 N 
ATOM     55  N   UNL     1       3.094   7.833   5.320  1.00  0.00    -0.248 NA
ATOM     56  C   UNL     1       2.697  10.043   5.723  1.00  0.00     0.031 C 
ATOM     57  C   UNL     1       5.053   5.378   6.690  1.00  0.00     0.029 A 
ATOM     58  C   UNL     1       3.723   5.656   6.978  1.00  0.00     0.049 A 
ATOM     59  H   UNL     1       2.132   4.294   7.130  1.00  0.00     0.167 HD
ATOM     60  C   UNL     1       2.907   7.920   6.657  1.00  0.00     0.074 A 
ATOM     61  C   UNL     1       2.625   9.329   6.867  1.00  0.00     0.031 C 
ATOM     62  C   UNL     1       2.988   6.824   7.465  1.00  0.00     0.037 A 
BRANCH  49  63
ATOM     63  C   UNL     1       3.668   0.903   5.878  1.00  0.00     0.058 A 
ATOM     64  C   UNL     1       4.523   0.588   6.968  1.00  0.00     0.135 A 
ATOM     65  C   UNL     1       3.393  -0.195   5.035  1.00  0.00     0.135 A 
ATOM     66  F   UNL     1       4.905   1.533   7.841  1.00  0.00    -0.206 F 
ATOM     67  C   UNL     1       5.043  -0.698   7.204  1.00  0.00     0.059 A 
ATOM     68  C   UNL     1       3.867  -1.497   5.274  1.00  0.00     0.059 A 
ATOM     69  F   UNL     1       2.699  -0.044   3.900  1.00  0.00    -0.206 F 
ATOM     70  C   UNL     1       4.705  -1.741   6.353  1.00  0.00     0.060 A 
BRANCH  70  71
ATOM     71  S   UNL     1       5.372  -3.398   6.654  1.00  0.00     0.124 S 
ATOM     72  O   UNL     1       6.779  -3.227   6.307  1.00  0.00    -0.237 OA
ATOM     73  O   UNL     1       5.090  -3.603   8.071  1.00  0.00    -0.237 OA
ATOM     74  O   UNL     1       4.605  -4.245   5.744  1.00  0.00    -0.744 OA
ENDBRANCH  70  71
ENDBRANCH  49  63
BRANCH  50  75
ATOM     75  C   UNL     1       2.627   9.918   2.158  1.00  0.00     0.058 A 
ATOM     76  C   UNL     1       3.484  10.449   1.160  1.00  0.00     0.135 A 
ATOM     77  C   UNL     1       1.328   9.569   1.728  1.00  0.00     0.135 A 
ATOM     78  F   UNL     1       4.748  10.777   1.481  1.00  0.00    -0.206 F 
ATOM     79  C   UNL     1       3.148  10.473  -0.195  1.00  0.00     0.059 A 
ATOM     80  C   UNL     1       0.963   9.604   0.365  1.00  0.00     0.059 A 
ATOM     81  F   UNL     1       0.450   9.041   2.595  1.00  0.00    -0.206 F 
ATOM     82  C   UNL     1       1.905   9.991  -0.592  1.00  0.00     0.060 A 
BRANCH  82  83
ATOM     83  S   UNL     1       1.623   9.762  -2.371  1.00  0.00     0.124 S 
ATOM     84  O   UNL     1       1.886  11.099  -2.896  1.00  0.00    -0.237 OA
ATOM     85  O   UNL     1       2.627   8.753  -2.712  1.00  0.00    -0.237 OA
ATOM     86  O   UNL     1       0.235   9.322  -2.444  1.00  0.00    -0.744 OA
ENDBRANCH  82  83
ENDBRANCH  50  75
BRANCH  62  87
ATOM     87  C   UNL     1       2.305   6.740   8.797  1.00  0.00     0.058 A 
ATOM     88  C   UNL     1       1.085   7.387   9.053  1.00  0.00     0.135 A 
ATOM     89  C   UNL     1       2.731   5.799   9.762  1.00  0.00     0.135 A 
ATOM     90  F   UNL     1       0.535   8.223   8.159  1.00  0.00    -0.206 F 
ATOM     91  C   UNL     1       0.356   7.158  10.214  1.00  0.00     0.059 A 
ATOM     92  C   UNL     1       1.988   5.511  10.899  1.00  0.00     0.059 A 
ATOM     93  F   UNL     1       3.871   5.107   9.603  1.00  0.00    -0.206 F 
ATOM     94  C   UNL     1       0.815   6.218  11.131  1.00  0.00     0.060 A 
BRANCH  94  95
ATOM     95  S   UNL     1      -0.133   5.903  12.626  1.00  0.00     0.124 S 
ATOM     96  O   UNL     1       0.490   6.837  13.558  1.00  0.00    -0.237 OA
ATOM     97  O   UNL     1      -1.498   6.232  12.224  1.00  0.00    -0.237 OA
ATOM     98  O   UNL     1       0.114   4.489  12.883  1.00  0.00    -0.744 OA
ENDBRANCH  94  95
ENDBRANCH  62  87
ENDBRANCH  36  37
ENDBRANCH  29  31
ENDBRANCH  28  29
ENDBRANCH  27  28
ENDBRANCH  26  27
ENDBRANCH  25  26
ENDBRANCH  24  25
ENDBRANCH   1  24
TORSDOF 26
