REMARK SMILES Cc1ccccc1/C=C1\SC(=O)N(CC(=O)Nc2ccccc2C(=O)OCCOCCOCCOC(=O)c2ccc(-c3c4nc(c(-c5c(F)cc(S(=O)(=O)[O-])cc5F)c5ccc([nH]5)c(-c5c(F)cc(S(=O)(=O)[O-])cc5F)c5nc(c(-c6c(F)cc(S(=O)(=O)[O-])cc6F)c6ccc3[nH]6)C=C5)C=C4)cc2)C1=O
REMARK SMILES IDX 30 1 29 2 28 3 27 4 26 5 24 6 25 7 23 8 18 9 19 10 20 11
REMARK SMILES IDX 22 12 21 13 17 14 15 15 16 16 14 18 13 19 8 20 9 21 10 22
REMARK SMILES IDX 104 23 11 24 105 25 12 26 7 27 1 28 2 29 3 30 4 31 6 32 5 33
REMARK SMILES IDX 31 34 32 35 33 36 34 37 35 38 36 39 37 40 38 41 39 42 103 43
REMARK SMILES IDX 40 44 102 45 41 46 42 47 43 48 96 49 44 50 101 51 95 52
REMARK SMILES IDX 97 53 45 54 100 55 94 56 93 57 46 59 80 60 59 61 79 62 60 63
REMARK SMILES IDX 63 64 78 65 98 66 61 67 62 68 77 70 99 71 64 72 47 73 48 74
REMARK SMILES IDX 57 75 49 76 50 77 56 78 58 79 51 80 52 81 53 82 54 83 55 84
REMARK SMILES IDX 81 85 82 86 91 87 83 88 84 89 90 90 92 91 85 92 86 93 87 94
REMARK SMILES IDX 88 95 89 96 65 97 66 98 75 99 67 100 68 101 74 102 76 103
REMARK SMILES IDX 69 104 70 105 71 106 72 107 73 108
REMARK H PARENT 17 17 97 58 63 69
REMARK Flexibility Score: inf
ROOT
ATOM      1  C   UNL     1       7.280   3.150   1.038  1.00  0.00     0.188 C 
ENDROOT
BRANCH   1   2
ATOM      2  O   UNL     1       6.442   2.148   1.641  1.00  0.00    -0.376 OA
BRANCH   2   3
ATOM      3  C   UNL     1       5.081   2.103   1.160  1.00  0.00     0.202 C 
BRANCH   3   4
ATOM      4  C   UNL     1       4.895   2.458  -0.504  1.00  0.00     0.261 C 
BRANCH   4   5
ATOM      5  O   UNL     1       3.437   3.217  -1.619  1.00  0.00    -0.460 OA
BRANCH   5   6
ATOM      6  C   UNL     1       3.019   4.674  -2.522  1.00  0.00     0.340 C 
ATOM      7  O   UNL     1       3.193   5.688  -1.820  1.00  0.00    -0.246 OA
BRANCH   6   8
ATOM      8  C   UNL     1       2.306   5.175  -3.787  1.00  0.00     0.083 A 
ATOM      9  C   UNL     1       2.999   6.183  -4.467  1.00  0.00     0.055 A 
ATOM     10  C   UNL     1       2.479   6.733  -5.685  1.00  0.00     0.027 A 
ATOM     11  C   UNL     1       1.338   6.232  -6.309  1.00  0.00     0.002 A 
ATOM     12  C   UNL     1       0.992   4.944  -4.310  1.00  0.00     0.018 A 
ATOM     13  C   UNL     1       0.571   5.336  -5.604  1.00  0.00     0.001 A 
BRANCH   9  14
ATOM     14  N   UNL     1       4.192   6.781  -4.034  1.00  0.00    -0.324 N 
ATOM     15  C   UNL     1       5.209   6.566  -3.146  1.00  0.00     0.244 C 
ATOM     16  O   UNL     1       6.025   7.504  -3.249  1.00  0.00    -0.273 OA
ATOM     17  H   UNL     1       4.345   7.621  -4.524  1.00  0.00     0.170 HD
BRANCH  15  18
ATOM     18  C   UNL     1       5.639   5.244  -2.335  1.00  0.00     0.230 C 
BRANCH  18  19
ATOM     19  N   UNL     1       4.935   4.166  -1.595  1.00  0.00    -0.259 N 
ATOM     20  C   UNL     1       2.043   1.819   0.958  1.00  0.00     0.029 C 
ATOM     21  C   UNL     1       2.894   2.406   0.071  1.00  0.00     0.083 C 
ATOM     22  S   UNL     1       3.450   1.113  -1.642  1.00  0.00    -0.022 SA
ATOM     23  C   UNL     1       3.943   4.095  -0.074  1.00  0.00     0.268 C 
ATOM     24  C   UNL     1       4.895   2.688  -2.508  1.00  0.00     0.294 C 
ATOM     25  O   UNL     1       4.247   4.682   0.980  1.00  0.00    -0.268 OA
ATOM     26  O   UNL     1       5.934   2.310  -3.057  1.00  0.00    -0.261 OA
BRANCH  20  27
ATOM     27  C   UNL     1       1.181   0.527   0.953  1.00  0.00    -0.021 A 
ATOM     28  C   UNL     1       2.991  -1.267   0.551  1.00  0.00     0.045 C 
ATOM     29  C   UNL     1       1.574  -0.793   0.636  1.00  0.00    -0.044 A 
ATOM     30  C   UNL     1       0.612  -1.835   0.478  1.00  0.00     0.004 A 
ATOM     31  C   UNL     1      -0.729  -1.646   0.768  1.00  0.00     0.000 A 
ATOM     32  C   UNL     1      -0.177   0.639   1.356  1.00  0.00     0.008 A 
ATOM     33  C   UNL     1      -1.114  -0.416   1.265  1.00  0.00     0.001 A 
ENDBRANCH  20  27
ENDBRANCH  18  19
ENDBRANCH  15  18
ENDBRANCH   9  14
ENDBRANCH   6   8
ENDBRANCH   5   6
ENDBRANCH   4   5
ENDBRANCH   3   4
ENDBRANCH   2   3
ENDBRANCH   1   2
BRANCH   1  34
ATOM     34  C   UNL     1       8.014   2.618  -0.259  1.00  0.00     0.188 C 
BRANCH  34  35
ATOM     35  O   UNL     1       7.435   1.381  -0.701  1.00  0.00    -0.376 OA
BRANCH  35  36
ATOM     36  C   UNL     1       7.993   0.586  -1.749  1.00  0.00     0.202 C 
BRANCH  36  37
ATOM     37  C   UNL     1       8.182   1.147  -3.200  1.00  0.00     0.261 C 
BRANCH  37  38
ATOM     38  O   UNL     1       7.138   0.642  -4.152  1.00  0.00    -0.460 OA
BRANCH  38  39
ATOM     39  C   UNL     1       6.687   1.509  -5.142  1.00  0.00     0.338 C 
ATOM     40  O   UNL     1       7.376   2.393  -5.640  1.00  0.00    -0.246 OA
BRANCH  39  41
ATOM     41  C   UNL     1       5.138   1.488  -5.296  1.00  0.00     0.060 A 
ATOM     42  C   UNL     1       4.460   2.678  -5.575  1.00  0.00     0.016 A 
ATOM     43  C   UNL     1       4.318   0.468  -4.821  1.00  0.00     0.016 A 
ATOM     44  C   UNL     1       3.099   2.882  -5.141  1.00  0.00     0.010 A 
ATOM     45  C   UNL     1       2.962   0.728  -4.376  1.00  0.00     0.010 A 
ATOM     46  C   UNL     1       2.387   2.027  -4.276  1.00  0.00    -0.014 A 
BRANCH  46  47
ATOM     47  C   UNL     1       1.076   2.300  -3.196  1.00  0.00     0.031 A 
ATOM     48  C   UNL     1      -0.171   1.790  -3.817  1.00  0.00     0.074 A 
ATOM     49  C   UNL     1       0.719   3.034  -1.982  1.00  0.00     0.049 A 
ATOM     50  N   UNL     1      -1.339   2.334  -3.656  1.00  0.00    -0.248 NA
ATOM     51  C   UNL     1      -0.187   0.745  -4.845  1.00  0.00     0.031 C 
ATOM     52  C   UNL     1      -0.333   2.838  -0.970  1.00  0.00     0.029 A 
ATOM     53  N   UNL     1       1.287   4.124  -1.288  1.00  0.00    -0.354 N 
ATOM     54  C   UNL     1      -2.188   1.320  -4.005  1.00  0.00     0.074 A 
ATOM     55  C   UNL     1      -1.501   0.652  -5.071  1.00  0.00     0.031 C 
ATOM     56  C   UNL     1      -0.286   3.758   0.055  1.00  0.00     0.029 A 
ATOM     57  C   UNL     1       0.815   4.709  -0.125  1.00  0.00     0.049 A 
ATOM     58  H   UNL     1       2.107   4.510  -1.672  1.00  0.00     0.167 HD
ATOM     59  C   UNL     1      -3.025   0.848  -3.034  1.00  0.00     0.037 A 
ATOM     60  C   UNL     1       1.032   6.028   0.301  1.00  0.00     0.037 A 
ATOM     61  C   UNL     1      -3.308   1.867  -1.968  1.00  0.00     0.049 A 
ATOM     62  C   UNL     1      -0.302   6.608  -0.097  1.00  0.00     0.074 A 
ATOM     63  C   UNL     1      -3.496   1.796  -0.596  1.00  0.00     0.029 A 
ATOM     64  N   UNL     1      -3.238   3.266  -2.236  1.00  0.00    -0.354 N 
ATOM     65  N   UNL     1      -1.053   5.998  -0.984  1.00  0.00    -0.248 NA
ATOM     66  C   UNL     1      -0.993   7.706   0.562  1.00  0.00     0.031 C 
ATOM     67  C   UNL     1      -3.414   3.114  -0.047  1.00  0.00     0.029 A 
ATOM     68  C   UNL     1      -3.250   4.037  -1.077  1.00  0.00     0.049 A 
ATOM     69  H   UNL     1      -3.187   3.645  -3.143  1.00  0.00     0.167 HD
ATOM     70  C   UNL     1      -2.341   6.316  -0.734  1.00  0.00     0.074 A 
ATOM     71  C   UNL     1      -2.250   7.504   0.115  1.00  0.00     0.031 C 
ATOM     72  C   UNL     1      -3.392   5.511  -1.072  1.00  0.00     0.037 A 
BRANCH  59  73
ATOM     73  C   UNL     1      -3.324  -0.681  -2.956  1.00  0.00     0.058 A 
ATOM     74  C   UNL     1      -4.359  -1.186  -2.148  1.00  0.00     0.135 A 
ATOM     75  C   UNL     1      -2.590  -1.718  -3.614  1.00  0.00     0.135 A 
ATOM     76  F   UNL     1      -5.104  -0.364  -1.398  1.00  0.00    -0.206 F 
ATOM     77  C   UNL     1      -4.677  -2.558  -2.064  1.00  0.00     0.059 A 
ATOM     78  C   UNL     1      -2.942  -3.068  -3.619  1.00  0.00     0.059 A 
ATOM     79  F   UNL     1      -1.428  -1.521  -4.244  1.00  0.00    -0.206 F 
ATOM     80  C   UNL     1      -3.989  -3.489  -2.835  1.00  0.00     0.060 A 
BRANCH  80  81
ATOM     81  S   UNL     1      -4.459  -5.229  -2.845  1.00  0.00     0.124 S 
ATOM     82  O   UNL     1      -3.946  -5.685  -1.558  1.00  0.00    -0.237 OA
ATOM     83  O   UNL     1      -5.910  -5.158  -2.969  1.00  0.00    -0.237 OA
ATOM     84  O   UNL     1      -3.766  -5.761  -4.017  1.00  0.00    -0.744 OA
ENDBRANCH  80  81
ENDBRANCH  59  73
BRANCH  60  85
ATOM     85  C   UNL     1       2.389   6.909   0.519  1.00  0.00     0.058 A 
ATOM     86  C   UNL     1       3.193   6.757   1.689  1.00  0.00     0.135 A 
ATOM     87  C   UNL     1       3.068   7.722  -0.427  1.00  0.00     0.135 A 
ATOM     88  F   UNL     1       2.666   6.152   2.768  1.00  0.00    -0.206 F 
ATOM     89  C   UNL     1       4.617   7.043   1.759  1.00  0.00     0.059 A 
ATOM     90  C   UNL     1       4.495   8.004  -0.390  1.00  0.00     0.059 A 
ATOM     91  F   UNL     1       2.405   8.176  -1.503  1.00  0.00    -0.206 F 
ATOM     92  C   UNL     1       5.294   7.554   0.658  1.00  0.00     0.060 A 
BRANCH  92  93
ATOM     93  S   UNL     1       7.153   7.462   0.549  1.00  0.00     0.124 S 
ATOM     94  O   UNL     1       7.568   8.831   0.826  1.00  0.00    -0.237 OA
ATOM     95  O   UNL     1       7.522   6.478   1.565  1.00  0.00    -0.237 OA
ATOM     96  O   UNL     1       7.437   7.010  -0.805  1.00  0.00    -0.744 OA
ENDBRANCH  92  93
ENDBRANCH  60  85
BRANCH  72  97
ATOM     97  C   UNL     1      -4.761   6.071  -1.258  1.00  0.00     0.058 A 
ATOM     98  C   UNL     1      -4.990   7.399  -1.655  1.00  0.00     0.135 A 
ATOM     99  C   UNL     1      -5.874   5.205  -1.270  1.00  0.00     0.135 A 
ATOM    100  F   UNL     1      -3.992   8.290  -1.762  1.00  0.00    -0.206 F 
ATOM    101  C   UNL     1      -6.254   7.844  -2.011  1.00  0.00     0.059 A 
ATOM    102  C   UNL     1      -7.122   5.611  -1.688  1.00  0.00     0.059 A 
ATOM    103  F   UNL     1      -5.795   3.917  -0.916  1.00  0.00    -0.206 F 
ATOM    104  C   UNL     1      -7.306   6.934  -2.044  1.00  0.00     0.060 A 
BRANCH 104 105
ATOM    105  S   UNL     1      -8.914   7.453  -2.629  1.00  0.00     0.124 S 
ATOM    106  O   UNL     1      -9.497   7.995  -1.407  1.00  0.00    -0.237 OA
ATOM    107  O   UNL     1      -8.575   8.428  -3.661  1.00  0.00    -0.237 OA
ATOM    108  O   UNL     1      -9.506   6.212  -3.120  1.00  0.00    -0.744 OA
ENDBRANCH 104 105
ENDBRANCH  72  97
ENDBRANCH  46  47
ENDBRANCH  39  41
ENDBRANCH  38  39
ENDBRANCH  37  38
ENDBRANCH  36  37
ENDBRANCH  35  36
ENDBRANCH  34  35
ENDBRANCH   1  34
TORSDOF 24
