REMARK SMILES Cc1ccc(NS(=O)(=O)c2cc(C(=O)OCCOCCOCCOC(=O)c3ccc(-c4c5nc(c(-c6c(F)cc(S(=O)(=O)[O-])cc6F)c6ccc([nH]6)c(-c6c(F)cc(S(=O)(=O)[O-])cc6F)c6nc(c(-c7c(F)cc(S(=O)(=O)[O-])cc7F)c7ccc4[nH]7)C=C6)C=C5)cc3)ccc2Cl)nc1
REMARK SMILES IDX 19 1 18 2 17 3 16 4 15 5 13 6 14 7 12 8 10 9 11 10 95 11
REMARK SMILES IDX 94 12 96 13 93 14 7 15 8 16 9 17 6 18 5 20 1 21 2 22 3 23
REMARK SMILES IDX 98 24 4 25 97 26 20 27 21 28 22 29 23 30 24 31 25 32 26 33
REMARK SMILES IDX 27 34 28 35 92 36 29 37 91 38 30 39 31 40 32 41 85 42 33 43
REMARK SMILES IDX 90 44 84 45 86 46 34 47 89 48 83 49 82 50 35 52 69 53 48 54
REMARK SMILES IDX 68 55 49 56 52 57 67 58 87 59 50 60 51 61 66 63 88 64 53 65
REMARK SMILES IDX 36 66 37 67 46 68 38 69 39 70 45 71 47 72 40 73 41 74 42 75
REMARK SMILES IDX 43 76 44 77 70 78 71 79 80 80 72 81 73 82 79 83 81 84 74 85
REMARK SMILES IDX 75 86 76 87 77 88 78 89 54 90 55 91 64 92 56 93 57 94 63 95
REMARK SMILES IDX 65 96 58 97 59 98 60 99 61 100 62 101
REMARK H PARENT 6 19 86 51 52 62
REMARK Flexibility Score: inf
ROOT
ATOM      1  C   UNL     1      -4.360  -7.194   1.601  1.00  0.00     0.188 C 
ENDROOT
BRANCH   1   2
ATOM      2  O   UNL     1      -4.600  -8.578   1.501  1.00  0.00    -0.376 OA
BRANCH   2   3
ATOM      3  C   UNL     1      -4.002  -9.359   0.484  1.00  0.00     0.202 C 
BRANCH   3   4
ATOM      4  C   UNL     1      -3.066  -8.859  -0.633  1.00  0.00     0.261 C 
BRANCH   4   5
ATOM      5  O   UNL     1      -2.506  -7.551  -0.529  1.00  0.00    -0.460 OA
BRANCH   5   6
ATOM      6  C   UNL     1      -3.137  -6.607  -1.262  1.00  0.00     0.338 C 
ATOM      7  O   UNL     1      -4.139  -6.758  -1.947  1.00  0.00    -0.246 OA
BRANCH   6   8
ATOM      8  C   UNL     1      -2.502  -5.292  -1.069  1.00  0.00     0.061 A 
ATOM      9  C   UNL     1      -2.760  -2.886  -0.867  1.00  0.00     0.107 A 
ATOM     10  C   UNL     1      -3.308  -4.178  -0.814  1.00  0.00     0.039 A 
ATOM     11  C   UNL     1      -1.461  -2.735  -1.337  1.00  0.00     0.061 A 
ATOM     12  C   UNL     1      -0.614  -3.853  -1.393  1.00  0.00     0.023 A 
ATOM     13  Cl  UNL     1      -0.895  -1.332  -2.175  1.00  0.00    -0.083 Cl
ATOM     14  C   UNL     1      -1.127  -5.138  -1.226  1.00  0.00     0.017 A 
BRANCH   9  15
ATOM     15  S   UNL     1      -3.758  -1.612  -0.135  1.00  0.00     0.264 S 
ATOM     16  O   UNL     1      -4.036  -2.043   1.221  1.00  0.00    -0.201 OA
ATOM     17  O   UNL     1      -4.849  -1.409  -1.068  1.00  0.00    -0.201 OA
BRANCH  15  18
ATOM     18  N   UNL     1      -2.980  -0.157  -0.087  1.00  0.00    -0.263 N 
ATOM     19  H   UNL     1      -3.428   0.607  -0.517  1.00  0.00     0.182 HD
BRANCH  18  20
ATOM     20  C   UNL     1      -1.734   0.086   0.513  1.00  0.00     0.139 A 
ATOM     21  C   UNL     1       2.474   0.129   0.430  1.00  0.00     0.046 C 
ATOM     22  C   UNL     1       0.996   0.224   0.646  1.00  0.00    -0.033 A 
ATOM     23  C   UNL     1       0.278   1.347   0.241  1.00  0.00     0.009 A 
ATOM     24  C   UNL     1       0.268  -0.872   1.096  1.00  0.00     0.117 A 
ATOM     25  C   UNL     1      -1.113   1.288   0.192  1.00  0.00     0.048 A 
ATOM     26  N   UNL     1      -1.081  -0.966   1.032  1.00  0.00    -0.238 NA
ENDBRANCH  18  20
ENDBRANCH  15  18
ENDBRANCH   9  15
ENDBRANCH   6   8
ENDBRANCH   5   6
ENDBRANCH   4   5
ENDBRANCH   3   4
ENDBRANCH   2   3
ENDBRANCH   1   2
BRANCH   1  27
ATOM     27  C   UNL     1      -3.019  -6.770   2.231  1.00  0.00     0.188 C 
BRANCH  27  28
ATOM     28  O   UNL     1      -2.044  -7.759   2.496  1.00  0.00    -0.376 OA
BRANCH  28  29
ATOM     29  C   UNL     1      -2.317  -8.799   3.422  1.00  0.00     0.202 C 
BRANCH  29  30
ATOM     30  C   UNL     1      -3.342  -8.729   4.575  1.00  0.00     0.261 C 
BRANCH  30  31
ATOM     31  O   UNL     1      -4.447  -7.831   4.447  1.00  0.00    -0.460 OA
BRANCH  31  32
ATOM     32  C   UNL     1      -4.368  -6.693   5.182  1.00  0.00     0.338 C 
ATOM     33  O   UNL     1      -3.458  -6.355   5.918  1.00  0.00    -0.246 OA
BRANCH  32  34
ATOM     34  C   UNL     1      -5.502  -5.818   4.821  1.00  0.00     0.060 A 
ATOM     35  C   UNL     1      -5.245  -4.620   4.140  1.00  0.00     0.016 A 
ATOM     36  C   UNL     1      -6.806  -6.168   5.173  1.00  0.00     0.016 A 
ATOM     37  C   UNL     1      -6.294  -3.757   3.823  1.00  0.00     0.010 A 
ATOM     38  C   UNL     1      -7.852  -5.289   4.878  1.00  0.00     0.010 A 
ATOM     39  C   UNL     1      -7.598  -4.066   4.228  1.00  0.00    -0.014 A 
BRANCH  39  40
ATOM     40  C   UNL     1      -8.669  -3.044   4.130  1.00  0.00     0.031 A 
ATOM     41  C   UNL     1      -9.038  -2.269   5.365  1.00  0.00     0.074 A 
ATOM     42  C   UNL     1      -9.304  -2.807   2.969  1.00  0.00     0.049 A 
ATOM     43  N   UNL     1      -9.987  -1.387   5.543  1.00  0.00    -0.248 NA
ATOM     44  C   UNL     1      -8.231  -2.536   6.567  1.00  0.00     0.031 C 
ATOM     45  C   UNL     1      -9.008  -3.460   1.696  1.00  0.00     0.029 A 
ATOM     46  N   UNL     1     -10.344  -1.957   2.680  1.00  0.00    -0.354 N 
ATOM     47  C   UNL     1      -9.898  -1.000   6.875  1.00  0.00     0.074 A 
ATOM     48  C   UNL     1      -8.827  -1.771   7.468  1.00  0.00     0.031 C 
ATOM     49  C   UNL     1      -9.860  -3.000   0.763  1.00  0.00     0.029 A 
ATOM     50  C   UNL     1     -10.783  -2.048   1.381  1.00  0.00     0.049 A 
ATOM     51  H   UNL     1     -10.736  -1.342   3.340  1.00  0.00     0.167 HD
ATOM     52  C   UNL     1     -10.638  -0.081   7.540  1.00  0.00     0.037 A 
ATOM     53  C   UNL     1     -11.825  -1.450   0.768  1.00  0.00     0.037 A 
ATOM     54  C   UNL     1     -11.707   0.677   6.941  1.00  0.00     0.049 A 
ATOM     55  C   UNL     1     -12.683  -0.483   1.544  1.00  0.00     0.074 A 
ATOM     56  C   UNL     1     -12.504   1.647   7.523  1.00  0.00     0.029 A 
ATOM     57  N   UNL     1     -12.138   0.541   5.629  1.00  0.00    -0.354 N 
ATOM     58  N   UNL     1     -12.577  -0.104   2.797  1.00  0.00    -0.248 NA
ATOM     59  C   UNL     1     -13.800   0.144   0.823  1.00  0.00     0.031 C 
ATOM     60  C   UNL     1     -13.458   2.051   6.583  1.00  0.00     0.029 A 
ATOM     61  C   UNL     1     -13.211   1.385   5.392  1.00  0.00     0.049 A 
ATOM     62  H   UNL     1     -11.741  -0.067   4.964  1.00  0.00     0.167 HD
ATOM     63  C   UNL     1     -13.592   0.826   3.004  1.00  0.00     0.074 A 
ATOM     64  C   UNL     1     -14.297   0.958   1.746  1.00  0.00     0.031 C 
ATOM     65  C   UNL     1     -13.906   1.512   4.133  1.00  0.00     0.037 A 
BRANCH  52  66
ATOM     66  C   UNL     1     -10.339   0.123   9.002  1.00  0.00     0.058 A 
ATOM     67  C   UNL     1      -9.142   0.710   9.444  1.00  0.00     0.135 A 
ATOM     68  C   UNL     1     -11.271  -0.268   9.978  1.00  0.00     0.135 A 
ATOM     69  F   UNL     1      -8.207   1.090   8.559  1.00  0.00    -0.206 F 
ATOM     70  C   UNL     1      -8.861   0.862  10.799  1.00  0.00     0.059 A 
ATOM     71  C   UNL     1     -11.027  -0.094  11.337  1.00  0.00     0.059 A 
ATOM     72  F   UNL     1     -12.434  -0.833   9.615  1.00  0.00    -0.206 F 
ATOM     73  C   UNL     1      -9.810   0.454  11.738  1.00  0.00     0.060 A 
BRANCH  73  74
ATOM     74  S   UNL     1      -9.425   0.644  13.492  1.00  0.00     0.124 S 
ATOM     75  O   UNL     1      -8.406  -0.384  13.680  1.00  0.00    -0.237 OA
ATOM     76  O   UNL     1      -8.953   2.024  13.559  1.00  0.00    -0.237 OA
ATOM     77  O   UNL     1     -10.702   0.389  14.151  1.00  0.00    -0.744 OA
ENDBRANCH  73  74
ENDBRANCH  52  66
BRANCH  53  78
ATOM     78  C   UNL     1     -12.118  -1.760  -0.658  1.00  0.00     0.058 A 
ATOM     79  C   UNL     1     -11.927  -0.802  -1.665  1.00  0.00     0.135 A 
ATOM     80  C   UNL     1     -12.578  -3.029  -1.046  1.00  0.00     0.135 A 
ATOM     81  F   UNL     1     -11.509   0.432  -1.346  1.00  0.00    -0.206 F 
ATOM     82  C   UNL     1     -12.182  -1.089  -3.003  1.00  0.00     0.059 A 
ATOM     83  C   UNL     1     -12.813  -3.349  -2.379  1.00  0.00     0.059 A 
ATOM     84  F   UNL     1     -12.776  -3.983  -0.122  1.00  0.00    -0.206 F 
ATOM     85  C   UNL     1     -12.617  -2.369  -3.351  1.00  0.00     0.060 A 
BRANCH  85  86
ATOM     86  S   UNL     1     -12.883  -2.747  -5.098  1.00  0.00     0.124 S 
ATOM     87  O   UNL     1     -14.078  -1.964  -5.391  1.00  0.00    -0.237 OA
ATOM     88  O   UNL     1     -11.644  -2.272  -5.706  1.00  0.00    -0.237 OA
ATOM     89  O   UNL     1     -13.061  -4.196  -5.106  1.00  0.00    -0.744 OA
ENDBRANCH  85  86
ENDBRANCH  53  78
BRANCH  65  90
ATOM     90  C   UNL     1     -15.039   2.504   4.057  1.00  0.00     0.058 A 
ATOM     91  C   UNL     1     -16.378   2.100   3.943  1.00  0.00     0.135 A 
ATOM     92  C   UNL     1     -14.781   3.882   4.165  1.00  0.00     0.135 A 
ATOM     93  F   UNL     1     -16.684   0.797   3.832  1.00  0.00    -0.206 F 
ATOM     94  C   UNL     1     -17.418   3.025   3.913  1.00  0.00     0.059 A 
ATOM     95  C   UNL     1     -15.807   4.822   4.169  1.00  0.00     0.059 A 
ATOM     96  F   UNL     1     -13.520   4.327   4.288  1.00  0.00    -0.206 F 
ATOM     97  C   UNL     1     -17.123   4.384   4.031  1.00  0.00     0.060 A 
BRANCH  97  98
ATOM     98  S   UNL     1     -18.484   5.571   4.026  1.00  0.00     0.124 S 
ATOM     99  O   UNL     1     -18.910   5.526   2.631  1.00  0.00    -0.237 OA
ATOM    100  O   UNL     1     -19.411   4.986   4.991  1.00  0.00    -0.237 OA
ATOM    101  O   UNL     1     -17.853   6.817   4.449  1.00  0.00    -0.744 OA
ENDBRANCH  97  98
ENDBRANCH  65  90
ENDBRANCH  39  40
ENDBRANCH  32  34
ENDBRANCH  31  32
ENDBRANCH  30  31
ENDBRANCH  29  30
ENDBRANCH  28  29
ENDBRANCH  27  28
ENDBRANCH   1  27
TORSDOF 23
