REMARK SMILES COc1cc(NC[C@@H](CC(C)C)C(=O)OCCOCCOCCOC(=O)c2ccc(-c3c4nc(c(-c5c(F)cc(S(=O)(=O)[O-])cc5F)c5ccc([nH]5)c(-c5c(F)cc(S(=O)(=O)[O-])cc5F)c5nc(c(-c6c(F)cc(S(=O)(=O)[O-])cc6F)c6ccc3[nH]6)C=C5)C=C4)cc2)nc(C)n1
REMARK SMILES IDX 19 1 18 2 17 3 16 4 15 5 13 6 14 7 8 8 7 9 6 10 5 12 3 13
REMARK SMILES IDX 4 14 96 15 94 16 93 17 95 18 2 19 1 20 9 21 10 22 11 23
REMARK SMILES IDX 12 24 20 25 21 26 22 27 23 28 24 29 25 30 26 31 27 32 28 33
REMARK SMILES IDX 92 34 29 35 91 36 30 37 31 38 32 39 85 40 33 41 90 42 84 43
REMARK SMILES IDX 86 44 34 45 89 46 83 47 82 48 35 50 69 51 48 52 68 53 49 54
REMARK SMILES IDX 52 55 67 56 87 57 50 58 51 59 66 61 88 62 53 63 36 64 37 65
REMARK SMILES IDX 46 66 38 67 39 68 45 69 47 70 40 71 41 72 42 73 43 74 44 75
REMARK SMILES IDX 70 76 71 77 80 78 72 79 73 80 79 81 81 82 74 83 75 84 76 85
REMARK SMILES IDX 77 86 78 87 54 88 55 89 64 90 56 91 57 92 63 93 65 94 58 95
REMARK SMILES IDX 59 96 60 97 61 98 62 99
REMARK H PARENT 6 11 86 49 52 60
REMARK Flexibility Score: inf
ROOT
ATOM      1  C   UNL     1       7.326  -0.590  -1.226  1.00  0.00     0.188 C 
ENDROOT
BRANCH   1   2
ATOM      2  O   UNL     1       8.692  -0.614  -0.841  1.00  0.00    -0.376 OA
BRANCH   2   3
ATOM      3  C   UNL     1       9.236   0.616  -0.370  1.00  0.00     0.202 C 
BRANCH   3   4
ATOM      4  C   UNL     1       9.132   1.819  -1.318  1.00  0.00     0.261 C 
BRANCH   4   5
ATOM      5  O   UNL     1       7.785   2.260  -1.636  1.00  0.00    -0.463 OA
BRANCH   5   6
ATOM      6  C   UNL     1       7.465   2.239  -2.958  1.00  0.00     0.310 C 
ATOM      7  O   UNL     1       8.180   1.744  -3.825  1.00  0.00    -0.252 OA
BRANCH   6   8
ATOM      8  C   UNL     1       6.185   2.973  -3.333  1.00  0.00     0.118 C 
BRANCH   8   9
ATOM      9  C   UNL     1       5.116   3.166  -2.246  1.00  0.00     0.129 C 
BRANCH   9  10
ATOM     10  N   UNL     1       3.860   3.631  -2.837  1.00  0.00    -0.369 N 
ATOM     11  H   UNL     1       3.933   4.467  -3.352  1.00  0.00     0.162 HD
BRANCH  10  12
ATOM     12  C   UNL     1       2.598   3.097  -2.792  1.00  0.00     0.133 A 
ATOM     13  C   UNL     1       0.922   1.585  -2.147  1.00  0.00     0.218 A 
ATOM     14  C   UNL     1       2.224   2.028  -2.015  1.00  0.00     0.115 A 
ATOM     15  N   UNL     1       0.021   2.150  -2.954  1.00  0.00    -0.199 NA
ATOM     16  C   UNL     1       0.452   3.202  -3.653  1.00  0.00     0.131 A 
ATOM     17  N   UNL     1       1.707   3.701  -3.602  1.00  0.00    -0.216 NA
ATOM     18  C   UNL     1      -0.546   3.853  -4.560  1.00  0.00     0.090 C 
BRANCH  13  19
ATOM     19  O   UNL     1       0.499   0.421  -1.562  1.00  0.00    -0.481 OA
ATOM     20  C   UNL     1       0.407   0.543  -0.150  1.00  0.00     0.280 C 
ENDBRANCH  13  19
ENDBRANCH  10  12
ENDBRANCH   9  10
ENDBRANCH   8   9
BRANCH   8  21
ATOM     21  C   UNL     1       6.590   4.245  -4.110  1.00  0.00     0.020 C 
BRANCH  21  22
ATOM     22  C   UNL     1       7.088   5.479  -3.323  1.00  0.00    -0.017 C 
ATOM     23  C   UNL     1       8.190   5.201  -2.301  1.00  0.00     0.007 C 
ATOM     24  C   UNL     1       7.609   6.516  -4.326  1.00  0.00     0.007 C 
ENDBRANCH  21  22
ENDBRANCH   8  21
ENDBRANCH   6   8
ENDBRANCH   5   6
ENDBRANCH   4   5
ENDBRANCH   3   4
ENDBRANCH   2   3
ENDBRANCH   1   2
BRANCH   1  25
ATOM     25  C   UNL     1       6.336  -0.218  -0.123  1.00  0.00     0.188 C 
BRANCH  25  26
ATOM     26  O   UNL     1       6.704   0.870   0.717  1.00  0.00    -0.376 OA
BRANCH  26  27
ATOM     27  C   UNL     1       5.830   1.130   1.820  1.00  0.00     0.202 C 
BRANCH  27  28
ATOM     28  C   UNL     1       5.594  -0.051   2.791  1.00  0.00     0.261 C 
BRANCH  28  29
ATOM     29  O   UNL     1       4.938  -1.204   2.219  1.00  0.00    -0.460 OA
BRANCH  29  30
ATOM     30  C   UNL     1       3.791  -0.975   1.540  1.00  0.00     0.338 C 
ATOM     31  O   UNL     1       3.125   0.044   1.606  1.00  0.00    -0.246 OA
BRANCH  30  32
ATOM     32  C   UNL     1       3.635  -2.018   0.489  1.00  0.00     0.060 A 
ATOM     33  C   UNL     1       3.287  -1.617  -0.811  1.00  0.00     0.016 A 
ATOM     34  C   UNL     1       3.901  -3.362   0.742  1.00  0.00     0.016 A 
ATOM     35  C   UNL     1       3.165  -2.544  -1.848  1.00  0.00     0.010 A 
ATOM     36  C   UNL     1       3.759  -4.298  -0.289  1.00  0.00     0.010 A 
ATOM     37  C   UNL     1       3.361  -3.899  -1.580  1.00  0.00    -0.014 A 
BRANCH  37  38
ATOM     38  C   UNL     1       2.918  -4.931  -2.547  1.00  0.00     0.031 A 
ATOM     39  C   UNL     1       1.562  -5.542  -2.326  1.00  0.00     0.074 A 
ATOM     40  C   UNL     1       3.685  -5.342  -3.573  1.00  0.00     0.049 A 
ATOM     41  N   UNL     1       1.038  -6.617  -2.848  1.00  0.00    -0.248 NA
ATOM     42  C   UNL     1       0.686  -4.844  -1.369  1.00  0.00     0.031 C 
ATOM     43  C   UNL     1       4.968  -4.765  -3.963  1.00  0.00     0.029 A 
ATOM     44  N   UNL     1       3.494  -6.373  -4.461  1.00  0.00    -0.354 N 
ATOM     45  C   UNL     1      -0.211  -6.749  -2.255  1.00  0.00     0.074 A 
ATOM     46  C   UNL     1      -0.366  -5.645  -1.333  1.00  0.00     0.031 C 
ATOM     47  C   UNL     1       5.467  -5.473  -4.994  1.00  0.00     0.029 A 
ATOM     48  C   UNL     1       4.566  -6.585  -5.296  1.00  0.00     0.049 A 
ATOM     49  H   UNL     1       2.669  -6.909  -4.497  1.00  0.00     0.167 HD
ATOM     50  C   UNL     1      -1.140  -7.711  -2.454  1.00  0.00     0.037 A 
ATOM     51  C   UNL     1       4.810  -7.590  -6.164  1.00  0.00     0.037 A 
ATOM     52  C   UNL     1      -0.982  -8.796  -3.382  1.00  0.00     0.049 A 
ATOM     53  C   UNL     1       3.798  -8.702  -6.314  1.00  0.00     0.074 A 
ATOM     54  C   UNL     1      -1.855  -9.836  -3.646  1.00  0.00     0.029 A 
ATOM     55  N   UNL     1       0.121  -8.979  -4.202  1.00  0.00    -0.354 N 
ATOM     56  N   UNL     1       2.641  -8.852  -5.713  1.00  0.00    -0.248 NA
ATOM     57  C   UNL     1       4.129  -9.789  -7.249  1.00  0.00     0.031 C 
ATOM     58  C   UNL     1      -1.262 -10.670  -4.598  1.00  0.00     0.029 A 
ATOM     59  C   UNL     1      -0.043 -10.120  -4.965  1.00  0.00     0.049 A 
ATOM     60  H   UNL     1       0.905  -8.384  -4.235  1.00  0.00     0.167 HD
ATOM     61  C   UNL     1       2.090 -10.023  -6.228  1.00  0.00     0.074 A 
ATOM     62  C   UNL     1       3.043 -10.548  -7.182  1.00  0.00     0.031 C 
ATOM     63  C   UNL     1       0.900 -10.607  -5.941  1.00  0.00     0.037 A 
BRANCH  50  64
ATOM     64  C   UNL     1      -2.381  -7.657  -1.612  1.00  0.00     0.058 A 
ATOM     65  C   UNL     1      -3.379  -6.692  -1.817  1.00  0.00     0.135 A 
ATOM     66  C   UNL     1      -2.577  -8.597  -0.587  1.00  0.00     0.135 A 
ATOM     67  F   UNL     1      -3.227  -5.755  -2.767  1.00  0.00    -0.206 F 
ATOM     68  C   UNL     1      -4.516  -6.643  -1.018  1.00  0.00     0.059 A 
ATOM     69  C   UNL     1      -3.719  -8.585   0.206  1.00  0.00     0.059 A 
ATOM     70  F   UNL     1      -1.649  -9.536  -0.343  1.00  0.00    -0.206 F 
ATOM     71  C   UNL     1      -4.676  -7.593  -0.007  1.00  0.00     0.060 A 
BRANCH  71  72
ATOM     72  S   UNL     1      -6.154  -7.517   1.025  1.00  0.00     0.124 S 
ATOM     73  O   UNL     1      -5.862  -6.360   1.866  1.00  0.00    -0.237 OA
ATOM     74  O   UNL     1      -7.215  -7.333   0.040  1.00  0.00    -0.237 OA
ATOM     75  O   UNL     1      -6.156  -8.805   1.712  1.00  0.00    -0.744 OA
ENDBRANCH  71  72
ENDBRANCH  50  64
BRANCH  51  76
ATOM     76  C   UNL     1       6.085  -7.624  -6.933  1.00  0.00     0.058 A 
ATOM     77  C   UNL     1       6.098  -7.445  -8.324  1.00  0.00     0.135 A 
ATOM     78  C   UNL     1       7.314  -7.856  -6.295  1.00  0.00     0.135 A 
ATOM     79  F   UNL     1       4.948  -7.239  -8.984  1.00  0.00    -0.206 F 
ATOM     80  C   UNL     1       7.280  -7.508  -9.058  1.00  0.00     0.059 A 
ATOM     81  C   UNL     1       8.512  -7.897  -7.003  1.00  0.00     0.059 A 
ATOM     82  F   UNL     1       7.360  -8.034  -4.965  1.00  0.00    -0.206 F 
ATOM     83  C   UNL     1       8.483  -7.732  -8.387  1.00  0.00     0.060 A 
BRANCH  83  84
ATOM     84  S   UNL     1      10.015  -7.772  -9.343  1.00  0.00     0.124 S 
ATOM     85  O   UNL     1       9.905  -9.058 -10.022  1.00  0.00    -0.237 OA
ATOM     86  O   UNL     1       9.880  -6.590 -10.189  1.00  0.00    -0.237 OA
ATOM     87  O   UNL     1      11.052  -7.686  -8.319  1.00  0.00    -0.744 OA
ENDBRANCH  83  84
ENDBRANCH  51  76
BRANCH  63  88
ATOM     88  C   UNL     1       0.507 -11.837  -6.711  1.00  0.00     0.058 A 
ATOM     89  C   UNL     1       1.061 -13.095  -6.436  1.00  0.00     0.135 A 
ATOM     90  C   UNL     1      -0.529 -11.768  -7.658  1.00  0.00     0.135 A 
ATOM     91  F   UNL     1       2.056 -13.216  -5.542  1.00  0.00    -0.206 F 
ATOM     92  C   UNL     1       0.602 -14.244  -7.073  1.00  0.00     0.059 A 
ATOM     93  C   UNL     1      -1.019 -12.905  -8.290  1.00  0.00     0.059 A 
ATOM     94  F   UNL     1      -1.100 -10.588  -7.949  1.00  0.00    -0.206 F 
ATOM     95  C   UNL     1      -0.446 -14.140  -7.992  1.00  0.00     0.060 A 
BRANCH  95  96
ATOM     96  S   UNL     1      -1.088 -15.648  -8.751  1.00  0.00     0.124 S 
ATOM     97  O   UNL     1      -0.028 -15.975  -9.699  1.00  0.00    -0.237 OA
ATOM     98  O   UNL     1      -1.214 -16.546  -7.607  1.00  0.00    -0.237 OA
ATOM     99  O   UNL     1      -2.350 -15.220  -9.345  1.00  0.00    -0.744 OA
ENDBRANCH  95  96
ENDBRANCH  63  88
ENDBRANCH  37  38
ENDBRANCH  30  32
ENDBRANCH  29  30
ENDBRANCH  28  29
ENDBRANCH  27  28
ENDBRANCH  26  27
ENDBRANCH  25  26
ENDBRANCH   1  25
TORSDOF 26
