REMARK SMILES NS(=O)(=O)c1ccc(/N=N/c2ccc(O)c(C(=O)OCCOCCOCCOC(=O)c3ccc(-c4c5nc(c(-c6c(F)cc(S(=O)(=O)[O-])cc6F)c6ccc([nH]6)c(-c6c(F)cc(S(=O)(=O)[O-])cc6F)c6nc(c(-c7c(F)cc(S(=O)(=O)[O-])cc7F)c7ccc4[nH]7)C=C6)C=C5)cc3)c2)cc1
REMARK SMILES IDX 23 1 22 2 21 3 20 4 19 5 17 6 18 7 16 8 11 9 12 10 97 11
REMARK SMILES IDX 13 12 14 13 10 14 9 15 8 16 5 17 6 18 99 19 7 20 98 21 2 22
REMARK SMILES IDX 3 23 4 24 1 25 15 28 24 30 25 31 26 32 27 33 28 34 29 35
REMARK SMILES IDX 30 36 31 37 32 38 96 39 33 40 95 41 34 42 35 43 36 44 89 45
REMARK SMILES IDX 37 46 94 47 88 48 90 49 38 50 93 51 87 52 86 53 39 55 73 56
REMARK SMILES IDX 52 57 72 58 53 59 56 60 71 61 91 62 54 63 55 64 70 66 92 67
REMARK SMILES IDX 57 68 40 69 41 70 50 71 42 72 43 73 49 74 51 75 44 76 45 77
REMARK SMILES IDX 46 78 47 79 48 80 74 81 75 82 84 83 76 84 77 85 83 86 85 87
REMARK SMILES IDX 78 88 79 89 80 90 81 91 82 92 58 93 59 94 68 95 60 96 61 97
REMARK SMILES IDX 67 98 69 99 62 100 63 101 64 102 65 103 66 104
REMARK H PARENT 1 26 1 27 15 29 90 54 56 65
REMARK Flexibility Score: inf
ROOT
ATOM      1  C   UNL     1       6.535  11.636   1.640  1.00  0.00     0.188 C 
ENDROOT
BRANCH   1   2
ATOM      2  O   UNL     1       7.710  11.561   2.424  1.00  0.00    -0.376 OA
BRANCH   2   3
ATOM      3  C   UNL     1       7.955  10.442   3.259  1.00  0.00     0.202 C 
BRANCH   3   4
ATOM      4  C   UNL     1       6.853   9.741   4.071  1.00  0.00     0.261 C 
BRANCH   4   5
ATOM      5  O   UNL     1       5.621   9.486   3.384  1.00  0.00    -0.460 OA
BRANCH   5   6
ATOM      6  C   UNL     1       4.560  10.217   3.809  1.00  0.00     0.342 C 
ATOM      7  O   UNL     1       4.549  11.039   4.712  1.00  0.00    -0.246 OA
BRANCH   6   8
ATOM      8  C   UNL     1       3.433  10.091   2.865  1.00  0.00     0.104 A 
ATOM      9  C   UNL     1       2.079   8.778   1.328  1.00  0.00     0.087 A 
ATOM     10  C   UNL     1       1.410   9.952   0.953  1.00  0.00     0.034 A 
ATOM     11  C   UNL     1       3.103   8.860   2.285  1.00  0.00     0.049 A 
ATOM     12  C   UNL     1       1.744  11.184   1.520  1.00  0.00     0.049 A 
ATOM     13  C   UNL     1       2.748  11.250   2.478  1.00  0.00     0.130 A 
BRANCH   9  14
ATOM     14  N   UNL     1       1.741   7.583   0.660  1.00  0.00    -0.151 NA
ATOM     15  N   UNL     1       1.807   6.587   1.408  1.00  0.00    -0.151 NA
BRANCH  15  16
ATOM     16  C   UNL     1       1.510   5.373   0.752  1.00  0.00     0.086 A 
ATOM     17  C   UNL     1       0.947   2.859  -0.383  1.00  0.00     0.082 A 
ATOM     18  C   UNL     1       1.536   2.933   0.879  1.00  0.00     0.024 A 
ATOM     19  C   UNL     1       0.641   4.025  -1.089  1.00  0.00     0.024 A 
ATOM     20  C   UNL     1       1.812   4.186   1.436  1.00  0.00     0.031 A 
ATOM     21  C   UNL     1       0.919   5.273  -0.519  1.00  0.00     0.031 A 
BRANCH  17  22
ATOM     22  S   UNL     1       0.581   1.307  -1.142  1.00  0.00     0.238 S 
ATOM     23  O   UNL     1       1.308   1.226  -2.393  1.00  0.00    -0.207 OA
ATOM     24  O   UNL     1      -0.834   1.069  -1.044  1.00  0.00    -0.207 OA
BRANCH  22  25
ATOM     25  N   UNL     1       1.304   0.159  -0.147  1.00  0.00    -0.225 NA
ATOM     26  H   UNL     1       1.134  -0.774  -0.524  1.00  0.00     0.137 HD
ATOM     27  H   UNL     1       0.907   0.224   0.791  1.00  0.00     0.137 HD
ENDBRANCH  22  25
ENDBRANCH  17  22
ENDBRANCH  15  16
ENDBRANCH   9  14
BRANCH  13  28
ATOM     28  O   UNL     1       3.050  12.496   2.953  1.00  0.00    -0.507 OA
ATOM     29  H   UNL     1       2.561  13.240   2.662  1.00  0.00     0.293 HD
ENDBRANCH  13  28
ENDBRANCH   6   8
ENDBRANCH   5   6
ENDBRANCH   4   5
ENDBRANCH   3   4
ENDBRANCH   2   3
ENDBRANCH   1   2
BRANCH   1  30
ATOM     30  C   UNL     1       6.206  10.519   0.631  1.00  0.00     0.188 C 
BRANCH  30  31
ATOM     31  O   UNL     1       7.031   9.380   0.626  1.00  0.00    -0.376 OA
BRANCH  31  32
ATOM     32  C   UNL     1       8.296   9.413  -0.011  1.00  0.00     0.202 C 
BRANCH  32  33
ATOM     33  C   UNL     1       8.882  10.580  -0.834  1.00  0.00     0.261 C 
BRANCH  33  34
ATOM     34  O   UNL     1       8.242  11.855  -0.773  1.00  0.00    -0.460 OA
BRANCH  34  35
ATOM     35  C   UNL     1       7.492  12.186  -1.855  1.00  0.00     0.338 C 
ATOM     36  O   UNL     1       7.270  11.497  -2.835  1.00  0.00    -0.246 OA
BRANCH  35  37
ATOM     37  C   UNL     1       6.826  13.476  -1.592  1.00  0.00     0.060 A 
ATOM     38  C   UNL     1       5.435  13.496  -1.420  1.00  0.00     0.016 A 
ATOM     39  C   UNL     1       7.565  14.658  -1.549  1.00  0.00     0.016 A 
ATOM     40  C   UNL     1       4.775  14.709  -1.223  1.00  0.00     0.010 A 
ATOM     41  C   UNL     1       6.898  15.874  -1.373  1.00  0.00     0.010 A 
ATOM     42  C   UNL     1       5.498  15.909  -1.236  1.00  0.00    -0.014 A 
BRANCH  42  43
ATOM     43  C   UNL     1       4.783  17.210  -1.267  1.00  0.00     0.031 A 
ATOM     44  C   UNL     1       4.631  17.918  -2.586  1.00  0.00     0.074 A 
ATOM     45  C   UNL     1       4.278  17.755  -0.145  1.00  0.00     0.049 A 
ATOM     46  N   UNL     1       4.119  19.093  -2.844  1.00  0.00    -0.248 NA
ATOM     47  C   UNL     1       5.129  17.204  -3.773  1.00  0.00     0.031 C 
ATOM     48  C   UNL     1       4.324  17.148   1.184  1.00  0.00     0.029 A 
ATOM     49  N   UNL     1       3.639  18.954   0.054  1.00  0.00    -0.354 N 
ATOM     50  C   UNL     1       4.241  19.265  -4.219  1.00  0.00     0.074 A 
ATOM     51  C   UNL     1       4.902  18.086  -4.735  1.00  0.00     0.031 C 
ATOM     52  C   UNL     1       3.754  17.989   2.066  1.00  0.00     0.029 A 
ATOM     53  C   UNL     1       3.336  19.206   1.371  1.00  0.00     0.049 A 
ATOM     54  H   UNL     1       3.420  19.575  -0.678  1.00  0.00     0.167 HD
ATOM     55  C   UNL     1       3.832  20.307  -4.981  1.00  0.00     0.037 A 
ATOM     56  C   UNL     1       2.808  20.303   1.951  1.00  0.00     0.037 A 
ATOM     57  C   UNL     1       3.177  21.479  -4.459  1.00  0.00     0.049 A 
ATOM     58  C   UNL     1       2.428  21.483   1.092  1.00  0.00     0.074 A 
ATOM     59  C   UNL     1       2.708  22.581  -5.152  1.00  0.00     0.029 A 
ATOM     60  N   UNL     1       2.907  21.706  -3.117  1.00  0.00    -0.354 N 
ATOM     61  N   UNL     1       2.526  21.625  -0.209  1.00  0.00    -0.248 NA
ATOM     62  C   UNL     1       1.860  22.652   1.779  1.00  0.00     0.031 C 
ATOM     63  C   UNL     1       2.208  23.501  -4.224  1.00  0.00     0.029 A 
ATOM     64  C   UNL     1       2.304  22.944  -2.959  1.00  0.00     0.049 A 
ATOM     65  H   UNL     1       3.113  21.081  -2.386  1.00  0.00     0.167 HD
ATOM     66  C   UNL     1       2.002  22.883  -0.498  1.00  0.00     0.074 A 
ATOM     67  C   UNL     1       1.581  23.457   0.762  1.00  0.00     0.031 C 
ATOM     68  C   UNL     1       1.877  23.502  -1.699  1.00  0.00     0.037 A 
BRANCH  55  69
ATOM     69  C   UNL     1       4.109  20.242  -6.458  1.00  0.00     0.058 A 
ATOM     70  C   UNL     1       3.430  19.349  -7.303  1.00  0.00     0.135 A 
ATOM     71  C   UNL     1       5.043  21.113  -7.045  1.00  0.00     0.135 A 
ATOM     72  F   UNL     1       2.540  18.481  -6.795  1.00  0.00    -0.206 F 
ATOM     73  C   UNL     1       3.686  19.302  -8.670  1.00  0.00     0.059 A 
ATOM     74  C   UNL     1       5.292  21.105  -8.414  1.00  0.00     0.059 A 
ATOM     75  F   UNL     1       5.723  21.986  -6.285  1.00  0.00    -0.206 F 
ATOM     76  C   UNL     1       4.618  20.186  -9.216  1.00  0.00     0.060 A 
BRANCH  76  77
ATOM     77  S   UNL     1       4.932  20.118 -10.992  1.00  0.00     0.124 S 
ATOM     78  O   UNL     1       5.656  18.856 -11.113  1.00  0.00    -0.237 OA
ATOM     79  O   UNL     1       3.582  20.129 -11.547  1.00  0.00    -0.237 OA
ATOM     80  O   UNL     1       5.721  21.320 -11.246  1.00  0.00    -0.744 OA
ENDBRANCH  76  77
ENDBRANCH  55  69
BRANCH  56  81
ATOM     81  C   UNL     1       2.618  20.346   3.427  1.00  0.00     0.058 A 
ATOM     82  C   UNL     1       1.335  20.362   3.994  1.00  0.00     0.135 A 
ATOM     83  C   UNL     1       3.716  20.382   4.301  1.00  0.00     0.135 A 
ATOM     84  F   UNL     1       0.251  20.345   3.202  1.00  0.00    -0.206 F 
ATOM     85  C   UNL     1       1.146  20.426   5.371  1.00  0.00     0.059 A 
ATOM     86  C   UNL     1       3.553  20.417   5.683  1.00  0.00     0.059 A 
ATOM     87  F   UNL     1       4.966  20.364   3.812  1.00  0.00    -0.206 F 
ATOM     88  C   UNL     1       2.263  20.448   6.208  1.00  0.00     0.060 A 
BRANCH  88  89
ATOM     89  S   UNL     1       2.005  20.485   7.995  1.00  0.00     0.124 S 
ATOM     90  O   UNL     1       1.511  21.842   8.194  1.00  0.00    -0.237 OA
ATOM     91  O   UNL     1       1.029  19.416   8.185  1.00  0.00    -0.237 OA
ATOM     92  O   UNL     1       3.334  20.212   8.533  1.00  0.00    -0.744 OA
ENDBRANCH  88  89
ENDBRANCH  56  81
BRANCH  68  93
ATOM     93  C   UNL     1       1.215  24.855  -1.724  1.00  0.00     0.058 A 
ATOM     94  C   UNL     1       1.846  26.003  -1.218  1.00  0.00     0.135 A 
ATOM     95  C   UNL     1      -0.047  25.014  -2.321  1.00  0.00     0.135 A 
ATOM     96  F   UNL     1       3.050  25.909  -0.633  1.00  0.00    -0.206 F 
ATOM     97  C   UNL     1       1.239  27.254  -1.280  1.00  0.00     0.059 A 
ATOM     98  C   UNL     1      -0.659  26.260  -2.422  1.00  0.00     0.059 A 
ATOM     99  F   UNL     1      -0.692  23.954  -2.833  1.00  0.00    -0.206 F 
ATOM    100  C   UNL     1      -0.013  27.373  -1.888  1.00  0.00     0.060 A 
BRANCH 100 101
ATOM    101  S   UNL     1      -0.772  29.008  -1.994  1.00  0.00     0.124 S 
ATOM    102  O   UNL     1      -1.156  29.245  -0.606  1.00  0.00    -0.237 OA
ATOM    103  O   UNL     1       0.325  29.829  -2.497  1.00  0.00    -0.237 OA
ATOM    104  O   UNL     1      -1.878  28.811  -2.926  1.00  0.00    -0.744 OA
ENDBRANCH 100 101
ENDBRANCH  68  93
ENDBRANCH  42  43
ENDBRANCH  35  37
ENDBRANCH  34  35
ENDBRANCH  33  34
ENDBRANCH  32  33
ENDBRANCH  31  32
ENDBRANCH  30  31
ENDBRANCH   1  30
TORSDOF 25
