REMARK SMILES CC[NH2+][C@]1(C(=O)OCCOCCOCCOC(=O)c2ccc(-c3c4nc(c(-c5c(F)cc(S(=O)(=O)[O-])cc5F)c5ccc([nH]5)c(-c5c(F)cc(S(=O)(=O)[O-])cc5F)c5nc(c(-c6c(F)cc(S(=O)(=O)[O-])cc6F)c6ccc3[nH]6)C=C5)C=C4)cc2)CCC[C@@H]1CCSc1ccc(C)cc1
REMARK SMILES IDX 11 1 10 2 9 3 8 4 7 5 5 6 6 7 4 8 85 9 88 10 86 11 87 12
REMARK SMILES IDX 3 13 2 16 1 17 89 18 90 19 91 20 92 21 93 22 98 23 94 24
REMARK SMILES IDX 97 25 95 26 96 27 12 28 13 29 14 30 15 31 16 32 17 33 18 34
REMARK SMILES IDX 19 35 20 36 84 37 21 38 83 39 22 40 23 41 24 42 77 43 25 44
REMARK SMILES IDX 82 45 76 46 78 47 26 48 81 49 75 50 74 51 27 53 61 54 40 55
REMARK SMILES IDX 60 56 41 57 44 58 59 59 79 60 42 61 43 62 58 64 80 65 45 66
REMARK SMILES IDX 28 67 29 68 38 69 30 70 31 71 37 72 39 73 32 74 33 75 34 76
REMARK SMILES IDX 35 77 36 78 62 79 63 80 72 81 64 82 65 83 71 84 73 85 66 86
REMARK SMILES IDX 67 87 68 88 69 89 70 90 46 91 47 92 56 93 48 94 49 95 55 96
REMARK SMILES IDX 57 97 50 98 51 99 52 100 53 101 54 102
REMARK H PARENT 3 14 3 15 78 52 44 63
REMARK Flexibility Score: inf
ROOT
ATOM      1  C   UNL     1      -0.329  -0.570  -0.498  1.00  0.00     0.188 C 
ENDROOT
BRANCH   1   2
ATOM      2  O   UNL     1       0.898  -0.009  -0.941  1.00  0.00    -0.376 OA
BRANCH   2   3
ATOM      3  C   UNL     1       1.278   1.151  -0.223  1.00  0.00     0.202 C 
BRANCH   3   4
ATOM      4  C   UNL     1       2.161   0.825   0.962  1.00  0.00     0.261 C 
BRANCH   4   5
ATOM      5  O   UNL     1       1.658   0.142   2.140  1.00  0.00    -0.459 OA
BRANCH   5   6
ATOM      6  C   UNL     1       0.493   0.194   2.845  1.00  0.00     0.368 C 
ATOM      7  O   UNL     1      -0.540   0.683   2.409  1.00  0.00    -0.245 OA
BRANCH   6   8
ATOM      8  C   UNL     1       0.617  -0.661   4.188  1.00  0.00     0.197 C 
ATOM      9  C   UNL     1      -0.744  -1.305   4.483  1.00  0.00     0.081 C 
ATOM     10  C   UNL     1       1.505  -1.835   3.852  1.00  0.00     0.063 C 
ATOM     11  C   UNL     1      -0.403  -2.564   5.262  1.00  0.00     0.008 C 
ATOM     12  C   UNL     1       1.000  -2.986   4.768  1.00  0.00     0.011 C 
BRANCH   8  13
ATOM     13  N   UNL     1       1.110   0.036   5.415  1.00  0.00    -0.332 N 
ATOM     14  H   UNL     1       1.703   0.797   5.085  1.00  0.00     0.347 HD
ATOM     15  H   UNL     1       0.235   0.239   5.897  1.00  0.00     0.347 HD
BRANCH  13  16
ATOM     16  C   UNL     1       1.873  -0.639   6.473  1.00  0.00     0.257 C 
ATOM     17  C   UNL     1       2.736   0.306   7.309  1.00  0.00     0.071 C 
ENDBRANCH  13  16
ENDBRANCH   8  13
BRANCH  10  18
ATOM     18  C   UNL     1       3.011  -1.440   3.755  1.00  0.00     0.022 C 
BRANCH  18  19
ATOM     19  C   UNL     1       3.658   0.051   3.858  1.00  0.00     0.075 C 
BRANCH  19  20
ATOM     20  S   UNL     1       3.384   2.039   4.044  1.00  0.00    -0.126 SA
BRANCH  20  21
ATOM     21  C   UNL     1       1.693   2.665   4.147  1.00  0.00     0.007 A 
ATOM     22  C   UNL     1       1.018   2.777   5.366  1.00  0.00     0.015 A 
ATOM     23  C   UNL     1       1.016   3.195   3.041  1.00  0.00     0.015 A 
ATOM     24  C   UNL     1      -0.379   2.945   5.413  1.00  0.00     0.004 A 
ATOM     25  C   UNL     1      -0.375   3.416   3.079  1.00  0.00     0.004 A 
ATOM     26  C   UNL     1      -1.099   3.132   4.237  1.00  0.00    -0.051 A 
ATOM     27  C   UNL     1      -2.592   2.965   4.199  1.00  0.00     0.044 C 
ENDBRANCH  20  21
ENDBRANCH  19  20
ENDBRANCH  18  19
ENDBRANCH  10  18
ENDBRANCH   6   8
ENDBRANCH   5   6
ENDBRANCH   4   5
ENDBRANCH   3   4
ENDBRANCH   2   3
ENDBRANCH   1   2
BRANCH   1  28
ATOM     28  C   UNL     1      -0.113  -1.852   0.310  1.00  0.00     0.188 C 
BRANCH  28  29
ATOM     29  O   UNL     1       0.845  -2.803  -0.135  1.00  0.00    -0.376 OA
BRANCH  29  30
ATOM     30  C   UNL     1       0.915  -3.034  -1.534  1.00  0.00     0.202 C 
BRANCH  30  31
ATOM     31  C   UNL     1      -0.323  -3.670  -2.187  1.00  0.00     0.261 C 
BRANCH  31  32
ATOM     32  O   UNL     1      -1.526  -2.889  -2.026  1.00  0.00    -0.460 OA
BRANCH  32  33
ATOM     33  C   UNL     1      -2.465  -3.396  -1.185  1.00  0.00     0.338 C 
ATOM     34  O   UNL     1      -2.454  -4.504  -0.668  1.00  0.00    -0.246 OA
BRANCH  33  35
ATOM     35  C   UNL     1      -3.404  -2.322  -0.763  1.00  0.00     0.060 A 
ATOM     36  C   UNL     1      -3.632  -2.144   0.613  1.00  0.00     0.016 A 
ATOM     37  C   UNL     1      -4.060  -1.506  -1.685  1.00  0.00     0.016 A 
ATOM     38  C   UNL     1      -4.532  -1.179   1.070  1.00  0.00     0.010 A 
ATOM     39  C   UNL     1      -5.003  -0.574  -1.229  1.00  0.00     0.010 A 
ATOM     40  C   UNL     1      -5.272  -0.433   0.146  1.00  0.00    -0.014 A 
BRANCH  40  41
ATOM     41  C   UNL     1      -6.512   0.264   0.581  1.00  0.00     0.031 A 
ATOM     42  C   UNL     1      -7.788  -0.538   0.588  1.00  0.00     0.074 A 
ATOM     43  C   UNL     1      -6.534   1.558   0.948  1.00  0.00     0.049 A 
ATOM     44  N   UNL     1      -9.022  -0.140   0.756  1.00  0.00    -0.248 NA
ATOM     45  C   UNL     1      -7.649  -1.989   0.373  1.00  0.00     0.031 C 
ATOM     46  C   UNL     1      -5.367   2.427   1.075  1.00  0.00     0.029 A 
ATOM     47  N   UNL     1      -7.596   2.370   1.269  1.00  0.00    -0.354 N 
ATOM     48  C   UNL     1      -9.804  -1.284   0.647  1.00  0.00     0.074 A 
ATOM     49  C   UNL     1      -8.909  -2.392   0.400  1.00  0.00     0.031 C 
ATOM     50  C   UNL     1      -5.780   3.660   1.428  1.00  0.00     0.029 A 
ATOM     51  C   UNL     1      -7.242   3.679   1.504  1.00  0.00     0.049 A 
ATOM     52  H   UNL     1      -8.524   2.045   1.327  1.00  0.00     0.167 HD
ATOM     53  C   UNL     1     -11.149  -1.403   0.729  1.00  0.00     0.037 A 
ATOM     54  C   UNL     1      -8.013   4.767   1.713  1.00  0.00     0.037 A 
ATOM     55  C   UNL     1     -12.045  -0.302   0.950  1.00  0.00     0.049 A 
ATOM     56  C   UNL     1      -9.520   4.631   1.696  1.00  0.00     0.074 A 
ATOM     57  C   UNL     1     -13.427  -0.316   1.004  1.00  0.00     0.029 A 
ATOM     58  N   UNL     1     -11.647   1.011   1.146  1.00  0.00    -0.354 N 
ATOM     59  N   UNL     1     -10.252   3.551   1.555  1.00  0.00    -0.248 NA
ATOM     60  C   UNL     1     -10.306   5.867   1.846  1.00  0.00     0.031 C 
ATOM     61  C   UNL     1     -13.868   0.997   1.193  1.00  0.00     0.029 A 
ATOM     62  C   UNL     1     -12.758   1.820   1.306  1.00  0.00     0.049 A 
ATOM     63  H   UNL     1     -10.713   1.322   1.168  1.00  0.00     0.167 HD
ATOM     64  C   UNL     1     -11.578   3.974   1.628  1.00  0.00     0.074 A 
ATOM     65  C   UNL     1     -11.550   5.406   1.831  1.00  0.00     0.031 C 
ATOM     66  C   UNL     1     -12.715   3.242   1.534  1.00  0.00     0.037 A 
BRANCH  53  67
ATOM     67  C   UNL     1     -11.731  -2.771   0.523  1.00  0.00     0.058 A 
ATOM     68  C   UNL     1     -11.627  -3.772   1.500  1.00  0.00     0.135 A 
ATOM     69  C   UNL     1     -12.404  -3.082  -0.669  1.00  0.00     0.135 A 
ATOM     70  F   UNL     1     -10.969  -3.533   2.646  1.00  0.00    -0.206 F 
ATOM     71  C   UNL     1     -12.152  -5.043   1.294  1.00  0.00     0.059 A 
ATOM     72  C   UNL     1     -12.959  -4.338  -0.887  1.00  0.00     0.059 A 
ATOM     73  F   UNL     1     -12.521  -2.161  -1.639  1.00  0.00    -0.206 F 
ATOM     74  C   UNL     1     -12.814  -5.317   0.095  1.00  0.00     0.060 A 
BRANCH  74  75
ATOM     75  S   UNL     1     -13.486  -6.972  -0.161  1.00  0.00     0.124 S 
ATOM     76  O   UNL     1     -12.272  -7.744  -0.407  1.00  0.00    -0.237 OA
ATOM     77  O   UNL     1     -14.159  -7.236   1.107  1.00  0.00    -0.237 OA
ATOM     78  O   UNL     1     -14.368  -6.806  -1.313  1.00  0.00    -0.744 OA
ENDBRANCH  74  75
ENDBRANCH  53  67
BRANCH  54  79
ATOM     79  C   UNL     1      -7.392   6.107   1.913  1.00  0.00     0.058 A 
ATOM     80  C   UNL     1      -7.493   6.773   3.145  1.00  0.00     0.135 A 
ATOM     81  C   UNL     1      -6.727   6.768   0.869  1.00  0.00     0.135 A 
ATOM     82  F   UNL     1      -8.137   6.193   4.169  1.00  0.00    -0.206 F 
ATOM     83  C   UNL     1      -6.975   8.052   3.329  1.00  0.00     0.059 A 
ATOM     84  C   UNL     1      -6.177   8.036   1.036  1.00  0.00     0.059 A 
ATOM     85  F   UNL     1      -6.602   6.177  -0.330  1.00  0.00    -0.206 F 
ATOM     86  C   UNL     1      -6.319   8.676   2.266  1.00  0.00     0.060 A 
BRANCH  86  87
ATOM     87  S   UNL     1      -5.624  10.324   2.521  1.00  0.00     0.124 S 
ATOM     88  O   UNL     1      -6.822  11.154   2.495  1.00  0.00    -0.237 OA
ATOM     89  O   UNL     1      -4.970  10.186   3.818  1.00  0.00    -0.237 OA
ATOM     90  O   UNL     1      -4.720  10.483   1.385  1.00  0.00    -0.744 OA
ENDBRANCH  86  87
ENDBRANCH  54  79
BRANCH  66  91
ATOM     91  C   UNL     1     -14.033   3.950   1.697  1.00  0.00     0.058 A 
ATOM     92  C   UNL     1     -14.578   4.742   0.675  1.00  0.00     0.135 A 
ATOM     93  C   UNL     1     -14.809   3.741   2.849  1.00  0.00     0.135 A 
ATOM     94  F   UNL     1     -13.876   4.976  -0.445  1.00  0.00    -0.206 F 
ATOM     95  C   UNL     1     -15.846   5.304   0.791  1.00  0.00     0.059 A 
ATOM     96  C   UNL     1     -16.088   4.275   2.977  1.00  0.00     0.059 A 
ATOM     97  F   UNL     1     -14.339   2.981   3.852  1.00  0.00    -0.206 F 
ATOM     98  C   UNL     1     -16.597   5.058   1.942  1.00  0.00     0.060 A 
BRANCH  98  99
ATOM     99  S   UNL     1     -18.270   5.732   2.047  1.00  0.00     0.124 S 
ATOM    100  O   UNL     1     -18.004   7.146   2.291  1.00  0.00    -0.237 OA
ATOM    101  O   UNL     1     -18.822   5.407   0.735  1.00  0.00    -0.237 OA
ATOM    102  O   UNL     1     -18.861   5.002   3.166  1.00  0.00    -0.744 OA
ENDBRANCH  98  99
ENDBRANCH  66  91
ENDBRANCH  40  41
ENDBRANCH  33  35
ENDBRANCH  32  33
ENDBRANCH  31  32
ENDBRANCH  30  31
ENDBRANCH  29  30
ENDBRANCH  28  29
ENDBRANCH   1  28
TORSDOF 26
