REMARK SMILES O=C(Cc1c(C(=O)c2cc3c(cn2)CCCC3)[nH]c2cc(Cl)ccc12)OCCOCCOCCOC(=O)c1ccc(-c2c3nc(c(-c4c(F)cc(S(=O)(=O)[O-])cc4F)c4ccc([nH]4)c(-c4c(F)cc(S(=O)(=O)[O-])cc4F)c4nc(c(-c5c(F)cc(S(=O)(=O)[O-])cc5F)c5ccc2[nH]5)C=C4)C=C3)cc1
REMARK SMILES IDX 30 1 29 2 28 3 27 4 26 5 2 6 1 7 3 8 4 9 5 10 25 11 18 12
REMARK SMILES IDX 19 13 24 14 20 16 23 17 21 18 22 19 6 20 7 21 8 22 9 23
REMARK SMILES IDX 13 24 10 25 12 26 11 27 17 28 14 29 16 30 15 31 31 32 32 33
REMARK SMILES IDX 33 34 34 35 35 36 36 37 37 38 38 39 39 40 103 41 40 42
REMARK SMILES IDX 102 43 41 44 42 45 43 46 96 47 44 48 101 49 95 50 97 51
REMARK SMILES IDX 45 52 100 53 94 54 93 55 46 57 80 58 59 59 79 60 60 61 63 62
REMARK SMILES IDX 78 63 98 64 61 65 62 66 77 68 99 69 64 70 47 71 48 72 57 73
REMARK SMILES IDX 49 74 50 75 56 76 58 77 51 78 52 79 53 80 54 81 55 82 81 83
REMARK SMILES IDX 82 84 91 85 83 86 84 87 90 88 92 89 85 90 86 91 87 92 88 93
REMARK SMILES IDX 89 94 65 95 66 96 75 97 67 98 68 99 74 100 76 101 69 102
REMARK SMILES IDX 70 103 71 104 72 105 73 106
REMARK H PARENT 18 15 97 56 63 67
REMARK Flexibility Score: inf
ROOT
ATOM      1  C   UNL     1       2.116   1.467   1.690  1.00  0.00     0.188 C 
ENDROOT
BRANCH   1   2
ATOM      2  O   UNL     1       3.468   1.190   1.976  1.00  0.00    -0.376 OA
BRANCH   2   3
ATOM      3  C   UNL     1       4.392   0.942   0.926  1.00  0.00     0.202 C 
BRANCH   3   4
ATOM      4  C   UNL     1       4.002   1.187  -0.534  1.00  0.00     0.261 C 
BRANCH   4   5
ATOM      5  O   UNL     1       2.885   0.484  -1.125  1.00  0.00    -0.463 OA
BRANCH   5   6
ATOM      6  C   UNL     1       2.432  -0.772  -0.972  1.00  0.00     0.310 C 
ATOM      7  O   UNL     1       1.467  -1.135  -1.649  1.00  0.00    -0.252 OA
BRANCH   6   8
ATOM      8  C   UNL     1       3.069  -1.704   0.017  1.00  0.00     0.161 C 
BRANCH   8   9
ATOM      9  C   UNL     1       4.085  -2.625  -0.586  1.00  0.00     0.000 A 
ATOM     10  C   UNL     1       5.332  -2.386  -1.180  1.00  0.00     0.093 A 
ATOM     11  C   UNL     1       3.931  -4.051  -0.517  1.00  0.00     0.004 A 
ATOM     12  N   UNL     1       5.742  -3.590  -1.715  1.00  0.00    -0.351 N 
ATOM     13  C   UNL     1       4.954  -4.617  -1.265  1.00  0.00     0.048 A 
ATOM     14  C   UNL     1       3.021  -4.907   0.145  1.00  0.00     0.012 A 
ATOM     15  H   UNL     1       6.498  -3.697  -2.336  1.00  0.00     0.167 HD
ATOM     16  C   UNL     1       5.090  -5.997  -1.431  1.00  0.00     0.047 A 
ATOM     17  C   UNL     1       3.165  -6.293   0.029  1.00  0.00     0.021 A 
ATOM     18  C   UNL     1       4.177  -6.821  -0.763  1.00  0.00     0.043 A 
ATOM     19  Cl  UNL     1       4.337  -8.525  -0.930  1.00  0.00    -0.084 Cl
BRANCH  10  20
ATOM     20  C   UNL     1       6.224  -1.235  -1.132  1.00  0.00     0.227 C 
ATOM     21  O   UNL     1       6.489  -0.686  -0.065  1.00  0.00    -0.285 OA
BRANCH  20  22
ATOM     22  C   UNL     1       6.947  -0.732  -2.350  1.00  0.00     0.113 A 
ATOM     23  C   UNL     1       6.501  -0.961  -3.645  1.00  0.00     0.036 A 
ATOM     24  N   UNL     1       8.072  -0.016  -2.080  1.00  0.00    -0.252 NA
ATOM     25  C   UNL     1       7.283  -0.494  -4.715  1.00  0.00    -0.041 A 
ATOM     26  C   UNL     1       8.806   0.424  -3.118  1.00  0.00     0.115 A 
ATOM     27  C   UNL     1       8.485   0.179  -4.444  1.00  0.00    -0.026 A 
ATOM     28  C   UNL     1       6.856  -0.791  -6.133  1.00  0.00     0.036 C 
ATOM     29  C   UNL     1       9.405   0.650  -5.535  1.00  0.00     0.037 C 
ATOM     30  C   UNL     1       7.722  -0.122  -7.205  1.00  0.00     0.005 C 
ATOM     31  C   UNL     1       9.197  -0.144  -6.822  1.00  0.00     0.005 C 
ENDBRANCH  20  22
ENDBRANCH  10  20
ENDBRANCH   8   9
ENDBRANCH   6   8
ENDBRANCH   5   6
ENDBRANCH   4   5
ENDBRANCH   3   4
ENDBRANCH   2   3
ENDBRANCH   1   2
BRANCH   1  32
ATOM     32  C   UNL     1       1.748   2.952   1.721  1.00  0.00     0.188 C 
BRANCH  32  33
ATOM     33  O   UNL     1       2.632   3.876   1.109  1.00  0.00    -0.376 OA
BRANCH  33  34
ATOM     34  C   UNL     1       3.919   4.105   1.681  1.00  0.00     0.202 C 
BRANCH  34  35
ATOM     35  C   UNL     1       4.135   4.181   3.204  1.00  0.00     0.261 C 
BRANCH  35  36
ATOM     36  O   UNL     1       3.912   2.954   3.922  1.00  0.00    -0.460 OA
BRANCH  36  37
ATOM     37  C   UNL     1       2.883   2.954   4.801  1.00  0.00     0.338 C 
ATOM     38  O   UNL     1       2.136   3.893   5.047  1.00  0.00    -0.246 OA
BRANCH  37  39
ATOM     39  C   UNL     1       2.655   1.605   5.361  1.00  0.00     0.060 A 
ATOM     40  C   UNL     1       3.665   0.927   6.044  1.00  0.00     0.016 A 
ATOM     41  C   UNL     1       1.361   1.067   5.304  1.00  0.00     0.016 A 
ATOM     42  C   UNL     1       3.364  -0.271   6.705  1.00  0.00     0.010 A 
ATOM     43  C   UNL     1       1.066  -0.138   5.949  1.00  0.00     0.010 A 
ATOM     44  C   UNL     1       2.058  -0.799   6.684  1.00  0.00    -0.014 A 
BRANCH  44  45
ATOM     45  C   UNL     1       1.706  -1.917   7.597  1.00  0.00     0.031 A 
ATOM     46  C   UNL     1       1.602  -3.335   7.126  1.00  0.00     0.074 A 
ATOM     47  C   UNL     1       1.489  -1.625   8.895  1.00  0.00     0.049 A 
ATOM     48  N   UNL     1       1.490  -4.427   7.839  1.00  0.00    -0.248 NA
ATOM     49  C   UNL     1       1.613  -3.559   5.674  1.00  0.00     0.031 C 
ATOM     50  C   UNL     1       1.498  -0.273   9.457  1.00  0.00     0.029 A 
ATOM     51  N   UNL     1       1.241  -2.435   9.974  1.00  0.00    -0.354 N 
ATOM     52  C   UNL     1       1.456  -5.476   6.929  1.00  0.00     0.074 A 
ATOM     53  C   UNL     1       1.495  -4.880   5.608  1.00  0.00     0.031 C 
ATOM     54  C   UNL     1       1.314  -0.350  10.783  1.00  0.00     0.029 A 
ATOM     55  C   UNL     1       1.163  -1.751  11.165  1.00  0.00     0.049 A 
ATOM     56  H   UNL     1       1.130  -3.410   9.903  1.00  0.00     0.167 HD
ATOM     57  C   UNL     1       1.419  -6.808   7.181  1.00  0.00     0.037 A 
ATOM     58  C   UNL     1       1.015  -2.200  12.426  1.00  0.00     0.037 A 
ATOM     59  C   UNL     1       1.350  -7.383   8.503  1.00  0.00     0.049 A 
ATOM     60  C   UNL     1       0.951  -3.680  12.679  1.00  0.00     0.074 A 
ATOM     61  C   UNL     1       1.364  -8.721   8.860  1.00  0.00     0.029 A 
ATOM     62  N   UNL     1       1.228  -6.661   9.682  1.00  0.00    -0.354 N 
ATOM     63  N   UNL     1       1.044  -4.665  11.819  1.00  0.00    -0.248 NA
ATOM     64  C   UNL     1       0.772  -4.112  14.072  1.00  0.00     0.031 C 
ATOM     65  C   UNL     1       1.192  -8.809  10.245  1.00  0.00     0.029 A 
ATOM     66  C   UNL     1       1.127  -7.525  10.762  1.00  0.00     0.049 A 
ATOM     67  H   UNL     1       1.215  -5.678   9.743  1.00  0.00     0.167 HD
ATOM     68  C   UNL     1       0.949  -5.834  12.566  1.00  0.00     0.074 A 
ATOM     69  C   UNL     1       0.810  -5.433  13.952  1.00  0.00     0.031 C 
ATOM     70  C   UNL     1       0.976  -7.120  12.139  1.00  0.00     0.037 A 
BRANCH  57  71
ATOM     71  C   UNL     1       1.470  -7.747   6.006  1.00  0.00     0.058 A 
ATOM     72  C   UNL     1       2.639  -7.897   5.243  1.00  0.00     0.135 A 
ATOM     73  C   UNL     1       0.369  -8.556   5.679  1.00  0.00     0.135 A 
ATOM     74  F   UNL     1       3.722  -7.150   5.509  1.00  0.00    -0.206 F 
ATOM     75  C   UNL     1       2.705  -8.791   4.179  1.00  0.00     0.059 A 
ATOM     76  C   UNL     1       0.421  -9.477   4.637  1.00  0.00     0.059 A 
ATOM     77  F   UNL     1      -0.772  -8.461   6.380  1.00  0.00    -0.206 F 
ATOM     78  C   UNL     1       1.589  -9.575   3.882  1.00  0.00     0.060 A 
BRANCH  78  79
ATOM     79  S   UNL     1       1.683 -10.706   2.480  1.00  0.00     0.124 S 
ATOM     80  O   UNL     1       1.667  -9.768   1.362  1.00  0.00    -0.237 OA
ATOM     81  O   UNL     1       2.948 -11.394   2.719  1.00  0.00    -0.237 OA
ATOM     82  O   UNL     1       0.487 -11.530   2.624  1.00  0.00    -0.744 OA
ENDBRANCH  78  79
ENDBRANCH  57  71
BRANCH  58  83
ATOM     83  C   UNL     1       0.984  -1.223  13.546  1.00  0.00     0.058 A 
ATOM     84  C   UNL     1       2.066  -1.105  14.429  1.00  0.00     0.135 A 
ATOM     85  C   UNL     1      -0.100  -0.348  13.718  1.00  0.00     0.135 A 
ATOM     86  F   UNL     1       3.124  -1.922  14.307  1.00  0.00    -0.206 F 
ATOM     87  C   UNL     1       2.077  -0.155  15.445  1.00  0.00     0.059 A 
ATOM     88  C   UNL     1      -0.102   0.627  14.710  1.00  0.00     0.059 A 
ATOM     89  F   UNL     1      -1.153  -0.410  12.888  1.00  0.00    -0.206 F 
ATOM     90  C   UNL     1       0.991   0.713  15.571  1.00  0.00     0.060 A 
BRANCH  90  91
ATOM     91  S   UNL     1       1.050   1.986  16.850  1.00  0.00     0.124 S 
ATOM     92  O   UNL     1       0.942   1.188  18.066  1.00  0.00    -0.237 OA
ATOM     93  O   UNL     1       2.350   2.603  16.605  1.00  0.00    -0.237 OA
ATOM     94  O   UNL     1      -0.103   2.827  16.543  1.00  0.00    -0.744 OA
ENDBRANCH  90  91
ENDBRANCH  58  83
BRANCH  70  95
ATOM     95  C   UNL     1       0.842  -8.206  13.174  1.00  0.00     0.058 A 
ATOM     96  C   UNL     1      -0.387  -8.474  13.797  1.00  0.00     0.135 A 
ATOM     97  C   UNL     1       1.926  -9.045  13.478  1.00  0.00     0.135 A 
ATOM     98  F   UNL     1      -1.454  -7.697  13.551  1.00  0.00    -0.206 F 
ATOM     99  C   UNL     1      -0.536  -9.535  14.685  1.00  0.00     0.059 A 
ATOM    100  C   UNL     1       1.793 -10.128  14.342  1.00  0.00     0.059 A 
ATOM    101  F   UNL     1       3.123  -8.836  12.907  1.00  0.00    -0.206 F 
ATOM    102  C   UNL     1       0.557 -10.364  14.942  1.00  0.00     0.060 A 
BRANCH 102 103
ATOM    103  S   UNL     1       0.325 -11.778  16.041  1.00  0.00     0.124 S 
ATOM    104  O   UNL     1       0.142 -11.123  17.333  1.00  0.00    -0.237 OA
ATOM    105  O   UNL     1      -0.862 -12.415  15.480  1.00  0.00    -0.237 OA
ATOM    106  O   UNL     1       1.565 -12.534  15.893  1.00  0.00    -0.744 OA
ENDBRANCH 102 103
ENDBRANCH  70  95
ENDBRANCH  44  45
ENDBRANCH  37  39
ENDBRANCH  36  37
ENDBRANCH  35  36
ENDBRANCH  34  35
ENDBRANCH  33  34
ENDBRANCH  32  33
ENDBRANCH   1  32
TORSDOF 23
