REMARK SMILES Cc1cc(C(=O)OCCOCCOCCOC(=O)c2ccc(-c3c4nc(c(-c5c(F)cc(S(=O)(=O)[O-])cc5F)c5ccc([nH]5)c(-c5c(F)cc(S(=O)(=O)[O-])cc5F)c5nc(c(-c6c(F)cc(S(=O)(=O)[O-])cc6F)c6ccc3[nH]6)C=C5)C=C4)cc2)nn1[C@H]1CCS(=O)(=O)C1
REMARK SMILES IDX 12 1 11 2 10 3 9 4 8 5 7 6 5 7 6 8 4 9 1 10 2 11 3 12 86 13
REMARK SMILES IDX 85 14 87 15 88 16 93 17 89 18 90 19 91 20 92 21 13 22 14 23
REMARK SMILES IDX 15 24 16 25 17 26 18 27 19 28 20 29 84 30 21 31 83 32 22 33
REMARK SMILES IDX 23 34 24 35 77 36 25 37 82 38 76 39 78 40 26 41 81 42 75 43
REMARK SMILES IDX 74 44 27 46 61 47 40 48 60 49 41 50 44 51 59 52 79 53 42 54
REMARK SMILES IDX 43 55 58 57 80 58 45 59 28 60 29 61 38 62 30 63 31 64 37 65
REMARK SMILES IDX 39 66 32 67 33 68 34 69 35 70 36 71 62 72 63 73 72 74 64 75
REMARK SMILES IDX 65 76 71 77 73 78 66 79 67 80 68 81 69 82 70 83 46 84 47 85
REMARK SMILES IDX 56 86 48 87 49 88 55 89 57 90 50 91 51 92 52 93 53 94 54 95
REMARK H PARENT 78 45 44 56
REMARK Flexibility Score: inf
ROOT
ATOM      1  C   UNL     1      -4.634  -1.260   6.226  1.00  0.00     0.188 C 
ENDROOT
BRANCH   1   2
ATOM      2  C   UNL     1      -4.907  -2.384   5.199  1.00  0.00     0.188 C 
BRANCH   2   3
ATOM      3  O   UNL     1      -5.383  -3.660   5.605  1.00  0.00    -0.376 OA
BRANCH   3   4
ATOM      4  C   UNL     1      -4.909  -4.248   6.806  1.00  0.00     0.202 C 
BRANCH   4   5
ATOM      5  C   UNL     1      -3.398  -4.481   6.976  1.00  0.00     0.261 C 
BRANCH   5   6
ATOM      6  O   UNL     1      -2.577  -3.321   6.756  1.00  0.00    -0.458 OA
BRANCH   6   7
ATOM      7  C   UNL     1      -1.809  -3.323   5.622  1.00  0.00     0.358 C 
ATOM      8  O   UNL     1      -1.671  -4.297   4.888  1.00  0.00    -0.244 OA
BRANCH   7   9
ATOM      9  C   UNL     1      -1.246  -1.990   5.328  1.00  0.00     0.170 A 
ATOM     10  C   UNL     1      -0.068   1.458   5.945  1.00  0.00     0.066 C 
ATOM     11  C   UNL     1      -0.519   0.128   5.467  1.00  0.00     0.037 A 
ATOM     12  C   UNL     1      -0.949  -0.941   6.232  1.00  0.00     0.061 A 
ATOM     13  N   UNL     1      -0.617  -0.294   4.163  1.00  0.00    -0.265 N 
ATOM     14  N   UNL     1      -1.014  -1.581   4.069  1.00  0.00    -0.165 NA
BRANCH  13  15
ATOM     15  C   UNL     1      -0.356   0.365   2.895  1.00  0.00     0.123 C 
ATOM     16  C   UNL     1      -1.635   0.760   2.130  1.00  0.00     0.044 C 
ATOM     17  C   UNL     1       0.496   1.623   2.898  1.00  0.00     0.164 C 
ATOM     18  C   UNL     1      -1.173   1.429   0.834  1.00  0.00     0.139 C 
ATOM     19  S   UNL     1       0.400   2.189   1.217  1.00  0.00     0.152 S 
ATOM     20  O   UNL     1       1.441   1.521   0.464  1.00  0.00    -0.229 OA
ATOM     21  O   UNL     1       0.259   3.629   1.227  1.00  0.00    -0.229 OA
ENDBRANCH  13  15
ENDBRANCH   7   9
ENDBRANCH   6   7
ENDBRANCH   5   6
ENDBRANCH   4   5
ENDBRANCH   3   4
ENDBRANCH   2   3
ENDBRANCH   1   2
BRANCH   1  22
ATOM     22  O   UNL     1      -4.760  -1.619   7.596  1.00  0.00    -0.376 OA
BRANCH  22  23
ATOM     23  C   UNL     1      -5.736  -0.894   8.340  1.00  0.00     0.202 C 
BRANCH  23  24
ATOM     24  C   UNL     1      -7.179  -1.316   8.066  1.00  0.00     0.261 C 
BRANCH  24  25
ATOM     25  O   UNL     1      -7.521  -1.328   6.687  1.00  0.00    -0.460 OA
BRANCH  25  26
ATOM     26  C   UNL     1      -7.548  -0.125   6.080  1.00  0.00     0.338 C 
ATOM     27  O   UNL     1      -7.170   0.938   6.541  1.00  0.00    -0.246 OA
BRANCH  26  28
ATOM     28  C   UNL     1      -8.164  -0.285   4.759  1.00  0.00     0.060 A 
ATOM     29  C   UNL     1      -8.160   0.834   3.924  1.00  0.00     0.016 A 
ATOM     30  C   UNL     1      -8.963  -1.409   4.503  1.00  0.00     0.016 A 
ATOM     31  C   UNL     1      -9.151   0.935   2.976  1.00  0.00     0.010 A 
ATOM     32  C   UNL     1      -9.963  -1.300   3.569  1.00  0.00     0.010 A 
ATOM     33  C   UNL     1     -10.103  -0.086   2.902  1.00  0.00    -0.014 A 
BRANCH  33  34
ATOM     34  C   UNL     1     -11.329   0.209   2.193  1.00  0.00     0.031 A 
ATOM     35  C   UNL     1     -11.257   0.057   0.730  1.00  0.00     0.074 A 
ATOM     36  C   UNL     1     -12.453   0.509   2.872  1.00  0.00     0.049 A 
ATOM     37  N   UNL     1     -11.429   0.956  -0.179  1.00  0.00    -0.248 NA
ATOM     38  C   UNL     1     -10.819  -1.251   0.219  1.00  0.00     0.031 C 
ATOM     39  C   UNL     1     -12.681   0.367   4.316  1.00  0.00     0.029 A 
ATOM     40  N   UNL     1     -13.673   0.878   2.399  1.00  0.00    -0.354 N 
ATOM     41  C   UNL     1     -11.349   0.271  -1.386  1.00  0.00     0.074 A 
ATOM     42  C   UNL     1     -10.790  -1.021  -1.092  1.00  0.00     0.031 C 
ATOM     43  C   UNL     1     -14.008   0.421   4.559  1.00  0.00     0.029 A 
ATOM     44  C   UNL     1     -14.701   0.714   3.315  1.00  0.00     0.049 A 
ATOM     45  H   UNL     1     -13.814   1.229   1.490  1.00  0.00     0.167 HD
ATOM     46  C   UNL     1     -12.005   0.709  -2.492  1.00  0.00     0.037 A 
ATOM     47  C   UNL     1     -16.027   0.703   3.042  1.00  0.00     0.037 A 
ATOM     48  C   UNL     1     -12.338   2.107  -2.398  1.00  0.00     0.049 A 
ATOM     49  C   UNL     1     -16.223   1.362   1.724  1.00  0.00     0.074 A 
ATOM     50  C   UNL     1     -11.611   3.270  -2.231  1.00  0.00     0.029 A 
ATOM     51  N   UNL     1     -13.647   2.438  -2.146  1.00  0.00    -0.354 N 
ATOM     52  N   UNL     1     -16.005   2.628   1.487  1.00  0.00    -0.248 NA
ATOM     53  C   UNL     1     -16.303   0.518   0.540  1.00  0.00     0.031 C 
ATOM     54  C   UNL     1     -12.453   4.142  -1.484  1.00  0.00     0.029 A 
ATOM     55  C   UNL     1     -13.657   3.475  -1.248  1.00  0.00     0.049 A 
ATOM     56  H   UNL     1     -14.439   2.006  -2.540  1.00  0.00     0.167 HD
ATOM     57  C   UNL     1     -15.524   2.673   0.186  1.00  0.00     0.074 A 
ATOM     58  C   UNL     1     -15.851   1.371  -0.382  1.00  0.00     0.031 C 
ATOM     59  C   UNL     1     -14.662   3.651  -0.219  1.00  0.00     0.037 A 
BRANCH  46  60
ATOM     60  C   UNL     1     -12.675  -0.226  -3.471  1.00  0.00     0.058 A 
ATOM     61  C   UNL     1     -13.175   0.289  -4.682  1.00  0.00     0.135 A 
ATOM     62  C   UNL     1     -13.101  -1.534  -3.140  1.00  0.00     0.135 A 
ATOM     63  F   UNL     1     -12.841   1.524  -5.088  1.00  0.00    -0.206 F 
ATOM     64  C   UNL     1     -14.098  -0.408  -5.462  1.00  0.00     0.059 A 
ATOM     65  C   UNL     1     -13.970  -2.270  -3.934  1.00  0.00     0.059 A 
ATOM     66  F   UNL     1     -12.785  -2.124  -1.982  1.00  0.00    -0.206 F 
ATOM     67  C   UNL     1     -14.506  -1.678  -5.063  1.00  0.00     0.060 A 
BRANCH  67  68
ATOM     68  S   UNL     1     -15.815  -2.519  -5.968  1.00  0.00     0.124 S 
ATOM     69  O   UNL     1     -16.984  -1.753  -5.552  1.00  0.00    -0.237 OA
ATOM     70  O   UNL     1     -15.391  -2.343  -7.352  1.00  0.00    -0.237 OA
ATOM     71  O   UNL     1     -15.742  -3.888  -5.464  1.00  0.00    -0.744 OA
ENDBRANCH  67  68
ENDBRANCH  46  60
BRANCH  47  72
ATOM     72  C   UNL     1     -17.055  -0.157   3.683  1.00  0.00     0.058 A 
ATOM     73  C   UNL     1     -18.426   0.116   3.547  1.00  0.00     0.135 A 
ATOM     74  C   UNL     1     -16.723  -1.409   4.245  1.00  0.00     0.135 A 
ATOM     75  F   UNL     1     -18.831   1.266   2.989  1.00  0.00    -0.206 F 
ATOM     76  C   UNL     1     -19.409  -0.807   3.924  1.00  0.00     0.059 A 
ATOM     77  C   UNL     1     -17.683  -2.334   4.646  1.00  0.00     0.059 A 
ATOM     78  F   UNL     1     -15.448  -1.813   4.341  1.00  0.00    -0.206 F 
ATOM     79  C   UNL     1     -19.026  -2.035   4.463  1.00  0.00     0.060 A 
BRANCH  79  80
ATOM     80  S   UNL     1     -20.282  -3.283   4.825  1.00  0.00     0.124 S 
ATOM     81  O   UNL     1     -20.993  -2.677   5.946  1.00  0.00    -0.237 OA
ATOM     82  O   UNL     1     -21.015  -3.354   3.567  1.00  0.00    -0.237 OA
ATOM     83  O   UNL     1     -19.497  -4.470   5.155  1.00  0.00    -0.744 OA
ENDBRANCH  79  80
ENDBRANCH  47  72
BRANCH  59  84
ATOM     84  C   UNL     1     -14.557   4.899   0.618  1.00  0.00     0.058 A 
ATOM     85  C   UNL     1     -14.041   4.933   1.925  1.00  0.00     0.135 A 
ATOM     86  C   UNL     1     -14.843   6.131   0.007  1.00  0.00     0.135 A 
ATOM     87  F   UNL     1     -13.647   3.809   2.539  1.00  0.00    -0.206 F 
ATOM     88  C   UNL     1     -13.851   6.138   2.606  1.00  0.00     0.059 A 
ATOM     89  C   UNL     1     -14.632   7.345   0.656  1.00  0.00     0.059 A 
ATOM     90  F   UNL     1     -15.279   6.166  -1.263  1.00  0.00    -0.206 F 
ATOM     91  C   UNL     1     -14.145   7.340   1.961  1.00  0.00     0.060 A 
BRANCH  91  92
ATOM     92  S   UNL     1     -13.796   8.899   2.805  1.00  0.00     0.124 S 
ATOM     93  O   UNL     1     -14.878   8.969   3.780  1.00  0.00    -0.237 OA
ATOM     94  O   UNL     1     -12.461   8.673   3.354  1.00  0.00    -0.237 OA
ATOM     95  O   UNL     1     -13.856   9.888   1.732  1.00  0.00    -0.744 OA
ENDBRANCH  91  92
ENDBRANCH  59  84
ENDBRANCH  33  34
ENDBRANCH  26  28
ENDBRANCH  25  26
ENDBRANCH  24  25
ENDBRANCH  23  24
ENDBRANCH  22  23
ENDBRANCH   1  22
TORSDOF 21
