REMARK SMILES O=C(OCCOCCOCCOC(=O)c1ccc(-c2c3nc(c(-c4c(F)cc(S(=O)(=O)[O-])cc4F)c4ccc([nH]4)c(-c4c(F)cc(S(=O)(=O)[O-])cc4F)c4nc(c(-c5c(F)cc(S(=O)(=O)[O-])cc5F)c5ccc2[nH]5)C=C4)C=C3)cc1)c1ccc(Cn2c(-c3ccccc3)cccc2=O)cc1
REMARK SMILES IDX 7 1 6 2 5 3 4 4 3 5 2 6 1 7 81 8 82 9 100 10 83 11 99 12
REMARK SMILES IDX 84 13 85 14 86 15 87 16 97 17 94 18 96 19 98 20 95 21 88 22
REMARK SMILES IDX 89 23 93 24 90 25 92 26 91 27 8 28 9 29 10 30 11 31 12 32
REMARK SMILES IDX 13 33 14 34 15 35 16 36 80 37 17 38 79 39 18 40 19 41 20 42
REMARK SMILES IDX 73 43 21 44 78 45 72 46 74 47 22 48 77 49 71 50 70 51 23 53
REMARK SMILES IDX 57 54 36 55 56 56 37 57 40 58 55 59 75 60 38 61 39 62 54 64
REMARK SMILES IDX 76 65 41 66 24 67 25 68 34 69 26 70 27 71 33 72 35 73 28 74
REMARK SMILES IDX 29 75 30 76 31 77 32 78 58 79 59 80 68 81 60 82 61 83 67 84
REMARK SMILES IDX 69 85 62 86 63 87 64 88 65 89 66 90 42 91 43 92 52 93 44 94
REMARK SMILES IDX 45 95 51 96 53 97 46 98 47 99 48 100 49 101 50 102
REMARK H PARENT 74 52 40 63
REMARK Flexibility Score: inf
ROOT
ATOM      1  C   UNL     1       2.560   1.942  -0.896  1.00  0.00     0.188 C 
ENDROOT
BRANCH   1   2
ATOM      2  O   UNL     1       3.650   1.443  -0.110  1.00  0.00    -0.376 OA
BRANCH   2   3
ATOM      3  C   UNL     1       4.537   0.593  -0.828  1.00  0.00     0.202 C 
BRANCH   3   4
ATOM      4  C   UNL     1       4.096  -0.868  -0.965  1.00  0.00     0.261 C 
BRANCH   4   5
ATOM      5  O   UNL     1       2.677  -1.060  -0.829  1.00  0.00    -0.460 OA
BRANCH   5   6
ATOM      6  C   UNL     1       2.092  -1.548   0.297  1.00  0.00     0.338 C 
ATOM      7  O   UNL     1       0.909  -1.862   0.325  1.00  0.00    -0.246 OA
BRANCH   6   8
ATOM      8  C   UNL     1       2.939  -1.724   1.492  1.00  0.00     0.060 A 
ATOM      9  C   UNL     1       3.358  -0.613   2.225  1.00  0.00     0.016 A 
ATOM     10  C   UNL     1       3.317  -3.011   1.877  1.00  0.00     0.016 A 
ATOM     11  C   UNL     1       4.233  -0.782   3.296  1.00  0.00     0.006 A 
ATOM     12  C   UNL     1       4.191  -3.176   2.954  1.00  0.00     0.006 A 
ATOM     13  C   UNL     1       4.682  -2.061   3.654  1.00  0.00    -0.028 A 
BRANCH  13  14
ATOM     14  C   UNL     1       5.663  -2.238   4.794  1.00  0.00     0.161 C 
BRANCH  14  15
ATOM     15  N   UNL     1       7.024  -2.575   4.356  1.00  0.00    -0.304 N 
ATOM     16  C   UNL     1       7.938  -1.609   3.917  1.00  0.00     0.052 A 
ATOM     17  C   UNL     1       7.370  -3.931   4.403  1.00  0.00     0.251 A 
ATOM     18  C   UNL     1       9.192  -1.963   3.575  1.00  0.00     0.027 A 
ATOM     19  C   UNL     1       8.762  -4.283   4.023  1.00  0.00     0.072 A 
ATOM     20  O   UNL     1       6.616  -4.845   4.727  1.00  0.00    -0.269 OA
ATOM     21  C   UNL     1       9.618  -3.333   3.639  1.00  0.00     0.008 A 
BRANCH  16  22
ATOM     22  C   UNL     1       7.598  -0.180   3.780  1.00  0.00    -0.002 A 
ATOM     23  C   UNL     1       7.510   0.393   2.500  1.00  0.00     0.010 A 
ATOM     24  C   UNL     1       7.417   0.638   4.901  1.00  0.00     0.010 A 
ATOM     25  C   UNL     1       7.230   1.752   2.346  1.00  0.00     0.001 A 
ATOM     26  C   UNL     1       7.123   1.995   4.745  1.00  0.00     0.001 A 
ATOM     27  C   UNL     1       7.032   2.551   3.470  1.00  0.00     0.000 A 
ENDBRANCH  16  22
ENDBRANCH  14  15
ENDBRANCH  13  14
ENDBRANCH   6   8
ENDBRANCH   5   6
ENDBRANCH   4   5
ENDBRANCH   3   4
ENDBRANCH   2   3
ENDBRANCH   1   2
BRANCH   1  28
ATOM     28  C   UNL     1       2.096   3.288  -0.330  1.00  0.00     0.188 C 
BRANCH  28  29
ATOM     29  O   UNL     1       2.902   4.395  -0.748  1.00  0.00    -0.376 OA
BRANCH  29  30
ATOM     30  C   UNL     1       4.255   4.405  -0.298  1.00  0.00     0.202 C 
BRANCH  30  31
ATOM     31  C   UNL     1       4.462   4.883   1.141  1.00  0.00     0.261 C 
BRANCH  31  32
ATOM     32  O   UNL     1       4.006   3.942   2.132  1.00  0.00    -0.460 OA
BRANCH  32  33
ATOM     33  C   UNL     1       3.013   4.400   2.929  1.00  0.00     0.338 C 
ATOM     34  O   UNL     1       2.439   5.478   2.849  1.00  0.00    -0.246 OA
BRANCH  33  35
ATOM     35  C   UNL     1       2.666   3.424   3.972  1.00  0.00     0.060 A 
ATOM     36  C   UNL     1       1.419   2.793   3.914  1.00  0.00     0.016 A 
ATOM     37  C   UNL     1       3.451   3.340   5.125  1.00  0.00     0.016 A 
ATOM     38  C   UNL     1       0.922   2.136   5.042  1.00  0.00     0.010 A 
ATOM     39  C   UNL     1       2.954   2.672   6.250  1.00  0.00     0.010 A 
ATOM     40  C   UNL     1       1.662   2.118   6.234  1.00  0.00    -0.014 A 
BRANCH  40  41
ATOM     41  C   UNL     1       1.021   1.676   7.503  1.00  0.00     0.031 A 
ATOM     42  C   UNL     1       0.538   2.712   8.489  1.00  0.00     0.074 A 
ATOM     43  C   UNL     1       0.849   0.370   7.774  1.00  0.00     0.049 A 
ATOM     44  N   UNL     1      -0.029   2.546   9.658  1.00  0.00    -0.248 NA
ATOM     45  C   UNL     1       0.723   4.122   8.109  1.00  0.00     0.031 C 
ATOM     46  C   UNL     1       1.243  -0.735   6.903  1.00  0.00     0.029 A 
ATOM     47  N   UNL     1       0.293  -0.244   8.869  1.00  0.00    -0.354 N 
ATOM     48  C   UNL     1      -0.257   3.825  10.157  1.00  0.00     0.074 A 
ATOM     49  C   UNL     1       0.258   4.756   9.176  1.00  0.00     0.031 C 
ATOM     50  C   UNL     1       0.913  -1.895   7.497  1.00  0.00     0.029 A 
ATOM     51  C   UNL     1       0.306  -1.615   8.798  1.00  0.00     0.049 A 
ATOM     52  H   UNL     1      -0.080   0.252   9.634  1.00  0.00     0.167 HD
ATOM     53  C   UNL     1      -0.852   4.194  11.318  1.00  0.00     0.037 A 
ATOM     54  C   UNL     1      -0.118  -2.540   9.682  1.00  0.00     0.037 A 
ATOM     55  C   UNL     1      -1.389   3.277  12.289  1.00  0.00     0.049 A 
ATOM     56  C   UNL     1      -0.744  -2.108  10.982  1.00  0.00     0.074 A 
ATOM     57  C   UNL     1      -2.044   3.564  13.476  1.00  0.00     0.029 A 
ATOM     58  N   UNL     1      -1.336   1.896  12.188  1.00  0.00    -0.354 N 
ATOM     59  N   UNL     1      -0.974  -0.895  11.426  1.00  0.00    -0.248 NA
ATOM     60  C   UNL     1      -1.170  -3.174  11.902  1.00  0.00     0.031 C 
ATOM     61  C   UNL     1      -2.357   2.355  14.108  1.00  0.00     0.029 A 
ATOM     62  C   UNL     1      -1.927   1.316  13.299  1.00  0.00     0.049 A 
ATOM     63  H   UNL     1      -0.937   1.400  11.438  1.00  0.00     0.167 HD
ATOM     64  C   UNL     1      -1.598  -1.054  12.661  1.00  0.00     0.074 A 
ATOM     65  C   UNL     1      -1.710  -2.478  12.893  1.00  0.00     0.031 C 
ATOM     66  C   UNL     1      -2.042  -0.103  13.520  1.00  0.00     0.037 A 
BRANCH  53  67
ATOM     67  C   UNL     1      -0.938   5.666  11.611  1.00  0.00     0.058 A 
ATOM     68  C   UNL     1      -1.853   6.497  10.946  1.00  0.00     0.135 A 
ATOM     69  C   UNL     1      -0.109   6.248  12.583  1.00  0.00     0.135 A 
ATOM     70  F   UNL     1      -2.659   5.993   9.999  1.00  0.00    -0.206 F 
ATOM     71  C   UNL     1      -1.921   7.862  11.212  1.00  0.00     0.059 A 
ATOM     72  C   UNL     1      -0.174   7.606  12.880  1.00  0.00     0.059 A 
ATOM     73  F   UNL     1       0.782   5.496  13.249  1.00  0.00    -0.206 F 
ATOM     74  C   UNL     1      -1.071   8.408  12.175  1.00  0.00     0.060 A 
BRANCH  74  75
ATOM     75  S   UNL     1      -1.154  10.182  12.503  1.00  0.00     0.124 S 
ATOM     76  O   UNL     1      -0.410  10.721  11.369  1.00  0.00    -0.237 OA
ATOM     77  O   UNL     1      -2.590  10.439  12.498  1.00  0.00    -0.237 OA
ATOM     78  O   UNL     1      -0.502  10.316  13.803  1.00  0.00    -0.744 OA
ENDBRANCH  74  75
ENDBRANCH  53  67
BRANCH  54  79
ATOM     79  C   UNL     1       0.022  -3.984   9.362  1.00  0.00     0.058 A 
ATOM     80  C   UNL     1      -1.098  -4.760   9.034  1.00  0.00     0.135 A 
ATOM     81  C   UNL     1       1.276  -4.614   9.384  1.00  0.00     0.135 A 
ATOM     82  F   UNL     1      -2.318  -4.202   9.014  1.00  0.00    -0.206 F 
ATOM     83  C   UNL     1      -0.984  -6.116   8.749  1.00  0.00     0.059 A 
ATOM     84  C   UNL     1       1.418  -5.964   9.084  1.00  0.00     0.059 A 
ATOM     85  F   UNL     1       2.377  -3.909   9.686  1.00  0.00    -0.206 F 
ATOM     86  C   UNL     1       0.279  -6.710   8.777  1.00  0.00     0.060 A 
BRANCH  86  87
ATOM     87  S   UNL     1       0.422  -8.464   8.370  1.00  0.00     0.124 S 
ATOM     88  O   UNL     1      -0.062  -9.089   9.595  1.00  0.00    -0.237 OA
ATOM     89  O   UNL     1      -0.449  -8.584   7.205  1.00  0.00    -0.237 OA
ATOM     90  O   UNL     1       1.847  -8.628   8.098  1.00  0.00    -0.744 OA
ENDBRANCH  86  87
ENDBRANCH  54  79
BRANCH  66  91
ATOM     91  C   UNL     1      -2.723  -0.569  14.777  1.00  0.00     0.058 A 
ATOM     92  C   UNL     1      -1.996  -1.093  15.857  1.00  0.00     0.135 A 
ATOM     93  C   UNL     1      -4.115  -0.455  14.917  1.00  0.00     0.135 A 
ATOM     94  F   UNL     1      -0.663  -1.227  15.773  1.00  0.00    -0.206 F 
ATOM     95  C   UNL     1      -2.629  -1.510  17.025  1.00  0.00     0.059 A 
ATOM     96  C   UNL     1      -4.767  -0.848  16.083  1.00  0.00     0.059 A 
ATOM     97  F   UNL     1      -4.856   0.050  13.918  1.00  0.00    -0.206 F 
ATOM     98  C   UNL     1      -4.016  -1.387  17.127  1.00  0.00     0.060 A 
BRANCH  98  99
ATOM     99  S   UNL     1      -4.829  -1.908  18.654  1.00  0.00     0.124 S 
ATOM    100  O   UNL     1      -4.879  -3.355  18.480  1.00  0.00    -0.237 OA
ATOM    101  O   UNL     1      -3.912  -1.425  19.682  1.00  0.00    -0.237 OA
ATOM    102  O   UNL     1      -6.117  -1.222  18.601  1.00  0.00    -0.744 OA
ENDBRANCH  98  99
ENDBRANCH  66  91
ENDBRANCH  40  41
ENDBRANCH  33  35
ENDBRANCH  32  33
ENDBRANCH  31  32
ENDBRANCH  30  31
ENDBRANCH  29  30
ENDBRANCH  28  29
ENDBRANCH   1  28
TORSDOF 23
