REMARK SMILES CCOc1cc2c(cc1OCC)[C@@H](C(=O)OCCOCCOCCOC(=O)c1ccc(-c3c4nc(c(-c5c(F)cc(S(=O)(=O)[O-])cc5F)c5ccc([nH]5)c(-c5c(F)cc(S(=O)(=O)[O-])cc5F)c5nc(c(-c6c(F)cc(S(=O)(=O)[O-])cc6F)c6ccc3[nH]6)C=C5)C=C4)cc1)[C@H](c1ccc(F)cc1Cl)N(C)C2=O
REMARK SMILES IDX 21 1 20 2 19 3 18 4 17 5 16 6 14 7 15 8 13 9 4 10 5 11 9 12
REMARK SMILES IDX 6 13 8 14 7 15 105 16 103 17 106 18 94 19 104 20 3 21 2 22
REMARK SMILES IDX 1 23 10 24 11 25 12 26 95 27 96 28 101 29 97 30 100 31
REMARK SMILES IDX 102 32 98 33 99 34 22 35 23 36 24 37 25 38 26 39 27 40 28 41
REMARK SMILES IDX 29 42 93 43 30 44 92 45 31 46 32 47 33 48 86 49 34 50 91 51
REMARK SMILES IDX 85 52 87 53 35 54 90 55 84 56 83 57 36 59 70 60 49 61 69 62
REMARK SMILES IDX 50 63 53 64 68 65 88 66 51 67 52 68 67 70 89 71 54 72 37 73
REMARK SMILES IDX 38 74 47 75 39 76 40 77 46 78 48 79 41 80 42 81 43 82 44 83
REMARK SMILES IDX 45 84 71 85 72 86 81 87 73 88 74 89 80 90 82 91 75 92 76 93
REMARK SMILES IDX 77 94 78 95 79 96 55 97 56 98 65 99 57 100 58 101 64 102
REMARK SMILES IDX 66 103 59 104 60 105 61 106 62 107 63 108
REMARK H PARENT 87 58 53 69
REMARK Flexibility Score: inf
ROOT
ATOM      1  C   UNL     1      10.154  -2.183   1.977  1.00  0.00     0.188 C 
ENDROOT
BRANCH   1   2
ATOM      2  C   UNL     1       9.466  -3.535   2.165  1.00  0.00     0.188 C 
BRANCH   2   3
ATOM      3  O   UNL     1       9.403  -4.387   1.031  1.00  0.00    -0.376 OA
BRANCH   3   4
ATOM      4  C   UNL     1       8.893  -3.842  -0.182  1.00  0.00     0.202 C 
BRANCH   4   5
ATOM      5  C   UNL     1       7.457  -3.289  -0.176  1.00  0.00     0.261 C 
BRANCH   5   6
ATOM      6  O   UNL     1       7.190  -2.240   0.784  1.00  0.00    -0.463 OA
BRANCH   6   7
ATOM      7  C   UNL     1       6.490  -2.632   1.874  1.00  0.00     0.316 C 
ATOM      8  O   UNL     1       6.161  -3.800   2.081  1.00  0.00    -0.251 OA
BRANCH   7   9
ATOM      9  C   UNL     1       6.050  -1.528   2.838  1.00  0.00     0.157 C 
ATOM     10  C   UNL     1       1.873  -1.262   1.992  1.00  0.00     0.161 A 
ATOM     11  C   UNL     1       2.785  -0.384   1.384  1.00  0.00     0.064 A 
ATOM     12  C   UNL     1       2.313  -2.185   2.953  1.00  0.00     0.161 A 
ATOM     13  C   UNL     1       4.138  -0.481   1.649  1.00  0.00     0.048 A 
ATOM     14  C   UNL     1       3.670  -2.225   3.265  1.00  0.00     0.056 A 
ATOM     15  C   UNL     1       4.573  -1.388   2.612  1.00  0.00    -0.015 A 
ATOM     16  C   UNL     1       5.124   0.366   0.910  1.00  0.00     0.254 C 
ATOM     17  N   UNL     1       6.364   0.536   1.525  1.00  0.00    -0.333 N 
ATOM     18  O   UNL     1       4.817   0.869  -0.166  1.00  0.00    -0.269 OA
ATOM     19  C   UNL     1       6.649  -0.089   2.816  1.00  0.00     0.135 C 
ATOM     20  C   UNL     1       7.362   1.391   0.908  1.00  0.00     0.147 C 
BRANCH  10  21
ATOM     21  O   UNL     1       0.547  -1.131   1.674  1.00  0.00    -0.490 OA
BRANCH  21  22
ATOM     22  C   UNL     1       0.272  -1.382   0.287  1.00  0.00     0.226 C 
ATOM     23  C   UNL     1       0.280  -0.103  -0.540  1.00  0.00     0.049 C 
ENDBRANCH  21  22
ENDBRANCH  10  21
BRANCH  12  24
ATOM     24  O   UNL     1       1.628  -3.122   3.667  1.00  0.00    -0.490 OA
BRANCH  24  25
ATOM     25  C   UNL     1       0.229  -3.274   3.516  1.00  0.00     0.226 C 
ATOM     26  C   UNL     1      -0.507  -2.269   4.380  1.00  0.00     0.049 C 
ENDBRANCH  24  25
ENDBRANCH  12  24
BRANCH  19  27
ATOM     27  C   UNL     1       6.141   0.726   4.061  1.00  0.00    -0.005 A 
ATOM     28  C   UNL     1       6.462   0.179   5.332  1.00  0.00     0.010 A 
ATOM     29  C   UNL     1       5.310   1.878   4.075  1.00  0.00     0.049 A 
ATOM     30  C   UNL     1       5.907   0.672   6.520  1.00  0.00     0.040 A 
ATOM     31  C   UNL     1       4.752   2.360   5.272  1.00  0.00     0.060 A 
ATOM     32  Cl  UNL     1       4.884   2.852   2.714  1.00  0.00    -0.084 Cl
ATOM     33  C   UNL     1       5.037   1.745   6.475  1.00  0.00     0.124 A 
ATOM     34  F   UNL     1       4.474   2.203   7.600  1.00  0.00    -0.207 F 
ENDBRANCH  19  27
ENDBRANCH   7   9
ENDBRANCH   6   7
ENDBRANCH   5   6
ENDBRANCH   4   5
ENDBRANCH   3   4
ENDBRANCH   2   3
ENDBRANCH   1   2
BRANCH   1  35
ATOM     35  O   UNL     1       9.832  -1.492   0.782  1.00  0.00    -0.376 OA
BRANCH  35  36
ATOM     36  C   UNL     1      10.662  -0.400   0.386  1.00  0.00     0.202 C 
BRANCH  36  37
ATOM     37  C   UNL     1      12.188  -0.556   0.541  1.00  0.00     0.261 C 
BRANCH  37  38
ATOM     38  O   UNL     1      12.674  -0.806   1.880  1.00  0.00    -0.460 OA
BRANCH  38  39
ATOM     39  C   UNL     1      12.171  -0.055   2.891  1.00  0.00     0.338 C 
ATOM     40  O   UNL     1      11.572   0.995   2.774  1.00  0.00    -0.246 OA
BRANCH  39  41
ATOM     41  C   UNL     1      12.208  -0.856   4.153  1.00  0.00     0.060 A 
ATOM     42  C   UNL     1      11.165  -0.665   5.073  1.00  0.00     0.016 A 
ATOM     43  C   UNL     1      13.178  -1.832   4.409  1.00  0.00     0.016 A 
ATOM     44  C   UNL     1      11.129  -1.387   6.268  1.00  0.00     0.010 A 
ATOM     45  C   UNL     1      13.146  -2.553   5.613  1.00  0.00     0.010 A 
ATOM     46  C   UNL     1      12.149  -2.298   6.572  1.00  0.00    -0.014 A 
BRANCH  46  47
ATOM     47  C   UNL     1      12.290  -2.787   7.973  1.00  0.00     0.031 A 
ATOM     48  C   UNL     1      13.297  -2.102   8.864  1.00  0.00     0.074 A 
ATOM     49  C   UNL     1      11.508  -3.759   8.479  1.00  0.00     0.049 A 
ATOM     50  N   UNL     1      13.580  -2.318  10.123  1.00  0.00    -0.248 NA
ATOM     51  C   UNL     1      14.089  -1.024   8.249  1.00  0.00     0.031 C 
ATOM     52  C   UNL     1      10.472  -4.485   7.747  1.00  0.00     0.029 A 
ATOM     53  N   UNL     1      11.466  -4.301   9.743  1.00  0.00    -0.354 N 
ATOM     54  C   UNL     1      14.580  -1.408  10.449  1.00  0.00     0.074 A 
ATOM     55  C   UNL     1      14.883  -0.666   9.246  1.00  0.00     0.031 C 
ATOM     56  C   UNL     1       9.897  -5.378   8.574  1.00  0.00     0.029 A 
ATOM     57  C   UNL     1      10.540  -5.309   9.887  1.00  0.00     0.049 A 
ATOM     58  H   UNL     1      12.046  -3.996  10.478  1.00  0.00     0.167 HD
ATOM     59  C   UNL     1      15.183  -1.194  11.643  1.00  0.00     0.037 A 
ATOM     60  C   UNL     1      10.253  -6.092  10.949  1.00  0.00     0.037 A 
ATOM     61  C   UNL     1      14.887  -1.930  12.844  1.00  0.00     0.049 A 
ATOM     62  C   UNL     1      10.985  -5.881  12.253  1.00  0.00     0.074 A 
ATOM     63  C   UNL     1      15.438  -1.774  14.104  1.00  0.00     0.029 A 
ATOM     64  N   UNL     1      13.970  -2.966  12.936  1.00  0.00    -0.354 N 
ATOM     65  N   UNL     1      11.908  -4.997  12.551  1.00  0.00    -0.248 NA
ATOM     66  C   UNL     1      10.629  -6.771  13.369  1.00  0.00     0.031 C 
ATOM     67  C   UNL     1      14.898  -2.753  14.943  1.00  0.00     0.029 A 
ATOM     68  C   UNL     1      13.959  -3.475  14.224  1.00  0.00     0.049 A 
ATOM     69  H   UNL     1      13.409  -3.291  12.195  1.00  0.00     0.167 HD
ATOM     70  C   UNL     1      12.215  -5.202  13.895  1.00  0.00     0.074 A 
ATOM     71  C   UNL     1      11.371  -6.285  14.354  1.00  0.00     0.031 C 
ATOM     72  C   UNL     1      13.111  -4.550  14.679  1.00  0.00     0.037 A 
BRANCH  59  73
ATOM     73  C   UNL     1      16.249  -0.133  11.702  1.00  0.00     0.058 A 
ATOM     74  C   UNL     1      15.943   1.234  11.595  1.00  0.00     0.135 A 
ATOM     75  C   UNL     1      17.593  -0.488  11.898  1.00  0.00     0.135 A 
ATOM     76  F   UNL     1      14.677   1.630  11.384  1.00  0.00    -0.206 F 
ATOM     77  C   UNL     1      16.935   2.208  11.653  1.00  0.00     0.059 A 
ATOM     78  C   UNL     1      18.597   0.471  11.991  1.00  0.00     0.059 A 
ATOM     79  F   UNL     1      17.943  -1.780  12.002  1.00  0.00    -0.206 F 
ATOM     80  C   UNL     1      18.259   1.816  11.853  1.00  0.00     0.060 A 
BRANCH  80  81
ATOM     81  S   UNL     1      19.533   3.092  11.930  1.00  0.00     0.124 S 
ATOM     82  O   UNL     1      19.587   3.533  10.539  1.00  0.00    -0.237 OA
ATOM     83  O   UNL     1      18.961   4.045  12.875  1.00  0.00    -0.237 OA
ATOM     84  O   UNL     1      20.710   2.371  12.404  1.00  0.00    -0.744 OA
ENDBRANCH  80  81
ENDBRANCH  59  73
BRANCH  60  85
ATOM     85  C   UNL     1       9.222  -7.163  10.832  1.00  0.00     0.058 A 
ATOM     86  C   UNL     1       8.012  -7.094  11.540  1.00  0.00     0.135 A 
ATOM     87  C   UNL     1       9.440  -8.292  10.027  1.00  0.00     0.135 A 
ATOM     88  F   UNL     1       7.762  -6.045  12.339  1.00  0.00    -0.206 F 
ATOM     89  C   UNL     1       7.063  -8.109  11.467  1.00  0.00     0.059 A 
ATOM     90  C   UNL     1       8.493  -9.306   9.913  1.00  0.00     0.059 A 
ATOM     91  F   UNL     1      10.579  -8.409   9.327  1.00  0.00    -0.206 F 
ATOM     92  C   UNL     1       7.311  -9.210  10.646  1.00  0.00     0.060 A 
BRANCH  92  93
ATOM     93  S   UNL     1       6.050 -10.498  10.517  1.00  0.00     0.124 S 
ATOM     94  O   UNL     1       6.144 -11.134  11.825  1.00  0.00    -0.237 OA
ATOM     95  O   UNL     1       4.842  -9.716  10.271  1.00  0.00    -0.237 OA
ATOM     96  O   UNL     1       6.508 -11.303   9.389  1.00  0.00    -0.744 OA
ENDBRANCH  92  93
ENDBRANCH  60  85
BRANCH  72  97
ATOM     97  C   UNL     1      13.195  -4.948  16.131  1.00  0.00     0.058 A 
ATOM     98  C   UNL     1      13.726  -6.183  16.537  1.00  0.00     0.135 A 
ATOM     99  C   UNL     1      12.771  -4.061  17.135  1.00  0.00     0.135 A 
ATOM    100  F   UNL     1      14.148  -7.071  15.623  1.00  0.00    -0.206 F 
ATOM    101  C   UNL     1      13.795  -6.540  17.881  1.00  0.00     0.059 A 
ATOM    102  C   UNL     1      12.862  -4.383  18.486  1.00  0.00     0.059 A 
ATOM    103  F   UNL     1      12.271  -2.858  16.808  1.00  0.00    -0.206 F 
ATOM    104  C   UNL     1      13.358  -5.634  18.849  1.00  0.00     0.060 A 
BRANCH 104 105
ATOM    105  S   UNL     1      13.457  -6.106  20.589  1.00  0.00     0.124 S 
ATOM    106  O   UNL     1      12.382  -7.088  20.689  1.00  0.00    -0.237 OA
ATOM    107  O   UNL     1      14.813  -6.638  20.691  1.00  0.00    -0.237 OA
ATOM    108  O   UNL     1      13.229  -4.851  21.297  1.00  0.00    -0.744 OA
ENDBRANCH 104 105
ENDBRANCH  72  97
ENDBRANCH  46  47
ENDBRANCH  39  41
ENDBRANCH  38  39
ENDBRANCH  37  38
ENDBRANCH  36  37
ENDBRANCH  35  36
ENDBRANCH   1  35
TORSDOF 25
