REMARK SMILES Cc1nsc(N(C)C(=O)c2ccc(F)cc2)c1C(=O)OCCOCCOCCOC(=O)c1ccc(-c2c3nc(c(-c4c(F)cc(S(=O)(=O)[O-])cc4F)c4ccc([nH]4)c(-c4c(F)cc(S(=O)(=O)[O-])cc4F)c4nc(c(-c5c(F)cc(S(=O)(=O)[O-])cc5F)c5ccc2[nH]5)C=C4)C=C3)cc1
REMARK SMILES IDX 24 1 23 2 22 3 21 4 20 5 18 6 19 7 17 8 1 9 2 10 3 11 4 12
REMARK SMILES IDX 5 13 6 14 7 15 8 16 9 17 10 18 11 19 16 20 12 21 15 22 13 23
REMARK SMILES IDX 14 24 25 25 26 26 27 27 28 28 29 29 30 30 31 31 32 32 33 33
REMARK SMILES IDX 97 34 34 35 96 36 35 37 36 38 37 39 90 40 38 41 95 42 89 43
REMARK SMILES IDX 91 44 39 45 94 46 88 47 87 48 40 50 74 51 53 52 73 53 54 54
REMARK SMILES IDX 57 55 72 56 92 57 55 58 56 59 71 61 93 62 58 63 41 64 42 65
REMARK SMILES IDX 51 66 43 67 44 68 50 69 52 70 45 71 46 72 47 73 48 74 49 75
REMARK SMILES IDX 75 76 76 77 85 78 77 79 78 80 84 81 86 82 79 83 80 84 81 85
REMARK SMILES IDX 82 86 83 87 59 88 60 89 69 90 61 91 62 92 68 93 70 94 63 95
REMARK SMILES IDX 64 96 65 97 66 98 67 99
REMARK H PARENT 91 49 57 60
REMARK Flexibility Score: inf
ROOT
ATOM      1  C   UNL     1       0.599   3.977  -2.199  1.00  0.00     0.188 C 
ENDROOT
BRANCH   1   2
ATOM      2  O   UNL     1       1.524   3.989  -3.275  1.00  0.00    -0.376 OA
BRANCH   2   3
ATOM      3  C   UNL     1       2.898   3.843  -2.909  1.00  0.00     0.202 C 
BRANCH   3   4
ATOM      4  C   UNL     1       3.265   2.494  -2.276  1.00  0.00     0.261 C 
BRANCH   4   5
ATOM      5  O   UNL     1       2.401   2.199  -1.173  1.00  0.00    -0.460 OA
BRANCH   5   6
ATOM      6  C   UNL     1       2.842   2.403   0.104  1.00  0.00     0.343 C 
ATOM      7  O   UNL     1       3.991   2.462   0.448  1.00  0.00    -0.246 OA
BRANCH   6   8
ATOM      8  C   UNL     1       1.693   2.393   1.009  1.00  0.00     0.117 A 
ATOM      9  C   UNL     1       1.082  -0.100   0.445  1.00  0.00     0.069 C 
ATOM     10  C   UNL     1       0.917   1.179   1.202  1.00  0.00     0.068 A 
ATOM     11  N   UNL     1      -0.066   1.244   2.091  1.00  0.00    -0.195 NA
ATOM     12  S   UNL     1      -0.160   2.776   2.655  1.00  0.00    -0.017 S 
ATOM     13  C   UNL     1       1.073   3.471   1.657  1.00  0.00     0.133 A 
BRANCH  13  14
ATOM     14  N   UNL     1       1.167   4.900   1.649  1.00  0.00    -0.301 N 
ATOM     15  C   UNL     1       0.232   5.777   2.377  1.00  0.00     0.154 C 
BRANCH  14  16
ATOM     16  C   UNL     1       2.124   5.517   0.816  1.00  0.00     0.258 C 
ATOM     17  O   UNL     1       2.995   4.959   0.160  1.00  0.00    -0.269 OA
BRANCH  16  18
ATOM     18  C   UNL     1       2.088   6.987   0.613  1.00  0.00     0.040 A 
ATOM     19  C   UNL     1       2.549   7.863   1.601  1.00  0.00     0.017 A 
ATOM     20  C   UNL     1       1.713   7.476  -0.649  1.00  0.00     0.017 A 
ATOM     21  C   UNL     1       2.599   9.233   1.335  1.00  0.00     0.040 A 
ATOM     22  C   UNL     1       1.773   8.845  -0.911  1.00  0.00     0.040 A 
ATOM     23  C   UNL     1       2.215   9.710   0.084  1.00  0.00     0.123 A 
ATOM     24  F   UNL     1       2.297  11.022  -0.172  1.00  0.00    -0.207 F 
ENDBRANCH  16  18
ENDBRANCH  14  16
ENDBRANCH  13  14
ENDBRANCH   6   8
ENDBRANCH   5   6
ENDBRANCH   4   5
ENDBRANCH   3   4
ENDBRANCH   2   3
ENDBRANCH   1   2
BRANCH   1  25
ATOM     25  C   UNL     1      -0.314   2.736  -2.100  1.00  0.00     0.188 C 
BRANCH  25  26
ATOM     26  O   UNL     1      -0.198   1.640  -2.999  1.00  0.00    -0.376 OA
BRANCH  26  27
ATOM     27  C   UNL     1       0.077   1.842  -4.379  1.00  0.00     0.202 C 
BRANCH  27  28
ATOM     28  C   UNL     1      -0.872   2.690  -5.220  1.00  0.00     0.261 C 
BRANCH  28  29
ATOM     29  O   UNL     1      -1.035   4.000  -4.703  1.00  0.00    -0.460 OA
BRANCH  29  30
ATOM     30  C   UNL     1      -2.155   4.174  -3.972  1.00  0.00     0.338 C 
ATOM     31  O   UNL     1      -2.989   3.330  -3.689  1.00  0.00    -0.246 OA
BRANCH  30  32
ATOM     32  C   UNL     1      -2.264   5.590  -3.594  1.00  0.00     0.060 A 
ATOM     33  C   UNL     1      -3.453   5.938  -2.957  1.00  0.00     0.016 A 
ATOM     34  C   UNL     1      -1.423   6.542  -4.196  1.00  0.00     0.016 A 
ATOM     35  C   UNL     1      -3.992   7.156  -3.272  1.00  0.00     0.010 A 
ATOM     36  C   UNL     1      -1.962   7.765  -4.507  1.00  0.00     0.010 A 
ATOM     37  C   UNL     1      -3.294   7.974  -4.167  1.00  0.00    -0.014 A 
BRANCH  37  38
ATOM     38  C   UNL     1      -4.088   8.945  -4.881  1.00  0.00     0.031 A 
ATOM     39  C   UNL     1      -4.454  10.133  -4.101  1.00  0.00     0.074 A 
ATOM     40  C   UNL     1      -4.484   8.732  -6.149  1.00  0.00     0.049 A 
ATOM     41  N   UNL     1      -5.620  10.461  -3.659  1.00  0.00    -0.248 NA
ATOM     42  C   UNL     1      -3.353  10.978  -3.630  1.00  0.00     0.031 C 
ATOM     43  C   UNL     1      -4.003   7.741  -7.116  1.00  0.00     0.029 A 
ATOM     44  N   UNL     1      -5.374   9.458  -6.868  1.00  0.00    -0.354 N 
ATOM     45  C   UNL     1      -5.435  11.655  -2.978  1.00  0.00     0.074 A 
ATOM     46  C   UNL     1      -4.010  11.848  -2.865  1.00  0.00     0.031 C 
ATOM     47  C   UNL     1      -4.441   8.085  -8.349  1.00  0.00     0.029 A 
ATOM     48  C   UNL     1      -5.324   9.235  -8.233  1.00  0.00     0.049 A 
ATOM     49  H   UNL     1      -6.004  10.091  -6.454  1.00  0.00     0.167 HD
ATOM     50  C   UNL     1      -6.464  12.497  -2.698  1.00  0.00     0.037 A 
ATOM     51  C   UNL     1      -5.878  10.038  -9.174  1.00  0.00     0.037 A 
ATOM     52  C   UNL     1      -7.744  11.863  -2.859  1.00  0.00     0.049 A 
ATOM     53  C   UNL     1      -6.958  10.816  -8.498  1.00  0.00     0.074 A 
ATOM     54  C   UNL     1      -8.383  10.817  -2.223  1.00  0.00     0.029 A 
ATOM     55  N   UNL     1      -8.427  12.061  -4.036  1.00  0.00    -0.354 N 
ATOM     56  N   UNL     1      -8.057  10.287  -8.026  1.00  0.00    -0.248 NA
ATOM     57  C   UNL     1      -6.621  12.123  -7.947  1.00  0.00     0.031 C 
ATOM     58  C   UNL     1      -9.121  10.150  -3.243  1.00  0.00     0.029 A 
ATOM     59  C   UNL     1      -8.909  10.839  -4.439  1.00  0.00     0.049 A 
ATOM     60  H   UNL     1      -8.547  12.919  -4.503  1.00  0.00     0.167 HD
ATOM     61  C   UNL     1      -8.326  10.985  -6.855  1.00  0.00     0.074 A 
ATOM     62  C   UNL     1      -7.463  12.161  -6.910  1.00  0.00     0.031 C 
ATOM     63  C   UNL     1      -9.013  10.413  -5.821  1.00  0.00     0.037 A 
BRANCH  50  64
ATOM     64  C   UNL     1      -6.290  13.975  -2.522  1.00  0.00     0.058 A 
ATOM     65  C   UNL     1      -5.267  14.706  -3.166  1.00  0.00     0.135 A 
ATOM     66  C   UNL     1      -7.285  14.735  -1.883  1.00  0.00     0.135 A 
ATOM     67  F   UNL     1      -4.334  14.108  -3.919  1.00  0.00    -0.206 F 
ATOM     68  C   UNL     1      -5.207  16.091  -3.143  1.00  0.00     0.059 A 
ATOM     69  C   UNL     1      -7.279  16.131  -1.903  1.00  0.00     0.059 A 
ATOM     70  F   UNL     1      -8.317  14.133  -1.272  1.00  0.00    -0.206 F 
ATOM     71  C   UNL     1      -6.234  16.797  -2.535  1.00  0.00     0.060 A 
BRANCH  71  72
ATOM     72  S   UNL     1      -6.230  18.589  -2.710  1.00  0.00     0.124 S 
ATOM     73  O   UNL     1      -5.129  18.965  -1.829  1.00  0.00    -0.237 OA
ATOM     74  O   UNL     1      -5.985  18.753  -4.140  1.00  0.00    -0.237 OA
ATOM     75  O   UNL     1      -7.562  18.973  -2.257  1.00  0.00    -0.744 OA
ENDBRANCH  71  72
ENDBRANCH  50  64
BRANCH  51  76
ATOM     76  C   UNL     1      -5.237  10.468 -10.448  1.00  0.00     0.058 A 
ATOM     77  C   UNL     1      -3.841  10.392 -10.650  1.00  0.00     0.135 A 
ATOM     78  C   UNL     1      -5.955  11.220 -11.395  1.00  0.00     0.135 A 
ATOM     79  F   UNL     1      -3.039   9.754  -9.787  1.00  0.00    -0.206 F 
ATOM     80  C   UNL     1      -3.196  11.050 -11.692  1.00  0.00     0.059 A 
ATOM     81  C   UNL     1      -5.326  11.903 -12.443  1.00  0.00     0.059 A 
ATOM     82  F   UNL     1      -7.284  11.364 -11.273  1.00  0.00    -0.206 F 
ATOM     83  C   UNL     1      -3.940  11.834 -12.563  1.00  0.00     0.060 A 
BRANCH  83  84
ATOM     84  S   UNL     1      -3.039  12.825 -13.773  1.00  0.00     0.124 S 
ATOM     85  O   UNL     1      -2.245  13.695 -12.911  1.00  0.00    -0.237 OA
ATOM     86  O   UNL     1      -2.289  11.806 -14.503  1.00  0.00    -0.237 OA
ATOM     87  O   UNL     1      -4.097  13.486 -14.530  1.00  0.00    -0.744 OA
ENDBRANCH  83  84
ENDBRANCH  51  76
BRANCH  63  88
ATOM     88  C   UNL     1      -9.701   9.091  -6.064  1.00  0.00     0.058 A 
ATOM     89  C   UNL     1     -11.077   8.986  -5.809  1.00  0.00     0.135 A 
ATOM     90  C   UNL     1      -9.011   7.899  -6.354  1.00  0.00     0.135 A 
ATOM     91  F   UNL     1     -11.784  10.076  -5.467  1.00  0.00    -0.206 F 
ATOM     92  C   UNL     1     -11.739   7.761  -5.834  1.00  0.00     0.059 A 
ATOM     93  C   UNL     1      -9.660   6.665  -6.418  1.00  0.00     0.059 A 
ATOM     94  F   UNL     1      -7.680   7.896  -6.505  1.00  0.00    -0.206 F 
ATOM     95  C   UNL     1     -11.022   6.603  -6.136  1.00  0.00     0.060 A 
BRANCH  95  96
ATOM     96  S   UNL     1     -11.893   5.021  -6.117  1.00  0.00     0.124 S 
ATOM     97  O   UNL     1     -12.147   4.835  -4.692  1.00  0.00    -0.237 OA
ATOM     98  O   UNL     1     -13.071   5.301  -6.934  1.00  0.00    -0.237 OA
ATOM     99  O   UNL     1     -10.937   4.089  -6.707  1.00  0.00    -0.744 OA
ENDBRANCH  95  96
ENDBRANCH  63  88
ENDBRANCH  37  38
ENDBRANCH  30  32
ENDBRANCH  29  30
ENDBRANCH  28  29
ENDBRANCH  27  28
ENDBRANCH  26  27
ENDBRANCH  25  26
ENDBRANCH   1  25
TORSDOF 23
