REMARK SMILES O=C(CCCN1C(=O)/C(=C/c2cc(Br)ccc2O)SC1=S)OCCOCCOCCOC(=O)c1ccc(-c2c3nc(c(-c4c(F)cc(S(=O)(=O)[O-])cc4F)c4ccc([nH]4)c(-c4c(F)cc(S(=O)(=O)[O-])cc4F)c4nc(c(-c5c(F)cc(S(=O)(=O)[O-])cc5F)c5ccc2[nH]5)C=C4)C=C3)cc1
REMARK SMILES IDX 26 1 25 2 24 3 23 4 22 5 2 6 1 7 3 8 4 9 5 10 6 11 7 12
REMARK SMILES IDX 20 13 8 14 9 15 19 16 21 17 10 18 11 19 12 20 17 21 13 22
REMARK SMILES IDX 16 23 14 24 15 25 18 26 27 28 28 29 29 30 30 31 31 32 32 33
REMARK SMILES IDX 33 34 34 35 35 36 99 37 36 38 98 39 37 40 38 41 39 42 92 43
REMARK SMILES IDX 40 44 97 45 91 46 93 47 41 48 96 49 90 50 89 51 42 53 76 54
REMARK SMILES IDX 55 55 75 56 56 57 59 58 74 59 94 60 57 61 58 62 73 64 95 65
REMARK SMILES IDX 60 66 43 67 44 68 53 69 45 70 46 71 52 72 54 73 47 74 48 75
REMARK SMILES IDX 49 76 50 77 51 78 77 79 78 80 87 81 79 82 80 83 86 84 88 85
REMARK SMILES IDX 81 86 82 87 83 88 84 89 85 90 61 91 62 92 71 93 63 94 64 95
REMARK SMILES IDX 70 96 72 97 65 98 66 99 67 100 68 101 69 102
REMARK H PARENT 18 27 93 52 59 63
REMARK Flexibility Score: inf
ROOT
ATOM      1  C   UNL     1       1.610   0.501   1.622  1.00  0.00     0.188 C 
ENDROOT
BRANCH   1   2
ATOM      2  O   UNL     1       2.838  -0.201   1.467  1.00  0.00    -0.376 OA
BRANCH   2   3
ATOM      3  C   UNL     1       3.911   0.525   0.877  1.00  0.00     0.202 C 
BRANCH   3   4
ATOM      4  C   UNL     1       3.613   1.231  -0.440  1.00  0.00     0.261 C 
BRANCH   4   5
ATOM      5  O   UNL     1       3.051   0.478  -1.537  1.00  0.00    -0.463 OA
BRANCH   5   6
ATOM      6  C   UNL     1       2.596  -0.789  -1.473  1.00  0.00     0.305 C 
ATOM      7  O   UNL     1       1.467  -1.060  -1.874  1.00  0.00    -0.252 OA
BRANCH   6   8
ATOM      8  C   UNL     1       3.590  -1.867  -1.107  1.00  0.00     0.124 C 
BRANCH   8   9
ATOM      9  C   UNL     1       4.742  -2.019  -2.094  1.00  0.00     0.034 C 
BRANCH   9  10
ATOM     10  C   UNL     1       5.974  -1.107  -1.933  1.00  0.00     0.128 C 
BRANCH  10  11
ATOM     11  N   UNL     1       6.644  -0.995  -0.623  1.00  0.00    -0.293 N 
ATOM     12  C   UNL     1       7.074   0.268  -0.223  1.00  0.00     0.266 C 
ATOM     13  C   UNL     1       7.064  -2.034   0.185  1.00  0.00     0.148 C 
ATOM     14  O   UNL     1       6.965   1.306  -0.864  1.00  0.00    -0.268 OA
ATOM     15  C   UNL     1       7.701   0.224   1.126  1.00  0.00     0.081 C 
ATOM     16  S   UNL     1       7.775  -1.399   1.670  1.00  0.00    -0.054 SA
ATOM     17  S   UNL     1       6.997  -3.675  -0.090  1.00  0.00    -0.052 S 
ATOM     18  C   UNL     1       8.095   1.336   1.767  1.00  0.00     0.033 C 
BRANCH  18  19
ATOM     19  C   UNL     1       8.739   1.381   3.091  1.00  0.00     0.019 A 
ATOM     20  C   UNL     1       8.064   1.980   4.162  1.00  0.00     0.027 A 
ATOM     21  C   UNL     1      10.016   0.847   3.317  1.00  0.00     0.122 A 
ATOM     22  C   UNL     1       8.628   1.974   5.440  1.00  0.00     0.018 A 
ATOM     23  C   UNL     1      10.583   0.848   4.592  1.00  0.00     0.048 A 
ATOM     24  Br  UNL     1       7.683   2.744   6.886  1.00  0.00    -0.051 Br
ATOM     25  C   UNL     1       9.879   1.402   5.662  1.00  0.00     0.019 A 
BRANCH  21  26
ATOM     26  O   UNL     1      10.720   0.335   2.261  1.00  0.00    -0.507 OA
ATOM     27  H   UNL     1      10.343   0.332   1.403  1.00  0.00     0.293 HD
ENDBRANCH  21  26
ENDBRANCH  18  19
ENDBRANCH  10  11
ENDBRANCH   9  10
ENDBRANCH   8   9
ENDBRANCH   6   8
ENDBRANCH   5   6
ENDBRANCH   4   5
ENDBRANCH   3   4
ENDBRANCH   2   3
ENDBRANCH   1   2
BRANCH   1  28
ATOM     28  C   UNL     1       1.607   1.573   2.714  1.00  0.00     0.188 C 
BRANCH  28  29
ATOM     29  O   UNL     1       2.777   2.391   2.693  1.00  0.00    -0.376 OA
BRANCH  29  30
ATOM     30  C   UNL     1       3.397   2.516   3.979  1.00  0.00     0.202 C 
BRANCH  30  31
ATOM     31  C   UNL     1       4.339   1.357   4.356  1.00  0.00     0.261 C 
BRANCH  31  32
ATOM     32  O   UNL     1       3.785   0.036   4.287  1.00  0.00    -0.460 OA
BRANCH  32  33
ATOM     33  C   UNL     1       2.923  -0.303   5.263  1.00  0.00     0.338 C 
ATOM     34  O   UNL     1       2.491   0.428   6.146  1.00  0.00    -0.246 OA
BRANCH  33  35
ATOM     35  C   UNL     1       2.520  -1.704   5.069  1.00  0.00     0.060 A 
ATOM     36  C   UNL     1       1.234  -1.995   4.602  1.00  0.00     0.016 A 
ATOM     37  C   UNL     1       3.393  -2.731   5.439  1.00  0.00     0.016 A 
ATOM     38  C   UNL     1       0.801  -3.321   4.545  1.00  0.00     0.010 A 
ATOM     39  C   UNL     1       2.954  -4.058   5.389  1.00  0.00     0.010 A 
ATOM     40  C   UNL     1       1.643  -4.356   4.981  1.00  0.00    -0.014 A 
BRANCH  40  41
ATOM     41  C   UNL     1       1.087  -5.713   5.208  1.00  0.00     0.031 A 
ATOM     42  C   UNL     1       0.592  -6.061   6.587  1.00  0.00     0.074 A 
ATOM     43  C   UNL     1       1.011  -6.617   4.216  1.00  0.00     0.049 A 
ATOM     44  N   UNL     1       0.066  -7.175   7.027  1.00  0.00    -0.248 NA
ATOM     45  C   UNL     1       0.706  -5.005   7.606  1.00  0.00     0.031 C 
ATOM     46  C   UNL     1       1.431  -6.393   2.834  1.00  0.00     0.029 A 
ATOM     47  N   UNL     1       0.556  -7.913   4.225  1.00  0.00    -0.354 N 
ATOM     48  C   UNL     1      -0.215  -6.954   8.371  1.00  0.00     0.074 A 
ATOM     49  C   UNL     1       0.229  -5.612   8.681  1.00  0.00     0.031 C 
ATOM     50  C   UNL     1       1.218  -7.518   2.127  1.00  0.00     0.029 A 
ATOM     51  C   UNL     1       0.670  -8.547   3.011  1.00  0.00     0.049 A 
ATOM     52  H   UNL     1       0.182  -8.346   5.026  1.00  0.00     0.167 HD
ATOM     53  C   UNL     1      -0.798  -7.789   9.264  1.00  0.00     0.037 A 
ATOM     54  C   UNL     1       0.374  -9.814   2.659  1.00  0.00     0.037 A 
ATOM     55  C   UNL     1      -1.216  -9.132   8.959  1.00  0.00     0.049 A 
ATOM     56  C   UNL     1      -0.210 -10.752   3.686  1.00  0.00     0.074 A 
ATOM     57  C   UNL     1      -1.822 -10.056   9.790  1.00  0.00     0.029 A 
ATOM     58  N   UNL     1      -1.055  -9.748   7.726  1.00  0.00    -0.354 N 
ATOM     59  N   UNL     1      -0.504 -10.520   4.944  1.00  0.00    -0.248 NA
ATOM     60  C   UNL     1      -0.508 -12.122   3.244  1.00  0.00     0.031 C 
ATOM     61  C   UNL     1      -1.983 -11.248   9.074  1.00  0.00     0.029 A 
ATOM     62  C   UNL     1      -1.528 -11.049   7.780  1.00  0.00     0.049 A 
ATOM     63  H   UNL     1      -0.663  -9.323   6.929  1.00  0.00     0.167 HD
ATOM     64  C   UNL     1      -1.053 -11.702   5.433  1.00  0.00     0.074 A 
ATOM     65  C   UNL     1      -1.050 -12.647   4.335  1.00  0.00     0.031 C 
ATOM     66  C   UNL     1      -1.524 -11.977   6.676  1.00  0.00     0.037 A 
BRANCH  53  67
ATOM     67  C   UNL     1      -0.976  -7.274  10.667  1.00  0.00     0.058 A 
ATOM     68  C   UNL     1      -1.909  -6.270  10.973  1.00  0.00     0.135 A 
ATOM     69  C   UNL     1      -0.192  -7.780  11.716  1.00  0.00     0.135 A 
ATOM     70  F   UNL     1      -2.673  -5.738  10.005  1.00  0.00    -0.206 F 
ATOM     71  C   UNL     1      -2.027  -5.755  12.260  1.00  0.00     0.059 A 
ATOM     72  C   UNL     1      -0.312  -7.299  13.016  1.00  0.00     0.059 A 
ATOM     73  F   UNL     1       0.716  -8.740  11.479  1.00  0.00    -0.206 F 
ATOM     74  C   UNL     1      -1.217  -6.270  13.273  1.00  0.00     0.060 A 
BRANCH  74  75
ATOM     75  S   UNL     1      -1.353  -5.567  14.931  1.00  0.00     0.124 S 
ATOM     76  O   UNL     1      -0.674  -4.287  14.760  1.00  0.00    -0.237 OA
ATOM     77  O   UNL     1      -2.798  -5.497  15.125  1.00  0.00    -0.237 OA
ATOM     78  O   UNL     1      -0.658  -6.539  15.770  1.00  0.00    -0.744 OA
ENDBRANCH  74  75
ENDBRANCH  53  67
BRANCH  54  79
ATOM     79  C   UNL     1       0.612 -10.268   1.262  1.00  0.00     0.058 A 
ATOM     80  C   UNL     1      -0.458 -10.519   0.391  1.00  0.00     0.135 A 
ATOM     81  C   UNL     1       1.913 -10.442   0.765  1.00  0.00     0.135 A 
ATOM     82  F   UNL     1      -1.721 -10.383   0.823  1.00  0.00    -0.206 F 
ATOM     83  C   UNL     1      -0.249 -10.928  -0.923  1.00  0.00     0.059 A 
ATOM     84  C   UNL     1       2.148 -10.828  -0.551  1.00  0.00     0.059 A 
ATOM     85  F   UNL     1       2.971 -10.212   1.558  1.00  0.00    -0.206 F 
ATOM     86  C   UNL     1       1.060 -11.073  -1.387  1.00  0.00     0.060 A 
BRANCH  86  87
ATOM     87  S   UNL     1       1.320 -11.537  -3.114  1.00  0.00     0.124 S 
ATOM     88  O   UNL     1       0.925 -12.941  -3.104  1.00  0.00    -0.237 OA
ATOM     89  O   UNL     1       0.421 -10.626  -3.815  1.00  0.00    -0.237 OA
ATOM     90  O   UNL     1       2.743 -11.283  -3.319  1.00  0.00    -0.744 OA
ENDBRANCH  86  87
ENDBRANCH  54  79
BRANCH  66  91
ATOM     91  C   UNL     1      -2.118 -13.341   6.911  1.00  0.00     0.058 A 
ATOM     92  C   UNL     1      -1.321 -14.492   7.005  1.00  0.00     0.135 A 
ATOM     93  C   UNL     1      -3.502 -13.485   7.102  1.00  0.00     0.135 A 
ATOM     94  F   UNL     1       0.007 -14.411   6.827  1.00  0.00    -0.206 F 
ATOM     95  C   UNL     1      -1.878 -15.743   7.256  1.00  0.00     0.059 A 
ATOM     96  C   UNL     1      -4.077 -14.721   7.381  1.00  0.00     0.059 A 
ATOM     97  F   UNL     1      -4.309 -12.415   7.036  1.00  0.00    -0.206 F 
ATOM     98  C   UNL     1      -3.258 -15.847   7.444  1.00  0.00     0.060 A 
BRANCH  98  99
ATOM     99  S   UNL     1      -3.966 -17.470   7.802  1.00  0.00     0.124 S 
ATOM    100  O   UNL     1      -3.912 -18.109   6.491  1.00  0.00    -0.237 OA
ATOM    101  O   UNL     1      -3.046 -17.999   8.804  1.00  0.00    -0.237 OA
ATOM    102  O   UNL     1      -5.304 -17.156   8.293  1.00  0.00    -0.744 OA
ENDBRANCH  98  99
ENDBRANCH  66  91
ENDBRANCH  40  41
ENDBRANCH  33  35
ENDBRANCH  32  33
ENDBRANCH  31  32
ENDBRANCH  30  31
ENDBRANCH  29  30
ENDBRANCH  28  29
ENDBRANCH   1  28
TORSDOF 25
