REMARK SMILES Cc1sc(NC(=O)[C@@H]2[C@@H](C(=O)OCCOCCOCCOC(=O)c3ccc(-c4c5nc(c(-c6c(F)cc(S(=O)(=O)[O-])cc6F)c6ccc([nH]6)c(-c6c(F)cc(S(=O)(=O)[O-])cc6F)c6nc(c(-c7c(F)cc(S(=O)(=O)[O-])cc7F)c7ccc4[nH]7)C=C6)C=C5)cc3)[C@@H]3C=C[C@H]2C3)c(C#N)c1C
REMARK SMILES IDX 16 1 15 2 14 3 13 4 12 5 10 6 11 7 9 8 8 9 93 10 90 11 92 12
REMARK SMILES IDX 94 13 91 14 6 15 5 16 7 18 4 19 1 20 2 21 3 22 98 23 95 24
REMARK SMILES IDX 99 25 96 26 97 27 17 28 18 29 19 30 20 31 21 32 22 33 23 34
REMARK SMILES IDX 24 35 25 36 89 37 26 38 88 39 27 40 28 41 29 42 82 43 30 44
REMARK SMILES IDX 87 45 81 46 83 47 31 48 86 49 80 50 79 51 32 53 66 54 45 55
REMARK SMILES IDX 65 56 46 57 49 58 64 59 84 60 47 61 48 62 63 64 85 65 50 66
REMARK SMILES IDX 33 67 34 68 43 69 35 70 36 71 42 72 44 73 37 74 38 75 39 76
REMARK SMILES IDX 40 77 41 78 67 79 68 80 77 81 69 82 70 83 76 84 78 85 71 86
REMARK SMILES IDX 72 87 73 88 74 89 75 90 51 91 52 92 61 93 53 94 54 95 60 96
REMARK SMILES IDX 62 97 55 98 56 99 57 100 58 101 59 102
REMARK H PARENT 5 17 83 52 49 63
REMARK Flexibility Score: inf
ROOT
ATOM      1  C   UNL     1      -0.711  -4.218   0.509  1.00  0.00     0.188 C 
ENDROOT
BRANCH   1   2
ATOM      2  O   UNL     1      -1.019  -4.832  -0.730  1.00  0.00    -0.376 OA
BRANCH   2   3
ATOM      3  C   UNL     1      -2.100  -5.750  -0.764  1.00  0.00     0.202 C 
BRANCH   3   4
ATOM      4  C   UNL     1      -2.282  -6.806   0.358  1.00  0.00     0.261 C 
BRANCH   4   5
ATOM      5  O   UNL     1      -1.800  -6.479   1.690  1.00  0.00    -0.463 OA
BRANCH   5   6
ATOM      6  C   UNL     1      -0.500  -6.788   1.944  1.00  0.00     0.310 C 
ATOM      7  O   UNL     1       0.163  -7.455   1.153  1.00  0.00    -0.252 OA
BRANCH   6   8
ATOM      8  C   UNL     1       0.061  -6.217   3.293  1.00  0.00     0.119 C 
ATOM      9  C   UNL     1       0.564  -4.641   3.536  1.00  0.00     0.100 C 
ATOM     10  C   UNL     1       2.095  -4.865   3.758  1.00  0.00     0.025 C 
ATOM     11  C   UNL     1       1.419  -6.981   3.415  1.00  0.00     0.027 C 
ATOM     12  C   UNL     1       2.341  -5.654   5.027  1.00  0.00    -0.027 C 
ATOM     13  C   UNL     1       2.384  -5.986   2.752  1.00  0.00     0.017 C 
ATOM     14  C   UNL     1       1.914  -6.907   4.825  1.00  0.00    -0.027 C 
BRANCH   9  15
ATOM     15  C   UNL     1      -0.093  -3.906   4.744  1.00  0.00     0.229 C 
ATOM     16  N   UNL     1      -0.227  -2.563   5.020  1.00  0.00    -0.316 N 
ATOM     17  H   UNL     1      -0.516  -2.450   5.954  1.00  0.00     0.170 HD
ATOM     18  O   UNL     1      -0.559  -4.622   5.651  1.00  0.00    -0.274 OA
BRANCH  16  19
ATOM     19  C   UNL     1      -0.091  -1.303   4.421  1.00  0.00     0.113 A 
ATOM     20  C   UNL     1      -0.692   1.252   1.533  1.00  0.00     0.057 C 
ATOM     21  C   UNL     1      -0.229   0.488   2.738  1.00  0.00     0.008 A 
ATOM     22  S   UNL     1       0.460  -1.089   2.841  1.00  0.00    -0.122 S 
ATOM     23  C   UNL     1      -0.268   1.042   3.995  1.00  0.00    -0.017 A 
ATOM     24  C   UNL     1      -0.400  -0.035   4.948  1.00  0.00     0.090 A 
ATOM     25  C   UNL     1      -0.431   2.528   4.168  1.00  0.00     0.047 C 
BRANCH  24  26
ATOM     26  C   UNL     1      -0.926   0.209   6.252  1.00  0.00     0.103 C 
ATOM     27  N   UNL     1      -1.419   0.432   7.287  1.00  0.00    -0.192 NA
ENDBRANCH  24  26
ENDBRANCH  16  19
ENDBRANCH   9  15
ENDBRANCH   6   8
ENDBRANCH   5   6
ENDBRANCH   4   5
ENDBRANCH   3   4
ENDBRANCH   2   3
ENDBRANCH   1   2
BRANCH   1  28
ATOM     28  C   UNL     1      -1.854  -3.770   1.474  1.00  0.00     0.188 C 
BRANCH  28  29
ATOM     29  O   UNL     1      -3.145  -4.018   0.979  1.00  0.00    -0.376 OA
BRANCH  29  30
ATOM     30  C   UNL     1      -3.845  -2.996   0.305  1.00  0.00     0.202 C 
BRANCH  30  31
ATOM     31  C   UNL     1      -3.233  -1.927  -0.628  1.00  0.00     0.261 C 
BRANCH  31  32
ATOM     32  O   UNL     1      -1.997  -2.121  -1.344  1.00  0.00    -0.460 OA
BRANCH  32  33
ATOM     33  C   UNL     1      -0.970  -1.591  -0.641  1.00  0.00     0.338 C 
ATOM     34  O   UNL     1      -1.065  -1.408   0.560  1.00  0.00    -0.246 OA
BRANCH  33  35
ATOM     35  C   UNL     1       0.209  -1.018  -1.338  1.00  0.00     0.060 A 
ATOM     36  C   UNL     1       1.234  -0.576  -0.480  1.00  0.00     0.016 A 
ATOM     37  C   UNL     1      -0.143  -0.235  -2.426  1.00  0.00     0.016 A 
ATOM     38  C   UNL     1       1.530   0.782  -0.444  1.00  0.00     0.010 A 
ATOM     39  C   UNL     1       0.165   1.121  -2.403  1.00  0.00     0.010 A 
ATOM     40  C   UNL     1       0.889   1.666  -1.339  1.00  0.00    -0.014 A 
BRANCH  40  41
ATOM     41  C   UNL     1       1.313   3.087  -1.380  1.00  0.00     0.031 A 
ATOM     42  C   UNL     1       2.803   3.104  -1.520  1.00  0.00     0.074 A 
ATOM     43  C   UNL     1       0.483   4.171  -1.435  1.00  0.00     0.049 A 
ATOM     44  N   UNL     1       3.662   3.670  -0.737  1.00  0.00    -0.248 NA
ATOM     45  C   UNL     1       3.425   2.118  -2.442  1.00  0.00     0.031 C 
ATOM     46  C   UNL     1      -0.981   4.171  -1.303  1.00  0.00     0.029 A 
ATOM     47  N   UNL     1       0.731   5.508  -1.725  1.00  0.00    -0.354 N 
ATOM     48  C   UNL     1       4.901   3.368  -1.303  1.00  0.00     0.074 A 
ATOM     49  C   UNL     1       4.713   2.208  -2.119  1.00  0.00     0.031 C 
ATOM     50  C   UNL     1      -1.497   5.336  -1.761  1.00  0.00     0.029 A 
ATOM     51  C   UNL     1      -0.422   6.228  -2.147  1.00  0.00     0.049 A 
ATOM     52  H   UNL     1       1.622   5.918  -1.646  1.00  0.00     0.167 HD
ATOM     53  C   UNL     1       5.830   4.351  -1.424  1.00  0.00     0.037 A 
ATOM     54  C   UNL     1      -0.490   7.438  -2.797  1.00  0.00     0.037 A 
ATOM     55  C   UNL     1       5.612   5.357  -0.417  1.00  0.00     0.049 A 
ATOM     56  C   UNL     1       0.801   8.117  -2.556  1.00  0.00     0.074 A 
ATOM     57  C   UNL     1       5.612   5.380   0.962  1.00  0.00     0.029 A 
ATOM     58  N   UNL     1       4.892   6.440  -0.838  1.00  0.00    -0.354 N 
ATOM     59  N   UNL     1       1.172   8.552  -1.387  1.00  0.00    -0.248 NA
ATOM     60  C   UNL     1       1.862   7.843  -3.505  1.00  0.00     0.031 C 
ATOM     61  C   UNL     1       4.614   6.327   1.329  1.00  0.00     0.029 A 
ATOM     62  C   UNL     1       4.123   6.935   0.174  1.00  0.00     0.049 A 
ATOM     63  H   UNL     1       4.923   6.812  -1.749  1.00  0.00     0.167 HD
ATOM     64  C   UNL     1       2.485   8.125  -1.281  1.00  0.00     0.074 A 
ATOM     65  C   UNL     1       2.878   7.765  -2.645  1.00  0.00     0.031 C 
ATOM     66  C   UNL     1       3.003   7.819  -0.056  1.00  0.00     0.037 A 
BRANCH  53  67
ATOM     67  C   UNL     1       6.516   4.650  -2.748  1.00  0.00     0.058 A 
ATOM     68  C   UNL     1       7.534   5.621  -2.783  1.00  0.00     0.135 A 
ATOM     69  C   UNL     1       6.047   4.231  -4.020  1.00  0.00     0.135 A 
ATOM     70  F   UNL     1       8.024   6.132  -1.643  1.00  0.00    -0.206 F 
ATOM     71  C   UNL     1       8.033   6.142  -3.981  1.00  0.00     0.059 A 
ATOM     72  C   UNL     1       6.565   4.696  -5.221  1.00  0.00     0.059 A 
ATOM     73  F   UNL     1       5.001   3.416  -4.181  1.00  0.00    -0.206 F 
ATOM     74  C   UNL     1       7.547   5.665  -5.195  1.00  0.00     0.060 A 
BRANCH  74  75
ATOM     75  S   UNL     1       8.199   6.317  -6.739  1.00  0.00     0.124 S 
ATOM     76  O   UNL     1       7.723   7.694  -6.702  1.00  0.00    -0.237 OA
ATOM     77  O   UNL     1       9.634   6.127  -6.555  1.00  0.00    -0.237 OA
ATOM     78  O   UNL     1       7.585   5.463  -7.752  1.00  0.00    -0.744 OA
ENDBRANCH  74  75
ENDBRANCH  53  67
BRANCH  54  79
ATOM     79  C   UNL     1      -1.406   7.935  -3.890  1.00  0.00     0.058 A 
ATOM     80  C   UNL     1      -1.340   9.257  -4.409  1.00  0.00     0.135 A 
ATOM     81  C   UNL     1      -2.146   7.033  -4.673  1.00  0.00     0.135 A 
ATOM     82  F   UNL     1      -0.651  10.207  -3.756  1.00  0.00    -0.206 F 
ATOM     83  C   UNL     1      -1.909   9.627  -5.646  1.00  0.00     0.059 A 
ATOM     84  C   UNL     1      -2.721   7.378  -5.901  1.00  0.00     0.059 A 
ATOM     85  F   UNL     1      -2.255   5.747  -4.314  1.00  0.00    -0.206 F 
ATOM     86  C   UNL     1      -2.577   8.666  -6.401  1.00  0.00     0.060 A 
BRANCH  86  87
ATOM     87  S   UNL     1      -3.146   9.045  -8.084  1.00  0.00     0.124 S 
ATOM     88  O   UNL     1      -4.248   9.967  -7.838  1.00  0.00    -0.237 OA
ATOM     89  O   UNL     1      -1.955   9.624  -8.696  1.00  0.00    -0.237 OA
ATOM     90  O   UNL     1      -3.535   7.738  -8.609  1.00  0.00    -0.744 OA
ENDBRANCH  86  87
ENDBRANCH  54  79
BRANCH  66  91
ATOM     91  C   UNL     1       2.311   8.358   1.169  1.00  0.00     0.058 A 
ATOM     92  C   UNL     1       1.031   7.994   1.624  1.00  0.00     0.135 A 
ATOM     93  C   UNL     1       3.076   9.194   1.999  1.00  0.00     0.135 A 
ATOM     94  F   UNL     1       0.273   7.127   0.933  1.00  0.00    -0.206 F 
ATOM     95  C   UNL     1       0.529   8.469   2.841  1.00  0.00     0.059 A 
ATOM     96  C   UNL     1       2.612   9.645   3.226  1.00  0.00     0.059 A 
ATOM     97  F   UNL     1       4.325   9.534   1.641  1.00  0.00    -0.206 F 
ATOM     98  C   UNL     1       1.331   9.293   3.636  1.00  0.00     0.060 A 
BRANCH  98  99
ATOM     99  S   UNL     1       0.719   9.869   5.235  1.00  0.00     0.124 S 
ATOM    100  O   UNL     1      -0.345  10.786   4.842  1.00  0.00    -0.237 OA
ATOM    101  O   UNL     1       0.286   8.627   5.870  1.00  0.00    -0.237 OA
ATOM    102  O   UNL     1       1.889  10.496   5.844  1.00  0.00    -0.744 OA
ENDBRANCH  98  99
ENDBRANCH  66  91
ENDBRANCH  40  41
ENDBRANCH  33  35
ENDBRANCH  32  33
ENDBRANCH  31  32
ENDBRANCH  30  31
ENDBRANCH  29  30
ENDBRANCH  28  29
ENDBRANCH   1  28
TORSDOF 23
