REMARK SMILES O=C(Nc1ccccc1C(=O)OCCOCCOCCOC(=O)c1ccc(-c2c3nc(c(-c4c(F)cc(S(=O)(=O)[O-])cc4F)c4ccc([nH]4)c(-c4c(F)cc(S(=O)(=O)[O-])cc4F)c4nc(c(-c5c(F)cc(S(=O)(=O)[O-])cc5F)c5ccc2[nH]5)C=C4)C=C3)cc1)c1ccc2c(c1)C(=O)N(Cc1ccccc1)C2=O
REMARK SMILES IDX 16 1 15 2 14 3 13 4 12 5 10 6 11 7 9 8 4 9 5 10 6 11 8 12
REMARK SMILES IDX 7 13 3 14 1 15 2 16 90 18 91 19 95 20 92 21 94 22 93 23
REMARK SMILES IDX 96 24 106 25 97 26 98 27 107 28 99 29 100 30 101 31 105 32
REMARK SMILES IDX 102 33 104 34 103 35 17 36 18 37 19 38 20 39 21 40 22 41
REMARK SMILES IDX 23 42 24 43 25 44 89 45 26 46 88 47 27 48 28 49 29 50 82 51
REMARK SMILES IDX 30 52 87 53 81 54 83 55 31 56 86 57 80 58 79 59 32 61 66 62
REMARK SMILES IDX 45 63 65 64 46 65 49 66 64 67 84 68 47 69 48 70 63 72 85 73
REMARK SMILES IDX 50 74 33 75 34 76 43 77 35 78 36 79 42 80 44 81 37 82 38 83
REMARK SMILES IDX 39 84 40 85 41 86 67 87 68 88 77 89 69 90 70 91 76 92 78 93
REMARK SMILES IDX 71 94 72 95 73 96 74 97 75 98 51 99 52 100 61 101 53 102
REMARK SMILES IDX 54 103 60 104 62 105 55 106 56 107 57 108 58 109 59 110
REMARK H PARENT 3 17 83 60 49 71
REMARK Flexibility Score: inf
ROOT
ATOM      1  C   UNL     1       4.362   4.370  -0.849  1.00  0.00     0.188 C 
ENDROOT
BRANCH   1   2
ATOM      2  O   UNL     1       3.296   4.660  -1.733  1.00  0.00    -0.376 OA
BRANCH   2   3
ATOM      3  C   UNL     1       2.801   3.550  -2.469  1.00  0.00     0.202 C 
BRANCH   3   4
ATOM      4  C   UNL     1       2.159   2.475  -1.595  1.00  0.00     0.261 C 
BRANCH   4   5
ATOM      5  O   UNL     1       3.033   1.629  -0.813  1.00  0.00    -0.460 OA
BRANCH   5   6
ATOM      6  C   UNL     1       4.154   1.088  -1.339  1.00  0.00     0.340 C 
ATOM      7  O   UNL     1       4.579   1.222  -2.471  1.00  0.00    -0.246 OA
BRANCH   6   8
ATOM      8  C   UNL     1       4.896   0.417  -0.252  1.00  0.00     0.083 A 
ATOM      9  C   UNL     1       4.310  -0.436   0.696  1.00  0.00     0.056 A 
ATOM     10  C   UNL     1       5.022  -0.665   1.890  1.00  0.00     0.027 A 
ATOM     11  C   UNL     1       6.317  -0.173   2.079  1.00  0.00     0.002 A 
ATOM     12  C   UNL     1       6.223   0.866  -0.084  1.00  0.00     0.018 A 
ATOM     13  C   UNL     1       6.934   0.560   1.075  1.00  0.00     0.001 A 
BRANCH   9  14
ATOM     14  N   UNL     1       3.068  -1.109   0.619  1.00  0.00    -0.321 N 
ATOM     15  O   UNL     1       1.126  -1.960  -0.139  1.00  0.00    -0.269 OA
ATOM     16  C   UNL     1       2.236  -1.496  -0.406  1.00  0.00     0.255 C 
ATOM     17  H   UNL     1       2.718  -1.358   1.505  1.00  0.00     0.170 HD
BRANCH  16  18
ATOM     18  C   UNL     1       2.613  -1.413  -1.829  1.00  0.00     0.041 A 
ATOM     19  C   UNL     1       3.792  -1.997  -2.342  1.00  0.00     0.015 A 
ATOM     20  C   UNL     1       1.768  -0.657  -2.651  1.00  0.00     0.028 A 
ATOM     21  C   UNL     1       4.190  -1.741  -3.666  1.00  0.00     0.015 A 
ATOM     22  C   UNL     1       2.239  -0.341  -3.911  1.00  0.00     0.054 A 
ATOM     23  C   UNL     1       3.413  -0.869  -4.412  1.00  0.00     0.053 A 
ATOM     24  C   UNL     1       1.766   0.675  -4.850  1.00  0.00     0.261 C 
ATOM     25  C   UNL     1       3.639  -0.246  -5.720  1.00  0.00     0.261 C 
ATOM     26  O   UNL     1       0.771   1.353  -4.673  1.00  0.00    -0.269 OA
ATOM     27  N   UNL     1       2.659   0.697  -5.881  1.00  0.00    -0.270 N 
ATOM     28  O   UNL     1       4.516  -0.582  -6.494  1.00  0.00    -0.269 OA
BRANCH  27  29
ATOM     29  C   UNL     1       2.540   1.571  -7.028  1.00  0.00     0.164 C 
BRANCH  29  30
ATOM     30  C   UNL     1       3.231   2.906  -6.850  1.00  0.00    -0.028 A 
ATOM     31  C   UNL     1       4.612   3.025  -7.068  1.00  0.00     0.005 A 
ATOM     32  C   UNL     1       2.504   4.055  -6.500  1.00  0.00     0.005 A 
ATOM     33  C   UNL     1       5.243   4.269  -6.975  1.00  0.00     0.000 A 
ATOM     34  C   UNL     1       3.137   5.298  -6.409  1.00  0.00     0.000 A 
ATOM     35  C   UNL     1       4.505   5.406  -6.654  1.00  0.00     0.000 A 
ENDBRANCH  29  30
ENDBRANCH  27  29
ENDBRANCH  16  18
ENDBRANCH   9  14
ENDBRANCH   6   8
ENDBRANCH   5   6
ENDBRANCH   4   5
ENDBRANCH   3   4
ENDBRANCH   2   3
ENDBRANCH   1   2
BRANCH   1  36
ATOM     36  C   UNL     1       3.966   4.091   0.619  1.00  0.00     0.188 C 
BRANCH  36  37
ATOM     37  O   UNL     1       2.674   4.390   1.136  1.00  0.00    -0.376 OA
BRANCH  37  38
ATOM     38  C   UNL     1       1.898   5.447   0.598  1.00  0.00     0.202 C 
BRANCH  38  39
ATOM     39  C   UNL     1       2.409   6.886   0.722  1.00  0.00     0.261 C 
BRANCH  39  40
ATOM     40  O   UNL     1       3.769   7.069   0.315  1.00  0.00    -0.460 OA
BRANCH  40  41
ATOM     41  C   UNL     1       4.670   7.136   1.326  1.00  0.00     0.338 C 
ATOM     42  O   UNL     1       4.438   7.129   2.522  1.00  0.00    -0.246 OA
BRANCH  41  43
ATOM     43  C   UNL     1       6.031   6.999   0.761  1.00  0.00     0.060 A 
ATOM     44  C   UNL     1       6.896   6.073   1.361  1.00  0.00     0.016 A 
ATOM     45  C   UNL     1       6.440   7.727  -0.361  1.00  0.00     0.016 A 
ATOM     46  C   UNL     1       8.184   5.894   0.865  1.00  0.00     0.010 A 
ATOM     47  C   UNL     1       7.745   7.576  -0.836  1.00  0.00     0.010 A 
ATOM     48  C   UNL     1       8.630   6.690  -0.197  1.00  0.00    -0.014 A 
BRANCH  48  49
ATOM     49  C   UNL     1      10.088   6.821  -0.416  1.00  0.00     0.031 A 
ATOM     50  C   UNL     1      10.807   7.872   0.389  1.00  0.00     0.074 A 
ATOM     51  C   UNL     1      10.760   6.026  -1.265  1.00  0.00     0.049 A 
ATOM     52  N   UNL     1      12.070   8.200   0.388  1.00  0.00    -0.248 NA
ATOM     53  C   UNL     1       9.981   8.656   1.325  1.00  0.00     0.031 C 
ATOM     54  C   UNL     1      10.180   4.946  -2.059  1.00  0.00     0.029 A 
ATOM     55  N   UNL     1      12.090   6.015  -1.599  1.00  0.00    -0.354 N 
ATOM     56  C   UNL     1      12.189   9.227   1.317  1.00  0.00     0.074 A 
ATOM     57  C   UNL     1      10.871   9.483   1.848  1.00  0.00     0.031 C 
ATOM     58  C   UNL     1      11.152   4.381  -2.800  1.00  0.00     0.029 A 
ATOM     59  C   UNL     1      12.414   5.077  -2.550  1.00  0.00     0.049 A 
ATOM     60  H   UNL     1      12.752   6.622  -1.195  1.00  0.00     0.167 HD
ATOM     61  C   UNL     1      13.300   9.899   1.696  1.00  0.00     0.037 A 
ATOM     62  C   UNL     1      13.592   4.830  -3.156  1.00  0.00     0.037 A 
ATOM     63  C   UNL     1      14.607   9.654   1.154  1.00  0.00     0.049 A 
ATOM     64  C   UNL     1      14.803   5.648  -2.777  1.00  0.00     0.074 A 
ATOM     65  C   UNL     1      15.801  10.269   1.477  1.00  0.00     0.029 A 
ATOM     66  N   UNL     1      14.885   8.727   0.161  1.00  0.00    -0.354 N 
ATOM     67  N   UNL     1      14.911   6.595  -1.874  1.00  0.00    -0.248 NA
ATOM     68  C   UNL     1      16.051   5.365  -3.500  1.00  0.00     0.031 C 
ATOM     69  C   UNL     1      16.796   9.746   0.644  1.00  0.00     0.029 A 
ATOM     70  C   UNL     1      16.229   8.771  -0.162  1.00  0.00     0.049 A 
ATOM     71  H   UNL     1      14.224   8.126  -0.253  1.00  0.00     0.167 HD
ATOM     72  C   UNL     1      16.243   6.998  -1.900  1.00  0.00     0.074 A 
ATOM     73  C   UNL     1      16.902   6.190  -2.905  1.00  0.00     0.031 C 
ATOM     74  C   UNL     1      16.867   7.947  -1.158  1.00  0.00     0.037 A 
BRANCH  61  75
ATOM     75  C   UNL     1      13.129  10.988   2.714  1.00  0.00     0.058 A 
ATOM     76  C   UNL     1      12.870  10.704   4.064  1.00  0.00     0.135 A 
ATOM     77  C   UNL     1      13.219  12.335   2.330  1.00  0.00     0.135 A 
ATOM     78  F   UNL     1      12.745   9.432   4.476  1.00  0.00    -0.206 F 
ATOM     79  C   UNL     1      12.684  11.720   4.996  1.00  0.00     0.059 A 
ATOM     80  C   UNL     1      13.061  13.366   3.250  1.00  0.00     0.059 A 
ATOM     81  F   UNL     1      13.451  12.659   1.049  1.00  0.00    -0.206 F 
ATOM     82  C   UNL     1      12.780  13.048   4.578  1.00  0.00     0.060 A 
BRANCH  82  83
ATOM     83  S   UNL     1      12.536  14.357   5.797  1.00  0.00     0.124 S 
ATOM     84  O   UNL     1      11.089  14.310   5.988  1.00  0.00    -0.237 OA
ATOM     85  O   UNL     1      13.339  13.890   6.922  1.00  0.00    -0.237 OA
ATOM     86  O   UNL     1      13.041  15.548   5.121  1.00  0.00    -0.744 OA
ENDBRANCH  82  83
ENDBRANCH  61  75
BRANCH  62  87
ATOM     87  C   UNL     1      13.695   3.766  -4.191  1.00  0.00     0.058 A 
ATOM     88  C   UNL     1      14.414   2.587  -3.947  1.00  0.00     0.135 A 
ATOM     89  C   UNL     1      13.091   3.914  -5.450  1.00  0.00     0.135 A 
ATOM     90  F   UNL     1      15.021   2.405  -2.765  1.00  0.00    -0.206 F 
ATOM     91  C   UNL     1      14.543   1.597  -4.917  1.00  0.00     0.059 A 
ATOM     92  C   UNL     1      13.186   2.929  -6.428  1.00  0.00     0.059 A 
ATOM     93  F   UNL     1      12.388   5.022  -5.732  1.00  0.00    -0.206 F 
ATOM     94  C   UNL     1      13.923   1.777  -6.155  1.00  0.00     0.060 A 
BRANCH  94  95
ATOM     95  S   UNL     1      14.059   0.466  -7.389  1.00  0.00     0.124 S 
ATOM     96  O   UNL     1      15.443   0.614  -7.824  1.00  0.00    -0.237 OA
ATOM     97  O   UNL     1      13.761  -0.727  -6.603  1.00  0.00    -0.237 OA
ATOM     98  O   UNL     1      13.045   0.828  -8.375  1.00  0.00    -0.744 OA
ENDBRANCH  94  95
ENDBRANCH  62  87
BRANCH  74  99
ATOM     99  C   UNL     1      18.342   8.140  -1.370  1.00  0.00     0.058 A 
ATOM    100  C   UNL     1      18.847   8.787  -2.508  1.00  0.00     0.135 A 
ATOM    101  C   UNL     1      19.257   7.735  -0.384  1.00  0.00     0.135 A 
ATOM    102  F   UNL     1      18.015   9.191  -3.480  1.00  0.00    -0.206 F 
ATOM    103  C   UNL     1      20.211   9.009  -2.670  1.00  0.00     0.059 A 
ATOM    104  C   UNL     1      20.622   7.970  -0.513  1.00  0.00     0.059 A 
ATOM    105  F   UNL     1      18.823   7.124   0.731  1.00  0.00    -0.206 F 
ATOM    106  C   UNL     1      21.090   8.598  -1.666  1.00  0.00     0.060 A 
BRANCH 106 107
ATOM    107  S   UNL     1      22.854   8.927  -1.869  1.00  0.00     0.124 S 
ATOM    108  O   UNL     1      23.231   7.912  -2.847  1.00  0.00    -0.237 OA
ATOM    109  O   UNL     1      22.864  10.305  -2.349  1.00  0.00    -0.237 OA
ATOM    110  O   UNL     1      23.392   8.735  -0.525  1.00  0.00    -0.744 OA
ENDBRANCH 106 107
ENDBRANCH  74  99
ENDBRANCH  48  49
ENDBRANCH  41  43
ENDBRANCH  40  41
ENDBRANCH  39  40
ENDBRANCH  38  39
ENDBRANCH  37  38
ENDBRANCH  36  37
ENDBRANCH   1  36
TORSDOF 24
