REMARK SMILES O=C(OCCOCCOCCOC(=O)C1(NC(=O)c2nc(C3CC3)n[nH]2)CCCCC1)c1ccc(-c2c3nc(c(-c4c(F)cc(S(=O)(=O)[O-])cc4F)c4ccc([nH]4)c(-c4c(F)cc(S(=O)(=O)[O-])cc4F)c4nc(c(-c5c(F)cc(S(=O)(=O)[O-])cc5F)c5ccc2[nH]5)C=C4)C=C3)cc1
REMARK SMILES IDX 7 1 6 2 5 3 4 4 3 5 2 6 1 7 32 8 33 9 97 10 34 11 96 12
REMARK SMILES IDX 35 13 36 14 37 15 90 16 38 17 95 18 89 19 91 20 39 21 94 22
REMARK SMILES IDX 88 23 87 24 40 26 74 27 53 28 73 29 54 30 57 31 72 32 92 33
REMARK SMILES IDX 55 34 56 35 71 37 93 38 58 39 41 40 42 41 51 42 43 43 44 44
REMARK SMILES IDX 50 45 52 46 45 47 46 48 47 49 48 50 49 51 75 52 76 53 85 54
REMARK SMILES IDX 77 55 78 56 84 57 86 58 79 59 80 60 81 61 82 62 83 63 59 64
REMARK SMILES IDX 60 65 69 66 61 67 62 68 68 69 70 70 63 71 64 72 65 73 66 74
REMARK SMILES IDX 67 75 8 76 9 77 10 78 11 79 12 80 13 81 14 82 15 83 27 84
REMARK SMILES IDX 31 85 28 86 30 87 29 88 16 89 17 90 18 92 19 93 20 94 26 95
REMARK SMILES IDX 21 96 25 97 22 99 23 100 24 101
REMARK H PARENT 91 25 57 36 16 91 26 98
REMARK Flexibility Score: inf
ROOT
ATOM      1  C   UNL     1       3.834   1.203  -0.467  1.00  0.00     0.188 C 
ENDROOT
BRANCH   1   2
ATOM      2  O   UNL     1       5.166   0.721  -0.650  1.00  0.00    -0.376 OA
BRANCH   2   3
ATOM      3  C   UNL     1       5.278  -0.332  -1.606  1.00  0.00     0.202 C 
BRANCH   3   4
ATOM      4  C   UNL     1       4.698  -1.697  -1.191  1.00  0.00     0.261 C 
BRANCH   4   5
ATOM      5  O   UNL     1       3.311  -1.613  -0.815  1.00  0.00    -0.460 OA
BRANCH   5   6
ATOM      6  C   UNL     1       2.794  -1.976   0.390  1.00  0.00     0.338 C 
ATOM      7  O   UNL     1       1.679  -2.492   0.426  1.00  0.00    -0.246 OA
BRANCH   6   8
ATOM      8  C   UNL     1       3.459  -1.601   1.688  1.00  0.00     0.060 A 
ATOM      9  C   UNL     1       4.720  -1.009   1.802  1.00  0.00     0.016 A 
ATOM     10  C   UNL     1       2.737  -1.815   2.877  1.00  0.00     0.016 A 
ATOM     11  C   UNL     1       5.271  -0.668   3.027  1.00  0.00     0.010 A 
ATOM     12  C   UNL     1       3.292  -1.498   4.125  1.00  0.00     0.010 A 
ATOM     13  C   UNL     1       4.580  -0.956   4.195  1.00  0.00    -0.014 A 
BRANCH  13  14
ATOM     14  C   UNL     1       5.362  -0.941   5.442  1.00  0.00     0.031 A 
ATOM     15  C   UNL     1       5.973  -2.238   5.876  1.00  0.00     0.074 A 
ATOM     16  C   UNL     1       5.690   0.214   6.044  1.00  0.00     0.049 A 
ATOM     17  N   UNL     1       6.723  -2.490   6.912  1.00  0.00    -0.248 NA
ATOM     18  C   UNL     1       5.767  -3.393   4.982  1.00  0.00     0.031 C 
ATOM     19  C   UNL     1       5.352   1.545   5.546  1.00  0.00     0.029 A 
ATOM     20  N   UNL     1       6.383   0.461   7.197  1.00  0.00    -0.354 N 
ATOM     21  C   UNL     1       7.114  -3.814   6.769  1.00  0.00     0.074 A 
ATOM     22  C   UNL     1       6.481  -4.332   5.579  1.00  0.00     0.031 C 
ATOM     23  C   UNL     1       5.756   2.466   6.436  1.00  0.00     0.029 A 
ATOM     24  C   UNL     1       6.352   1.782   7.573  1.00  0.00     0.049 A 
ATOM     25  H   UNL     1       6.856  -0.237   7.706  1.00  0.00     0.167 HD
ATOM     26  C   UNL     1       7.953  -4.522   7.557  1.00  0.00     0.037 A 
ATOM     27  C   UNL     1       6.716   2.357   8.734  1.00  0.00     0.037 A 
ATOM     28  C   UNL     1       8.524  -3.989   8.762  1.00  0.00     0.049 A 
ATOM     29  C   UNL     1       7.404   1.488   9.746  1.00  0.00     0.074 A 
ATOM     30  C   UNL     1       9.310  -4.624   9.703  1.00  0.00     0.029 A 
ATOM     31  N   UNL     1       8.344  -2.682   9.199  1.00  0.00    -0.354 N 
ATOM     32  N   UNL     1       7.718   0.217   9.648  1.00  0.00    -0.248 NA
ATOM     33  C   UNL     1       7.818   2.121  11.002  1.00  0.00     0.031 C 
ATOM     34  C   UNL     1       9.562  -3.712  10.735  1.00  0.00     0.029 A 
ATOM     35  C   UNL     1       8.979  -2.495  10.412  1.00  0.00     0.049 A 
ATOM     36  H   UNL     1       7.838  -1.990   8.714  1.00  0.00     0.167 HD
ATOM     37  C   UNL     1       8.421  -0.092  10.802  1.00  0.00     0.074 A 
ATOM     38  C   UNL     1       8.464   1.125  11.594  1.00  0.00     0.031 C 
ATOM     39  C   UNL     1       9.002  -1.263  11.163  1.00  0.00     0.037 A 
BRANCH  26  40
ATOM     40  C   UNL     1       8.228  -5.939   7.150  1.00  0.00     0.058 A 
ATOM     41  C   UNL     1       9.032  -6.245   6.038  1.00  0.00     0.135 A 
ATOM     42  C   UNL     1       7.630  -7.004   7.839  1.00  0.00     0.135 A 
ATOM     43  F   UNL     1       9.595  -5.260   5.319  1.00  0.00    -0.206 F 
ATOM     44  C   UNL     1       9.211  -7.556   5.609  1.00  0.00     0.059 A 
ATOM     45  C   UNL     1       7.812  -8.325   7.440  1.00  0.00     0.059 A 
ATOM     46  F   UNL     1       6.833  -6.764   8.892  1.00  0.00    -0.206 F 
ATOM     47  C   UNL     1       8.591  -8.589   6.314  1.00  0.00     0.060 A 
BRANCH  47  48
ATOM     48  S   UNL     1       8.809 -10.283   5.730  1.00  0.00     0.124 S 
ATOM     49  O   UNL     1       7.993 -10.281   4.520  1.00  0.00    -0.237 OA
ATOM     50  O   UNL     1      10.250 -10.359   5.523  1.00  0.00    -0.237 OA
ATOM     51  O   UNL     1       8.293 -11.091   6.833  1.00  0.00    -0.744 OA
ENDBRANCH  47  48
ENDBRANCH  26  40
BRANCH  27  52
ATOM     52  C   UNL     1       6.377   3.779   9.006  1.00  0.00     0.058 A 
ATOM     53  C   UNL     1       7.358   4.773   9.113  1.00  0.00     0.135 A 
ATOM     54  C   UNL     1       5.035   4.169   9.170  1.00  0.00     0.135 A 
ATOM     55  F   UNL     1       8.653   4.455   8.963  1.00  0.00    -0.206 F 
ATOM     56  C   UNL     1       7.027   6.097   9.393  1.00  0.00     0.059 A 
ATOM     57  C   UNL     1       4.678   5.488   9.432  1.00  0.00     0.059 A 
ATOM     58  F   UNL     1       4.052   3.262   9.061  1.00  0.00    -0.206 F 
ATOM     59  C   UNL     1       5.684   6.444   9.553  1.00  0.00     0.060 A 
BRANCH  59  60
ATOM     60  S   UNL     1       5.265   8.168   9.896  1.00  0.00     0.124 S 
ATOM     61  O   UNL     1       5.773   8.330  11.253  1.00  0.00    -0.237 OA
ATOM     62  O   UNL     1       5.998   8.871   8.848  1.00  0.00    -0.237 OA
ATOM     63  O   UNL     1       3.812   8.194   9.758  1.00  0.00    -0.744 OA
ENDBRANCH  59  60
ENDBRANCH  27  52
BRANCH  39  64
ATOM     64  C   UNL     1       9.785  -1.258  12.439  1.00  0.00     0.058 A 
ATOM     65  C   UNL     1       9.156  -1.246  13.691  1.00  0.00     0.135 A 
ATOM     66  C   UNL     1      11.187  -1.314  12.398  1.00  0.00     0.135 A 
ATOM     67  F   UNL     1       7.817  -1.181  13.776  1.00  0.00    -0.206 F 
ATOM     68  C   UNL     1       9.895  -1.269  14.867  1.00  0.00     0.059 A 
ATOM     69  C   UNL     1      11.944  -1.367  13.560  1.00  0.00     0.059 A 
ATOM     70  F   UNL     1      11.830  -1.334  11.220  1.00  0.00    -0.206 F 
ATOM     71  C   UNL     1      11.288  -1.333  14.790  1.00  0.00     0.060 A 
BRANCH  71  72
ATOM     72  S   UNL     1      12.236  -1.403  16.323  1.00  0.00     0.124 S 
ATOM     73  O   UNL     1      12.156  -0.019  16.778  1.00  0.00    -0.237 OA
ATOM     74  O   UNL     1      11.484  -2.374  17.111  1.00  0.00    -0.237 OA
ATOM     75  O   UNL     1      13.555  -1.847  15.884  1.00  0.00    -0.744 OA
ENDBRANCH  71  72
ENDBRANCH  39  64
ENDBRANCH  13  14
ENDBRANCH   6   8
ENDBRANCH   5   6
ENDBRANCH   4   5
ENDBRANCH   3   4
ENDBRANCH   2   3
ENDBRANCH   1   2
BRANCH   1  76
ATOM     76  C   UNL     1       3.890   2.527   0.257  1.00  0.00     0.188 C 
BRANCH  76  77
ATOM     77  O   UNL     1       4.261   3.602  -0.602  1.00  0.00    -0.376 OA
BRANCH  77  78
ATOM     78  C   UNL     1       5.484   4.218  -0.232  1.00  0.00     0.202 C 
BRANCH  78  79
ATOM     79  C   UNL     1       5.306   5.256   0.882  1.00  0.00     0.261 C 
BRANCH  79  80
ATOM     80  O   UNL     1       4.398   4.791   1.897  1.00  0.00    -0.461 OA
BRANCH  80  81
ATOM     81  C   UNL     1       3.117   5.252   1.811  1.00  0.00     0.331 C 
ATOM     82  O   UNL     1       2.757   6.185   1.097  1.00  0.00    -0.249 OA
BRANCH  81  83
ATOM     83  C   UNL     1       2.166   4.553   2.824  1.00  0.00     0.138 C 
ATOM     84  C   UNL     1       2.579   3.115   3.241  1.00  0.00     0.040 C 
ATOM     85  C   UNL     1       2.259   5.509   4.052  1.00  0.00     0.040 C 
ATOM     86  C   UNL     1       1.989   2.633   4.570  1.00  0.00     0.003 C 
ATOM     87  C   UNL     1       1.692   4.971   5.362  1.00  0.00     0.003 C 
ATOM     88  C   UNL     1       2.271   3.610   5.696  1.00  0.00     0.000 C 
BRANCH  83  89
ATOM     89  N   UNL     1       0.758   4.514   2.310  1.00  0.00    -0.333 N 
ATOM     90  C   UNL     1       0.245   3.948   1.147  1.00  0.00     0.289 C 
ATOM     91  H   UNL     1       0.093   4.959   2.884  1.00  0.00     0.165 HD
ATOM     92  O   UNL     1      -0.829   3.355   1.275  1.00  0.00    -0.266 OA
BRANCH  90  93
ATOM     93  C   UNL     1       0.840   4.197  -0.158  1.00  0.00     0.214 A 
ATOM     94  N   UNL     1       1.204   3.303  -1.075  1.00  0.00    -0.207 NA
ATOM     95  N   UNL     1       0.916   5.434  -0.730  1.00  0.00    -0.255 N 
ATOM     96  C   UNL     1       1.521   4.074  -2.179  1.00  0.00     0.154 A 
ATOM     97  N   UNL     1       1.257   5.377  -2.027  1.00  0.00    -0.158 NA
ATOM     98  H   UNL     1       0.741   6.273  -0.245  1.00  0.00     0.192 HD
BRANCH  96  99
ATOM     99  C   UNL     1       2.069   3.575  -3.522  1.00  0.00     0.060 C 
ATOM    100  C   UNL     1       3.379   2.822  -3.613  1.00  0.00     0.012 C 
ATOM    101  C   UNL     1       2.096   2.096  -3.846  1.00  0.00     0.012 C 
ENDBRANCH  96  99
ENDBRANCH  90  93
ENDBRANCH  83  89
ENDBRANCH  81  83
ENDBRANCH  80  81
ENDBRANCH  79  80
ENDBRANCH  78  79
ENDBRANCH  77  78
ENDBRANCH  76  77
ENDBRANCH   1  76
TORSDOF 23
