REMARK SMILES COc1ccc(-n2ccnc2C[N@@H+]2CCn3nc(C(=O)OCCOCCOCCOC(=O)c4ccc(-c5c6nc(c(-c7c(F)cc(S(=O)(=O)[O-])cc7F)c7ccc([nH]7)c(-c7c(F)cc(S(=O)(=O)[O-])cc7F)c7nc(c(-c8c(F)cc(S(=O)(=O)[O-])cc8F)c8ccc5[nH]8)C=C7)C=C6)cc4)cc3C2)cc1
REMARK SMILES IDX 25 1 24 2 23 3 22 4 21 5 19 6 20 7 18 8 13 9 14 10 101 11
REMARK SMILES IDX 15 13 100 14 16 15 99 16 17 17 12 18 11 19 7 20 8 21 9 22
REMARK SMILES IDX 10 23 6 24 3 25 4 26 103 27 5 28 102 29 2 30 1 31 26 32
REMARK SMILES IDX 27 33 28 34 29 35 30 36 31 37 32 38 33 39 34 40 98 41 35 42
REMARK SMILES IDX 97 43 36 44 37 45 38 46 91 47 39 48 96 49 90 50 92 51 40 52
REMARK SMILES IDX 95 53 89 54 88 55 41 57 75 58 54 59 74 60 55 61 58 62 73 63
REMARK SMILES IDX 93 64 56 65 57 66 72 68 94 69 59 70 42 71 43 72 52 73 44 74
REMARK SMILES IDX 45 75 51 76 53 77 46 78 47 79 48 80 49 81 50 82 76 83 77 84
REMARK SMILES IDX 86 85 78 86 79 87 85 88 87 89 80 90 81 91 82 92 83 93 84 94
REMARK SMILES IDX 60 95 61 96 70 97 62 98 63 99 69 100 71 101 64 102 65 103
REMARK SMILES IDX 66 104 67 105 68 106
REMARK H PARENT 13 12 92 56 58 67
REMARK Flexibility Score: inf
ROOT
ATOM      1  C   UNL     1      -2.062  -1.132   5.102  1.00  0.00     0.188 C 
ENDROOT
BRANCH   1   2
ATOM      2  O   UNL     1      -2.189  -0.442   6.334  1.00  0.00    -0.376 OA
BRANCH   2   3
ATOM      3  C   UNL     1      -1.558  -1.095   7.454  1.00  0.00     0.202 C 
BRANCH   3   4
ATOM      4  C   UNL     1      -0.093  -1.514   7.226  1.00  0.00     0.261 C 
BRANCH   4   5
ATOM      5  O   UNL     1       0.177  -2.549   6.234  1.00  0.00    -0.458 OA
BRANCH   5   6
ATOM      6  C   UNL     1      -0.756  -3.473   5.880  1.00  0.00     0.358 C 
ATOM      7  O   UNL     1      -1.584  -3.920   6.676  1.00  0.00    -0.244 OA
BRANCH   6   8
ATOM      8  C   UNL     1      -0.748  -3.844   4.427  1.00  0.00     0.170 A 
ATOM      9  N   UNL     1       1.236  -6.708   4.143  1.00  0.00    -0.322 N 
ATOM     10  C   UNL     1       1.969  -6.427   2.919  1.00  0.00     0.286 C 
ATOM     11  C   UNL     1      -0.221  -6.833   3.838  1.00  0.00     0.319 C 
ATOM     12  H   UNL     1       1.572  -7.604   4.495  1.00  0.00     0.348 HD
ATOM     13  C   UNL     1       1.401  -5.262   2.095  1.00  0.00     0.206 C 
ATOM     14  C   UNL     1      -0.762  -5.566   3.243  1.00  0.00     0.094 A 
ATOM     15  N   UNL     1       0.188  -4.709   2.705  1.00  0.00    -0.257 N 
ATOM     16  C   UNL     1      -1.698  -4.664   3.751  1.00  0.00     0.067 A 
ATOM     17  N   UNL     1       0.253  -3.619   3.535  1.00  0.00    -0.165 NA
BRANCH   9  18
ATOM     18  C   UNL     1       1.531  -5.784   5.272  1.00  0.00     0.339 C 
BRANCH  18  19
ATOM     19  C   UNL     1       2.783  -4.864   5.405  1.00  0.00     0.168 A 
ATOM     20  N   UNL     1       3.026  -3.476   5.100  1.00  0.00    -0.299 N 
ATOM     21  C   UNL     1       3.923  -3.044   6.066  1.00  0.00     0.113 A 
ATOM     22  C   UNL     1       4.276  -4.132   6.806  1.00  0.00     0.132 A 
ATOM     23  N   UNL     1       3.656  -5.243   6.341  1.00  0.00    -0.236 NA
BRANCH  20  24
ATOM     24  C   UNL     1       2.782  -2.579   3.995  1.00  0.00     0.047 A 
ATOM     25  C   UNL     1       2.412  -0.641   1.948  1.00  0.00     0.119 A 
ATOM     26  C   UNL     1       1.741  -0.513   3.150  1.00  0.00     0.048 A 
ATOM     27  C   UNL     1       3.371  -1.647   1.812  1.00  0.00     0.048 A 
ATOM     28  C   UNL     1       1.994  -1.429   4.181  1.00  0.00     0.030 A 
ATOM     29  C   UNL     1       3.558  -2.616   2.831  1.00  0.00     0.030 A 
BRANCH  25  30
ATOM     30  O   UNL     1       2.191   0.331   1.012  1.00  0.00    -0.497 OA
ATOM     31  C   UNL     1       1.726  -0.189  -0.233  1.00  0.00     0.278 C 
ENDBRANCH  25  30
ENDBRANCH  20  24
ENDBRANCH  18  19
ENDBRANCH   9  18
ENDBRANCH   6   8
ENDBRANCH   5   6
ENDBRANCH   4   5
ENDBRANCH   3   4
ENDBRANCH   2   3
ENDBRANCH   1   2
BRANCH   1  32
ATOM     32  C   UNL     1      -2.453  -0.513   3.765  1.00  0.00     0.188 C 
BRANCH  32  33
ATOM     33  O   UNL     1      -2.509   0.892   3.664  1.00  0.00    -0.376 OA
BRANCH  33  34
ATOM     34  C   UNL     1      -3.241   1.594   4.664  1.00  0.00     0.202 C 
BRANCH  34  35
ATOM     35  C   UNL     1      -4.718   1.246   4.842  1.00  0.00     0.261 C 
BRANCH  35  36
ATOM     36  O   UNL     1      -4.909  -0.098   5.279  1.00  0.00    -0.460 OA
BRANCH  36  37
ATOM     37  C   UNL     1      -5.361  -0.935   4.321  1.00  0.00     0.338 C 
ATOM     38  O   UNL     1      -5.616  -0.654   3.161  1.00  0.00    -0.246 OA
BRANCH  37  39
ATOM     39  C   UNL     1      -5.508  -2.296   4.863  1.00  0.00     0.060 A 
ATOM     40  C   UNL     1      -5.855  -3.259   3.910  1.00  0.00     0.016 A 
ATOM     41  C   UNL     1      -5.851  -2.413   6.213  1.00  0.00     0.016 A 
ATOM     42  C   UNL     1      -6.916  -4.071   4.210  1.00  0.00     0.010 A 
ATOM     43  C   UNL     1      -6.917  -3.219   6.510  1.00  0.00     0.010 A 
ATOM     44  C   UNL     1      -7.520  -3.905   5.457  1.00  0.00    -0.014 A 
BRANCH  44  45
ATOM     45  C   UNL     1      -8.877  -4.378   5.601  1.00  0.00     0.031 A 
ATOM     46  C   UNL     1      -8.934  -5.812   5.899  1.00  0.00     0.074 A 
ATOM     47  C   UNL     1      -9.924  -3.529   5.544  1.00  0.00     0.049 A 
ATOM     48  N   UNL     1      -9.260  -6.776   5.105  1.00  0.00    -0.248 NA
ATOM     49  C   UNL     1      -8.342  -6.249   7.173  1.00  0.00     0.031 C 
ATOM     50  C   UNL     1      -9.871  -2.059   5.556  1.00  0.00     0.029 A 
ATOM     51  N   UNL     1     -11.262  -3.785   5.579  1.00  0.00    -0.354 N 
ATOM     52  C   UNL     1      -9.209  -7.907   5.909  1.00  0.00     0.074 A 
ATOM     53  C   UNL     1      -8.377  -7.574   7.033  1.00  0.00     0.031 C 
ATOM     54  C   UNL     1     -11.099  -1.570   5.842  1.00  0.00     0.029 A 
ATOM     55  C   UNL     1     -12.042  -2.673   5.880  1.00  0.00     0.049 A 
ATOM     56  H   UNL     1     -11.642  -4.677   5.407  1.00  0.00     0.167 HD
ATOM     57  C   UNL     1     -10.178  -8.855   5.808  1.00  0.00     0.037 A 
ATOM     58  C   UNL     1     -13.358  -2.683   6.206  1.00  0.00     0.037 A 
ATOM     59  C   UNL     1     -10.934  -8.705   4.591  1.00  0.00     0.049 A 
ATOM     60  C   UNL     1     -13.939  -3.943   5.675  1.00  0.00     0.074 A 
ATOM     61  C   UNL     1     -10.754  -8.995   3.257  1.00  0.00     0.029 A 
ATOM     62  N   UNL     1     -11.960  -7.800   4.679  1.00  0.00    -0.354 N 
ATOM     63  N   UNL     1     -13.999  -4.224   4.400  1.00  0.00    -0.248 NA
ATOM     64  C   UNL     1     -14.132  -5.080   6.571  1.00  0.00     0.031 C 
ATOM     65  C   UNL     1     -11.644  -8.147   2.534  1.00  0.00     0.029 A 
ATOM     66  C   UNL     1     -12.363  -7.373   3.440  1.00  0.00     0.049 A 
ATOM     67  H   UNL     1     -12.357  -7.494   5.526  1.00  0.00     0.167 HD
ATOM     68  C   UNL     1     -13.825  -5.593   4.339  1.00  0.00     0.074 A 
ATOM     69  C   UNL     1     -14.078  -6.081   5.687  1.00  0.00     0.031 C 
ATOM     70  C   UNL     1     -13.161  -6.174   3.300  1.00  0.00     0.037 A 
BRANCH  57  71
ATOM     71  C   UNL     1     -10.766  -9.571   7.003  1.00  0.00     0.058 A 
ATOM     72  C   UNL     1     -11.588 -10.693   6.790  1.00  0.00     0.135 A 
ATOM     73  C   UNL     1     -10.791  -9.038   8.314  1.00  0.00     0.135 A 
ATOM     74  F   UNL     1     -11.660 -11.264   5.577  1.00  0.00    -0.206 F 
ATOM     75  C   UNL     1     -12.406 -11.217   7.793  1.00  0.00     0.059 A 
ATOM     76  C   UNL     1     -11.548  -9.581   9.341  1.00  0.00     0.059 A 
ATOM     77  F   UNL     1     -10.166  -7.902   8.645  1.00  0.00    -0.206 F 
ATOM     78  C   UNL     1     -12.384 -10.646   9.063  1.00  0.00     0.060 A 
BRANCH  78  79
ATOM     79  S   UNL     1     -13.499 -11.254  10.338  1.00  0.00     0.124 S 
ATOM     80  O   UNL     1     -14.791 -10.807   9.831  1.00  0.00    -0.237 OA
ATOM     81  O   UNL     1     -13.253 -12.692  10.292  1.00  0.00    -0.237 OA
ATOM     82  O   UNL     1     -13.026 -10.583  11.545  1.00  0.00    -0.744 OA
ENDBRANCH  78  79
ENDBRANCH  57  71
BRANCH  58  83
ATOM     83  C   UNL     1     -14.034  -1.856   7.241  1.00  0.00     0.058 A 
ATOM     84  C   UNL     1     -15.434  -1.746   7.292  1.00  0.00     0.135 A 
ATOM     85  C   UNL     1     -13.331  -1.387   8.370  1.00  0.00     0.135 A 
ATOM     86  F   UNL     1     -16.182  -2.186   6.269  1.00  0.00    -0.206 F 
ATOM     87  C   UNL     1     -16.102  -1.246   8.416  1.00  0.00     0.059 A 
ATOM     88  C   UNL     1     -13.974  -0.878   9.498  1.00  0.00     0.059 A 
ATOM     89  F   UNL     1     -11.996  -1.495   8.447  1.00  0.00    -0.206 F 
ATOM     90  C   UNL     1     -15.362  -0.834   9.525  1.00  0.00     0.060 A 
BRANCH  90  91
ATOM     91  S   UNL     1     -16.222  -0.349  11.040  1.00  0.00     0.124 S 
ATOM     92  O   UNL     1     -16.841   0.911  10.645  1.00  0.00    -0.237 OA
ATOM     93  O   UNL     1     -17.134  -1.469  11.249  1.00  0.00    -0.237 OA
ATOM     94  O   UNL     1     -15.145  -0.234  12.020  1.00  0.00    -0.744 OA
ENDBRANCH  90  91
ENDBRANCH  58  83
BRANCH  70  95
ATOM     95  C   UNL     1     -13.135  -5.450   1.988  1.00  0.00     0.058 A 
ATOM     96  C   UNL     1     -12.394  -4.286   1.729  1.00  0.00     0.135 A 
ATOM     97  C   UNL     1     -13.827  -6.028   0.914  1.00  0.00     0.135 A 
ATOM     98  F   UNL     1     -11.654  -3.716   2.691  1.00  0.00    -0.206 F 
ATOM     99  C   UNL     1     -12.357  -3.713   0.455  1.00  0.00     0.059 A 
ATOM    100  C   UNL     1     -13.784  -5.490  -0.367  1.00  0.00     0.059 A 
ATOM    101  F   UNL     1     -14.519  -7.165   1.095  1.00  0.00    -0.206 F 
ATOM    102  C   UNL     1     -13.052  -4.327  -0.589  1.00  0.00     0.060 A 
BRANCH 102 103
ATOM    103  S   UNL     1     -12.937  -3.640  -2.256  1.00  0.00     0.124 S 
ATOM    104  O   UNL     1     -13.714  -2.411  -2.138  1.00  0.00    -0.237 OA
ATOM    105  O   UNL     1     -11.498  -3.468  -2.429  1.00  0.00    -0.237 OA
ATOM    106  O   UNL     1     -13.535  -4.677  -3.094  1.00  0.00    -0.744 OA
ENDBRANCH 102 103
ENDBRANCH  70  95
ENDBRANCH  44  45
ENDBRANCH  37  39
ENDBRANCH  36  37
ENDBRANCH  35  36
ENDBRANCH  34  35
ENDBRANCH  33  34
ENDBRANCH  32  33
ENDBRANCH   1  32
TORSDOF 24
