REMARK SMILES C=CC[NH2+]CC(=O)N1CC[C@@H](CC(=O)OCCOCCOCCOC(=O)c2ccc(-c3c4nc(c(-c5c(F)cc(S(=O)(=O)[O-])cc5F)c5ccc([nH]5)c(-c5c(F)cc(S(=O)(=O)[O-])cc5F)c5nc(c(-c6c(F)cc(S(=O)(=O)[O-])cc6F)c6ccc3[nH]6)C=C5)C=C4)cc2)C1
REMARK SMILES IDX 18 1 17 2 16 3 15 4 13 5 14 6 12 7 11 8 8 9 9 10 93 11 10 12
REMARK SMILES IDX 6 13 7 14 5 15 4 16 3 19 2 20 1 21 19 22 20 23 21 24 22 25
REMARK SMILES IDX 23 26 24 27 25 28 26 29 27 30 28 31 92 32 29 33 91 34 30 35
REMARK SMILES IDX 31 36 32 37 85 38 33 39 90 40 84 41 86 42 34 43 89 44 83 45
REMARK SMILES IDX 82 46 35 48 69 49 48 50 68 51 49 52 52 53 67 54 87 55 50 56
REMARK SMILES IDX 51 57 66 59 88 60 53 61 36 62 37 63 46 64 38 65 39 66 45 67
REMARK SMILES IDX 47 68 40 69 41 70 42 71 43 72 44 73 70 74 71 75 80 76 72 77
REMARK SMILES IDX 73 78 79 79 81 80 74 81 75 82 76 83 77 84 78 85 54 86 55 87
REMARK SMILES IDX 64 88 56 89 57 90 63 91 65 92 58 93 59 94 60 95 61 96 62 97
REMARK H PARENT 4 17 4 18 86 47 52 58
REMARK Flexibility Score: inf
ROOT
ATOM      1  O   UNL     1      -6.785   1.105   5.706  1.00  0.00    -0.376 OA
ENDROOT
BRANCH   1   2
ATOM      2  C   UNL     1      -6.819   2.259   4.870  1.00  0.00     0.202 C 
BRANCH   2   3
ATOM      3  C   UNL     1      -5.464   2.791   4.385  1.00  0.00     0.261 C 
BRANCH   3   4
ATOM      4  O   UNL     1      -4.660   1.793   3.731  1.00  0.00    -0.463 OA
BRANCH   4   5
ATOM      5  C   UNL     1      -3.437   1.553   4.265  1.00  0.00     0.306 C 
ATOM      6  O   UNL     1      -2.947   2.174   5.202  1.00  0.00    -0.252 OA
BRANCH   5   7
ATOM      7  C   UNL     1      -2.686   0.424   3.587  1.00  0.00     0.128 C 
BRANCH   7   8
ATOM      8  C   UNL     1      -3.442  -0.502   2.621  1.00  0.00     0.021 C 
ATOM      9  N   UNL     1      -3.040   0.018   0.323  1.00  0.00    -0.338 N 
ATOM     10  C   UNL     1      -1.967  -0.853   0.766  1.00  0.00     0.120 C 
ATOM     11  C   UNL     1      -4.017   0.189   1.380  1.00  0.00     0.124 C 
ATOM     12  C   UNL     1      -2.491  -1.542   2.010  1.00  0.00     0.027 C 
BRANCH   9  13
ATOM     13  C   UNL     1      -3.157   0.741  -0.853  1.00  0.00     0.277 C 
ATOM     14  O   UNL     1      -3.773   1.812  -0.886  1.00  0.00    -0.268 OA
BRANCH  13  15
ATOM     15  C   UNL     1      -2.631   0.131  -2.168  1.00  0.00     0.362 C 
BRANCH  15  16
ATOM     16  N   UNL     1      -1.271   0.562  -2.572  1.00  0.00    -0.335 N 
ATOM     17  H   UNL     1      -1.093   0.274  -3.534  1.00  0.00     0.347 HD
ATOM     18  H   UNL     1      -1.200   1.578  -2.507  1.00  0.00     0.347 HD
BRANCH  16  19
ATOM     19  C   UNL     1      -0.296  -0.050  -1.696  1.00  0.00     0.289 C 
BRANCH  19  20
ATOM     20  C   UNL     1       1.137   0.082  -2.068  1.00  0.00     0.025 C 
ATOM     21  C   UNL     1       2.066   0.347  -1.136  1.00  0.00     0.010 C 
ENDBRANCH  19  20
ENDBRANCH  16  19
ENDBRANCH  15  16
ENDBRANCH  13  15
ENDBRANCH   9  13
ENDBRANCH   7   8
ENDBRANCH   5   7
ENDBRANCH   4   5
ENDBRANCH   3   4
ENDBRANCH   2   3
ENDBRANCH   1   2
BRANCH   1  22
ATOM     22  C   UNL     1      -6.324  -0.103   5.112  1.00  0.00     0.188 C 
BRANCH  22  23
ATOM     23  C   UNL     1      -7.086  -0.589   3.877  1.00  0.00     0.188 C 
BRANCH  23  24
ATOM     24  O   UNL     1      -7.206   0.341   2.807  1.00  0.00    -0.376 OA
BRANCH  24  25
ATOM     25  C   UNL     1      -7.843  -0.149   1.619  1.00  0.00     0.202 C 
BRANCH  25  26
ATOM     26  C   UNL     1      -9.164  -0.927   1.792  1.00  0.00     0.261 C 
BRANCH  26  27
ATOM     27  O   UNL     1      -9.076  -2.131   2.584  1.00  0.00    -0.460 OA
BRANCH  27  28
ATOM     28  C   UNL     1      -8.134  -3.050   2.241  1.00  0.00     0.338 C 
ATOM     29  O   UNL     1      -7.502  -3.081   1.213  1.00  0.00    -0.246 OA
BRANCH  28  30
ATOM     30  C   UNL     1      -7.804  -3.854   3.459  1.00  0.00     0.060 A 
ATOM     31  C   UNL     1      -6.468  -4.233   3.654  1.00  0.00     0.016 A 
ATOM     32  C   UNL     1      -8.759  -4.164   4.432  1.00  0.00     0.016 A 
ATOM     33  C   UNL     1      -6.096  -4.962   4.789  1.00  0.00     0.010 A 
ATOM     34  C   UNL     1      -8.387  -4.899   5.566  1.00  0.00     0.010 A 
ATOM     35  C   UNL     1      -7.060  -5.336   5.734  1.00  0.00    -0.014 A 
BRANCH  35  36
ATOM     36  C   UNL     1      -6.727  -6.343   6.777  1.00  0.00     0.031 A 
ATOM     37  C   UNL     1      -7.135  -7.776   6.542  1.00  0.00     0.074 A 
ATOM     38  C   UNL     1      -6.060  -6.020   7.901  1.00  0.00     0.049 A 
ATOM     39  N   UNL     1      -6.978  -8.823   7.309  1.00  0.00    -0.248 NA
ATOM     40  C   UNL     1      -7.814  -8.060   5.267  1.00  0.00     0.031 C 
ATOM     41  C   UNL     1      -5.581  -4.684   8.250  1.00  0.00     0.029 A 
ATOM     42  N   UNL     1      -5.679  -6.801   8.967  1.00  0.00    -0.354 N 
ATOM     43  C   UNL     1      -7.545  -9.887   6.617  1.00  0.00     0.074 A 
ATOM     44  C   UNL     1      -8.077  -9.352   5.382  1.00  0.00     0.031 C 
ATOM     45  C   UNL     1      -4.982  -4.736   9.454  1.00  0.00     0.029 A 
ATOM     46  C   UNL     1      -5.060  -6.101   9.976  1.00  0.00     0.049 A 
ATOM     47  H   UNL     1      -5.836  -7.773   9.005  1.00  0.00     0.167 HD
ATOM     48  C   UNL     1      -7.612 -11.194   6.968  1.00  0.00     0.037 A 
ATOM     49  C   UNL     1      -4.625  -6.507  11.188  1.00  0.00     0.037 A 
ATOM     50  C   UNL     1      -7.084 -11.732   8.194  1.00  0.00     0.049 A 
ATOM     51  C   UNL     1      -4.761  -7.958  11.586  1.00  0.00     0.074 A 
ATOM     52  C   UNL     1      -7.078 -13.050   8.620  1.00  0.00     0.029 A 
ATOM     53  N   UNL     1      -6.485 -10.986   9.197  1.00  0.00    -0.354 N 
ATOM     54  N   UNL     1      -5.262  -8.960  10.903  1.00  0.00    -0.248 NA
ATOM     55  C   UNL     1      -4.266  -8.334  12.920  1.00  0.00     0.031 C 
ATOM     56  C   UNL     1      -6.528 -13.092   9.905  1.00  0.00     0.029 A 
ATOM     57  C   UNL     1      -6.133 -11.811  10.255  1.00  0.00     0.049 A 
ATOM     58  H   UNL     1      -6.331 -10.015   9.164  1.00  0.00     0.167 HD
ATOM     59  C   UNL     1      -5.118 -10.085  11.712  1.00  0.00     0.074 A 
ATOM     60  C   UNL     1      -4.472  -9.644  12.929  1.00  0.00     0.031 C 
ATOM     61  C   UNL     1      -5.487 -11.368  11.466  1.00  0.00     0.037 A 
BRANCH  48  62
ATOM     62  C   UNL     1      -8.312 -12.131   6.022  1.00  0.00     0.058 A 
ATOM     63  C   UNL     1      -7.756 -12.488   4.783  1.00  0.00     0.135 A 
ATOM     64  C   UNL     1      -9.547 -12.698   6.374  1.00  0.00     0.135 A 
ATOM     65  F   UNL     1      -6.586 -11.960   4.389  1.00  0.00    -0.206 F 
ATOM     66  C   UNL     1      -8.415 -13.350   3.913  1.00  0.00     0.059 A 
ATOM     67  C   UNL     1     -10.210 -13.586   5.532  1.00  0.00     0.059 A 
ATOM     68  F   UNL     1     -10.125 -12.388   7.545  1.00  0.00    -0.206 F 
ATOM     69  C   UNL     1      -9.643 -13.893   4.297  1.00  0.00     0.060 A 
BRANCH  69  70
ATOM     70  S   UNL     1     -10.487 -15.006   3.154  1.00  0.00     0.124 S 
ATOM     71  O   UNL     1     -10.935 -14.076   2.121  1.00  0.00    -0.237 OA
ATOM     72  O   UNL     1      -9.419 -15.920   2.764  1.00  0.00    -0.237 OA
ATOM     73  O   UNL     1     -11.545 -15.593   3.970  1.00  0.00    -0.744 OA
ENDBRANCH  69  70
ENDBRANCH  48  62
BRANCH  49  74
ATOM     74  C   UNL     1      -4.034  -5.521  12.135  1.00  0.00     0.058 A 
ATOM     75  C   UNL     1      -2.672  -5.557  12.473  1.00  0.00     0.135 A 
ATOM     76  C   UNL     1      -4.826  -4.526  12.730  1.00  0.00     0.135 A 
ATOM     77  F   UNL     1      -1.876  -6.501  11.948  1.00  0.00    -0.206 F 
ATOM     78  C   UNL     1      -2.119  -4.650  13.372  1.00  0.00     0.059 A 
ATOM     79  C   UNL     1      -4.290  -3.590  13.610  1.00  0.00     0.059 A 
ATOM     80  F   UNL     1      -6.134  -4.445  12.440  1.00  0.00    -0.206 F 
ATOM     81  C   UNL     1      -2.936  -3.665  13.931  1.00  0.00     0.060 A 
BRANCH  81  82
ATOM     82  S   UNL     1      -2.195  -2.456  15.049  1.00  0.00     0.124 S 
ATOM     83  O   UNL     1      -1.952  -3.264  16.239  1.00  0.00    -0.237 OA
ATOM     84  O   UNL     1      -1.008  -2.041  14.306  1.00  0.00    -0.237 OA
ATOM     85  O   UNL     1      -3.233  -1.437  15.178  1.00  0.00    -0.744 OA
ENDBRANCH  81  82
ENDBRANCH  49  74
BRANCH  61  86
ATOM     86  C   UNL     1      -5.172 -12.405  12.513  1.00  0.00     0.058 A 
ATOM     87  C   UNL     1      -5.860 -12.459  13.736  1.00  0.00     0.135 A 
ATOM     88  C   UNL     1      -4.205 -13.394  12.266  1.00  0.00     0.135 A 
ATOM     89  F   UNL     1      -6.793 -11.538  14.027  1.00  0.00    -0.206 F 
ATOM     90  C   UNL     1      -5.582 -13.437  14.687  1.00  0.00     0.059 A 
ATOM     91  C   UNL     1      -3.932 -14.400  13.189  1.00  0.00     0.059 A 
ATOM     92  F   UNL     1      -3.526 -13.402  11.108  1.00  0.00    -0.206 F 
ATOM     93  C   UNL     1      -4.616 -14.405  14.404  1.00  0.00     0.060 A 
BRANCH  93  94
ATOM     94  S   UNL     1      -4.281 -15.684  15.634  1.00  0.00     0.124 S 
ATOM     95  O   UNL     1      -3.551 -14.931  16.650  1.00  0.00    -0.237 OA
ATOM     96  O   UNL     1      -5.624 -16.116  16.009  1.00  0.00    -0.237 OA
ATOM     97  O   UNL     1      -3.495 -16.669  14.898  1.00  0.00    -0.744 OA
ENDBRANCH  93  94
ENDBRANCH  61  86
ENDBRANCH  35  36
ENDBRANCH  28  30
ENDBRANCH  27  28
ENDBRANCH  26  27
ENDBRANCH  25  26
ENDBRANCH  24  25
ENDBRANCH  23  24
ENDBRANCH  22  23
ENDBRANCH   1  22
TORSDOF 26
