REMARK SMILES C[NH+]1CCC([NH+]2CCC(Oc3ccc4ccccc4c3)(C(=O)OCCOCCOCCOC(=O)c3ccc(-c4c5nc(c(-c6c(F)cc(S(=O)(=O)[O-])cc6F)c6ccc([nH]6)c(-c6c(F)cc(S(=O)(=O)[O-])cc6F)c6nc(c(-c7c(F)cc(S(=O)(=O)[O-])cc7F)c7ccc4[nH]7)C=C6)C=C5)cc3)CC2)CC1
REMARK SMILES IDX 28 1 27 2 26 3 25 4 24 5 23 6 21 7 22 8 9 9 6 10 7 11 102 12
REMARK SMILES IDX 8 14 101 15 5 16 1 17 2 18 3 19 104 20 4 22 103 23 10 24
REMARK SMILES IDX 11 25 12 26 20 27 13 28 19 29 14 30 18 31 15 32 17 33 16 34
REMARK SMILES IDX 29 35 30 36 31 37 32 38 33 39 34 40 35 41 36 42 100 43 37 44
REMARK SMILES IDX 99 45 38 46 39 47 40 48 93 49 41 50 98 51 92 52 94 53 42 54
REMARK SMILES IDX 97 55 91 56 90 57 43 59 77 60 56 61 76 62 57 63 60 64 75 65
REMARK SMILES IDX 95 66 58 67 59 68 74 70 96 71 61 72 44 73 45 74 54 75 46 76
REMARK SMILES IDX 47 77 53 78 55 79 48 80 49 81 50 82 51 83 52 84 78 85 79 86
REMARK SMILES IDX 88 87 80 88 81 89 87 90 89 91 82 92 83 93 84 94 85 95 86 96
REMARK SMILES IDX 62 97 63 98 72 99 64 100 65 101 71 102 73 103 66 104 67 105
REMARK SMILES IDX 68 106 69 107 70 108
REMARK H PARENT 6 13 2 21 94 58 60 69
REMARK Flexibility Score: inf
ROOT
ATOM      1  C   UNL     1       2.665  -2.768   2.734  1.00  0.00     0.188 C 
ENDROOT
BRANCH   1   2
ATOM      2  C   UNL     1       3.147  -4.185   2.393  1.00  0.00     0.188 C 
BRANCH   2   3
ATOM      3  O   UNL     1       3.624  -5.004   3.443  1.00  0.00    -0.376 OA
BRANCH   3   4
ATOM      4  C   UNL     1       4.512  -4.438   4.396  1.00  0.00     0.202 C 
BRANCH   4   5
ATOM      5  C   UNL     1       5.781  -3.767   3.862  1.00  0.00     0.261 C 
BRANCH   5   6
ATOM      6  O   UNL     1       5.580  -2.393   3.448  1.00  0.00    -0.460 OA
BRANCH   6   7
ATOM      7  C   UNL     1       5.822  -2.101   2.132  1.00  0.00     0.351 C 
ATOM      8  O   UNL     1       6.066  -2.966   1.296  1.00  0.00    -0.247 OA
BRANCH   7   9
ATOM      9  C   UNL     1       5.847  -0.581   1.822  1.00  0.00     0.216 C 
ATOM     10  N   UNL     1       3.432   0.709   0.568  1.00  0.00    -0.332 N 
ATOM     11  C   UNL     1       3.500   0.602   2.029  1.00  0.00     0.267 C 
ATOM     12  C   UNL     1       4.157  -0.396  -0.081  1.00  0.00     0.267 C 
ATOM     13  H   UNL     1       3.897   1.585   0.331  1.00  0.00     0.348 HD
ATOM     14  C   UNL     1       4.888   0.320   2.625  1.00  0.00     0.122 C 
ATOM     15  C   UNL     1       5.641  -0.382   0.305  1.00  0.00     0.122 C 
BRANCH  10  16
ATOM     16  C   UNL     1       2.033   0.842   0.033  1.00  0.00     0.195 C 
ATOM     17  C   UNL     1      -2.259   1.330  -0.280  1.00  0.00     0.332 C 
ATOM     18  N   UNL     1      -0.885   1.270   0.224  1.00  0.00    -0.337 N 
ATOM     19  C   UNL     1      -0.026   2.297  -0.389  1.00  0.00     0.268 C 
ATOM     20  C   UNL     1      -0.332  -0.060  -0.017  1.00  0.00     0.268 C 
ATOM     21  H   UNL     1      -0.910   1.458   1.226  1.00  0.00     0.347 HD
ATOM     22  C   UNL     1       1.420   2.251   0.167  1.00  0.00     0.126 C 
ATOM     23  C   UNL     1       1.037  -0.155   0.631  1.00  0.00     0.126 C 
ENDBRANCH  10  16
BRANCH   9  24
ATOM     24  O   UNL     1       7.216  -0.398   2.317  1.00  0.00    -0.475 OA
BRANCH  24  25
ATOM     25  C   UNL     1       7.957   0.597   1.760  1.00  0.00     0.121 A 
ATOM     26  C   UNL     1       7.816   1.913   2.183  1.00  0.00     0.047 A 
ATOM     27  C   UNL     1       8.960   0.249   0.858  1.00  0.00     0.055 A 
ATOM     28  C   UNL     1       8.601   2.913   1.621  1.00  0.00     0.012 A 
ATOM     29  C   UNL     1       9.794   1.240   0.318  1.00  0.00    -0.015 A 
ATOM     30  C   UNL     1       9.592   2.592   0.687  1.00  0.00    -0.018 A 
ATOM     31  C   UNL     1      10.831   0.924  -0.573  1.00  0.00     0.009 A 
ATOM     32  C   UNL     1      10.401   3.591   0.132  1.00  0.00     0.009 A 
ATOM     33  C   UNL     1      11.645   1.929  -1.099  1.00  0.00     0.001 A 
ATOM     34  C   UNL     1      11.424   3.260  -0.755  1.00  0.00     0.001 A 
ENDBRANCH  24  25
ENDBRANCH   9  24
ENDBRANCH   7   9
ENDBRANCH   6   7
ENDBRANCH   5   6
ENDBRANCH   4   5
ENDBRANCH   3   4
ENDBRANCH   2   3
ENDBRANCH   1   2
BRANCH   1  35
ATOM     35  O   UNL     1       2.206  -2.453   4.034  1.00  0.00    -0.376 OA
BRANCH  35  36
ATOM     36  C   UNL     1       1.134  -3.248   4.524  1.00  0.00     0.202 C 
BRANCH  36  37
ATOM     37  C   UNL     1      -0.132  -3.301   3.657  1.00  0.00     0.261 C 
BRANCH  37  38
ATOM     38  O   UNL     1       0.129  -3.768   2.318  1.00  0.00    -0.460 OA
BRANCH  38  39
ATOM     39  C   UNL     1      -0.944  -3.708   1.490  1.00  0.00     0.338 C 
ATOM     40  O   UNL     1      -2.096  -3.555   1.857  1.00  0.00    -0.246 OA
BRANCH  39  41
ATOM     41  C   UNL     1      -0.550  -3.703   0.046  1.00  0.00     0.060 A 
ATOM     42  C   UNL     1       0.732  -3.372  -0.393  1.00  0.00     0.016 A 
ATOM     43  C   UNL     1      -1.554  -3.840  -0.913  1.00  0.00     0.016 A 
ATOM     44  C   UNL     1       0.967  -2.996  -1.719  1.00  0.00     0.010 A 
ATOM     45  C   UNL     1      -1.282  -3.602  -2.269  1.00  0.00     0.010 A 
ATOM     46  C   UNL     1      -0.028  -3.127  -2.688  1.00  0.00    -0.014 A 
BRANCH  46  47
ATOM     47  C   UNL     1       0.212  -2.779  -4.121  1.00  0.00     0.031 A 
ATOM     48  C   UNL     1      -0.745  -1.866  -4.849  1.00  0.00     0.074 A 
ATOM     49  C   UNL     1       1.260  -3.295  -4.798  1.00  0.00     0.049 A 
ATOM     50  N   UNL     1      -0.944  -1.725  -6.134  1.00  0.00    -0.248 NA
ATOM     51  C   UNL     1      -1.592  -0.997  -4.016  1.00  0.00     0.031 C 
ATOM     52  C   UNL     1       2.346  -4.093  -4.224  1.00  0.00     0.029 A 
ATOM     53  N   UNL     1       1.569  -3.245  -6.139  1.00  0.00    -0.354 N 
ATOM     54  C   UNL     1      -1.977  -0.801  -6.263  1.00  0.00     0.074 A 
ATOM     55  C   UNL     1      -2.348  -0.395  -4.925  1.00  0.00     0.031 C 
ATOM     56  C   UNL     1       3.196  -4.453  -5.194  1.00  0.00     0.029 A 
ATOM     57  C   UNL     1       2.643  -4.037  -6.475  1.00  0.00     0.049 A 
ATOM     58  H   UNL     1       1.072  -2.699  -6.790  1.00  0.00     0.167 HD
ATOM     59  C   UNL     1      -2.574  -0.360  -7.397  1.00  0.00     0.037 A 
ATOM     60  C   UNL     1       3.081  -4.479  -7.670  1.00  0.00     0.037 A 
ATOM     61  C   UNL     1      -2.175  -0.763  -8.723  1.00  0.00     0.049 A 
ATOM     62  C   UNL     1       2.332  -4.090  -8.911  1.00  0.00     0.074 A 
ATOM     63  C   UNL     1      -2.728  -0.401  -9.939  1.00  0.00     0.029 A 
ATOM     64  N   UNL     1      -1.117  -1.615  -9.005  1.00  0.00    -0.354 N 
ATOM     65  N   UNL     1       1.281  -3.313  -9.026  1.00  0.00    -0.248 NA
ATOM     66  C   UNL     1       2.806  -4.659 -10.178  1.00  0.00     0.031 C 
ATOM     67  C   UNL     1      -2.036  -1.074 -10.953  1.00  0.00     0.029 A 
ATOM     68  C   UNL     1      -1.016  -1.811 -10.372  1.00  0.00     0.049 A 
ATOM     69  H   UNL     1      -0.525  -2.022  -8.332  1.00  0.00     0.167 HD
ATOM     70  C   UNL     1       0.977  -3.289 -10.382  1.00  0.00     0.074 A 
ATOM     71  C   UNL     1       1.962  -4.118 -11.046  1.00  0.00     0.031 C 
ATOM     72  C   UNL     1      -0.028  -2.639 -11.018  1.00  0.00     0.037 A 
BRANCH  59  73
ATOM     73  C   UNL     1      -3.768   0.549  -7.264  1.00  0.00     0.058 A 
ATOM     74  C   UNL     1      -3.651   1.897  -6.895  1.00  0.00     0.135 A 
ATOM     75  C   UNL     1      -5.053   0.064  -7.564  1.00  0.00     0.135 A 
ATOM     76  F   UNL     1      -2.452   2.411  -6.579  1.00  0.00    -0.206 F 
ATOM     77  C   UNL     1      -4.767   2.728  -6.812  1.00  0.00     0.059 A 
ATOM     78  C   UNL     1      -6.178   0.880  -7.510  1.00  0.00     0.059 A 
ATOM     79  F   UNL     1      -5.223  -1.220  -7.919  1.00  0.00    -0.206 F 
ATOM     80  C   UNL     1      -6.027   2.209  -7.122  1.00  0.00     0.060 A 
BRANCH  80  81
ATOM     81  S   UNL     1      -7.464   3.298  -7.011  1.00  0.00     0.124 S 
ATOM     82  O   UNL     1      -7.605   3.447  -5.566  1.00  0.00    -0.237 OA
ATOM     83  O   UNL     1      -7.014   4.485  -7.730  1.00  0.00    -0.237 OA
ATOM     84  O   UNL     1      -8.522   2.534  -7.667  1.00  0.00    -0.744 OA
ENDBRANCH  80  81
ENDBRANCH  59  73
BRANCH  60  85
ATOM     85  C   UNL     1       4.224  -5.432  -7.727  1.00  0.00     0.058 A 
ATOM     86  C   UNL     1       5.458  -5.054  -8.272  1.00  0.00     0.135 A 
ATOM     87  C   UNL     1       4.113  -6.730  -7.198  1.00  0.00     0.135 A 
ATOM     88  F   UNL     1       5.609  -3.832  -8.806  1.00  0.00    -0.206 F 
ATOM     89  C   UNL     1       6.544  -5.924  -8.285  1.00  0.00     0.059 A 
ATOM     90  C   UNL     1       5.193  -7.605  -7.169  1.00  0.00     0.059 A 
ATOM     91  F   UNL     1       2.955  -7.140  -6.657  1.00  0.00    -0.206 F 
ATOM     92  C   UNL     1       6.404  -7.194  -7.722  1.00  0.00     0.060 A 
BRANCH  92  93
ATOM     93  S   UNL     1       7.840  -8.289  -7.675  1.00  0.00     0.124 S 
ATOM     94  O   UNL     1       7.927  -8.717  -9.066  1.00  0.00    -0.237 OA
ATOM     95  O   UNL     1       8.895  -7.391  -7.214  1.00  0.00    -0.237 OA
ATOM     96  O   UNL     1       7.443  -9.319  -6.719  1.00  0.00    -0.744 OA
ENDBRANCH  92  93
ENDBRANCH  60  85
BRANCH  72  97
ATOM     97  C   UNL     1      -0.087  -2.764 -12.514  1.00  0.00     0.058 A 
ATOM     98  C   UNL     1      -0.523  -3.941 -13.140  1.00  0.00     0.135 A 
ATOM     99  C   UNL     1       0.264  -1.676 -13.329  1.00  0.00     0.135 A 
ATOM    100  F   UNL     1      -0.859  -5.013 -12.405  1.00  0.00    -0.206 F 
ATOM    101  C   UNL     1      -0.588  -4.043 -14.525  1.00  0.00     0.059 A 
ATOM    102  C   UNL     1       0.181  -1.747 -14.715  1.00  0.00     0.059 A 
ATOM    103  F   UNL     1       0.681  -0.525 -12.777  1.00  0.00    -0.206 F 
ATOM    104  C   UNL     1      -0.235  -2.939 -15.304  1.00  0.00     0.060 A 
BRANCH 104 105
ATOM    105  S   UNL     1      -0.353  -3.074 -17.100  1.00  0.00     0.124 S 
ATOM    106  O   UNL     1       0.801  -3.911 -17.409  1.00  0.00    -0.237 OA
ATOM    107  O   UNL     1      -1.659  -3.701 -17.282  1.00  0.00    -0.237 OA
ATOM    108  O   UNL     1      -0.263  -1.688 -17.551  1.00  0.00    -0.744 OA
ENDBRANCH 104 105
ENDBRANCH  72  97
ENDBRANCH  46  47
ENDBRANCH  39  41
ENDBRANCH  38  39
ENDBRANCH  37  38
ENDBRANCH  36  37
ENDBRANCH  35  36
ENDBRANCH   1  35
TORSDOF 23
