REMARK SMILES CCOC(=O)[C@@H]1CCCCN1C(=O)N[C@](C)(CC)C(=O)OCCOCCOCCOC(=O)c1ccc(-c2c3nc(c(-c4c(F)cc(S(=O)(=O)[O-])cc4F)c4ccc([nH]4)c(-c4c(F)cc(S(=O)(=O)[O-])cc4F)c4nc(c(-c5c(F)cc(S(=O)(=O)[O-])cc5F)c5ccc2[nH]5)C=C4)C=C3)cc1
REMARK SMILES IDX 25 1 24 2 23 3 22 4 21 5 19 6 20 7 15 8 16 9 14 10 12 11
REMARK SMILES IDX 13 12 11 14 6 15 7 16 8 17 10 18 9 19 4 20 5 21 3 22 2 23
REMARK SMILES IDX 1 24 17 25 18 26 26 27 27 28 28 29 29 30 30 31 31 32 32 33
REMARK SMILES IDX 33 34 34 35 98 36 35 37 97 38 36 39 37 40 38 41 91 42 39 43
REMARK SMILES IDX 96 44 90 45 92 46 40 47 95 48 89 49 88 50 41 52 75 53 54 54
REMARK SMILES IDX 74 55 55 56 58 57 73 58 93 59 56 60 57 61 72 63 94 64 59 65
REMARK SMILES IDX 42 66 43 67 52 68 44 69 45 70 51 71 53 72 46 73 47 74 48 75
REMARK SMILES IDX 49 76 50 77 76 78 77 79 86 80 78 81 79 82 85 83 87 84 80 85
REMARK SMILES IDX 81 86 82 87 83 88 84 89 60 90 61 91 70 92 62 93 63 94 69 95
REMARK SMILES IDX 71 96 64 97 65 98 66 99 67 100 68 101
REMARK H PARENT 14 13 92 51 58 62
REMARK Flexibility Score: inf
ROOT
ATOM      1  C   UNL     1       2.336   2.834   4.879  1.00  0.00     0.188 C 
ENDROOT
BRANCH   1   2
ATOM      2  O   UNL     1       3.471   2.875   5.734  1.00  0.00    -0.376 OA
BRANCH   2   3
ATOM      3  C   UNL     1       3.903   4.176   6.138  1.00  0.00     0.202 C 
BRANCH   3   4
ATOM      4  C   UNL     1       4.093   5.208   5.015  1.00  0.00     0.261 C 
BRANCH   4   5
ATOM      5  O   UNL     1       2.883   5.546   4.269  1.00  0.00    -0.462 OA
BRANCH   5   6
ATOM      6  C   UNL     1       3.057   5.609   2.926  1.00  0.00     0.331 C 
ATOM      7  O   UNL     1       4.139   5.311   2.406  1.00  0.00    -0.249 OA
BRANCH   6   8
ATOM      8  C   UNL     1       1.889   6.154   2.015  1.00  0.00     0.136 C 
ATOM      9  C   UNL     1       1.849   5.041   0.918  1.00  0.00     0.047 C 
BRANCH   8  10
ATOM     10  N   UNL     1       2.538   7.400   1.563  1.00  0.00    -0.322 N 
ATOM     11  C   UNL     1       2.764   8.595   2.159  1.00  0.00     0.319 C 
ATOM     12  O   UNL     1       3.184   9.462   1.387  1.00  0.00    -0.249 OA
ATOM     13  H   UNL     1       2.877   7.352   0.640  1.00  0.00     0.166 HD
BRANCH  11  14
ATOM     14  N   UNL     1       2.584   8.846   3.517  1.00  0.00    -0.311 N 
ATOM     15  C   UNL     1       2.901  10.233   3.953  1.00  0.00     0.196 C 
ATOM     16  C   UNL     1       3.251  10.267   5.461  1.00  0.00     0.037 C 
ATOM     17  C   UNL     1       2.160   9.683   6.337  1.00  0.00     0.005 C 
ATOM     18  C   UNL     1       1.583   8.220   4.400  1.00  0.00     0.122 C 
ATOM     19  C   UNL     1       1.874   8.269   5.892  1.00  0.00     0.022 C 
BRANCH  15  20
ATOM     20  C   UNL     1       4.060  11.017   3.318  1.00  0.00     0.328 C 
ATOM     21  O   UNL     1       4.036  12.241   3.201  1.00  0.00    -0.250 OA
BRANCH  20  22
ATOM     22  O   UNL     1       5.159  10.241   3.103  1.00  0.00    -0.464 OA
BRANCH  22  23
ATOM     23  C   UNL     1       6.240  10.911   2.448  1.00  0.00     0.229 C 
ATOM     24  C   UNL     1       6.030  10.882   0.945  1.00  0.00     0.049 C 
ENDBRANCH  22  23
ENDBRANCH  20  22
ENDBRANCH  15  20
ENDBRANCH  11  14
ENDBRANCH   8  10
BRANCH   8  25
ATOM     25  C   UNL     1       0.403   6.592   2.144  1.00  0.00     0.037 C 
ATOM     26  C   UNL     1      -0.589   5.759   2.901  1.00  0.00     0.007 C 
ENDBRANCH   8  25
ENDBRANCH   6   8
ENDBRANCH   5   6
ENDBRANCH   4   5
ENDBRANCH   3   4
ENDBRANCH   2   3
ENDBRANCH   1   2
BRANCH   1  27
ATOM     27  C   UNL     1       1.039   3.392   5.479  1.00  0.00     0.188 C 
BRANCH  27  28
ATOM     28  O   UNL     1       1.204   4.534   6.309  1.00  0.00    -0.376 OA
BRANCH  28  29
ATOM     29  C   UNL     1       0.047   5.045   6.969  1.00  0.00     0.202 C 
BRANCH  29  30
ATOM     30  C   UNL     1      -0.760   4.032   7.796  1.00  0.00     0.261 C 
BRANCH  30  31
ATOM     31  O   UNL     1      -1.400   2.985   7.042  1.00  0.00    -0.460 OA
BRANCH  31  32
ATOM     32  C   UNL     1      -2.088   3.309   5.923  1.00  0.00     0.338 C 
ATOM     33  O   UNL     1      -2.468   4.420   5.595  1.00  0.00    -0.246 OA
BRANCH  32  34
ATOM     34  C   UNL     1      -2.038   2.132   5.017  1.00  0.00     0.060 A 
ATOM     35  C   UNL     1      -1.880   2.357   3.643  1.00  0.00     0.016 A 
ATOM     36  C   UNL     1      -2.034   0.826   5.510  1.00  0.00     0.016 A 
ATOM     37  C   UNL     1      -1.712   1.293   2.756  1.00  0.00     0.010 A 
ATOM     38  C   UNL     1      -1.902  -0.243   4.624  1.00  0.00     0.010 A 
ATOM     39  C   UNL     1      -1.766  -0.015   3.242  1.00  0.00    -0.014 A 
BRANCH  39  40
ATOM     40  C   UNL     1      -1.952  -1.154   2.315  1.00  0.00     0.031 A 
ATOM     41  C   UNL     1      -3.354  -1.663   2.134  1.00  0.00     0.074 A 
ATOM     42  C   UNL     1      -0.921  -1.741   1.682  1.00  0.00     0.049 A 
ATOM     43  N   UNL     1      -3.774  -2.761   1.570  1.00  0.00    -0.248 NA
ATOM     44  C   UNL     1      -4.427  -0.816   2.686  1.00  0.00     0.031 C 
ATOM     45  C   UNL     1       0.468  -1.289   1.716  1.00  0.00     0.029 A 
ATOM     46  N   UNL     1      -0.890  -2.873   0.905  1.00  0.00    -0.354 N 
ATOM     47  C   UNL     1      -5.154  -2.756   1.730  1.00  0.00     0.074 A 
ATOM     48  C   UNL     1      -5.500  -1.555   2.454  1.00  0.00     0.031 C 
ATOM     49  C   UNL     1       1.223  -2.155   1.015  1.00  0.00     0.029 A 
ATOM     50  C   UNL     1       0.379  -3.248   0.532  1.00  0.00     0.049 A 
ATOM     51  H   UNL     1      -1.699  -3.368   0.640  1.00  0.00     0.167 HD
ATOM     52  C   UNL     1      -6.052  -3.678   1.311  1.00  0.00     0.037 A 
ATOM     53  C   UNL     1       0.808  -4.369  -0.085  1.00  0.00     0.037 A 
ATOM     54  C   UNL     1      -5.692  -4.866   0.588  1.00  0.00     0.049 A 
ATOM     55  C   UNL     1      -0.200  -5.425  -0.474  1.00  0.00     0.074 A 
ATOM     56  C   UNL     1      -6.519  -5.869   0.117  1.00  0.00     0.029 A 
ATOM     57  N   UNL     1      -4.396  -5.212   0.233  1.00  0.00    -0.354 N 
ATOM     58  N   UNL     1      -1.502  -5.427  -0.303  1.00  0.00    -0.248 NA
ATOM     59  C   UNL     1       0.317  -6.633  -1.134  1.00  0.00     0.031 C 
ATOM     60  C   UNL     1      -5.718  -6.847  -0.478  1.00  0.00     0.029 A 
ATOM     61  C   UNL     1      -4.399  -6.421  -0.437  1.00  0.00     0.049 A 
ATOM     62  H   UNL     1      -3.594  -4.676   0.429  1.00  0.00     0.167 HD
ATOM     63  C   UNL     1      -1.961  -6.611  -0.874  1.00  0.00     0.074 A 
ATOM     64  C   UNL     1      -0.799  -7.304  -1.387  1.00  0.00     0.031 C 
ATOM     65  C   UNL     1      -3.231  -7.077  -0.973  1.00  0.00     0.037 A 
BRANCH  52  66
ATOM     66  C   UNL     1      -7.494  -3.455   1.666  1.00  0.00     0.058 A 
ATOM     67  C   UNL     1      -8.256  -2.434   1.077  1.00  0.00     0.135 A 
ATOM     68  C   UNL     1      -8.127  -4.290   2.601  1.00  0.00     0.135 A 
ATOM     69  F   UNL     1      -7.693  -1.589   0.199  1.00  0.00    -0.206 F 
ATOM     70  C   UNL     1      -9.588  -2.232   1.422  1.00  0.00     0.059 A 
ATOM     71  C   UNL     1      -9.467  -4.126   2.937  1.00  0.00     0.059 A 
ATOM     72  F   UNL     1      -7.442  -5.275   3.202  1.00  0.00    -0.206 F 
ATOM     73  C   UNL     1     -10.185  -3.084   2.353  1.00  0.00     0.060 A 
BRANCH  73  74
ATOM     74  S   UNL     1     -11.915  -2.811   2.785  1.00  0.00     0.124 S 
ATOM     75  O   UNL     1     -11.827  -1.586   3.575  1.00  0.00    -0.237 OA
ATOM     76  O   UNL     1     -12.546  -2.677   1.476  1.00  0.00    -0.237 OA
ATOM     77  O   UNL     1     -12.274  -4.013   3.532  1.00  0.00    -0.744 OA
ENDBRANCH  73  74
ENDBRANCH  52  66
BRANCH  53  78
ATOM     78  C   UNL     1       2.259  -4.570  -0.349  1.00  0.00     0.058 A 
ATOM     79  C   UNL     1       2.763  -4.578  -1.658  1.00  0.00     0.135 A 
ATOM     80  C   UNL     1       3.172  -4.766   0.700  1.00  0.00     0.135 A 
ATOM     81  F   UNL     1       1.931  -4.411  -2.697  1.00  0.00    -0.206 F 
ATOM     82  C   UNL     1       4.114  -4.787  -1.920  1.00  0.00     0.059 A 
ATOM     83  C   UNL     1       4.532  -4.949   0.466  1.00  0.00     0.059 A 
ATOM     84  F   UNL     1       2.745  -4.762   1.973  1.00  0.00    -0.206 F 
ATOM     85  C   UNL     1       4.992  -4.968  -0.850  1.00  0.00     0.060 A 
BRANCH  85  86
ATOM     86  S   UNL     1       6.749  -5.194  -1.202  1.00  0.00     0.124 S 
ATOM     87  O   UNL     1       6.764  -6.535  -1.774  1.00  0.00    -0.237 OA
ATOM     88  O   UNL     1       7.017  -4.099  -2.130  1.00  0.00    -0.237 OA
ATOM     89  O   UNL     1       7.374  -5.061   0.111  1.00  0.00    -0.744 OA
ENDBRANCH  85  86
ENDBRANCH  53  78
BRANCH  65  90
ATOM     90  C   UNL     1      -3.461  -8.357  -1.729  1.00  0.00     0.058 A 
ATOM     91  C   UNL     1      -3.133  -9.610  -1.193  1.00  0.00     0.135 A 
ATOM     92  C   UNL     1      -4.127  -8.325  -2.967  1.00  0.00     0.135 A 
ATOM     93  F   UNL     1      -2.492  -9.696  -0.017  1.00  0.00    -0.206 F 
ATOM     94  C   UNL     1      -3.456 -10.790  -1.858  1.00  0.00     0.059 A 
ATOM     95  C   UNL     1      -4.484  -9.491  -3.635  1.00  0.00     0.059 A 
ATOM     96  F   UNL     1      -4.473  -7.151  -3.518  1.00  0.00    -0.206 F 
ATOM     97  C   UNL     1      -4.142 -10.720  -3.073  1.00  0.00     0.060 A 
BRANCH  97  98
ATOM     98  S   UNL     1      -4.624 -12.258  -3.886  1.00  0.00     0.124 S 
ATOM     99  O   UNL     1      -3.339 -12.751  -4.370  1.00  0.00    -0.237 OA
ATOM    100  O   UNL     1      -5.222 -13.015  -2.790  1.00  0.00    -0.237 OA
ATOM    101  O   UNL     1      -5.557 -11.820  -4.919  1.00  0.00    -0.744 OA
ENDBRANCH  97  98
ENDBRANCH  65  90
ENDBRANCH  39  40
ENDBRANCH  32  34
ENDBRANCH  31  32
ENDBRANCH  30  31
ENDBRANCH  29  30
ENDBRANCH  28  29
ENDBRANCH  27  28
ENDBRANCH   1  27
TORSDOF 26
