REMARK SMILES CC(C)(C[NH2+]CCc1cccnc1)C(=O)OCCOCCOCCOC(=O)c1ccc(-c2c3nc(c(-c4c(F)cc(S(=O)(=O)[O-])cc4F)c4ccc([nH]4)c(-c4c(F)cc(S(=O)(=O)[O-])cc4F)c4nc(c(-c5c(F)cc(S(=O)(=O)[O-])cc5F)c5ccc2[nH]5)C=C4)C=C3)cc1
REMARK SMILES IDX 20 1 19 2 18 3 17 4 16 5 14 6 15 7 2 8 1 9 3 10 4 11 5 12
REMARK SMILES IDX 6 15 7 16 8 17 9 18 13 19 10 20 12 21 11 22 21 23 22 24
REMARK SMILES IDX 23 25 24 26 25 27 26 28 27 29 28 30 29 31 93 32 30 33 92 34
REMARK SMILES IDX 31 35 32 36 33 37 86 38 34 39 91 40 85 41 87 42 35 43 90 44
REMARK SMILES IDX 84 45 83 46 36 48 70 49 49 50 69 51 50 52 53 53 68 54 88 55
REMARK SMILES IDX 51 56 52 57 67 59 89 60 54 61 37 62 38 63 47 64 39 65 40 66
REMARK SMILES IDX 46 67 48 68 41 69 42 70 43 71 44 72 45 73 71 74 72 75 81 76
REMARK SMILES IDX 73 77 74 78 80 79 82 80 75 81 76 82 77 83 78 84 79 85 55 86
REMARK SMILES IDX 56 87 65 88 57 89 58 90 64 91 66 92 59 93 60 94 61 95 62 96
REMARK SMILES IDX 63 97
REMARK H PARENT 5 13 5 14 87 47 53 58
REMARK Flexibility Score: inf
ROOT
ATOM      1  C   UNL     1       1.397   2.640  -2.538  1.00  0.00     0.188 C 
ENDROOT
BRANCH   1   2
ATOM      2  O   UNL     1       2.267   2.791  -3.652  1.00  0.00    -0.376 OA
BRANCH   2   3
ATOM      3  C   UNL     1       1.891   2.104  -4.841  1.00  0.00     0.202 C 
BRANCH   3   4
ATOM      4  C   UNL     1       1.765   0.571  -4.770  1.00  0.00     0.261 C 
BRANCH   4   5
ATOM      5  O   UNL     1       0.924   0.043  -3.715  1.00  0.00    -0.463 OA
BRANCH   5   6
ATOM      6  C   UNL     1       1.578  -0.626  -2.725  1.00  0.00     0.317 C 
ATOM      7  O   UNL     1       2.796  -0.799  -2.726  1.00  0.00    -0.251 OA
BRANCH   6   8
ATOM      8  C   UNL     1       0.693  -1.160  -1.578  1.00  0.00     0.111 C 
ATOM      9  C   UNL     1       1.225  -0.568  -0.254  1.00  0.00     0.029 C 
ATOM     10  C   UNL     1       0.989  -2.679  -1.564  1.00  0.00     0.029 C 
BRANCH   8  11
ATOM     11  C   UNL     1      -0.855  -0.986  -1.722  1.00  0.00     0.278 C 
BRANCH  11  12
ATOM     12  N   UNL     1      -1.437   0.155  -0.998  1.00  0.00    -0.345 N 
ATOM     13  H   UNL     1      -1.039   1.014  -1.379  1.00  0.00     0.346 HD
ATOM     14  H   UNL     1      -1.215   0.024  -0.012  1.00  0.00     0.346 HD
BRANCH  12  15
ATOM     15  C   UNL     1      -2.904   0.241  -1.098  1.00  0.00     0.265 C 
BRANCH  15  16
ATOM     16  C   UNL     1      -3.702  -0.351   0.086  1.00  0.00     0.098 C 
BRANCH  16  17
ATOM     17  C   UNL     1      -3.315   0.172   1.446  1.00  0.00    -0.024 A 
ATOM     18  C   UNL     1      -3.541   1.497   1.830  1.00  0.00     0.007 A 
ATOM     19  C   UNL     1      -2.692  -0.655   2.375  1.00  0.00     0.114 A 
ATOM     20  C   UNL     1      -3.099   1.945   3.074  1.00  0.00     0.020 A 
ATOM     21  N   UNL     1      -2.250  -0.249   3.586  1.00  0.00    -0.264 NA
ATOM     22  C   UNL     1      -2.453   1.047   3.906  1.00  0.00     0.111 A 
ENDBRANCH  16  17
ENDBRANCH  15  16
ENDBRANCH  12  15
ENDBRANCH  11  12
ENDBRANCH   8  11
ENDBRANCH   6   8
ENDBRANCH   5   6
ENDBRANCH   4   5
ENDBRANCH   3   4
ENDBRANCH   2   3
ENDBRANCH   1   2
BRANCH   1  23
ATOM     23  C   UNL     1      -0.064   3.023  -2.760  1.00  0.00     0.188 C 
BRANCH  23  24
ATOM     24  O   UNL     1      -0.667   2.581  -3.969  1.00  0.00    -0.376 OA
BRANCH  24  25
ATOM     25  C   UNL     1      -2.015   3.005  -4.186  1.00  0.00     0.202 C 
BRANCH  25  26
ATOM     26  C   UNL     1      -2.301   4.518  -4.048  1.00  0.00     0.261 C 
BRANCH  26  27
ATOM     27  O   UNL     1      -1.993   5.108  -2.764  1.00  0.00    -0.460 OA
BRANCH  27  28
ATOM     28  C   UNL     1      -2.553   4.544  -1.670  1.00  0.00     0.338 C 
ATOM     29  O   UNL     1      -3.492   3.764  -1.667  1.00  0.00    -0.246 OA
BRANCH  28  30
ATOM     30  C   UNL     1      -1.702   4.830  -0.480  1.00  0.00     0.060 A 
ATOM     31  C   UNL     1      -1.407   3.769   0.384  1.00  0.00     0.016 A 
ATOM     32  C   UNL     1      -1.179   6.094  -0.205  1.00  0.00     0.016 A 
ATOM     33  C   UNL     1      -0.692   3.977   1.566  1.00  0.00     0.010 A 
ATOM     34  C   UNL     1      -0.467   6.308   0.989  1.00  0.00     0.010 A 
ATOM     35  C   UNL     1      -0.277   5.264   1.915  1.00  0.00    -0.014 A 
BRANCH  35  36
ATOM     36  C   UNL     1       0.138   5.540   3.322  1.00  0.00     0.031 A 
ATOM     37  C   UNL     1      -0.838   6.251   4.231  1.00  0.00     0.074 A 
ATOM     38  C   UNL     1       1.309   5.105   3.828  1.00  0.00     0.049 A 
ATOM     39  N   UNL     1      -0.701   6.621   5.479  1.00  0.00    -0.248 NA
ATOM     40  C   UNL     1      -2.150   6.584   3.652  1.00  0.00     0.031 C 
ATOM     41  C   UNL     1       2.318   4.342   3.097  1.00  0.00     0.029 A 
ATOM     42  N   UNL     1       1.844   5.246   5.088  1.00  0.00    -0.354 N 
ATOM     43  C   UNL     1      -1.893   7.248   5.826  1.00  0.00     0.074 A 
ATOM     44  C   UNL     1      -2.733   7.232   4.648  1.00  0.00     0.031 C 
ATOM     45  C   UNL     1       3.354   4.090   3.917  1.00  0.00     0.029 A 
ATOM     46  C   UNL     1       3.102   4.703   5.221  1.00  0.00     0.049 A 
ATOM     47  H   UNL     1       1.372   5.695   5.826  1.00  0.00     0.167 HD
ATOM     48  C   UNL     1      -2.265   7.781   7.015  1.00  0.00     0.037 A 
ATOM     49  C   UNL     1       3.961   4.718   6.263  1.00  0.00     0.037 A 
ATOM     50  C   UNL     1      -1.438   7.791   8.194  1.00  0.00     0.049 A 
ATOM     51  C   UNL     1       3.556   5.385   7.556  1.00  0.00     0.074 A 
ATOM     52  C   UNL     1      -1.734   8.303   9.446  1.00  0.00     0.029 A 
ATOM     53  N   UNL     1      -0.155   7.271   8.271  1.00  0.00    -0.354 N 
ATOM     54  N   UNL     1       2.426   5.977   7.865  1.00  0.00    -0.248 NA
ATOM     55  C   UNL     1       4.545   5.381   8.645  1.00  0.00     0.031 C 
ATOM     56  C   UNL     1      -0.610   8.145  10.263  1.00  0.00     0.029 A 
ATOM     57  C   UNL     1       0.362   7.472   9.542  1.00  0.00     0.049 A 
ATOM     58  H   UNL     1       0.319   6.825   7.533  1.00  0.00     0.167 HD
ATOM     59  C   UNL     1       2.558   6.382   9.193  1.00  0.00     0.074 A 
ATOM     60  C   UNL     1       3.870   5.958   9.630  1.00  0.00     0.031 C 
ATOM     61  C   UNL     1       1.668   7.042   9.978  1.00  0.00     0.037 A 
BRANCH  48  62
ATOM     62  C   UNL     1      -3.619   8.437   7.092  1.00  0.00     0.058 A 
ATOM     63  C   UNL     1      -4.811   7.695   7.043  1.00  0.00     0.135 A 
ATOM     64  C   UNL     1      -3.723   9.829   7.247  1.00  0.00     0.135 A 
ATOM     65  F   UNL     1      -4.772   6.364   6.874  1.00  0.00    -0.206 F 
ATOM     66  C   UNL     1      -6.055   8.313   7.116  1.00  0.00     0.059 A 
ATOM     67  C   UNL     1      -4.956  10.465   7.355  1.00  0.00     0.059 A 
ATOM     68  F   UNL     1      -2.617  10.588   7.297  1.00  0.00    -0.206 F 
ATOM     69  C   UNL     1      -6.117   9.699   7.273  1.00  0.00     0.060 A 
BRANCH  69  70
ATOM     70  S   UNL     1      -7.740  10.485   7.365  1.00  0.00     0.124 S 
ATOM     71  O   UNL     1      -8.210  10.341   5.990  1.00  0.00    -0.237 OA
ATOM     72  O   UNL     1      -8.426   9.664   8.358  1.00  0.00    -0.237 OA
ATOM     73  O   UNL     1      -7.436  11.849   7.784  1.00  0.00    -0.744 OA
ENDBRANCH  69  70
ENDBRANCH  48  62
BRANCH  49  74
ATOM     74  C   UNL     1       5.310   4.098   6.129  1.00  0.00     0.058 A 
ATOM     75  C   UNL     1       5.669   2.959   6.868  1.00  0.00     0.135 A 
ATOM     76  C   UNL     1       6.280   4.649   5.276  1.00  0.00     0.135 A 
ATOM     77  F   UNL     1       4.788   2.405   7.715  1.00  0.00    -0.206 F 
ATOM     78  C   UNL     1       6.940   2.400   6.779  1.00  0.00     0.059 A 
ATOM     79  C   UNL     1       7.547   4.090   5.146  1.00  0.00     0.059 A 
ATOM     80  F   UNL     1       5.992   5.739   4.546  1.00  0.00    -0.206 F 
ATOM     81  C   UNL     1       7.872   2.970   5.910  1.00  0.00     0.060 A 
BRANCH  81  82
ATOM     82  S   UNL     1       9.504   2.209   5.766  1.00  0.00     0.124 S 
ATOM     83  O   UNL     1      10.105   2.556   7.049  1.00  0.00    -0.237 OA
ATOM     84  O   UNL     1       9.168   0.801   5.578  1.00  0.00    -0.237 OA
ATOM     85  O   UNL     1      10.082   2.870   4.600  1.00  0.00    -0.744 OA
ENDBRANCH  81  82
ENDBRANCH  49  74
BRANCH  61  86
ATOM     86  C   UNL     1       2.057   7.304  11.411  1.00  0.00     0.058 A 
ATOM     87  C   UNL     1       3.061   8.222  11.758  1.00  0.00     0.135 A 
ATOM     88  C   UNL     1       1.386   6.648  12.458  1.00  0.00     0.135 A 
ATOM     89  F   UNL     1       3.736   8.879  10.802  1.00  0.00    -0.206 F 
ATOM     90  C   UNL     1       3.414   8.449  13.086  1.00  0.00     0.059 A 
ATOM     91  C   UNL     1       1.699   6.885  13.794  1.00  0.00     0.059 A 
ATOM     92  F   UNL     1       0.405   5.771  12.189  1.00  0.00    -0.206 F 
ATOM     93  C   UNL     1       2.728   7.774  14.098  1.00  0.00     0.060 A 
BRANCH  93  94
ATOM     94  S   UNL     1       3.191   8.082  15.816  1.00  0.00     0.124 S 
ATOM     95  O   UNL     1       4.474   7.393  15.903  1.00  0.00    -0.237 OA
ATOM     96  O   UNL     1       3.249   9.540  15.867  1.00  0.00    -0.237 OA
ATOM     97  O   UNL     1       2.102   7.477  16.576  1.00  0.00    -0.744 OA
ENDBRANCH  93  94
ENDBRANCH  61  86
ENDBRANCH  35  36
ENDBRANCH  28  30
ENDBRANCH  27  28
ENDBRANCH  26  27
ENDBRANCH  25  26
ENDBRANCH  24  25
ENDBRANCH  23  24
ENDBRANCH   1  23
TORSDOF 25
