REMARK SMILES CC(C)C(=O)Nc1ccc2c([C@H](C(=O)OCCOCCOCCOC(=O)c3ccc(-c4c5nc(c(-c6c(F)cc(S(=O)(=O)[O-])cc6F)c6ccc([nH]6)c(-c6c(F)cc(S(=O)(=O)[O-])cc6F)c6nc(c(-c7c(F)cc(S(=O)(=O)[O-])cc7F)c7ccc4[nH]7)C=C6)C=C5)cc3)[NH+]3CC[NH+](CC(=O)N(C)C)CC3)c[nH]c2c1
REMARK SMILES IDX 19 1 18 2 17 3 16 4 15 5 13 6 14 7 12 8 11 9 7 10 8 11
REMARK SMILES IDX 108 12 9 13 107 14 10 15 106 16 105 17 6 19 4 20 5 21 2 23
REMARK SMILES IDX 1 24 3 25 93 26 94 27 104 28 95 30 103 31 96 32 97 34 98 35
REMARK SMILES IDX 99 36 100 37 101 38 102 39 20 40 21 41 22 42 23 43 24 44
REMARK SMILES IDX 25 45 26 46 27 47 28 48 92 49 29 50 91 51 30 52 31 53 32 54
REMARK SMILES IDX 85 55 33 56 90 57 84 58 86 59 34 60 89 61 83 62 82 63 35 65
REMARK SMILES IDX 69 66 48 67 68 68 49 69 52 70 67 71 87 72 50 73 51 74 66 76
REMARK SMILES IDX 88 77 53 78 36 79 37 80 46 81 38 82 39 83 45 84 47 85 40 86
REMARK SMILES IDX 41 87 42 88 43 89 44 90 70 91 71 92 80 93 72 94 73 95 79 96
REMARK SMILES IDX 81 97 74 98 75 99 76 100 77 101 78 102 54 103 55 104 64 105
REMARK SMILES IDX 56 106 57 107 63 108 65 109 58 110 59 111 60 112 61 113
REMARK SMILES IDX 62 114
REMARK H PARENT 106 18 6 22 93 29 96 33 86 64 52 75
REMARK Flexibility Score: inf
ROOT
ATOM      1  C   UNL     1      -1.776   1.105  -7.241  1.00  0.00     0.188 C 
ENDROOT
BRANCH   1   2
ATOM      2  O   UNL     1      -2.342   2.106  -6.414  1.00  0.00    -0.376 OA
BRANCH   2   3
ATOM      3  C   UNL     1      -1.772   2.424  -5.150  1.00  0.00     0.202 C 
BRANCH   3   4
ATOM      4  C   UNL     1      -0.913   1.414  -4.381  1.00  0.00     0.261 C 
BRANCH   4   5
ATOM      5  O   UNL     1       0.243   1.004  -5.123  1.00  0.00    -0.459 OA
BRANCH   5   6
ATOM      6  C   UNL     1       0.808  -0.184  -4.782  1.00  0.00     0.370 C 
ATOM      7  O   UNL     1       0.344  -0.910  -3.906  1.00  0.00    -0.245 OA
BRANCH   6   8
ATOM      8  C   UNL     1       2.084  -0.541  -5.587  1.00  0.00     0.328 C 
BRANCH   8   9
ATOM      9  C   UNL     1       1.816  -1.324  -6.865  1.00  0.00     0.046 A 
ATOM     10  C   UNL     1       4.072  -3.417  -9.759  1.00  0.00     0.043 A 
ATOM     11  C   UNL     1       4.798  -2.503  -8.999  1.00  0.00     0.027 A 
ATOM     12  C   UNL     1       2.685  -3.459  -9.692  1.00  0.00     0.052 A 
ATOM     13  C   UNL     1       4.158  -1.698  -8.040  1.00  0.00     0.013 A 
ATOM     14  C   UNL     1       2.081  -2.693  -8.689  1.00  0.00     0.048 A 
ATOM     15  C   UNL     1       2.767  -1.828  -7.836  1.00  0.00     0.009 A 
ATOM     16  N   UNL     1       0.775  -2.699  -8.292  1.00  0.00    -0.361 N 
ATOM     17  C   UNL     1       0.598  -1.899  -7.205  1.00  0.00     0.094 A 
ATOM     18  H   UNL     1       0.058  -3.211  -8.732  1.00  0.00     0.166 HD
BRANCH  10  19
ATOM     19  N   UNL     1       4.713  -4.342 -10.584  1.00  0.00    -0.326 N 
ATOM     20  C   UNL     1       5.263  -5.538 -10.207  1.00  0.00     0.226 C 
ATOM     21  O   UNL     1       5.649  -6.296 -11.105  1.00  0.00    -0.274 OA
ATOM     22  H   UNL     1       4.775  -4.111 -11.539  1.00  0.00     0.169 HD
BRANCH  20  23
ATOM     23  C   UNL     1       5.394  -5.978  -8.743  1.00  0.00     0.072 C 
ATOM     24  C   UNL     1       6.352  -5.122  -7.928  1.00  0.00     0.018 C 
ATOM     25  C   UNL     1       4.059  -6.193  -8.033  1.00  0.00     0.018 C 
ENDBRANCH  20  23
ENDBRANCH  10  19
ENDBRANCH   8   9
BRANCH   8  26
ATOM     26  N   UNL     1       3.128   0.506  -5.696  1.00  0.00    -0.310 N 
ATOM     27  C   UNL     1       2.983   1.621  -6.636  1.00  0.00     0.325 C 
ATOM     28  C   UNL     1       3.591   0.994  -4.397  1.00  0.00     0.325 C 
ATOM     29  H   UNL     1       3.838  -0.058  -6.163  1.00  0.00     0.349 HD
ATOM     30  C   UNL     1       2.337   2.937  -6.115  1.00  0.00     0.325 C 
ATOM     31  C   UNL     1       2.774   2.166  -3.813  1.00  0.00     0.325 C 
ATOM     32  N   UNL     1       2.523   3.301  -4.698  1.00  0.00    -0.318 N 
ATOM     33  H   UNL     1       1.608   3.630  -4.392  1.00  0.00     0.348 HD
BRANCH  32  34
ATOM     34  C   UNL     1       3.392   4.470  -4.489  1.00  0.00     0.364 C 
BRANCH  34  35
ATOM     35  C   UNL     1       4.833   4.237  -4.948  1.00  0.00     0.277 C 
ATOM     36  O   UNL     1       5.163   4.551  -6.097  1.00  0.00    -0.268 OA
ATOM     37  N   UNL     1       5.725   3.613  -4.084  1.00  0.00    -0.344 N 
ATOM     38  C   UNL     1       5.587   3.493  -2.641  1.00  0.00     0.146 C 
ATOM     39  C   UNL     1       6.925   3.033  -4.660  1.00  0.00     0.146 C 
ENDBRANCH  34  35
ENDBRANCH  32  34
ENDBRANCH   8  26
ENDBRANCH   6   8
ENDBRANCH   5   6
ENDBRANCH   4   5
ENDBRANCH   3   4
ENDBRANCH   2   3
ENDBRANCH   1   2
BRANCH   1  40
ATOM     40  C   UNL     1      -0.412   1.349  -7.908  1.00  0.00     0.188 C 
BRANCH  40  41
ATOM     41  O   UNL     1       0.007   2.567  -8.506  1.00  0.00    -0.376 OA
BRANCH  41  42
ATOM     42  C   UNL     1      -0.820   3.708  -8.448  1.00  0.00     0.202 C 
BRANCH  42  43
ATOM     43  C   UNL     1      -1.933   3.742  -9.501  1.00  0.00     0.261 C 
BRANCH  43  44
ATOM     44  O   UNL     1      -2.220   2.455 -10.057  1.00  0.00    -0.460 OA
BRANCH  44  45
ATOM     45  C   UNL     1      -1.321   2.027 -10.990  1.00  0.00     0.338 C 
ATOM     46  O   UNL     1      -0.470   2.683 -11.539  1.00  0.00    -0.246 OA
BRANCH  45  47
ATOM     47  C   UNL     1      -1.441   0.547 -11.073  1.00  0.00     0.060 A 
ATOM     48  C   UNL     1      -0.265  -0.205 -11.163  1.00  0.00     0.016 A 
ATOM     49  C   UNL     1      -2.679  -0.099 -10.982  1.00  0.00     0.016 A 
ATOM     50  C   UNL     1      -0.333  -1.599 -11.169  1.00  0.00     0.010 A 
ATOM     51  C   UNL     1      -2.747  -1.496 -11.008  1.00  0.00     0.010 A 
ATOM     52  C   UNL     1      -1.574  -2.256 -11.115  1.00  0.00    -0.014 A 
BRANCH  52  53
ATOM     53  C   UNL     1      -1.649  -3.703 -11.444  1.00  0.00     0.031 A 
ATOM     54  C   UNL     1      -1.501  -4.079 -12.894  1.00  0.00     0.074 A 
ATOM     55  C   UNL     1      -1.837  -4.662 -10.516  1.00  0.00     0.049 A 
ATOM     56  N   UNL     1      -1.542  -5.258 -13.452  1.00  0.00    -0.248 NA
ATOM     57  C   UNL     1      -1.289  -2.969 -13.839  1.00  0.00     0.031 C 
ATOM     58  C   UNL     1      -2.002  -4.440  -9.082  1.00  0.00     0.029 A 
ATOM     59  N   UNL     1      -1.900  -6.030 -10.646  1.00  0.00    -0.354 N 
ATOM     60  C   UNL     1      -1.373  -5.031 -14.812  1.00  0.00     0.074 A 
ATOM     61  C   UNL     1      -1.211  -3.607 -14.994  1.00  0.00     0.031 C 
ATOM     62  C   UNL     1      -2.069  -5.630  -8.457  1.00  0.00     0.029 A 
ATOM     63  C   UNL     1      -2.069  -6.700  -9.454  1.00  0.00     0.049 A 
ATOM     64  H   UNL     1      -1.830  -6.489 -11.513  1.00  0.00     0.167 HD
ATOM     65  C   UNL     1      -1.385  -5.920 -15.829  1.00  0.00     0.037 A 
ATOM     66  C   UNL     1      -2.250  -8.016  -9.204  1.00  0.00     0.037 A 
ATOM     67  C   UNL     1      -1.626  -7.326 -15.668  1.00  0.00     0.049 A 
ATOM     68  C   UNL     1      -2.337  -8.980 -10.367  1.00  0.00     0.074 A 
ATOM     69  C   UNL     1      -1.717  -8.298 -16.646  1.00  0.00     0.029 A 
ATOM     70  N   UNL     1      -1.841  -7.956 -14.452  1.00  0.00    -0.354 N 
ATOM     71  N   UNL     1      -2.180  -8.748 -11.649  1.00  0.00    -0.248 NA
ATOM     72  C   UNL     1      -2.665 -10.380 -10.052  1.00  0.00     0.031 C 
ATOM     73  C   UNL     1      -2.043  -9.508 -16.026  1.00  0.00     0.029 A 
ATOM     74  C   UNL     1      -2.087  -9.302 -14.656  1.00  0.00     0.049 A 
ATOM     75  H   UNL     1      -1.822  -7.511 -13.573  1.00  0.00     0.167 HD
ATOM     76  C   UNL     1      -2.371  -9.972 -12.287  1.00  0.00     0.074 A 
ATOM     77  C   UNL     1      -2.639 -10.946 -11.251  1.00  0.00     0.031 C 
ATOM     78  C   UNL     1      -2.335 -10.264 -13.612  1.00  0.00     0.037 A 
BRANCH  65  79
ATOM     79  C   UNL     1      -1.218  -5.368 -17.214  1.00  0.00     0.058 A 
ATOM     80  C   UNL     1       0.017  -4.885 -17.672  1.00  0.00     0.135 A 
ATOM     81  C   UNL     1      -2.318  -5.300 -18.083  1.00  0.00     0.135 A 
ATOM     82  F   UNL     1       1.089  -4.892 -16.863  1.00  0.00    -0.206 F 
ATOM     83  C   UNL     1       0.151  -4.332 -18.941  1.00  0.00     0.059 A 
ATOM     84  C   UNL     1      -2.200  -4.777 -19.365  1.00  0.00     0.059 A 
ATOM     85  F   UNL     1      -3.525  -5.730 -17.683  1.00  0.00    -0.206 F 
ATOM     86  C   UNL     1      -0.965  -4.282 -19.779  1.00  0.00     0.060 A 
BRANCH  86  87
ATOM     87  S   UNL     1      -0.777  -3.557 -21.421  1.00  0.00     0.124 S 
ATOM     88  O   UNL     1      -0.642  -2.140 -21.099  1.00  0.00    -0.237 OA
ATOM     89  O   UNL     1       0.429  -4.214 -21.914  1.00  0.00    -0.237 OA
ATOM     90  O   UNL     1      -2.014  -3.930 -22.100  1.00  0.00    -0.744 OA
ENDBRANCH  86  87
ENDBRANCH  65  79
BRANCH  66  91
ATOM     91  C   UNL     1      -2.435  -8.515  -7.808  1.00  0.00     0.058 A 
ATOM     92  C   UNL     1      -1.521  -9.409  -7.226  1.00  0.00     0.135 A 
ATOM     93  C   UNL     1      -3.554  -8.149  -7.044  1.00  0.00     0.135 A 
ATOM     94  F   UNL     1      -0.445  -9.813  -7.918  1.00  0.00    -0.206 F 
ATOM     95  C   UNL     1      -1.718  -9.934  -5.950  1.00  0.00     0.059 A 
ATOM     96  C   UNL     1      -3.756  -8.632  -5.754  1.00  0.00     0.059 A 
ATOM     97  F   UNL     1      -4.464  -7.300  -7.547  1.00  0.00    -0.206 F 
ATOM     98  C   UNL     1      -2.839  -9.536  -5.220  1.00  0.00     0.060 A 
BRANCH  98  99
ATOM     99  S   UNL     1      -3.070 -10.188  -3.551  1.00  0.00     0.124 S 
ATOM    100  O   UNL     1      -3.468 -11.563  -3.824  1.00  0.00    -0.237 OA
ATOM    101  O   UNL     1      -1.745 -10.009  -2.966  1.00  0.00    -0.237 OA
ATOM    102  O   UNL     1      -4.112  -9.327  -2.998  1.00  0.00    -0.744 OA
ENDBRANCH  98  99
ENDBRANCH  66  91
BRANCH  78 103
ATOM    103  C   UNL     1      -2.539 -11.695 -14.031  1.00  0.00     0.058 A 
ATOM    104  C   UNL     1      -3.798 -12.314 -13.981  1.00  0.00     0.135 A 
ATOM    105  C   UNL     1      -1.472 -12.427 -14.581  1.00  0.00     0.135 A 
ATOM    106  F   UNL     1      -4.851 -11.662 -13.464  1.00  0.00    -0.206 F 
ATOM    107  C   UNL     1      -3.988 -13.612 -14.447  1.00  0.00     0.059 A 
ATOM    108  C   UNL     1      -1.646 -13.714 -15.079  1.00  0.00     0.059 A 
ATOM    109  F   UNL     1      -0.250 -11.877 -14.666  1.00  0.00    -0.206 F 
ATOM    110  C   UNL     1      -2.907 -14.302 -15.000  1.00  0.00     0.060 A 
BRANCH 110 111
ATOM    111  S   UNL     1      -3.180 -15.964 -15.650  1.00  0.00     0.124 S 
ATOM    112  O   UNL     1      -3.339 -16.737 -14.422  1.00  0.00    -0.237 OA
ATOM    113  O   UNL     1      -4.388 -15.792 -16.451  1.00  0.00    -0.237 OA
ATOM    114  O   UNL     1      -1.964 -16.237 -16.410  1.00  0.00    -0.744 OA
ENDBRANCH 110 111
ENDBRANCH  78 103
ENDBRANCH  52  53
ENDBRANCH  45  47
ENDBRANCH  44  45
ENDBRANCH  43  44
ENDBRANCH  42  43
ENDBRANCH  41  42
ENDBRANCH  40  41
ENDBRANCH   1  40
TORSDOF 26
