REMARK SMILES Cc1cc([N+](=O)[O-])ccc1-c1ccc(/C=C/C(=O)Nc2ccc(O)c(C(=O)OCCOCCOCCOC(=O)c3ccc(-c4c5nc(c(-c6c(F)cc(S(=O)(=O)[O-])cc6F)c6ccc([nH]6)c(-c6c(F)cc(S(=O)(=O)[O-])cc6F)c6nc(c(-c7c(F)cc(S(=O)(=O)[O-])cc7F)c7ccc4[nH]7)C=C6)C=C5)cc3)c2)o1
REMARK SMILES IDX 32 1 31 2 30 3 29 4 28 5 26 6 27 7 25 8 20 9 21 10 106 11
REMARK SMILES IDX 22 12 23 13 19 14 17 15 18 16 16 18 15 19 14 20 11 21 12 22
REMARK SMILES IDX 107 23 13 24 10 25 1 26 2 27 3 28 4 29 9 30 8 31 5 32 6 33
REMARK SMILES IDX 7 34 24 35 33 37 34 38 35 39 36 40 37 41 38 42 39 43 40 44
REMARK SMILES IDX 41 45 105 46 42 47 104 48 43 49 44 50 45 51 98 52 46 53
REMARK SMILES IDX 103 54 97 55 99 56 47 57 102 58 96 59 95 60 48 62 82 63
REMARK SMILES IDX 61 64 81 65 62 66 65 67 80 68 100 69 63 70 64 71 79 73
REMARK SMILES IDX 101 74 66 75 49 76 50 77 59 78 51 79 52 80 58 81 60 82 53 83
REMARK SMILES IDX 54 84 55 85 56 86 57 87 83 88 84 89 93 90 85 91 86 92 92 93
REMARK SMILES IDX 94 94 87 95 88 96 89 97 90 98 91 99 67 100 68 101 77 102
REMARK SMILES IDX 69 103 70 104 76 105 78 106 71 107 72 108 73 109 74 110
REMARK SMILES IDX 75 111
REMARK H PARENT 19 17 24 36 99 61 65 72
REMARK Flexibility Score: inf
ROOT
ATOM      1  C   UNL     1       9.941  10.078  -1.433  1.00  0.00     0.188 C 
ENDROOT
BRANCH   1   2
ATOM      2  O   UNL     1      10.121   8.730  -1.854  1.00  0.00    -0.376 OA
BRANCH   2   3
ATOM      3  C   UNL     1       9.561   8.255  -3.083  1.00  0.00     0.202 C 
BRANCH   3   4
ATOM      4  C   UNL     1       8.478   7.112  -3.065  1.00  0.00     0.261 C 
BRANCH   4   5
ATOM      5  O   UNL     1       6.969   7.228  -3.154  1.00  0.00    -0.460 OA
BRANCH   5   6
ATOM      6  C   UNL     1       6.335   7.873  -2.137  1.00  0.00     0.342 C 
ATOM      7  O   UNL     1       7.067   8.634  -1.488  1.00  0.00    -0.246 OA
BRANCH   6   8
ATOM      8  C   UNL     1       4.743   7.615  -1.761  1.00  0.00     0.103 A 
ATOM      9  C   UNL     1       2.919   7.551   0.124  1.00  0.00     0.042 A 
ATOM     10  C   UNL     1       1.932   7.546  -0.813  1.00  0.00     0.030 A 
ATOM     11  C   UNL     1       4.230   7.558  -0.408  1.00  0.00     0.045 A 
ATOM     12  C   UNL     1       2.325   7.590  -2.180  1.00  0.00     0.049 A 
ATOM     13  C   UNL     1       3.691   7.626  -2.646  1.00  0.00     0.130 A 
BRANCH   9  14
ATOM     14  N   UNL     1       2.746   7.657   1.547  1.00  0.00    -0.322 N 
ATOM     15  C   UNL     1       1.827   7.119   2.427  1.00  0.00     0.248 C 
ATOM     16  O   UNL     1       1.671   7.530   3.573  1.00  0.00    -0.270 OA
ATOM     17  H   UNL     1       3.418   8.229   1.983  1.00  0.00     0.170 HD
BRANCH  15  18
ATOM     18  C   UNL     1       1.179   5.876   1.996  1.00  0.00     0.075 C 
ATOM     19  C   UNL     1       2.057   4.910   1.706  1.00  0.00     0.053 C 
BRANCH  19  20
ATOM     20  C   UNL     1       1.715   3.950   0.742  1.00  0.00     0.127 A 
ATOM     21  C   UNL     1       0.856   2.173  -0.194  1.00  0.00     0.135 A 
ATOM     22  C   UNL     1       1.603   2.772  -1.177  1.00  0.00     0.051 A 
ATOM     23  O   UNL     1       0.869   2.903   0.948  1.00  0.00    -0.457 OA
ATOM     24  C   UNL     1       2.167   3.907  -0.571  1.00  0.00     0.051 A 
BRANCH  21  25
ATOM     25  C   UNL     1       0.158   0.918  -0.102  1.00  0.00     0.021 A 
ATOM     26  C   UNL     1       2.375  -0.362   0.010  1.00  0.00     0.045 C 
ATOM     27  C   UNL     1       0.868  -0.296  -0.025  1.00  0.00    -0.033 A 
ATOM     28  C   UNL     1       0.144  -1.496   0.015  1.00  0.00     0.089 A 
ATOM     29  C   UNL     1      -1.258  -1.471   0.016  1.00  0.00     0.269 A 
ATOM     30  C   UNL     1      -1.244   0.934  -0.074  1.00  0.00     0.019 A 
ATOM     31  C   UNL     1      -1.958  -0.258  -0.015  1.00  0.00     0.086 A 
BRANCH  29  32
ATOM     32  N   UNL     1      -2.007  -2.731   0.044  1.00  0.00     0.062 N 
ATOM     33  O   UNL     1      -1.365  -3.790   0.038  1.00  0.00    -0.258 OA
ATOM     34  O   UNL     1      -3.246  -2.665   0.058  1.00  0.00    -0.258 OA
ENDBRANCH  29  32
ENDBRANCH  21  25
ENDBRANCH  19  20
ENDBRANCH  15  18
ENDBRANCH   9  14
BRANCH  13  35
ATOM     35  O   UNL     1       3.876   7.709  -3.992  1.00  0.00    -0.507 OA
ATOM     36  H   UNL     1       3.136   7.714  -4.567  1.00  0.00     0.293 HD
ENDBRANCH  13  35
ENDBRANCH   6   8
ENDBRANCH   5   6
ENDBRANCH   4   5
ENDBRANCH   3   4
ENDBRANCH   2   3
ENDBRANCH   1   2
BRANCH   1  37
ATOM     37  C   UNL     1       9.256  11.144  -2.240  1.00  0.00     0.188 C 
BRANCH  37  38
ATOM     38  O   UNL     1       9.684  12.507  -2.122  1.00  0.00    -0.376 OA
BRANCH  38  39
ATOM     39  C   UNL     1       9.760  13.424  -0.972  1.00  0.00     0.202 C 
BRANCH  39  40
ATOM     40  C   UNL     1       8.630  14.317   0.219  1.00  0.00     0.261 C 
BRANCH  40  41
ATOM     41  O   UNL     1       7.108  14.077   1.137  1.00  0.00    -0.460 OA
BRANCH  41  42
ATOM     42  C   UNL     1       5.739  13.555   1.667  1.00  0.00     0.338 C 
ATOM     43  O   UNL     1       5.258  14.268   2.565  1.00  0.00    -0.246 OA
BRANCH  42  44
ATOM     44  C   UNL     1       4.880  11.948   1.508  1.00  0.00     0.060 A 
ATOM     45  C   UNL     1       4.809  10.977   2.544  1.00  0.00     0.016 A 
ATOM     46  C   UNL     1       4.754  11.198   0.372  1.00  0.00     0.016 A 
ATOM     47  C   UNL     1       5.381   9.540   2.402  1.00  0.00     0.010 A 
ATOM     48  C   UNL     1       5.462   9.920   0.236  1.00  0.00     0.010 A 
ATOM     49  C   UNL     1       5.992   9.052   1.225  1.00  0.00    -0.014 A 
BRANCH  49  50
ATOM     50  C   UNL     1       7.057   7.687   0.938  1.00  0.00     0.031 A 
ATOM     51  C   UNL     1       6.832   6.229   0.216  1.00  0.00     0.074 A 
ATOM     52  C   UNL     1       8.424   7.838   0.966  1.00  0.00     0.049 A 
ATOM     53  N   UNL     1       7.715   5.733  -0.617  1.00  0.00    -0.248 NA
ATOM     54  C   UNL     1       5.688   5.283   0.202  1.00  0.00     0.031 C 
ATOM     55  C   UNL     1       9.589   6.913   0.841  1.00  0.00     0.029 A 
ATOM     56  N   UNL     1       9.134   8.903   1.419  1.00  0.00    -0.354 N 
ATOM     57  C   UNL     1       7.306   4.584  -1.270  1.00  0.00     0.074 A 
ATOM     58  C   UNL     1       5.943   4.431  -0.817  1.00  0.00     0.031 C 
ATOM     59  C   UNL     1      10.537   7.261   1.746  1.00  0.00     0.029 A 
ATOM     60  C   UNL     1      10.041   8.446   2.395  1.00  0.00     0.049 A 
ATOM     61  H   UNL     1       9.032   9.835   1.118  1.00  0.00     0.167 HD
ATOM     62  C   UNL     1       8.171   3.531  -1.460  1.00  0.00     0.037 A 
ATOM     63  C   UNL     1       9.586   8.716   3.644  1.00  0.00     0.037 A 
ATOM     64  C   UNL     1       9.080   3.447  -0.325  1.00  0.00     0.049 A 
ATOM     65  C   UNL     1       8.924   7.305   4.100  1.00  0.00     0.074 A 
ATOM     66  C   UNL     1      10.421   3.594  -0.034  1.00  0.00     0.029 A 
ATOM     67  N   UNL     1       8.452   3.364   0.902  1.00  0.00    -0.354 N 
ATOM     68  N   UNL     1       8.860   6.252   3.297  1.00  0.00    -0.248 NA
ATOM     69  C   UNL     1       8.480   6.865   5.430  1.00  0.00     0.031 C 
ATOM     70  C   UNL     1      10.521   3.790   1.398  1.00  0.00     0.029 A 
ATOM     71  C   UNL     1       9.247   3.739   1.955  1.00  0.00     0.049 A 
ATOM     72  H   UNL     1       7.521   3.063   1.011  1.00  0.00     0.167 HD
ATOM     73  C   UNL     1       8.544   5.078   3.912  1.00  0.00     0.074 A 
ATOM     74  C   UNL     1       8.217   5.541   5.253  1.00  0.00     0.031 C 
ATOM     75  C   UNL     1       8.631   3.843   3.292  1.00  0.00     0.037 A 
BRANCH  62  76
ATOM     76  C   UNL     1       8.112   2.556  -2.639  1.00  0.00     0.058 A 
ATOM     77  C   UNL     1       9.022   1.479  -2.761  1.00  0.00     0.135 A 
ATOM     78  C   UNL     1       7.241   2.704  -3.747  1.00  0.00     0.135 A 
ATOM     79  F   UNL     1       9.928   1.236  -1.802  1.00  0.00    -0.206 F 
ATOM     80  C   UNL     1       9.068   0.622  -3.876  1.00  0.00     0.059 A 
ATOM     81  C   UNL     1       7.265   1.853  -4.874  1.00  0.00     0.059 A 
ATOM     82  F   UNL     1       6.343   3.702  -3.776  1.00  0.00    -0.206 F 
ATOM     83  C   UNL     1       8.190   0.816  -4.936  1.00  0.00     0.060 A 
BRANCH  83  84
ATOM     84  S   UNL     1       8.301  -0.282  -6.380  1.00  0.00     0.124 S 
ATOM     85  O   UNL     1       9.642   0.004  -6.883  1.00  0.00    -0.237 OA
ATOM     86  O   UNL     1       8.121  -1.603  -5.784  1.00  0.00    -0.237 OA
ATOM     87  O   UNL     1       7.207   0.165  -7.238  1.00  0.00    -0.744 OA
ENDBRANCH  83  84
ENDBRANCH  62  76
BRANCH  63  88
ATOM     88  C   UNL     1       9.139  10.256   3.433  1.00  0.00     0.058 A 
ATOM     89  C   UNL     1       9.855  11.100   2.516  1.00  0.00     0.135 A 
ATOM     90  C   UNL     1       7.867  10.680   3.341  1.00  0.00     0.135 A 
ATOM     91  F   UNL     1      11.191  11.180   2.649  1.00  0.00    -0.206 F 
ATOM     92  C   UNL     1       9.277  11.736   1.242  1.00  0.00     0.059 A 
ATOM     93  C   UNL     1       7.402  11.505   2.188  1.00  0.00     0.059 A 
ATOM     94  F   UNL     1       7.026  10.469   4.369  1.00  0.00    -0.206 F 
ATOM     95  C   UNL     1       7.920  11.770   0.882  1.00  0.00     0.060 A 
BRANCH  95  96
ATOM     96  S   UNL     1       6.815  12.600  -0.940  1.00  0.00     0.124 S 
ATOM     97  O   UNL     1       5.631  13.369  -0.556  1.00  0.00    -0.237 OA
ATOM     98  O   UNL     1       7.613  13.529  -1.712  1.00  0.00    -0.237 OA
ATOM     99  O   UNL     1       6.424  11.442  -1.743  1.00  0.00    -0.744 OA
ENDBRANCH  95  96
ENDBRANCH  63  88
BRANCH  75 100
ATOM    100  C   UNL     1       8.160   2.532   3.904  1.00  0.00     0.058 A 
ATOM    101  C   UNL     1       8.483   2.156   5.210  1.00  0.00     0.135 A 
ATOM    102  C   UNL     1       7.460   1.551   3.143  1.00  0.00     0.135 A 
ATOM    103  F   UNL     1       9.234   2.953   5.983  1.00  0.00    -0.206 F 
ATOM    104  C   UNL     1       8.056   0.943   5.758  1.00  0.00     0.059 A 
ATOM    105  C   UNL     1       7.107   0.302   3.638  1.00  0.00     0.059 A 
ATOM    106  F   UNL     1       7.034   1.787   1.894  1.00  0.00    -0.206 F 
ATOM    107  C   UNL     1       7.360   0.028   4.968  1.00  0.00     0.060 A 
BRANCH 107 108
ATOM    108  S   UNL     1       6.748  -1.502   5.694  1.00  0.00     0.124 S 
ATOM    109  O   UNL     1       7.859  -1.911   6.548  1.00  0.00    -0.237 OA
ATOM    110  O   UNL     1       5.556  -1.027   6.388  1.00  0.00    -0.237 OA
ATOM    111  O   UNL     1       6.505  -2.356   4.536  1.00  0.00    -0.744 OA
ENDBRANCH 107 108
ENDBRANCH  75 100
ENDBRANCH  49  50
ENDBRANCH  42  44
ENDBRANCH  41  42
ENDBRANCH  40  41
ENDBRANCH  39  40
ENDBRANCH  38  39
ENDBRANCH  37  38
ENDBRANCH   1  37
TORSDOF 26
