REMARK SMILES COCCNC(=O)c1cccc(NC(=O)[C@@H]2CCCC[C@H]2C(=O)OCCOCCOCCOC(=O)c2ccc(-c3c4nc(c(-c5c(F)cc(S(=O)(=O)[O-])cc5F)c5ccc([nH]5)c(-c5c(F)cc(S(=O)(=O)[O-])cc5F)c5nc(c(-c6c(F)cc(S(=O)(=O)[O-])cc6F)c6ccc3[nH]6)C=C5)C=C4)cc2)c1
REMARK SMILES IDX 27 1 26 2 25 3 24 4 22 5 23 6 21 7 16 8 17 9 18 10 20 11
REMARK SMILES IDX 19 12 14 13 13 14 15 16 12 17 8 18 9 19 102 20 10 21 11 22
REMARK SMILES IDX 6 23 5 24 7 26 4 27 3 28 2 29 1 30 28 31 29 32 30 33 31 34
REMARK SMILES IDX 32 35 33 36 34 37 35 38 36 39 37 40 101 41 38 42 100 43
REMARK SMILES IDX 39 44 40 45 41 46 94 47 42 48 99 49 93 50 95 51 43 52 98 53
REMARK SMILES IDX 92 54 91 55 44 57 78 58 57 59 77 60 58 61 61 62 76 63 96 64
REMARK SMILES IDX 59 65 60 66 75 68 97 69 62 70 45 71 46 72 55 73 47 74 48 75
REMARK SMILES IDX 54 76 56 77 49 78 50 79 51 80 52 81 53 82 79 83 80 84 89 85
REMARK SMILES IDX 81 86 82 87 88 88 90 89 83 90 84 91 85 92 86 93 87 94 63 95
REMARK SMILES IDX 64 96 73 97 65 98 66 99 72 100 74 101 67 102 68 103 69 104
REMARK SMILES IDX 70 105 71 106
REMARK H PARENT 13 15 5 25 95 56 61 67
REMARK Flexibility Score: inf
ROOT
ATOM      1  O   UNL     1       1.755   6.237   8.433  1.00  0.00    -0.376 OA
ENDROOT
BRANCH   1   2
ATOM      2  C   UNL     1       3.106   5.978   8.092  1.00  0.00     0.202 C 
BRANCH   2   3
ATOM      3  C   UNL     1       3.931   5.208   9.127  1.00  0.00     0.261 C 
BRANCH   3   4
ATOM      4  O   UNL     1       3.520   3.845   9.372  1.00  0.00    -0.463 OA
BRANCH   4   5
ATOM      5  C   UNL     1       2.757   3.659  10.485  1.00  0.00     0.309 C 
ATOM      6  O   UNL     1       2.326   4.569  11.182  1.00  0.00    -0.252 OA
BRANCH   5   7
ATOM      7  C   UNL     1       2.661   2.200  10.916  1.00  0.00     0.111 C 
ATOM      8  C   UNL     1       2.588   1.118   9.806  1.00  0.00     0.093 C 
ATOM      9  C   UNL     1       2.644  -0.286  10.452  1.00  0.00     0.014 C 
ATOM     10  C   UNL     1       3.862  -0.481  11.340  1.00  0.00     0.001 C 
ATOM     11  C   UNL     1       3.889   1.976  11.818  1.00  0.00     0.016 C 
ATOM     12  C   UNL     1       3.916   0.583  12.425  1.00  0.00     0.001 C 
BRANCH   8  13
ATOM     13  C   UNL     1       1.285   1.133   9.023  1.00  0.00     0.228 C 
ATOM     14  N   UNL     1       1.134   0.577   7.780  1.00  0.00    -0.326 N 
ATOM     15  H   UNL     1       0.196   0.587   7.481  1.00  0.00     0.169 HD
ATOM     16  O   UNL     1       0.280   1.644   9.529  1.00  0.00    -0.274 OA
BRANCH  14  17
ATOM     17  C   UNL     1       1.992  -0.007   6.820  1.00  0.00     0.041 A 
ATOM     18  C   UNL     1       2.205  -0.859   4.530  1.00  0.00     0.041 A 
ATOM     19  C   UNL     1       3.565  -1.094   4.742  1.00  0.00     0.014 A 
ATOM     20  C   UNL     1       1.421  -0.329   5.570  1.00  0.00     0.040 A 
ATOM     21  C   UNL     1       4.130  -0.811   5.979  1.00  0.00     0.003 A 
ATOM     22  C   UNL     1       3.346  -0.283   7.009  1.00  0.00     0.026 A 
BRANCH  18  23
ATOM     23  C   UNL     1       1.625  -1.359   3.261  1.00  0.00     0.251 C 
ATOM     24  N   UNL     1       0.701  -0.652   2.546  1.00  0.00    -0.350 N 
ATOM     25  H   UNL     1       0.170  -1.192   1.916  1.00  0.00     0.163 HD
ATOM     26  O   UNL     1       1.991  -2.453   2.835  1.00  0.00    -0.269 OA
BRANCH  24  27
ATOM     27  C   UNL     1       0.366   0.763   2.556  1.00  0.00     0.144 C 
BRANCH  27  28
ATOM     28  C   UNL     1       1.103   1.554   1.463  1.00  0.00     0.181 C 
BRANCH  28  29
ATOM     29  O   UNL     1       0.568   1.355   0.151  1.00  0.00    -0.383 OA
ATOM     30  C   UNL     1       1.049   0.192  -0.508  1.00  0.00     0.194 C 
ENDBRANCH  28  29
ENDBRANCH  27  28
ENDBRANCH  24  27
ENDBRANCH  18  23
ENDBRANCH  14  17
ENDBRANCH   8  13
ENDBRANCH   5   7
ENDBRANCH   4   5
ENDBRANCH   3   4
ENDBRANCH   2   3
ENDBRANCH   1   2
BRANCH   1  31
ATOM     31  C   UNL     1       0.787   5.199   8.293  1.00  0.00     0.188 C 
BRANCH  31  32
ATOM     32  C   UNL     1       1.121   4.000   7.405  1.00  0.00     0.188 C 
BRANCH  32  33
ATOM     33  O   UNL     1       1.551   4.406   6.109  1.00  0.00    -0.376 OA
BRANCH  33  34
ATOM     34  C   UNL     1       0.945   3.682   5.051  1.00  0.00     0.202 C 
BRANCH  34  35
ATOM     35  C   UNL     1      -0.327   4.400   4.596  1.00  0.00     0.261 C 
BRANCH  35  36
ATOM     36  O   UNL     1      -1.362   4.459   5.596  1.00  0.00    -0.460 OA
BRANCH  36  37
ATOM     37  C   UNL     1      -1.878   3.280   6.008  1.00  0.00     0.338 C 
ATOM     38  O   UNL     1      -1.565   2.167   5.599  1.00  0.00    -0.246 OA
BRANCH  37  39
ATOM     39  C   UNL     1      -2.738   3.525   7.183  1.00  0.00     0.060 A 
ATOM     40  C   UNL     1      -2.527   2.754   8.331  1.00  0.00     0.016 A 
ATOM     41  C   UNL     1      -3.749   4.487   7.164  1.00  0.00     0.016 A 
ATOM     42  C   UNL     1      -3.329   2.927   9.459  1.00  0.00     0.010 A 
ATOM     43  C   UNL     1      -4.572   4.643   8.286  1.00  0.00     0.010 A 
ATOM     44  C   UNL     1      -4.382   3.847   9.431  1.00  0.00    -0.014 A 
BRANCH  44  45
ATOM     45  C   UNL     1      -5.388   3.857  10.522  1.00  0.00     0.031 A 
ATOM     46  C   UNL     1      -6.699   3.155  10.290  1.00  0.00     0.074 A 
ATOM     47  C   UNL     1      -5.147   4.463  11.699  1.00  0.00     0.049 A 
ATOM     48  N   UNL     1      -7.775   3.137  11.031  1.00  0.00    -0.248 NA
ATOM     49  C   UNL     1      -6.810   2.368   9.050  1.00  0.00     0.031 C 
ATOM     50  C   UNL     1      -3.898   5.124  12.073  1.00  0.00     0.029 A 
ATOM     51  N   UNL     1      -5.959   4.634  12.795  1.00  0.00    -0.354 N 
ATOM     52  C   UNL     1      -8.700   2.369  10.336  1.00  0.00     0.074 A 
ATOM     53  C   UNL     1      -8.062   1.938   9.111  1.00  0.00     0.031 C 
ATOM     54  C   UNL     1      -4.036   5.653  13.302  1.00  0.00     0.029 A 
ATOM     55  C   UNL     1      -5.394   5.404  13.785  1.00  0.00     0.049 A 
ATOM     56  H   UNL     1      -6.860   4.243  12.864  1.00  0.00     0.167 HD
ATOM     57  C   UNL     1      -9.969   2.053  10.686  1.00  0.00     0.037 A 
ATOM     58  C   UNL     1      -5.925   5.883  14.928  1.00  0.00     0.037 A 
ATOM     59  C   UNL     1     -10.591   2.457  11.919  1.00  0.00     0.049 A 
ATOM     60  C   UNL     1      -7.357   5.555  15.275  1.00  0.00     0.074 A 
ATOM     61  C   UNL     1     -11.865   2.163  12.374  1.00  0.00     0.029 A 
ATOM     62  N   UNL     1      -9.989   3.239  12.891  1.00  0.00    -0.354 N 
ATOM     63  N   UNL     1      -8.223   4.828  14.609  1.00  0.00    -0.248 NA
ATOM     64  C   UNL     1      -7.886   6.116  16.528  1.00  0.00     0.031 C 
ATOM     65  C   UNL     1     -12.048   2.804  13.603  1.00  0.00     0.029 A 
ATOM     66  C   UNL     1     -10.871   3.457  13.936  1.00  0.00     0.049 A 
ATOM     67  H   UNL     1      -9.069   3.589  12.847  1.00  0.00     0.167 HD
ATOM     68  C   UNL     1      -9.387   4.826  15.373  1.00  0.00     0.074 A 
ATOM     69  C   UNL     1      -9.113   5.612  16.556  1.00  0.00     0.031 C 
ATOM     70  C   UNL     1     -10.577   4.228  15.117  1.00  0.00     0.037 A 
BRANCH  57  71
ATOM     71  C   UNL     1     -10.788   1.258   9.710  1.00  0.00     0.058 A 
ATOM     72  C   UNL     1     -10.580  -0.114   9.510  1.00  0.00     0.135 A 
ATOM     73  C   UNL     1     -11.836   1.875   9.007  1.00  0.00     0.135 A 
ATOM     74  F   UNL     1      -9.577  -0.746  10.140  1.00  0.00    -0.206 F 
ATOM     75  C   UNL     1     -11.378  -0.848   8.638  1.00  0.00     0.059 A 
ATOM     76  C   UNL     1     -12.661   1.156   8.148  1.00  0.00     0.059 A 
ATOM     77  F   UNL     1     -12.070   3.188   9.158  1.00  0.00    -0.206 F 
ATOM     78  C   UNL     1     -12.419  -0.204   7.965  1.00  0.00     0.060 A 
BRANCH  78  79
ATOM     79  S   UNL     1     -13.465  -1.176   6.860  1.00  0.00     0.124 S 
ATOM     80  O   UNL     1     -12.571  -1.392   5.727  1.00  0.00    -0.237 OA
ATOM     81  O   UNL     1     -13.760  -2.356   7.667  1.00  0.00    -0.237 OA
ATOM     82  O   UNL     1     -14.600  -0.295   6.604  1.00  0.00    -0.744 OA
ENDBRANCH  78  79
ENDBRANCH  57  71
BRANCH  58  83
ATOM     83  C   UNL     1      -5.123   6.772  15.814  1.00  0.00     0.058 A 
ATOM     84  C   UNL     1      -4.719   6.359  17.092  1.00  0.00     0.135 A 
ATOM     85  C   UNL     1      -4.777   8.072  15.409  1.00  0.00     0.135 A 
ATOM     86  F   UNL     1      -5.039   5.133  17.533  1.00  0.00    -0.206 F 
ATOM     87  C   UNL     1      -4.024   7.209  17.948  1.00  0.00     0.059 A 
ATOM     88  C   UNL     1      -4.059   8.930  16.236  1.00  0.00     0.059 A 
ATOM     89  F   UNL     1      -5.136   8.516  14.195  1.00  0.00    -0.206 F 
ATOM     90  C   UNL     1      -3.700   8.495  17.511  1.00  0.00     0.060 A 
BRANCH  90  91
ATOM     91  S   UNL     1      -2.783   9.587  18.620  1.00  0.00     0.124 S 
ATOM     92  O   UNL     1      -3.821   9.985  19.564  1.00  0.00    -0.237 OA
ATOM     93  O   UNL     1      -1.750   8.700  19.144  1.00  0.00    -0.237 OA
ATOM     94  O   UNL     1      -2.302  10.640  17.730  1.00  0.00    -0.744 OA
ENDBRANCH  90  91
ENDBRANCH  58  83
BRANCH  70  95
ATOM     95  C   UNL     1     -11.663   4.360  16.149  1.00  0.00     0.058 A 
ATOM     96  C   UNL     1     -12.371   5.558  16.328  1.00  0.00     0.135 A 
ATOM     97  C   UNL     1     -12.043   3.252  16.924  1.00  0.00     0.135 A 
ATOM     98  F   UNL     1     -12.046   6.648  15.615  1.00  0.00    -0.206 F 
ATOM     99  C   UNL     1     -13.405   5.660  17.254  1.00  0.00     0.059 A 
ATOM    100  C   UNL     1     -13.090   3.323  17.838  1.00  0.00     0.059 A 
ATOM    101  F   UNL     1     -11.408   2.078  16.782  1.00  0.00    -0.206 F 
ATOM    102  C   UNL     1     -13.758   4.536  18.004  1.00  0.00     0.060 A 
BRANCH 102 103
ATOM    103  S   UNL     1     -15.126   4.668  19.176  1.00  0.00     0.124 S 
ATOM    104  O   UNL     1     -14.507   5.413  20.267  1.00  0.00    -0.237 OA
ATOM    105  O   UNL     1     -16.132   5.392  18.405  1.00  0.00    -0.237 OA
ATOM    106  O   UNL     1     -15.454   3.277  19.473  1.00  0.00    -0.744 OA
ENDBRANCH 102 103
ENDBRANCH  70  95
ENDBRANCH  44  45
ENDBRANCH  37  39
ENDBRANCH  36  37
ENDBRANCH  35  36
ENDBRANCH  34  35
ENDBRANCH  33  34
ENDBRANCH  32  33
ENDBRANCH  31  32
ENDBRANCH   1  31
TORSDOF 26
