REMARK SMILES CCc1ccnc(C(=O)c2[nH]c3ccc(OC(F)(F)F)cc3c2CC(=O)OCCOCCOCCOC(=O)c2ccc(-c3c4nc(c(-c5c(F)cc(S(=O)(=O)[O-])cc5F)c5ccc([nH]5)c(-c5c(F)cc(S(=O)(=O)[O-])cc5F)c5nc(c(-c6c(F)cc(S(=O)(=O)[O-])cc6F)c6ccc3[nH]6)C=C5)C=C4)cc2)c1
REMARK SMILES IDX 31 1 30 2 29 3 28 4 27 5 25 6 26 7 24 8 23 9 10 10 11 11
REMARK SMILES IDX 12 12 22 14 13 15 21 16 14 17 15 18 8 19 9 20 7 21 3 22 4 23
REMARK SMILES IDX 105 24 5 25 6 26 2 27 1 28 16 29 17 30 18 31 19 32 20 33
REMARK SMILES IDX 32 34 33 35 34 36 35 37 36 38 37 39 38 40 39 41 40 42 104 43
REMARK SMILES IDX 41 44 103 45 42 46 43 47 44 48 97 49 45 50 102 51 96 52
REMARK SMILES IDX 98 53 46 54 101 55 95 56 94 57 47 59 81 60 60 61 80 62 61 63
REMARK SMILES IDX 64 64 79 65 99 66 62 67 63 68 78 70 100 71 65 72 48 73 49 74
REMARK SMILES IDX 58 75 50 76 51 77 57 78 59 79 52 80 53 81 54 82 55 83 56 84
REMARK SMILES IDX 82 85 83 86 92 87 84 88 85 89 91 90 93 91 86 92 87 93 88 94
REMARK SMILES IDX 89 95 90 96 66 97 67 98 76 99 68 100 69 101 75 102 77 103
REMARK SMILES IDX 70 104 71 105 72 106 73 107 74 108
REMARK H PARENT 11 13 98 58 64 69
REMARK Flexibility Score: inf
ROOT
ATOM      1  C   UNL     1       6.180  -6.587  -1.627  1.00  0.00     0.188 C 
ENDROOT
BRANCH   1   2
ATOM      2  O   UNL     1       7.290  -7.475  -1.706  1.00  0.00    -0.376 OA
BRANCH   2   3
ATOM      3  C   UNL     1       8.590  -6.912  -1.604  1.00  0.00     0.202 C 
BRANCH   3   4
ATOM      4  C   UNL     1       8.963  -5.920  -2.705  1.00  0.00     0.261 C 
BRANCH   4   5
ATOM      5  O   UNL     1       8.186  -4.701  -2.636  1.00  0.00    -0.463 OA
BRANCH   5   6
ATOM      6  C   UNL     1       7.882  -4.145  -3.836  1.00  0.00     0.310 C 
ATOM      7  O   UNL     1       8.314  -4.579  -4.904  1.00  0.00    -0.252 OA
BRANCH   6   8
ATOM      8  C   UNL     1       6.941  -2.957  -3.816  1.00  0.00     0.161 C 
BRANCH   8   9
ATOM      9  C   UNL     1       6.621  -2.240  -2.522  1.00  0.00     0.000 A 
ATOM     10  C   UNL     1       5.420  -2.273  -1.802  1.00  0.00     0.093 A 
ATOM     11  N   UNL     1       5.591  -1.476  -0.692  1.00  0.00    -0.352 N 
ATOM     12  C   UNL     1       6.699  -0.682  -0.848  1.00  0.00     0.046 A 
ATOM     13  H   UNL     1       5.005  -1.476   0.099  1.00  0.00     0.167 HD
ATOM     14  C   UNL     1       7.378  -1.152  -1.968  1.00  0.00     0.008 A 
ATOM     15  C   UNL     1       7.124   0.422  -0.105  1.00  0.00     0.030 A 
ATOM     16  C   UNL     1       8.537  -0.463  -2.377  1.00  0.00     0.057 A 
ATOM     17  C   UNL     1       8.241   1.124  -0.571  1.00  0.00     0.049 A 
ATOM     18  C   UNL     1       8.930   0.706  -1.709  1.00  0.00     0.130 A 
BRANCH  10  19
ATOM     19  C   UNL     1       4.196  -2.994  -2.107  1.00  0.00     0.227 C 
ATOM     20  O   UNL     1       4.158  -3.907  -2.929  1.00  0.00    -0.285 OA
BRANCH  19  21
ATOM     21  C   UNL     1       2.926  -2.616  -1.416  1.00  0.00     0.113 A 
ATOM     22  C   UNL     1       1.035  -1.187  -1.111  1.00  0.00    -0.044 A 
ATOM     23  C   UNL     1       0.437  -2.210  -0.369  1.00  0.00     0.024 A 
ATOM     24  C   UNL     1       2.303  -1.401  -1.667  1.00  0.00     0.036 A 
ATOM     25  C   UNL     1       1.161  -3.362  -0.133  1.00  0.00     0.112 A 
ATOM     26  N   UNL     1       2.408  -3.567  -0.606  1.00  0.00    -0.253 NA
BRANCH  22  27
ATOM     27  C   UNL     1       0.332   0.139  -1.244  1.00  0.00     0.032 C 
ATOM     28  C   UNL     1       0.605   0.993  -0.012  1.00  0.00     0.009 C 
ENDBRANCH  22  27
ENDBRANCH  19  21
ENDBRANCH  10  19
BRANCH  18  29
ATOM     29  O   UNL     1       9.989   1.350  -2.288  1.00  0.00    -0.406 OA
BRANCH  29  30
ATOM     30  C   UNL     1      10.205   2.701  -1.924  1.00  0.00     0.573 C 
ATOM     31  F   UNL     1       9.078   3.439  -2.031  1.00  0.00    -0.132 F 
ATOM     32  F   UNL     1      10.680   2.788  -0.662  1.00  0.00    -0.132 F 
ATOM     33  F   UNL     1      11.130   3.232  -2.755  1.00  0.00    -0.132 F 
ENDBRANCH  29  30
ENDBRANCH  18  29
ENDBRANCH   8   9
ENDBRANCH   6   8
ENDBRANCH   5   6
ENDBRANCH   4   5
ENDBRANCH   3   4
ENDBRANCH   2   3
ENDBRANCH   1   2
BRANCH   1  34
ATOM     34  C   UNL     1       6.186  -5.504  -0.527  1.00  0.00     0.188 C 
BRANCH  34  35
ATOM     35  O   UNL     1       6.884  -5.763   0.687  1.00  0.00    -0.376 OA
BRANCH  35  36
ATOM     36  C   UNL     1       6.569  -6.974   1.363  1.00  0.00     0.202 C 
BRANCH  36  37
ATOM     37  C   UNL     1       5.117  -7.070   1.818  1.00  0.00     0.261 C 
BRANCH  37  38
ATOM     38  O   UNL     1       4.251  -7.289   0.691  1.00  0.00    -0.460 OA
BRANCH  38  39
ATOM     39  C   UNL     1       2.977  -6.881   0.890  1.00  0.00     0.338 C 
ATOM     40  O   UNL     1       2.511  -6.446   1.930  1.00  0.00    -0.246 OA
BRANCH  39  41
ATOM     41  C   UNL     1       2.165  -7.030  -0.334  1.00  0.00     0.060 A 
ATOM     42  C   UNL     1       2.484  -6.324  -1.490  1.00  0.00     0.016 A 
ATOM     43  C   UNL     1       0.933  -7.673  -0.238  1.00  0.00     0.016 A 
ATOM     44  C   UNL     1       1.513  -6.109  -2.471  1.00  0.00     0.010 A 
ATOM     45  C   UNL     1       0.001  -7.546  -1.273  1.00  0.00     0.010 A 
ATOM     46  C   UNL     1       0.248  -6.699  -2.368  1.00  0.00    -0.014 A 
BRANCH  46  47
ATOM     47  C   UNL     1      -0.845  -6.376  -3.331  1.00  0.00     0.031 A 
ATOM     48  C   UNL     1      -2.155  -5.814  -2.825  1.00  0.00     0.074 A 
ATOM     49  C   UNL     1      -0.683  -6.565  -4.655  1.00  0.00     0.049 A 
ATOM     50  N   UNL     1      -3.299  -5.678  -3.446  1.00  0.00    -0.248 NA
ATOM     51  C   UNL     1      -2.178  -5.338  -1.432  1.00  0.00     0.031 C 
ATOM     52  C   UNL     1       0.555  -6.991  -5.309  1.00  0.00     0.029 A 
ATOM     53  N   UNL     1      -1.574  -6.431  -5.694  1.00  0.00    -0.354 N 
ATOM     54  C   UNL     1      -4.184  -5.145  -2.514  1.00  0.00     0.074 A 
ATOM     55  C   UNL     1      -3.446  -4.982  -1.280  1.00  0.00     0.031 C 
ATOM     56  C   UNL     1       0.350  -7.074  -6.631  1.00  0.00     0.029 A 
ATOM     57  C   UNL     1      -1.058  -6.816  -6.909  1.00  0.00     0.049 A 
ATOM     58  H   UNL     1      -2.492  -6.093  -5.579  1.00  0.00     0.167 HD
ATOM     59  C   UNL     1      -5.495  -4.832  -2.668  1.00  0.00     0.037 A 
ATOM     60  C   UNL     1      -1.656  -7.016  -8.099  1.00  0.00     0.037 A 
ATOM     61  C   UNL     1      -6.223  -5.005  -3.900  1.00  0.00     0.049 A 
ATOM     62  C   UNL     1      -3.139  -6.805  -8.217  1.00  0.00     0.074 A 
ATOM     63  C   UNL     1      -7.562  -4.759  -4.153  1.00  0.00     0.029 A 
ATOM     64  N   UNL     1      -5.674  -5.475  -5.085  1.00  0.00    -0.354 N 
ATOM     65  N   UNL     1      -3.985  -6.377  -7.310  1.00  0.00    -0.248 NA
ATOM     66  C   UNL     1      -3.754  -7.130  -9.510  1.00  0.00     0.031 C 
ATOM     67  C   UNL     1      -7.834  -5.136  -5.474  1.00  0.00     0.029 A 
ATOM     68  C   UNL     1      -6.653  -5.560  -6.061  1.00  0.00     0.049 A 
ATOM     69  H   UNL     1      -4.727  -5.713  -5.212  1.00  0.00     0.167 HD
ATOM     70  C   UNL     1      -5.231  -6.369  -7.927  1.00  0.00     0.074 A 
ATOM     71  C   UNL     1      -5.024  -6.822  -9.288  1.00  0.00     0.031 C 
ATOM     72  C   UNL     1      -6.435  -6.017  -7.412  1.00  0.00     0.037 A 
BRANCH  59  73
ATOM     73  C   UNL     1      -6.241  -4.339  -1.457  1.00  0.00     0.058 A 
ATOM     74  C   UNL     1      -6.039  -3.057  -0.922  1.00  0.00     0.135 A 
ATOM     75  C   UNL     1      -7.185  -5.168  -0.825  1.00  0.00     0.135 A 
ATOM     76  F   UNL     1      -5.136  -2.229  -1.471  1.00  0.00    -0.206 F 
ATOM     77  C   UNL     1      -6.720  -2.627   0.215  1.00  0.00     0.059 A 
ATOM     78  C   UNL     1      -7.894  -4.750   0.297  1.00  0.00     0.059 A 
ATOM     79  F   UNL     1      -7.419  -6.404  -1.293  1.00  0.00    -0.206 F 
ATOM     80  C   UNL     1      -7.641  -3.484   0.822  1.00  0.00     0.060 A 
BRANCH  80  81
ATOM     81  S   UNL     1      -8.486  -2.927   2.317  1.00  0.00     0.124 S 
ATOM     82  O   UNL     1      -7.403  -2.971   3.295  1.00  0.00    -0.237 OA
ATOM     83  O   UNL     1      -8.942  -1.593   1.939  1.00  0.00    -0.237 OA
ATOM     84  O   UNL     1      -9.540  -3.919   2.503  1.00  0.00    -0.744 OA
ENDBRANCH  80  81
ENDBRANCH  59  73
BRANCH  60  85
ATOM     85  C   UNL     1      -0.853  -7.513  -9.249  1.00  0.00     0.058 A 
ATOM     86  C   UNL     1      -0.599  -6.700 -10.362  1.00  0.00     0.135 A 
ATOM     87  C   UNL     1      -0.286  -8.799  -9.236  1.00  0.00     0.135 A 
ATOM     88  F   UNL     1      -1.133  -5.471 -10.431  1.00  0.00    -0.206 F 
ATOM     89  C   UNL     1       0.197  -7.138 -11.416  1.00  0.00     0.059 A 
ATOM     90  C   UNL     1       0.537  -9.248 -10.262  1.00  0.00     0.059 A 
ATOM     91  F   UNL     1      -0.497  -9.617  -8.193  1.00  0.00    -0.206 F 
ATOM     92  C   UNL     1       0.769  -8.411 -11.352  1.00  0.00     0.060 A 
BRANCH  92  93
ATOM     93  S   UNL     1       1.864  -8.940 -12.687  1.00  0.00     0.124 S 
ATOM     94  O   UNL     1       0.911  -9.207 -13.759  1.00  0.00    -0.237 OA
ATOM     95  O   UNL     1       2.716  -7.769 -12.868  1.00  0.00    -0.237 OA
ATOM     96  O   UNL     1       2.531 -10.112 -12.129  1.00  0.00    -0.744 OA
ENDBRANCH  92  93
ENDBRANCH  60  85
BRANCH  72  97
ATOM     97  C   UNL     1      -7.621  -6.078  -8.333  1.00  0.00     0.058 A 
ATOM     98  C   UNL     1      -8.191  -7.299  -8.725  1.00  0.00     0.135 A 
ATOM     99  C   UNL     1      -8.218  -4.895  -8.799  1.00  0.00     0.135 A 
ATOM    100  F   UNL     1      -7.653  -8.458  -8.314  1.00  0.00    -0.206 F 
ATOM    101  C   UNL     1      -9.298  -7.347  -9.566  1.00  0.00     0.059 A 
ATOM    102  C   UNL     1      -9.341  -4.919  -9.619  1.00  0.00     0.059 A 
ATOM    103  F   UNL     1      -7.717  -3.700  -8.447  1.00  0.00    -0.206 F 
ATOM    104  C   UNL     1      -9.867  -6.150 -10.007  1.00  0.00     0.060 A 
BRANCH 104 105
ATOM    105  S   UNL     1     -11.322  -6.223 -11.074  1.00  0.00     0.124 S 
ATOM    106  O   UNL     1     -10.734  -6.634 -12.344  1.00  0.00    -0.237 OA
ATOM    107  O   UNL     1     -12.150  -7.222 -10.405  1.00  0.00    -0.237 OA
ATOM    108  O   UNL     1     -11.841  -4.859 -11.034  1.00  0.00    -0.744 OA
ENDBRANCH 104 105
ENDBRANCH  72  97
ENDBRANCH  46  47
ENDBRANCH  39  41
ENDBRANCH  38  39
ENDBRANCH  37  38
ENDBRANCH  36  37
ENDBRANCH  35  36
ENDBRANCH  34  35
ENDBRANCH   1  34
TORSDOF 26
