REMARK SMILES Cc1cccc(Nc2ccccc2C(=O)OCCOCCOCCOC(=O)c2ccc(-c3c4nc(c(-c5c(F)cc(S(=O)(=O)[O-])cc5F)c5ccc([nH]5)c(-c5c(F)cc(S(=O)(=O)[O-])cc5F)c5nc(c(-c6c(F)cc(S(=O)(=O)[O-])cc6F)c6ccc3[nH]6)C=C5)C=C4)cc2)c1C
REMARK SMILES IDX 21 1 20 2 19 3 18 4 17 5 16 6 14 7 15 8 13 9 8 10 9 11 10 12
REMARK SMILES IDX 12 13 11 14 7 15 6 17 1 18 2 19 3 20 94 21 4 22 95 23 5 24
REMARK SMILES IDX 22 25 23 26 24 27 25 28 26 29 27 30 28 31 29 32 93 33 30 34
REMARK SMILES IDX 92 35 31 36 32 37 33 38 86 39 34 40 91 41 85 42 87 43 35 44
REMARK SMILES IDX 90 45 84 46 83 47 36 49 70 50 49 51 69 52 50 53 53 54 68 55
REMARK SMILES IDX 88 56 51 57 52 58 67 60 89 61 54 62 37 63 38 64 47 65 39 66
REMARK SMILES IDX 40 67 46 68 48 69 41 70 42 71 43 72 44 73 45 74 71 75 72 76
REMARK SMILES IDX 81 77 73 78 74 79 80 80 82 81 75 82 76 83 77 84 78 85 79 86
REMARK SMILES IDX 55 87 56 88 65 89 57 90 58 91 64 92 66 93 59 94 60 95 61 96
REMARK SMILES IDX 62 97 63 98
REMARK H PARENT 7 16 87 48 53 59
REMARK Flexibility Score: inf
ROOT
ATOM      1  C   UNL     1      -0.117  -3.728   3.570  1.00  0.00     0.188 C 
ENDROOT
BRANCH   1   2
ATOM      2  C   UNL     1       0.893  -2.869   4.371  1.00  0.00     0.188 C 
BRANCH   2   3
ATOM      3  O   UNL     1       0.308  -1.741   4.984  1.00  0.00    -0.376 OA
BRANCH   3   4
ATOM      4  C   UNL     1       0.437  -0.483   4.350  1.00  0.00     0.202 C 
BRANCH   4   5
ATOM      5  C   UNL     1       0.440  -0.307   2.822  1.00  0.00     0.261 C 
BRANCH   5   6
ATOM      6  O   UNL     1       0.573  -1.480   2.017  1.00  0.00    -0.460 OA
BRANCH   6   7
ATOM      7  C   UNL     1       1.800  -1.734   1.502  1.00  0.00     0.340 C 
ATOM      8  O   UNL     1       2.825  -1.133   1.787  1.00  0.00    -0.246 OA
BRANCH   7   9
ATOM      9  C   UNL     1       1.790  -2.976   0.673  1.00  0.00     0.083 A 
ATOM     10  C   UNL     1       0.806  -3.313  -0.284  1.00  0.00     0.053 A 
ATOM     11  C   UNL     1       0.926  -4.560  -0.935  1.00  0.00     0.027 A 
ATOM     12  C   UNL     1       1.982  -5.434  -0.665  1.00  0.00     0.002 A 
ATOM     13  C   UNL     1       2.849  -3.868   0.940  1.00  0.00     0.018 A 
ATOM     14  C   UNL     1       2.945  -5.088   0.273  1.00  0.00     0.001 A 
BRANCH  10  15
ATOM     15  N   UNL     1      -0.240  -2.480  -0.744  1.00  0.00    -0.355 N 
ATOM     16  H   UNL     1      -1.007  -2.963  -1.127  1.00  0.00     0.167 HD
BRANCH  15  17
ATOM     17  C   UNL     1      -0.373  -1.077  -0.750  1.00  0.00     0.042 A 
ATOM     18  C   UNL     1       1.810   2.014  -0.344  1.00  0.00     0.044 C 
ATOM     19  C   UNL     1       0.593   1.146  -0.522  1.00  0.00    -0.046 A 
ATOM     20  C   UNL     1      -0.662   1.643  -0.139  1.00  0.00     0.004 A 
ATOM     21  C   UNL     1       0.716  -0.198  -0.942  1.00  0.00    -0.025 A 
ATOM     22  C   UNL     1      -1.776   0.810  -0.114  1.00  0.00     0.002 A 
ATOM     23  C   UNL     1       2.006  -0.674  -1.567  1.00  0.00     0.047 C 
ATOM     24  C   UNL     1      -1.622  -0.547  -0.380  1.00  0.00     0.026 A 
ENDBRANCH  15  17
ENDBRANCH  10  15
ENDBRANCH   7   9
ENDBRANCH   6   7
ENDBRANCH   5   6
ENDBRANCH   4   5
ENDBRANCH   3   4
ENDBRANCH   2   3
ENDBRANCH   1   2
BRANCH   1  25
ATOM     25  O   UNL     1      -1.484  -3.349   3.489  1.00  0.00    -0.376 OA
BRANCH  25  26
ATOM     26  C   UNL     1      -2.153  -2.953   4.677  1.00  0.00     0.202 C 
BRANCH  26  27
ATOM     27  C   UNL     1      -2.060  -3.808   5.957  1.00  0.00     0.261 C 
BRANCH  27  28
ATOM     28  O   UNL     1      -0.760  -4.323   6.298  1.00  0.00    -0.460 OA
BRANCH  28  29
ATOM     29  C   UNL     1      -0.569  -5.650   6.086  1.00  0.00     0.338 C 
ATOM     30  O   UNL     1      -1.398  -6.455   5.684  1.00  0.00    -0.246 OA
BRANCH  29  31
ATOM     31  C   UNL     1       0.872  -5.973   6.203  1.00  0.00     0.060 A 
ATOM     32  C   UNL     1       1.550  -6.459   5.072  1.00  0.00     0.016 A 
ATOM     33  C   UNL     1       1.550  -5.821   7.412  1.00  0.00     0.016 A 
ATOM     34  C   UNL     1       2.899  -6.807   5.149  1.00  0.00     0.010 A 
ATOM     35  C   UNL     1       2.894  -6.207   7.497  1.00  0.00     0.010 A 
ATOM     36  C   UNL     1       3.567  -6.728   6.375  1.00  0.00    -0.014 A 
BRANCH  36  37
ATOM     37  C   UNL     1       4.892  -7.380   6.533  1.00  0.00     0.031 A 
ATOM     38  C   UNL     1       4.940  -8.756   7.142  1.00  0.00     0.074 A 
ATOM     39  C   UNL     1       6.028  -6.777   6.141  1.00  0.00     0.049 A 
ATOM     40  N   UNL     1       5.974  -9.495   7.449  1.00  0.00    -0.248 NA
ATOM     41  C   UNL     1       3.642  -9.378   7.451  1.00  0.00     0.031 C 
ATOM     42  C   UNL     1       6.113  -5.465   5.503  1.00  0.00     0.029 A 
ATOM     43  N   UNL     1       7.335  -7.188   6.246  1.00  0.00    -0.354 N 
ATOM     44  C   UNL     1       5.455 -10.656   8.009  1.00  0.00     0.074 A 
ATOM     45  C   UNL     1       4.016 -10.515   8.017  1.00  0.00     0.031 C 
ATOM     46  C   UNL     1       7.408  -5.164   5.301  1.00  0.00     0.029 A 
ATOM     47  C   UNL     1       8.244  -6.245   5.825  1.00  0.00     0.049 A 
ATOM     48  H   UNL     1       7.597  -8.073   6.589  1.00  0.00     0.167 HD
ATOM     49  C   UNL     1       6.118 -11.742   8.474  1.00  0.00     0.037 A 
ATOM     50  C   UNL     1       9.591  -6.240   5.889  1.00  0.00     0.037 A 
ATOM     51  C   UNL     1       7.552 -11.875   8.464  1.00  0.00     0.049 A 
ATOM     52  C   UNL     1      10.313  -7.435   6.459  1.00  0.00     0.074 A 
ATOM     53  C   UNL     1       8.317 -12.952   8.875  1.00  0.00     0.029 A 
ATOM     54  N   UNL     1       8.438 -10.896   8.038  1.00  0.00    -0.354 N 
ATOM     55  N   UNL     1       9.813  -8.546   6.949  1.00  0.00    -0.248 NA
ATOM     56  C   UNL     1      11.782  -7.381   6.481  1.00  0.00     0.031 C 
ATOM     57  C   UNL     1       9.665 -12.598   8.763  1.00  0.00     0.029 A 
ATOM     58  C   UNL     1       9.743 -11.329   8.213  1.00  0.00     0.049 A 
ATOM     59  H   UNL     1       8.178 -10.022   7.667  1.00  0.00     0.167 HD
ATOM     60  C   UNL     1      10.904  -9.330   7.314  1.00  0.00     0.074 A 
ATOM     61  C   UNL     1      12.091  -8.573   6.975  1.00  0.00     0.031 C 
ATOM     62  C   UNL     1      10.921 -10.567   7.874  1.00  0.00     0.037 A 
BRANCH  49  63
ATOM     63  C   UNL     1       5.300 -12.851   9.079  1.00  0.00     0.058 A 
ATOM     64  C   UNL     1       4.459 -13.668   8.305  1.00  0.00     0.135 A 
ATOM     65  C   UNL     1       5.373 -13.111  10.457  1.00  0.00     0.135 A 
ATOM     66  F   UNL     1       4.335 -13.456   6.985  1.00  0.00    -0.206 F 
ATOM     67  C   UNL     1       3.694 -14.678   8.882  1.00  0.00     0.059 A 
ATOM     68  C   UNL     1       4.644 -14.137  11.050  1.00  0.00     0.059 A 
ATOM     69  F   UNL     1       6.159 -12.361  11.246  1.00  0.00    -0.206 F 
ATOM     70  C   UNL     1       3.793 -14.903  10.256  1.00  0.00     0.060 A 
BRANCH  70  71
ATOM     71  S   UNL     1       2.790 -16.212  10.990  1.00  0.00     0.124 S 
ATOM     72  O   UNL     1       1.452 -15.635  10.909  1.00  0.00    -0.237 OA
ATOM     73  O   UNL     1       3.049 -17.339  10.099  1.00  0.00    -0.237 OA
ATOM     74  O   UNL     1       3.334 -16.345  12.338  1.00  0.00    -0.744 OA
ENDBRANCH  70  71
ENDBRANCH  49  63
BRANCH  50  75
ATOM     75  C   UNL     1      10.346  -5.045   5.420  1.00  0.00     0.058 A 
ATOM     76  C   UNL     1      11.141  -5.088   4.266  1.00  0.00     0.135 A 
ATOM     77  C   UNL     1      10.271  -3.826   6.115  1.00  0.00     0.135 A 
ATOM     78  F   UNL     1      11.262  -6.233   3.577  1.00  0.00    -0.206 F 
ATOM     79  C   UNL     1      11.835  -3.968   3.816  1.00  0.00     0.059 A 
ATOM     80  C   UNL     1      10.932  -2.686   5.669  1.00  0.00     0.059 A 
ATOM     81  F   UNL     1       9.521  -3.729   7.224  1.00  0.00    -0.206 F 
ATOM     82  C   UNL     1      11.716  -2.768   4.520  1.00  0.00     0.060 A 
BRANCH  82  83
ATOM     83  S   UNL     1      12.559  -1.303   3.883  1.00  0.00     0.124 S 
ATOM     84  O   UNL     1      13.956  -1.626   4.152  1.00  0.00    -0.237 OA
ATOM     85  O   UNL     1      12.162  -1.310   2.478  1.00  0.00    -0.237 OA
ATOM     86  O   UNL     1      11.997  -0.217   4.680  1.00  0.00    -0.744 OA
ENDBRANCH  82  83
ENDBRANCH  50  75
BRANCH  62  87
ATOM     87  C   UNL     1      12.263 -11.205   8.128  1.00  0.00     0.058 A 
ATOM     88  C   UNL     1      13.127 -10.745   9.134  1.00  0.00     0.135 A 
ATOM     89  C   UNL     1      12.663 -12.333   7.391  1.00  0.00     0.135 A 
ATOM     90  F   UNL     1      12.799  -9.670   9.868  1.00  0.00    -0.206 F 
ATOM     91  C   UNL     1      14.349 -11.364   9.383  1.00  0.00     0.059 A 
ATOM     92  C   UNL     1      13.865 -12.987   7.645  1.00  0.00     0.059 A 
ATOM     93  F   UNL     1      11.871 -12.825   6.425  1.00  0.00    -0.206 F 
ATOM     94  C   UNL     1      14.708 -12.487   8.635  1.00  0.00     0.060 A 
BRANCH  94  95
ATOM     95  S   UNL     1      16.283 -13.297   8.988  1.00  0.00     0.124 S 
ATOM     96  O   UNL     1      17.238 -12.329   8.460  1.00  0.00    -0.237 OA
ATOM     97  O   UNL     1      16.248 -13.425  10.442  1.00  0.00    -0.237 OA
ATOM     98  O   UNL     1      16.192 -14.554   8.252  1.00  0.00    -0.744 OA
ENDBRANCH  94  95
ENDBRANCH  62  87
ENDBRANCH  36  37
ENDBRANCH  29  31
ENDBRANCH  28  29
ENDBRANCH  27  28
ENDBRANCH  26  27
ENDBRANCH  25  26
ENDBRANCH   1  25
TORSDOF 22
