REMARK SMILES Cc1cc(C(=O)N[C@H]2CCCCC[C@H]2C(=O)OCCOCCOCCOC(=O)c2ccc(-c3c4nc(c(-c5c(F)cc(S(=O)(=O)[O-])cc5F)c5ccc([nH]5)c(-c5c(F)cc(S(=O)(=O)[O-])cc5F)c5nc(c(-c6c(F)cc(S(=O)(=O)[O-])cc6F)c6ccc3[nH]6)C=C5)C=C4)cc2)n(C)n1
REMARK SMILES IDX 21 1 20 2 19 3 18 4 17 5 15 6 16 7 14 8 8 9 7 10 5 11 6 12
REMARK SMILES IDX 4 14 1 15 2 16 3 17 97 18 95 19 96 20 9 21 10 22 11 23 13 25
REMARK SMILES IDX 12 26 22 28 23 29 24 30 25 31 26 32 27 33 28 34 29 35 30 36
REMARK SMILES IDX 94 37 31 38 93 39 32 40 33 41 34 42 87 43 35 44 92 45 86 46
REMARK SMILES IDX 88 47 36 48 91 49 85 50 84 51 37 53 71 54 50 55 70 56 51 57
REMARK SMILES IDX 54 58 69 59 89 60 52 61 53 62 68 64 90 65 55 66 38 67 39 68
REMARK SMILES IDX 48 69 40 70 41 71 47 72 49 73 42 74 43 75 44 76 45 77 46 78
REMARK SMILES IDX 72 79 73 80 82 81 74 82 75 83 81 84 83 85 76 86 77 87 78 88
REMARK SMILES IDX 79 89 80 90 56 91 57 92 66 93 58 94 59 95 65 96 67 97 60 98
REMARK SMILES IDX 61 99 62 100 63 101 64 102
REMARK H PARENT 7 13 88 52 54 63
REMARK Flexibility Score: 90.00
ROOT
ATOM      1  C   UNL     1      -3.625  -3.752  -2.643  1.00  0.00     0.188 C 
ENDROOT
BRANCH   1   2
ATOM      2  O   UNL     1      -4.962  -3.799  -2.142  1.00  0.00    -0.376 OA
BRANCH   2   3
ATOM      3  C   UNL     1      -5.369  -5.082  -1.682  1.00  0.00     0.202 C 
BRANCH   3   4
ATOM      4  C   UNL     1      -4.851  -5.382  -0.278  1.00  0.00     0.261 C 
BRANCH   4   5
ATOM      5  O   UNL     1      -3.411  -5.459  -0.219  1.00  0.00    -0.463 OA
BRANCH   5   6
ATOM      6  C   UNL     1      -2.900  -6.546   0.402  1.00  0.00     0.311 C 
ATOM      7  O   UNL     1      -3.544  -7.560   0.657  1.00  0.00    -0.252 OA
BRANCH   6   8
ATOM      8  C   UNL     1      -1.480  -6.352   0.919  1.00  0.00     0.121 C 
BRANCH   8   9
ATOM      9  C   UNL     1      -0.626  -5.144   0.490  1.00  0.00     0.096 C 
BRANCH   9  10
ATOM     10  N   UNL     1      -0.510  -4.786  -0.936  1.00  0.00    -0.347 N 
ATOM     11  C   UNL     1      -0.491  -5.431  -2.142  1.00  0.00     0.269 C 
ATOM     12  O   UNL     1      -0.295  -4.710  -3.118  1.00  0.00    -0.268 OA
ATOM     13  H   UNL     1      -0.420  -3.813  -1.052  1.00  0.00     0.164 HD
BRANCH  11  14
ATOM     14  C   UNL     1      -0.817  -6.812  -2.270  1.00  0.00     0.126 A 
ATOM     15  C   UNL     1      -1.511 -10.201  -1.148  1.00  0.00     0.069 C 
ATOM     16  C   UNL     1      -1.301  -8.930  -1.876  1.00  0.00     0.060 A 
ATOM     17  C   UNL     1      -0.337  -7.931  -1.617  1.00  0.00     0.059 A 
ATOM     18  N   UNL     1      -2.134  -8.555  -2.850  1.00  0.00    -0.178 NA
ATOM     19  N   UNL     1      -1.699  -7.329  -3.191  1.00  0.00    -0.263 N 
ATOM     20  C   UNL     1      -2.283  -6.706  -4.356  1.00  0.00     0.174 C 
ENDBRANCH  11  14
ENDBRANCH   9  10
BRANCH   9  21
ATOM     21  C   UNL     1      -0.811  -3.850   1.336  1.00  0.00     0.026 C 
BRANCH  21  22
ATOM     22  C   UNL     1      -2.160  -3.591   2.008  1.00  0.00     0.002 C 
BRANCH  22  23
ATOM     23  C   UNL     1      -2.360  -4.331   3.326  1.00  0.00     0.000 CG0
ATOM     24  G   UNL     1      -2.520  -5.841   3.240  1.00  0.00     0.000 G0
ENDBRANCH  22  23
ENDBRANCH  21  22
ENDBRANCH   9  21
ENDBRANCH   8   9
BRANCH   8  25
ATOM     25  C   UNL     1      -1.443  -6.569   2.446  1.00  0.00     0.017 C 
BRANCH  25  26
ATOM     26  C   UNL     1      -2.520  -5.841   3.240  1.00  0.00     0.001 CG0
ATOM     27  G   UNL     1      -2.360  -4.331   3.326  1.00  0.00     0.000 G0
ENDBRANCH  25  26
ENDBRANCH   8  25
ENDBRANCH   6   8
ENDBRANCH   5   6
ENDBRANCH   4   5
ENDBRANCH   3   4
ENDBRANCH   2   3
ENDBRANCH   1   2
BRANCH   1  28
ATOM     28  C   UNL     1      -2.851  -2.625  -1.956  1.00  0.00     0.188 C 
BRANCH  28  29
ATOM     29  O   UNL     1      -3.477  -1.341  -1.912  1.00  0.00    -0.376 OA
BRANCH  29  30
ATOM     30  C   UNL     1      -4.228  -0.949  -3.056  1.00  0.00     0.202 C 
BRANCH  30  31
ATOM     31  C   UNL     1      -3.398  -0.455  -4.241  1.00  0.00     0.261 C 
BRANCH  31  32
ATOM     32  O   UNL     1      -2.560  -1.473  -4.819  1.00  0.00    -0.460 OA
BRANCH  32  33
ATOM     33  C   UNL     1      -1.224  -1.292  -4.648  1.00  0.00     0.338 C 
ATOM     34  O   UNL     1      -0.698  -0.406  -3.993  1.00  0.00    -0.246 OA
BRANCH  33  35
ATOM     35  C   UNL     1      -0.441  -2.360  -5.320  1.00  0.00     0.060 A 
ATOM     36  C   UNL     1       0.827  -2.657  -4.804  1.00  0.00     0.016 A 
ATOM     37  C   UNL     1      -0.902  -3.041  -6.452  1.00  0.00     0.016 A 
ATOM     38  C   UNL     1       1.620  -3.646  -5.392  1.00  0.00     0.010 A 
ATOM     39  C   UNL     1      -0.089  -4.005  -7.067  1.00  0.00     0.010 A 
ATOM     40  C   UNL     1       1.180  -4.310  -6.543  1.00  0.00    -0.014 A 
BRANCH  40  41
ATOM     41  C   UNL     1       2.107  -5.209  -7.279  1.00  0.00     0.031 A 
ATOM     42  C   UNL     1       3.166  -4.594  -8.152  1.00  0.00     0.074 A 
ATOM     43  C   UNL     1       2.011  -6.549  -7.189  1.00  0.00     0.049 A 
ATOM     44  N   UNL     1       4.064  -5.179  -8.901  1.00  0.00    -0.248 NA
ATOM     45  C   UNL     1       3.228  -3.123  -8.175  1.00  0.00     0.031 C 
ATOM     46  C   UNL     1       1.071  -7.273  -6.337  1.00  0.00     0.029 A 
ATOM     47  N   UNL     1       2.706  -7.541  -7.839  1.00  0.00    -0.354 N 
ATOM     48  C   UNL     1       4.807  -4.153  -9.469  1.00  0.00     0.074 A 
ATOM     49  C   UNL     1       4.250  -2.907  -8.989  1.00  0.00     0.031 C 
ATOM     50  C   UNL     1       1.214  -8.594  -6.551  1.00  0.00     0.029 A 
ATOM     51  C   UNL     1       2.247  -8.809  -7.564  1.00  0.00     0.049 A 
ATOM     52  H   UNL     1       3.462  -7.362  -8.443  1.00  0.00     0.167 HD
ATOM     53  C   UNL     1       5.856  -4.238 -10.320  1.00  0.00     0.037 A 
ATOM     54  C   UNL     1       2.602  -9.999  -8.092  1.00  0.00     0.037 A 
ATOM     55  C   UNL     1       6.381  -5.469 -10.844  1.00  0.00     0.049 A 
ATOM     56  C   UNL     1       3.695 -10.057  -9.133  1.00  0.00     0.074 A 
ATOM     57  C   UNL     1       7.447  -5.649 -11.707  1.00  0.00     0.029 A 
ATOM     58  N   UNL     1       5.859  -6.726 -10.583  1.00  0.00    -0.354 N 
ATOM     59  N   UNL     1       4.433  -9.084  -9.612  1.00  0.00    -0.248 NA
ATOM     60  C   UNL     1       4.001 -11.376  -9.711  1.00  0.00     0.031 C 
ATOM     61  C   UNL     1       7.534  -7.011 -12.014  1.00  0.00     0.029 A 
ATOM     62  C   UNL     1       6.552  -7.684 -11.304  1.00  0.00     0.049 A 
ATOM     63  H   UNL     1       5.106  -6.911  -9.976  1.00  0.00     0.167 HD
ATOM     64  C   UNL     1       5.300  -9.674 -10.527  1.00  0.00     0.074 A 
ATOM     65  C   UNL     1       5.005 -11.091 -10.529  1.00  0.00     0.031 C 
ATOM     66  C   UNL     1       6.254  -9.094 -11.297  1.00  0.00     0.037 A 
BRANCH  53  67
ATOM     67  C   UNL     1       6.473  -2.950 -10.777  1.00  0.00     0.058 A 
ATOM     68  C   UNL     1       7.307  -2.197  -9.937  1.00  0.00     0.135 A 
ATOM     69  C   UNL     1       6.241  -2.474 -12.077  1.00  0.00     0.135 A 
ATOM     70  F   UNL     1       7.541  -2.600  -8.678  1.00  0.00    -0.206 F 
ATOM     71  C   UNL     1       7.878  -1.004 -10.365  1.00  0.00     0.059 A 
ATOM     72  C   UNL     1       6.818  -1.294 -12.533  1.00  0.00     0.059 A 
ATOM     73  F   UNL     1       5.442  -3.155 -12.913  1.00  0.00    -0.206 F 
ATOM     74  C   UNL     1       7.626  -0.560 -11.665  1.00  0.00     0.060 A 
BRANCH  74  75
ATOM     75  S   UNL     1       8.374   0.991 -12.208  1.00  0.00     0.124 S 
ATOM     76  O   UNL     1       7.573   1.970 -11.480  1.00  0.00    -0.237 OA
ATOM     77  O   UNL     1       9.755   0.844 -11.760  1.00  0.00    -0.237 OA
ATOM     78  O   UNL     1       8.182   0.973 -13.654  1.00  0.00    -0.744 OA
ENDBRANCH  74  75
ENDBRANCH  53  67
BRANCH  54  79
ATOM     79  C   UNL     1       1.891 -11.244  -7.688  1.00  0.00     0.058 A 
ATOM     80  C   UNL     1       2.540 -12.252  -6.961  1.00  0.00     0.135 A 
ATOM     81  C   UNL     1       0.558 -11.471  -8.070  1.00  0.00     0.135 A 
ATOM     82  F   UNL     1       3.819 -12.092  -6.588  1.00  0.00    -0.206 F 
ATOM     83  C   UNL     1       1.905 -13.450  -6.647  1.00  0.00     0.059 A 
ATOM     84  C   UNL     1      -0.106 -12.650  -7.747  1.00  0.00     0.059 A 
ATOM     85  F   UNL     1      -0.110 -10.539  -8.767  1.00  0.00    -0.206 F 
ATOM     86  C   UNL     1       0.581 -13.642  -7.048  1.00  0.00     0.060 A 
BRANCH  86  87
ATOM     87  S   UNL     1      -0.239 -15.195  -6.626  1.00  0.00     0.124 S 
ATOM     88  O   UNL     1       0.388 -16.121  -7.562  1.00  0.00    -0.237 OA
ATOM     89  O   UNL     1       0.125 -15.364  -5.223  1.00  0.00    -0.237 OA
ATOM     90  O   UNL     1      -1.649 -14.908  -6.871  1.00  0.00    -0.744 OA
ENDBRANCH  86  87
ENDBRANCH  54  79
BRANCH  66  91
ATOM     91  C   UNL     1       7.067  -9.979 -12.202  1.00  0.00     0.058 A 
ATOM     92  C   UNL     1       6.532 -10.507 -13.387  1.00  0.00     0.135 A 
ATOM     93  C   UNL     1       8.423 -10.226 -11.928  1.00  0.00     0.135 A 
ATOM     94  F   UNL     1       5.241 -10.306 -13.693  1.00  0.00    -0.206 F 
ATOM     95  C   UNL     1       7.310 -11.255 -14.266  1.00  0.00     0.059 A 
ATOM     96  C   UNL     1       9.225 -10.951 -12.805  1.00  0.00     0.059 A 
ATOM     97  F   UNL     1       8.987  -9.736 -10.813  1.00  0.00    -0.206 F 
ATOM     98  C   UNL     1       8.659 -11.466 -13.970  1.00  0.00     0.060 A 
BRANCH  98  99
ATOM     99  S   UNL     1       9.674 -12.381 -15.150  1.00  0.00     0.124 S 
ATOM    100  O   UNL     1       9.227 -13.751 -14.924  1.00  0.00    -0.237 OA
ATOM    101  O   UNL     1       9.283 -11.789 -16.426  1.00  0.00    -0.237 OA
ATOM    102  O   UNL     1      11.039 -12.087 -14.723  1.00  0.00    -0.744 OA
ENDBRANCH  98  99
ENDBRANCH  66  91
ENDBRANCH  40  41
ENDBRANCH  33  35
ENDBRANCH  32  33
ENDBRANCH  31  32
ENDBRANCH  30  31
ENDBRANCH  29  30
ENDBRANCH  28  29
ENDBRANCH   1  28
TORSDOF 22
