REMARK SMILES COc1ccc(NC(=O)C[C@@H](C[NH+]2CCOCC2)C(=O)OCCOCCOCCOC(=O)c2ccc(-c3c4nc(c(-c5c(F)cc(S(=O)(=O)[O-])cc5F)c5ccc([nH]5)c(-c5c(F)cc(S(=O)(=O)[O-])cc5F)c5nc(c(-c6c(F)cc(S(=O)(=O)[O-])cc6F)c6ccc3[nH]6)C=C5)C=C4)cc2)cc1
REMARK SMILES IDX 25 1 24 2 23 3 22 4 21 5 19 6 20 7 11 8 10 9 8 10 7 11 9 13
REMARK SMILES IDX 6 14 3 15 4 16 100 17 5 18 99 19 2 20 1 21 12 22 13 23 14 24
REMARK SMILES IDX 18 25 15 27 17 28 16 29 26 30 27 31 28 32 29 33 30 34 31 35
REMARK SMILES IDX 32 36 33 37 34 38 98 39 35 40 97 41 36 42 37 43 38 44 91 45
REMARK SMILES IDX 39 46 96 47 90 48 92 49 40 50 95 51 89 52 88 53 41 55 75 56
REMARK SMILES IDX 54 57 74 58 55 59 58 60 73 61 93 62 56 63 57 64 72 66 94 67
REMARK SMILES IDX 59 68 42 69 43 70 52 71 44 72 45 73 51 74 53 75 46 76 47 77
REMARK SMILES IDX 48 78 49 79 50 80 76 81 77 82 86 83 78 84 79 85 85 86 87 87
REMARK SMILES IDX 80 88 81 89 82 90 83 91 84 92 60 93 61 94 70 95 62 96 63 97
REMARK SMILES IDX 69 98 71 99 64 100 65 101 66 102 67 103 68 104
REMARK H PARENT 7 12 13 26 92 54 58 65
REMARK Flexibility Score: inf
ROOT
ATOM      1  C   UNL     1      -3.408   3.906  -8.230  1.00  0.00     0.188 C 
ENDROOT
BRANCH   1   2
ATOM      2  O   UNL     1      -4.551   3.071  -8.067  1.00  0.00    -0.376 OA
BRANCH   2   3
ATOM      3  C   UNL     1      -4.510   2.127  -7.002  1.00  0.00     0.202 C 
BRANCH   3   4
ATOM      4  C   UNL     1      -3.248   1.264  -6.945  1.00  0.00     0.261 C 
BRANCH   4   5
ATOM      5  O   UNL     1      -2.161   1.927  -6.250  1.00  0.00    -0.463 OA
BRANCH   5   6
ATOM      6  C   UNL     1      -0.933   1.926  -6.839  1.00  0.00     0.315 C 
ATOM      7  O   UNL     1      -0.725   1.597  -8.000  1.00  0.00    -0.252 OA
BRANCH   6   8
ATOM      8  C   UNL     1       0.189   2.307  -5.873  1.00  0.00     0.163 C 
BRANCH   8   9
ATOM      9  C   UNL     1       0.406   3.815  -5.676  1.00  0.00     0.121 C 
BRANCH   9  10
ATOM     10  C   UNL     1       1.844   4.319  -5.699  1.00  0.00     0.225 C 
ATOM     11  N   UNL     1       2.789   3.951  -4.791  1.00  0.00    -0.326 N 
ATOM     12  H   UNL     1       3.694   4.277  -4.998  1.00  0.00     0.169 HD
ATOM     13  O   UNL     1       2.201   5.087  -6.599  1.00  0.00    -0.275 OA
BRANCH  11  14
ATOM     14  C   UNL     1       2.710   3.196  -3.620  1.00  0.00     0.041 A 
ATOM     15  C   UNL     1       2.495   1.377  -1.484  1.00  0.00     0.119 A 
ATOM     16  C   UNL     1       1.629   2.465  -1.573  1.00  0.00     0.048 A 
ATOM     17  C   UNL     1       3.538   1.278  -2.408  1.00  0.00     0.048 A 
ATOM     18  C   UNL     1       1.728   3.369  -2.649  1.00  0.00     0.030 A 
ATOM     19  C   UNL     1       3.672   2.203  -3.446  1.00  0.00     0.030 A 
BRANCH  15  20
ATOM     20  O   UNL     1       2.448   0.340  -0.602  1.00  0.00    -0.497 OA
ATOM     21  C   UNL     1       1.464   0.289   0.418  1.00  0.00     0.278 C 
ENDBRANCH  15  20
ENDBRANCH  11  14
ENDBRANCH   9  10
ENDBRANCH   8   9
BRANCH   8  22
ATOM     22  C   UNL     1       0.094   1.355  -4.667  1.00  0.00     0.278 C 
BRANCH  22  23
ATOM     23  N   UNL     1      -0.839   1.498  -3.565  1.00  0.00    -0.330 N 
ATOM     24  C   UNL     1      -1.280   0.274  -2.909  1.00  0.00     0.291 C 
ATOM     25  C   UNL     1      -1.578   2.672  -3.146  1.00  0.00     0.291 C 
ATOM     26  H   UNL     1      -0.031   2.114  -3.475  1.00  0.00     0.348 HD
ATOM     27  C   UNL     1      -2.797   0.127  -3.068  1.00  0.00     0.221 C 
ATOM     28  C   UNL     1      -3.100   2.462  -3.150  1.00  0.00     0.221 C 
ATOM     29  O   UNL     1      -3.483   1.248  -2.490  1.00  0.00    -0.370 OA
ENDBRANCH  22  23
ENDBRANCH   8  22
ENDBRANCH   6   8
ENDBRANCH   5   6
ENDBRANCH   4   5
ENDBRANCH   3   4
ENDBRANCH   2   3
ENDBRANCH   1   2
BRANCH   1  30
ATOM     30  C   UNL     1      -3.015   4.758  -7.010  1.00  0.00     0.188 C 
BRANCH  30  31
ATOM     31  O   UNL     1      -4.013   4.781  -6.008  1.00  0.00    -0.376 OA
BRANCH  31  32
ATOM     32  C   UNL     1      -4.846   5.916  -5.891  1.00  0.00     0.202 C 
BRANCH  32  33
ATOM     33  C   UNL     1      -5.495   6.596  -7.110  1.00  0.00     0.261 C 
BRANCH  33  34
ATOM     34  O   UNL     1      -4.785   6.552  -8.350  1.00  0.00    -0.460 OA
BRANCH  34  35
ATOM     35  C   UNL     1      -3.809   7.464  -8.566  1.00  0.00     0.338 C 
ATOM     36  O   UNL     1      -3.456   8.348  -7.805  1.00  0.00    -0.246 OA
BRANCH  35  37
ATOM     37  C   UNL     1      -3.082   7.028  -9.786  1.00  0.00     0.060 A 
ATOM     38  C   UNL     1      -1.692   6.857  -9.719  1.00  0.00     0.016 A 
ATOM     39  C   UNL     1      -3.778   6.674 -10.948  1.00  0.00     0.016 A 
ATOM     40  C   UNL     1      -0.995   6.350 -10.820  1.00  0.00     0.010 A 
ATOM     41  C   UNL     1      -3.079   6.184 -12.054  1.00  0.00     0.010 A 
ATOM     42  C   UNL     1      -1.680   6.048 -12.006  1.00  0.00    -0.014 A 
BRANCH  42  43
ATOM     43  C   UNL     1      -0.930   5.856 -13.271  1.00  0.00     0.031 A 
ATOM     44  C   UNL     1      -0.683   7.080 -14.113  1.00  0.00     0.074 A 
ATOM     45  C   UNL     1      -0.496   4.651 -13.681  1.00  0.00     0.049 A 
ATOM     46  N   UNL     1      -0.130   7.183 -15.292  1.00  0.00    -0.248 NA
ATOM     47  C   UNL     1      -1.133   8.362 -13.544  1.00  0.00     0.031 C 
ATOM     48  C   UNL     1      -0.641   3.397 -12.944  1.00  0.00     0.029 A 
ATOM     49  N   UNL     1       0.148   4.287 -14.839  1.00  0.00    -0.354 N 
ATOM     50  C   UNL     1      -0.169   8.537 -15.605  1.00  0.00     0.074 A 
ATOM     51  C   UNL     1      -0.825   9.212 -14.509  1.00  0.00     0.031 C 
ATOM     52  C   UNL     1      -0.116   2.398 -13.677  1.00  0.00     0.029 A 
ATOM     53  C   UNL     1       0.377   2.936 -14.945  1.00  0.00     0.049 A 
ATOM     54  H   UNL     1       0.422   4.935 -15.528  1.00  0.00     0.167 HD
ATOM     55  C   UNL     1       0.303   9.164 -16.707  1.00  0.00     0.037 A 
ATOM     56  C   UNL     1       0.903   2.219 -15.960  1.00  0.00     0.037 A 
ATOM     57  C   UNL     1       0.943   8.492 -17.802  1.00  0.00     0.049 A 
ATOM     58  C   UNL     1       1.362   2.932 -17.211  1.00  0.00     0.074 A 
ATOM     59  C   UNL     1       1.463   9.039 -18.961  1.00  0.00     0.029 A 
ATOM     60  N   UNL     1       1.140   7.121 -17.879  1.00  0.00    -0.354 N 
ATOM     61  N   UNL     1       1.343   4.215 -17.486  1.00  0.00    -0.248 NA
ATOM     62  C   UNL     1       1.913   2.099 -18.291  1.00  0.00     0.031 C 
ATOM     63  C   UNL     1       1.936   7.992 -19.760  1.00  0.00     0.029 A 
ATOM     64  C   UNL     1       1.755   6.800 -19.077  1.00  0.00     0.049 A 
ATOM     65  H   UNL     1       0.881   6.473 -17.185  1.00  0.00     0.167 HD
ATOM     66  C   UNL     1       1.905   4.345 -18.753  1.00  0.00     0.074 A 
ATOM     67  C   UNL     1       2.260   3.010 -19.190  1.00  0.00     0.031 C 
ATOM     68  C   UNL     1       2.113   5.466 -19.489  1.00  0.00     0.037 A 
BRANCH  55  69
ATOM     69  C   UNL     1       0.110  10.651 -16.784  1.00  0.00     0.058 A 
ATOM     70  C   UNL     1       0.850  11.533 -15.979  1.00  0.00     0.135 A 
ATOM     71  C   UNL     1      -0.826  11.201 -17.674  1.00  0.00     0.135 A 
ATOM     72  F   UNL     1       1.737  11.056 -15.091  1.00  0.00    -0.206 F 
ATOM     73  C   UNL     1       0.650  12.908 -16.037  1.00  0.00     0.059 A 
ATOM     74  C   UNL     1      -1.023  12.575 -17.767  1.00  0.00     0.059 A 
ATOM     75  F   UNL     1      -1.566  10.400 -18.456  1.00  0.00    -0.206 F 
ATOM     76  C   UNL     1      -0.290  13.419 -16.933  1.00  0.00     0.060 A 
BRANCH  76  77
ATOM     77  S   UNL     1      -0.537  15.206 -16.999  1.00  0.00     0.124 S 
ATOM     78  O   UNL     1      -1.274  15.443 -15.762  1.00  0.00    -0.237 OA
ATOM     79  O   UNL     1       0.833  15.710 -17.027  1.00  0.00    -0.237 OA
ATOM     80  O   UNL     1      -1.298  15.398 -18.230  1.00  0.00    -0.744 OA
ENDBRANCH  76  77
ENDBRANCH  55  69
BRANCH  56  81
ATOM     81  C   UNL     1       1.018   0.738 -15.854  1.00  0.00     0.058 A 
ATOM     82  C   UNL     1       2.270   0.113 -15.750  1.00  0.00     0.135 A 
ATOM     83  C   UNL     1      -0.119  -0.084 -15.879  1.00  0.00     0.135 A 
ATOM     84  F   UNL     1       3.390   0.852 -15.742  1.00  0.00    -0.206 F 
ATOM     85  C   UNL     1       2.392  -1.273 -15.687  1.00  0.00     0.059 A 
ATOM     86  C   UNL     1      -0.025  -1.470 -15.793  1.00  0.00     0.059 A 
ATOM     87  F   UNL     1      -1.342   0.462 -15.978  1.00  0.00    -0.206 F 
ATOM     88  C   UNL     1       1.237  -2.057 -15.707  1.00  0.00     0.060 A 
BRANCH  88  89
ATOM     89  S   UNL     1       1.404  -3.852 -15.582  1.00  0.00     0.124 S 
ATOM     90  O   UNL     1       1.907  -4.194 -16.907  1.00  0.00    -0.237 OA
ATOM     91  O   UNL     1       2.353  -3.997 -14.482  1.00  0.00    -0.237 OA
ATOM     92  O   UNL     1       0.044  -4.295 -15.289  1.00  0.00    -0.744 OA
ENDBRANCH  88  89
ENDBRANCH  56  81
BRANCH  68  93
ATOM     93  C   UNL     1       2.790   5.314 -20.823  1.00  0.00     0.058 A 
ATOM     94  C   UNL     1       2.122   4.781 -21.936  1.00  0.00     0.135 A 
ATOM     95  C   UNL     1       4.103   5.779 -21.008  1.00  0.00     0.135 A 
ATOM     96  F   UNL     1       0.867   4.321 -21.813  1.00  0.00    -0.206 F 
ATOM     97  C   UNL     1       2.737   4.698 -23.181  1.00  0.00     0.059 A 
ATOM     98  C   UNL     1       4.728   5.730 -22.250  1.00  0.00     0.059 A 
ATOM     99  F   UNL     1       4.783   6.312 -19.980  1.00  0.00    -0.206 F 
ATOM    100  C   UNL     1       4.040   5.178 -23.329  1.00  0.00     0.060 A 
BRANCH 100 101
ATOM    101  S   UNL     1       4.813   5.103 -24.959  1.00  0.00     0.124 S 
ATOM    102  O   UNL     1       5.130   3.683 -25.070  1.00  0.00    -0.237 OA
ATOM    103  O   UNL     1       3.748   5.585 -25.834  1.00  0.00    -0.237 OA
ATOM    104  O   UNL     1       5.962   5.994 -24.832  1.00  0.00    -0.744 OA
ENDBRANCH 100 101
ENDBRANCH  68  93
ENDBRANCH  42  43
ENDBRANCH  35  37
ENDBRANCH  34  35
ENDBRANCH  33  34
ENDBRANCH  32  33
ENDBRANCH  31  32
ENDBRANCH  30  31
ENDBRANCH   1  30
TORSDOF 26
