REMARK SMILES Cc1ccc(Nc2c(Cl)cc(Cl)cc2Cl)c(CC(=O)OCCOCCOCCOC(=O)c2ccc(-c3c4nc(c(-c5c(F)cc(S(=O)(=O)[O-])cc5F)c5ccc([nH]5)c(-c5c(F)cc(S(=O)(=O)[O-])cc5F)c5nc(c(-c6c(F)cc(S(=O)(=O)[O-])cc6F)c6ccc3[nH]6)C=C5)C=C4)cc2)c1
REMARK SMILES IDX 24 1 23 2 22 3 21 4 20 5 18 6 19 7 17 8 16 9 1 10 2 11 3 12
REMARK SMILES IDX 98 13 4 14 5 15 6 16 7 18 8 19 14 20 9 21 10 22 13 23 15 24
REMARK SMILES IDX 11 25 12 26 25 27 26 28 27 29 28 30 29 31 30 32 31 33 32 34
REMARK SMILES IDX 33 35 97 36 34 37 96 38 35 39 36 40 37 41 90 42 38 43 95 44
REMARK SMILES IDX 89 45 91 46 39 47 94 48 88 49 87 50 40 52 74 53 53 54 73 55
REMARK SMILES IDX 54 56 57 57 72 58 92 59 55 60 56 61 71 63 93 64 58 65 41 66
REMARK SMILES IDX 42 67 51 68 43 69 44 70 50 71 52 72 45 73 46 74 47 75 48 76
REMARK SMILES IDX 49 77 75 78 76 79 85 80 77 81 78 82 84 83 86 84 79 85 80 86
REMARK SMILES IDX 81 87 82 88 83 89 59 90 60 91 69 92 61 93 62 94 68 95 70 96
REMARK SMILES IDX 63 97 64 98 65 99 66 100 67 101
REMARK H PARENT 6 17 91 51 57 62
REMARK Flexibility Score: inf
ROOT
ATOM      1  C   UNL     1      -4.684   0.836  -3.928  1.00  0.00     0.188 C 
ENDROOT
BRANCH   1   2
ATOM      2  O   UNL     1      -4.296   2.010  -4.580  1.00  0.00    -0.376 OA
BRANCH   2   3
ATOM      3  C   UNL     1      -2.944   2.246  -4.880  1.00  0.00     0.202 C 
BRANCH   3   4
ATOM      4  C   UNL     1      -1.634   2.622  -4.009  1.00  0.00     0.261 C 
BRANCH   4   5
ATOM      5  O   UNL     1      -1.000   2.503  -2.309  1.00  0.00    -0.463 OA
BRANCH   5   6
ATOM      6  C   UNL     1      -0.968   3.173  -0.809  1.00  0.00     0.310 C 
ATOM      7  O   UNL     1      -1.538   4.133  -0.272  1.00  0.00    -0.252 OA
BRANCH   6   8
ATOM      8  C   UNL     1      -0.360   2.321   0.157  1.00  0.00     0.160 C 
BRANCH   8   9
ATOM      9  C   UNL     1      -0.336   1.024  -0.584  1.00  0.00    -0.013 A 
ATOM     10  C   UNL     1       3.283  -0.059  -0.031  1.00  0.00     0.044 C 
ATOM     11  C   UNL     1       1.791  -0.068  -0.012  1.00  0.00    -0.051 A 
ATOM     12  C   UNL     1       1.046  -0.886   0.806  1.00  0.00     0.005 A 
ATOM     13  C   UNL     1       1.093   0.850  -0.763  1.00  0.00     0.009 A 
ATOM     14  C   UNL     1      -0.376  -0.791   0.812  1.00  0.00     0.026 A 
ATOM     15  C   UNL     1      -1.331   0.113  -0.117  1.00  0.00     0.042 A 
BRANCH  15  16
ATOM     16  N   UNL     1      -3.138  -0.464  -0.783  1.00  0.00    -0.353 N 
ATOM     17  H   UNL     1      -3.407  -0.004  -1.611  1.00  0.00     0.167 HD
BRANCH  16  18
ATOM     18  C   UNL     1      -4.400  -1.663  -0.186  1.00  0.00     0.076 A 
ATOM     19  C   UNL     1      -4.275  -2.660   1.004  1.00  0.00     0.067 A 
ATOM     20  C   UNL     1      -5.452  -2.042  -1.060  1.00  0.00     0.067 A 
ATOM     21  Cl  UNL     1      -3.099  -2.915   2.343  1.00  0.00    -0.082 Cl
ATOM     22  C   UNL     1      -5.115  -3.788   1.158  1.00  0.00     0.043 A 
ATOM     23  C   UNL     1      -6.172  -3.274  -0.899  1.00  0.00     0.043 A 
ATOM     24  Cl  UNL     1      -6.149  -1.091  -2.268  1.00  0.00    -0.082 Cl
ATOM     25  C   UNL     1      -6.000  -4.129   0.176  1.00  0.00     0.044 A 
ATOM     26  Cl  UNL     1      -6.822  -5.638   0.287  1.00  0.00    -0.084 Cl
ENDBRANCH  16  18
ENDBRANCH  15  16
ENDBRANCH   8   9
ENDBRANCH   6   8
ENDBRANCH   5   6
ENDBRANCH   4   5
ENDBRANCH   3   4
ENDBRANCH   2   3
ENDBRANCH   1   2
BRANCH   1  27
ATOM     27  C   UNL     1      -4.111  -0.504  -4.363  1.00  0.00     0.188 C 
BRANCH  27  28
ATOM     28  O   UNL     1      -2.755  -0.509  -4.743  1.00  0.00    -0.376 OA
BRANCH  28  29
ATOM     29  C   UNL     1      -2.210  -1.817  -4.920  1.00  0.00     0.202 C 
BRANCH  29  30
ATOM     30  C   UNL     1      -2.607  -3.012  -3.932  1.00  0.00     0.261 C 
BRANCH  30  31
ATOM     31  O   UNL     1      -1.868  -3.124  -2.637  1.00  0.00    -0.460 OA
BRANCH  31  32
ATOM     32  C   UNL     1      -2.440  -3.164  -1.333  1.00  0.00     0.338 C 
ATOM     33  O   UNL     1      -3.135  -4.120  -1.040  1.00  0.00    -0.246 OA
BRANCH  32  34
ATOM     34  C   UNL     1      -1.968  -1.849  -0.326  1.00  0.00     0.060 A 
ATOM     35  C   UNL     1      -2.765  -0.627   0.985  1.00  0.00     0.016 A 
ATOM     36  C   UNL     1      -1.552  -1.035  -1.887  1.00  0.00     0.016 A 
ATOM     37  C   UNL     1      -3.197   1.137   0.446  1.00  0.00     0.010 A 
ATOM     38  C   UNL     1      -2.120   0.567  -2.281  1.00  0.00     0.010 A 
ATOM     39  C   UNL     1      -2.921   1.780  -1.240  1.00  0.00    -0.014 A 
BRANCH  39  40
ATOM     40  C   UNL     1      -2.986   3.499  -2.034  1.00  0.00     0.031 A 
ATOM     41  C   UNL     1      -1.521   4.669  -2.467  1.00  0.00     0.074 A 
ATOM     42  C   UNL     1      -4.079   3.961  -2.677  1.00  0.00     0.049 A 
ATOM     43  N   UNL     1      -1.248   5.870  -1.981  1.00  0.00    -0.248 NA
ATOM     44  C   UNL     1      -0.015   4.256  -3.074  1.00  0.00     0.031 C 
ATOM     45  C   UNL     1      -4.121   5.048  -3.671  1.00  0.00     0.029 A 
ATOM     46  N   UNL     1      -5.386   3.489  -2.687  1.00  0.00    -0.354 N 
ATOM     47  C   UNL     1       0.108   6.199  -2.346  1.00  0.00     0.074 A 
ATOM     48  C   UNL     1       0.844   5.008  -2.428  1.00  0.00     0.031 C 
ATOM     49  C   UNL     1      -5.403   5.364  -3.933  1.00  0.00     0.029 A 
ATOM     50  C   UNL     1      -6.212   4.578  -3.020  1.00  0.00     0.049 A 
ATOM     51  H   UNL     1      -5.677   2.568  -2.496  1.00  0.00     0.167 HD
ATOM     52  C   UNL     1       0.438   7.231  -3.193  1.00  0.00     0.037 A 
ATOM     53  C   UNL     1      -6.999   5.052  -2.021  1.00  0.00     0.037 A 
ATOM     54  C   UNL     1      -0.813   7.852  -3.559  1.00  0.00     0.049 A 
ATOM     55  C   UNL     1      -6.399   6.372  -1.550  1.00  0.00     0.074 A 
ATOM     56  C   UNL     1      -1.640   7.779  -4.665  1.00  0.00     0.029 A 
ATOM     57  N   UNL     1      -1.610   8.246  -2.502  1.00  0.00    -0.354 N 
ATOM     58  N   UNL     1      -5.139   6.710  -1.723  1.00  0.00    -0.248 NA
ATOM     59  C   UNL     1      -7.202   7.505  -1.098  1.00  0.00     0.031 C 
ATOM     60  C   UNL     1      -2.966   8.101  -4.224  1.00  0.00     0.029 A 
ATOM     61  C   UNL     1      -2.936   8.327  -2.854  1.00  0.00     0.049 A 
ATOM     62  H   UNL     1      -1.267   8.446  -1.601  1.00  0.00     0.167 HD
ATOM     63  C   UNL     1      -4.982   8.054  -1.541  1.00  0.00     0.074 A 
ATOM     64  C   UNL     1      -6.295   8.499  -1.111  1.00  0.00     0.031 C 
ATOM     65  C   UNL     1      -3.854   8.778  -1.820  1.00  0.00     0.037 A 
BRANCH  52  66
ATOM     66  C   UNL     1       1.797   7.383  -3.937  1.00  0.00     0.058 A 
ATOM     67  C   UNL     1       1.880   8.156  -5.114  1.00  0.00     0.135 A 
ATOM     68  C   UNL     1       3.055   6.840  -3.537  1.00  0.00     0.135 A 
ATOM     69  F   UNL     1       0.799   8.768  -5.613  1.00  0.00    -0.206 F 
ATOM     70  C   UNL     1       3.074   8.365  -5.827  1.00  0.00     0.059 A 
ATOM     71  C   UNL     1       4.246   6.968  -4.277  1.00  0.00     0.059 A 
ATOM     72  F   UNL     1       3.213   6.205  -2.366  1.00  0.00    -0.206 F 
ATOM     73  C   UNL     1       4.255   7.768  -5.406  1.00  0.00     0.060 A 
BRANCH  73  74
ATOM     74  S   UNL     1       5.794   8.133  -6.285  1.00  0.00     0.124 S 
ATOM     75  O   UNL     1       5.450   7.806  -7.666  1.00  0.00    -0.237 OA
ATOM     76  O   UNL     1       5.976   9.551  -5.995  1.00  0.00    -0.237 OA
ATOM     77  O   UNL     1       6.767   7.239  -5.663  1.00  0.00    -0.744 OA
ENDBRANCH  73  74
ENDBRANCH  52  66
BRANCH  53  78
ATOM     78  C   UNL     1      -7.646   3.869  -1.339  1.00  0.00     0.058 A 
ATOM     79  C   UNL     1      -8.523   3.090  -2.151  1.00  0.00     0.135 A 
ATOM     80  C   UNL     1      -7.126   3.208  -0.213  1.00  0.00     0.135 A 
ATOM     81  F   UNL     1      -8.990   3.605  -3.303  1.00  0.00    -0.206 F 
ATOM     82  C   UNL     1      -8.849   1.757  -1.882  1.00  0.00     0.059 A 
ATOM     83  C   UNL     1      -7.456   1.868   0.086  1.00  0.00     0.059 A 
ATOM     84  F   UNL     1      -6.218   3.815   0.564  1.00  0.00    -0.206 F 
ATOM     85  C   UNL     1      -8.345   1.162  -0.734  1.00  0.00     0.060 A 
BRANCH  85  86
ATOM     86  S   UNL     1      -8.896  -0.517  -0.300  1.00  0.00     0.124 S 
ATOM     87  O   UNL     1     -10.150  -0.242   0.390  1.00  0.00    -0.237 OA
ATOM     88  O   UNL     1      -9.043  -1.183  -1.594  1.00  0.00    -0.237 OA
ATOM     89  O   UNL     1      -7.815  -1.018   0.543  1.00  0.00    -0.744 OA
ENDBRANCH  85  86
ENDBRANCH  53  78
BRANCH  65  90
ATOM     90  C   UNL     1      -3.475  10.037  -1.058  1.00  0.00     0.058 A 
ATOM     91  C   UNL     1      -4.020  10.363   0.192  1.00  0.00     0.135 A 
ATOM     92  C   UNL     1      -2.386  10.856  -1.475  1.00  0.00     0.135 A 
ATOM     93  F   UNL     1      -4.943   9.595   0.786  1.00  0.00    -0.206 F 
ATOM     94  C   UNL     1      -3.619  11.487   0.902  1.00  0.00     0.059 A 
ATOM     95  C   UNL     1      -1.880  11.894  -0.712  1.00  0.00     0.059 A 
ATOM     96  F   UNL     1      -1.753  10.678  -2.644  1.00  0.00    -0.206 F 
ATOM     97  C   UNL     1      -2.554  12.248   0.439  1.00  0.00     0.060 A 
BRANCH  97  98
ATOM     98  S   UNL     1      -2.091  13.738   1.317  1.00  0.00     0.124 S 
ATOM     99  O   UNL     1      -3.081  14.680   0.803  1.00  0.00    -0.237 OA
ATOM    100  O   UNL     1      -2.254  13.348   2.714  1.00  0.00    -0.237 OA
ATOM    101  O   UNL     1      -0.716  13.972   0.891  1.00  0.00    -0.744 OA
ENDBRANCH  97  98
ENDBRANCH  65  90
ENDBRANCH  39  40
ENDBRANCH  32  34
ENDBRANCH  31  32
ENDBRANCH  30  31
ENDBRANCH  29  30
ENDBRANCH  28  29
ENDBRANCH  27  28
ENDBRANCH   1  27
TORSDOF 23
