REMARK SMILES Cc1ccc(C[C@H](C(=O)OCCOCCOCCOC(=O)c2ccc(-c3c4nc(c(-c5c(F)cc(S(=O)(=O)[O-])cc5F)c5ccc([nH]5)c(-c5c(F)cc(S(=O)(=O)[O-])cc5F)c5nc(c(-c6c(F)cc(S(=O)(=O)[O-])cc6F)c6ccc3[nH]6)C=C5)C=C4)cc2)[C@@H]2CCCC[C@@H]2O)cc1
REMARK SMILES IDX 15 1 14 2 13 3 12 4 11 5 10 6 8 7 9 8 7 9 6 10 5 11 1 12
REMARK SMILES IDX 2 13 3 14 96 15 4 16 95 17 88 18 89 19 93 20 90 21 92 22
REMARK SMILES IDX 91 23 94 24 16 26 17 27 18 28 19 29 20 30 21 31 22 32 23 33
REMARK SMILES IDX 87 34 24 35 86 36 25 37 26 38 27 39 80 40 28 41 85 42 79 43
REMARK SMILES IDX 81 44 29 45 84 46 78 47 77 48 30 50 64 51 43 52 63 53 44 54
REMARK SMILES IDX 47 55 62 56 82 57 45 58 46 59 61 61 83 62 48 63 31 64 32 65
REMARK SMILES IDX 41 66 33 67 34 68 40 69 42 70 35 71 36 72 37 73 38 74 39 75
REMARK SMILES IDX 65 76 66 77 75 78 67 79 68 80 74 81 76 82 69 83 70 84 71 85
REMARK SMILES IDX 72 86 73 87 49 88 50 89 59 90 51 91 52 92 58 93 60 94 53 95
REMARK SMILES IDX 54 96 55 97 56 98 57 99
REMARK H PARENT 94 25 81 49 47 60
REMARK Flexibility Score: inf
ROOT
ATOM      1  C   UNL     1      -5.074  -5.050   4.400  1.00  0.00     0.188 C 
ENDROOT
BRANCH   1   2
ATOM      2  C   UNL     1      -3.877  -4.227   3.893  1.00  0.00     0.188 C 
BRANCH   2   3
ATOM      3  O   UNL     1      -3.478  -2.901   4.293  1.00  0.00    -0.376 OA
BRANCH   3   4
ATOM      4  C   UNL     1      -4.323  -1.809   4.692  1.00  0.00     0.202 C 
BRANCH   4   5
ATOM      5  C   UNL     1      -4.745  -0.362   3.850  1.00  0.00     0.261 C 
BRANCH   5   6
ATOM      6  O   UNL     1      -5.776  -0.006   2.597  1.00  0.00    -0.463 OA
BRANCH   6   7
ATOM      7  C   UNL     1      -5.912  -0.015   1.213  1.00  0.00     0.309 C 
ATOM      8  O   UNL     1      -5.074  -0.422   0.420  1.00  0.00    -0.252 OA
BRANCH   7   9
ATOM      9  C   UNL     1      -7.218   0.378   0.489  1.00  0.00     0.109 C 
BRANCH   9  10
ATOM     10  C   UNL     1      -7.881   1.608   1.123  1.00  0.00     0.051 C 
BRANCH  10  11
ATOM     11  C   UNL     1      -7.878   1.620   2.639  1.00  0.00    -0.047 A 
ATOM     12  C   UNL     1      -6.743   0.865   6.727  1.00  0.00     0.044 C 
ATOM     13  C   UNL     1      -7.278   1.249   5.373  1.00  0.00    -0.051 A 
ATOM     14  C   UNL     1      -8.237   0.445   4.736  1.00  0.00     0.004 A 
ATOM     15  C   UNL     1      -6.675   2.287   4.649  1.00  0.00     0.004 A 
ATOM     16  C   UNL     1      -8.542   0.631   3.380  1.00  0.00     0.004 A 
ATOM     17  C   UNL     1      -6.980   2.476   3.299  1.00  0.00     0.004 A 
ENDBRANCH  10  11
ENDBRANCH   9  10
BRANCH   9  18
ATOM     18  C   UNL     1      -6.852   0.588  -1.123  1.00  0.00     0.032 C 
ATOM     19  C   UNL     1      -7.529   1.727  -1.910  1.00  0.00     0.007 C 
ATOM     20  C   UNL     1      -6.857  -0.680  -2.055  1.00  0.00     0.118 C 
ATOM     21  C   UNL     1      -8.896   1.371  -2.479  1.00  0.00     0.001 C 
ATOM     22  C   UNL     1      -8.232  -1.040  -2.609  1.00  0.00     0.032 C 
ATOM     23  C   UNL     1      -8.852   0.124  -3.355  1.00  0.00     0.003 C 
BRANCH  20  24
ATOM     24  O   UNL     1      -6.354  -1.838  -1.442  1.00  0.00    -0.393 OA
ATOM     25  H   UNL     1      -6.946  -2.106  -0.722  1.00  0.00     0.210 HD
ENDBRANCH  20  24
ENDBRANCH   9  18
ENDBRANCH   7   9
ENDBRANCH   6   7
ENDBRANCH   5   6
ENDBRANCH   4   5
ENDBRANCH   3   4
ENDBRANCH   2   3
ENDBRANCH   1   2
BRANCH   1  26
ATOM     26  O   UNL     1      -6.166  -4.286   4.877  1.00  0.00    -0.376 OA
BRANCH  26  27
ATOM     27  C   UNL     1      -7.296  -5.062   5.271  1.00  0.00     0.202 C 
BRANCH  27  28
ATOM     28  C   UNL     1      -8.053  -5.801   4.141  1.00  0.00     0.261 C 
BRANCH  28  29
ATOM     29  O   UNL     1      -8.797  -4.925   3.259  1.00  0.00    -0.460 OA
BRANCH  29  30
ATOM     30  C   UNL     1      -8.495  -4.973   1.913  1.00  0.00     0.338 C 
ATOM     31  O   UNL     1      -9.258  -5.467   1.093  1.00  0.00    -0.246 OA
BRANCH  30  32
ATOM     32  C   UNL     1      -7.296  -4.150   1.581  1.00  0.00     0.060 A 
ATOM     33  C   UNL     1      -6.373  -4.283   0.542  1.00  0.00     0.016 A 
ATOM     34  C   UNL     1      -7.046  -3.134   2.429  1.00  0.00     0.016 A 
ATOM     35  C   UNL     1      -5.115  -3.514   0.482  1.00  0.00     0.010 A 
ATOM     36  C   UNL     1      -5.797  -2.514   2.370  1.00  0.00     0.010 A 
ATOM     37  C   UNL     1      -4.726  -2.584   1.444  1.00  0.00    -0.014 A 
BRANCH  37  38
ATOM     38  C   UNL     1      -3.287  -1.732   1.591  1.00  0.00     0.031 A 
ATOM     39  C   UNL     1      -2.948  -0.122   1.723  1.00  0.00     0.074 A 
ATOM     40  C   UNL     1      -2.161  -2.421   1.863  1.00  0.00     0.049 A 
ATOM     41  N   UNL     1      -2.406   0.467   2.773  1.00  0.00    -0.248 NA
ATOM     42  C   UNL     1      -3.161   0.920   0.672  1.00  0.00     0.031 C 
ATOM     43  C   UNL     1      -0.922  -1.934   2.478  1.00  0.00     0.029 A 
ATOM     44  N   UNL     1      -1.815  -3.690   1.408  1.00  0.00    -0.354 N 
ATOM     45  C   UNL     1      -2.527   1.861   2.664  1.00  0.00     0.074 A 
ATOM     46  C   UNL     1      -3.061   2.081   1.333  1.00  0.00     0.031 C 
ATOM     47  C   UNL     1       0.096  -2.685   2.036  1.00  0.00     0.029 A 
ATOM     48  C   UNL     1      -0.460  -3.550   1.018  1.00  0.00     0.049 A 
ATOM     49  H   UNL     1      -2.379  -4.495   1.366  1.00  0.00     0.167 HD
ATOM     50  C   UNL     1      -1.623   2.741   3.192  1.00  0.00     0.037 A 
ATOM     51  C   UNL     1      -0.204  -3.470  -0.322  1.00  0.00     0.037 A 
ATOM     52  C   UNL     1      -0.281   2.313   2.909  1.00  0.00     0.049 A 
ATOM     53  C   UNL     1       0.306  -2.100  -0.766  1.00  0.00     0.074 A 
ATOM     54  C   UNL     1       0.615   1.429   3.470  1.00  0.00     0.029 A 
ATOM     55  N   UNL     1       0.157   2.542   1.625  1.00  0.00    -0.354 N 
ATOM     56  N   UNL     1       0.611  -1.101   0.026  1.00  0.00    -0.248 NA
ATOM     57  C   UNL     1       0.464  -1.739  -2.176  1.00  0.00     0.031 C 
ATOM     58  C   UNL     1       1.371   0.884   2.380  1.00  0.00     0.029 A 
ATOM     59  C   UNL     1       0.956   1.496   1.204  1.00  0.00     0.049 A 
ATOM     60  H   UNL     1      -0.066   3.334   1.085  1.00  0.00     0.167 HD
ATOM     61  C   UNL     1       0.883   0.014  -0.725  1.00  0.00     0.074 A 
ATOM     62  C   UNL     1       0.813  -0.445  -2.099  1.00  0.00     0.031 C 
ATOM     63  C   UNL     1       1.097   1.268  -0.227  1.00  0.00     0.037 A 
BRANCH  50  64
ATOM     64  C   UNL     1      -2.027   4.006   3.927  1.00  0.00     0.058 A 
ATOM     65  C   UNL     1      -1.133   4.636   4.820  1.00  0.00     0.135 A 
ATOM     66  C   UNL     1      -3.317   4.579   3.879  1.00  0.00     0.135 A 
ATOM     67  F   UNL     1       0.129   4.197   4.947  1.00  0.00    -0.206 F 
ATOM     68  C   UNL     1      -1.506   5.701   5.652  1.00  0.00     0.059 A 
ATOM     69  C   UNL     1      -3.716   5.645   4.706  1.00  0.00     0.059 A 
ATOM     70  F   UNL     1      -4.240   4.110   3.028  1.00  0.00    -0.206 F 
ATOM     71  C   UNL     1      -2.809   6.185   5.610  1.00  0.00     0.060 A 
BRANCH  71  72
ATOM     72  S   UNL     1      -3.306   7.464   6.795  1.00  0.00     0.124 S 
ATOM     73  O   UNL     1      -3.003   6.829   8.075  1.00  0.00    -0.237 OA
ATOM     74  O   UNL     1      -2.445   8.582   6.425  1.00  0.00    -0.237 OA
ATOM     75  O   UNL     1      -4.728   7.653   6.521  1.00  0.00    -0.744 OA
ENDBRANCH  71  72
ENDBRANCH  50  64
BRANCH  51  76
ATOM     76  C   UNL     1      -1.102  -4.420  -1.075  1.00  0.00     0.058 A 
ATOM     77  C   UNL     1      -1.148  -5.763  -0.613  1.00  0.00     0.135 A 
ATOM     78  C   UNL     1      -2.166  -4.003  -1.884  1.00  0.00     0.135 A 
ATOM     79  F   UNL     1      -0.161  -6.238   0.168  1.00  0.00    -0.206 F 
ATOM     80  C   UNL     1      -2.270  -6.570  -0.773  1.00  0.00     0.059 A 
ATOM     81  C   UNL     1      -3.272  -4.833  -2.127  1.00  0.00     0.059 A 
ATOM     82  F   UNL     1      -2.225  -2.743  -2.340  1.00  0.00    -0.206 F 
ATOM     83  C   UNL     1      -3.348  -6.080  -1.499  1.00  0.00     0.060 A 
BRANCH  83  84
ATOM     84  S   UNL     1      -4.893  -7.022  -1.442  1.00  0.00     0.124 S 
ATOM     85  O   UNL     1      -4.514  -8.272  -2.090  1.00  0.00    -0.237 OA
ATOM     86  O   UNL     1      -5.146  -7.115  -0.005  1.00  0.00    -0.237 OA
ATOM     87  O   UNL     1      -5.822  -6.183  -2.193  1.00  0.00    -0.744 OA
ENDBRANCH  83  84
ENDBRANCH  51  76
BRANCH  63  88
ATOM     88  C   UNL     1       1.445   2.397  -1.154  1.00  0.00     0.058 A 
ATOM     89  C   UNL     1       2.623   2.336  -1.913  1.00  0.00     0.135 A 
ATOM     90  C   UNL     1       0.706   3.594  -1.223  1.00  0.00     0.135 A 
ATOM     91  F   UNL     1       3.379   1.227  -1.901  1.00  0.00    -0.206 F 
ATOM     92  C   UNL     1       3.053   3.406  -2.690  1.00  0.00     0.059 A 
ATOM     93  C   UNL     1       1.142   4.696  -1.953  1.00  0.00     0.059 A 
ATOM     94  F   UNL     1      -0.458   3.723  -0.566  1.00  0.00    -0.206 F 
ATOM     95  C   UNL     1       2.315   4.588  -2.692  1.00  0.00     0.060 A 
BRANCH  95  96
ATOM     96  S   UNL     1       2.923   6.010  -3.620  1.00  0.00     0.124 S 
ATOM     97  O   UNL     1       4.371   5.829  -3.576  1.00  0.00    -0.237 OA
ATOM     98  O   UNL     1       2.299   5.794  -4.921  1.00  0.00    -0.237 OA
ATOM     99  O   UNL     1       2.417   7.145  -2.854  1.00  0.00    -0.744 OA
ENDBRANCH  95  96
ENDBRANCH  63  88
ENDBRANCH  37  38
ENDBRANCH  30  32
ENDBRANCH  29  30
ENDBRANCH  28  29
ENDBRANCH  27  28
ENDBRANCH  26  27
ENDBRANCH   1  26
TORSDOF 24
