REMARK SMILES CC[N@@H+]1CCO[C@@H](C[N@@H+](CCC(=O)OCCOCCOCCOC(=O)c2ccc(-c3c4nc(c(-c5c(F)cc(S(=O)(=O)[O-])cc5F)c5ccc([nH]5)c(-c5c(F)cc(S(=O)(=O)[O-])cc5F)c5nc(c(-c6c(F)cc(S(=O)(=O)[O-])cc6F)c6ccc3[nH]6)C=C5)C=C4)cc2)C2CC2)C1
REMARK SMILES IDX 18 1 17 2 16 3 15 4 14 5 12 6 13 7 11 8 10 9 9 10 8 12 7 13
REMARK SMILES IDX 3 14 4 15 95 16 5 18 6 19 2 20 1 21 92 22 93 23 94 24 19 25
REMARK SMILES IDX 20 26 21 27 22 28 23 29 24 30 25 31 26 32 27 33 91 34 28 35
REMARK SMILES IDX 90 36 29 37 30 38 31 39 84 40 32 41 89 42 83 43 85 44 33 45
REMARK SMILES IDX 88 46 82 47 81 48 34 50 68 51 47 52 67 53 48 54 51 55 66 56
REMARK SMILES IDX 86 57 49 58 50 59 65 61 87 62 52 63 35 64 36 65 45 66 37 67
REMARK SMILES IDX 38 68 44 69 46 70 39 71 40 72 41 73 42 74 43 75 69 76 70 77
REMARK SMILES IDX 79 78 71 79 72 80 78 81 80 82 73 83 74 84 75 85 76 86 77 87
REMARK SMILES IDX 53 88 54 89 63 90 55 91 56 92 62 93 64 94 57 95 58 96 59 97
REMARK SMILES IDX 60 98 61 99
REMARK H PARENT 9 11 3 17 85 49 51 60
REMARK Flexibility Score: inf
ROOT
ATOM      1  C   UNL     1       7.364  -1.279   4.735  1.00  0.00     0.188 C 
ENDROOT
BRANCH   1   2
ATOM      2  O   UNL     1       6.655  -0.784   5.865  1.00  0.00    -0.376 OA
BRANCH   2   3
ATOM      3  C   UNL     1       5.389  -0.183   5.574  1.00  0.00     0.202 C 
BRANCH   3   4
ATOM      4  C   UNL     1       5.499   1.180   4.876  1.00  0.00     0.261 C 
BRANCH   4   5
ATOM      5  O   UNL     1       5.726   0.997   3.463  1.00  0.00    -0.463 OA
BRANCH   5   6
ATOM      6  C   UNL     1       6.806   1.586   2.898  1.00  0.00     0.311 C 
ATOM      7  O   UNL     1       7.566   2.342   3.493  1.00  0.00    -0.252 OA
BRANCH   6   8
ATOM      8  C   UNL     1       6.985   1.260   1.427  1.00  0.00     0.184 C 
BRANCH   8   9
ATOM      9  C   UNL     1       6.262   0.055   0.793  1.00  0.00     0.274 C 
BRANCH   9  10
ATOM     10  N   UNL     1       4.779  -0.041   0.792  1.00  0.00    -0.330 N 
ATOM     11  H   UNL     1       4.410  -0.399  -0.088  1.00  0.00     0.348 HD
BRANCH  10  12
ATOM     12  C   UNL     1       4.155   1.294   0.806  1.00  0.00     0.300 C 
BRANCH  12  13
ATOM     13  C   UNL     1       2.629   1.446   0.710  1.00  0.00     0.228 C 
ATOM     14  N   UNL     1       0.462   1.401   2.006  1.00  0.00    -0.331 N 
ATOM     15  C   UNL     1       0.141   2.686   1.374  1.00  0.00     0.291 C 
ATOM     16  C   UNL     1       1.923   1.224   2.062  1.00  0.00     0.300 C 
ATOM     17  H   UNL     1       0.121   1.449   2.966  1.00  0.00     0.348 HD
ATOM     18  C   UNL     1       0.962   3.036   0.120  1.00  0.00     0.222 C 
ATOM     19  O   UNL     1       2.365   2.812   0.293  1.00  0.00    -0.361 OA
BRANCH  14  20
ATOM     20  C   UNL     1      -0.296   0.243   1.532  1.00  0.00     0.258 C 
ATOM     21  C   UNL     1      -0.187  -0.207   0.079  1.00  0.00     0.071 C 
ENDBRANCH  14  20
ENDBRANCH  12  13
ENDBRANCH  10  12
BRANCH  10  22
ATOM     22  C   UNL     1       4.334  -1.085   1.737  1.00  0.00     0.184 C 
ATOM     23  C   UNL     1       3.075  -1.811   1.694  1.00  0.00     0.071 C 
ATOM     24  C   UNL     1       4.292  -2.518   1.144  1.00  0.00     0.071 C 
ENDBRANCH  10  22
ENDBRANCH   9  10
ENDBRANCH   8   9
ENDBRANCH   6   8
ENDBRANCH   5   6
ENDBRANCH   4   5
ENDBRANCH   3   4
ENDBRANCH   2   3
ENDBRANCH   1   2
BRANCH   1  25
ATOM     25  C   UNL     1       7.013  -2.709   4.351  1.00  0.00     0.188 C 
BRANCH  25  26
ATOM     26  O   UNL     1       5.608  -2.952   4.259  1.00  0.00    -0.376 OA
BRANCH  26  27
ATOM     27  C   UNL     1       5.179  -4.076   5.034  1.00  0.00     0.202 C 
BRANCH  27  28
ATOM     28  C   UNL     1       5.371  -5.417   4.313  1.00  0.00     0.261 C 
BRANCH  28  29
ATOM     29  O   UNL     1       6.763  -5.647   4.040  1.00  0.00    -0.460 OA
BRANCH  29  30
ATOM     30  C   UNL     1       7.149  -5.459   2.752  1.00  0.00     0.338 C 
ATOM     31  O   UNL     1       6.417  -5.331   1.783  1.00  0.00    -0.246 OA
BRANCH  30  32
ATOM     32  C   UNL     1       8.613  -5.209   2.712  1.00  0.00     0.060 A 
ATOM     33  C   UNL     1       9.107  -4.347   1.721  1.00  0.00     0.016 A 
ATOM     34  C   UNL     1       9.482  -5.745   3.667  1.00  0.00     0.016 A 
ATOM     35  C   UNL     1      10.470  -4.048   1.661  1.00  0.00     0.010 A 
ATOM     36  C   UNL     1      10.846  -5.450   3.604  1.00  0.00     0.010 A 
ATOM     37  C   UNL     1      11.350  -4.628   2.582  1.00  0.00    -0.014 A 
BRANCH  37  38
ATOM     38  C   UNL     1      12.815  -4.565   2.360  1.00  0.00     0.031 A 
ATOM     39  C   UNL     1      13.470  -5.743   1.691  1.00  0.00     0.074 A 
ATOM     40  C   UNL     1      13.549  -3.510   2.759  1.00  0.00     0.049 A 
ATOM     41  N   UNL     1      14.736  -5.975   1.470  1.00  0.00    -0.248 NA
ATOM     42  C   UNL     1      12.571  -6.810   1.216  1.00  0.00     0.031 C 
ATOM     43  C   UNL     1      13.026  -2.300   3.390  1.00  0.00     0.029 A 
ATOM     44  N   UNL     1      14.905  -3.300   2.703  1.00  0.00    -0.354 N 
ATOM     45  C   UNL     1      14.788  -7.220   0.854  1.00  0.00     0.074 A 
ATOM     46  C   UNL     1      13.430  -7.704   0.752  1.00  0.00     0.031 C 
ATOM     47  C   UNL     1      14.053  -1.478   3.676  1.00  0.00     0.029 A 
ATOM     48  C   UNL     1      15.306  -2.118   3.278  1.00  0.00     0.049 A 
ATOM     49  H   UNL     1      15.531  -3.938   2.290  1.00  0.00     0.167 HD
ATOM     50  C   UNL     1      15.871  -7.897   0.409  1.00  0.00     0.037 A 
ATOM     51  C   UNL     1      16.546  -1.625   3.478  1.00  0.00     0.037 A 
ATOM     52  C   UNL     1      17.218  -7.405   0.497  1.00  0.00     0.049 A 
ATOM     53  C   UNL     1      17.741  -2.425   3.017  1.00  0.00     0.074 A 
ATOM     54  C   UNL     1      18.381  -7.996   0.034  1.00  0.00     0.029 A 
ATOM     55  N   UNL     1      17.585  -6.208   1.093  1.00  0.00    -0.354 N 
ATOM     56  N   UNL     1      17.774  -3.582   2.397  1.00  0.00    -0.248 NA
ATOM     57  C   UNL     1      19.070  -1.853   3.284  1.00  0.00     0.031 C 
ATOM     58  C   UNL     1      19.456  -7.178   0.394  1.00  0.00     0.029 A 
ATOM     59  C   UNL     1      18.959  -6.054   1.034  1.00  0.00     0.049 A 
ATOM     60  H   UNL     1      16.961  -5.563   1.497  1.00  0.00     0.167 HD
ATOM     61  C   UNL     1      19.120  -3.855   2.169  1.00  0.00     0.074 A 
ATOM     62  C   UNL     1      19.870  -2.743   2.713  1.00  0.00     0.031 C 
ATOM     63  C   UNL     1      19.686  -4.928   1.562  1.00  0.00     0.037 A 
BRANCH  50  64
ATOM     64  C   UNL     1      15.646  -9.256  -0.190  1.00  0.00     0.058 A 
ATOM     65  C   UNL     1      15.067  -9.420  -1.457  1.00  0.00     0.135 A 
ATOM     66  C   UNL     1      16.054 -10.408   0.501  1.00  0.00     0.135 A 
ATOM     67  F   UNL     1      14.637  -8.352  -2.148  1.00  0.00    -0.206 F 
ATOM     68  C   UNL     1      14.885 -10.682  -2.013  1.00  0.00     0.059 A 
ATOM     69  C   UNL     1      15.905 -11.678  -0.046  1.00  0.00     0.059 A 
ATOM     70  F   UNL     1      16.604 -10.306   1.721  1.00  0.00    -0.206 F 
ATOM     71  C   UNL     1      15.311 -11.805  -1.301  1.00  0.00     0.060 A 
BRANCH  71  72
ATOM     72  S   UNL     1      15.090 -13.434  -2.046  1.00  0.00     0.124 S 
ATOM     73  O   UNL     1      13.648 -13.620  -1.917  1.00  0.00    -0.237 OA
ATOM     74  O   UNL     1      15.583 -13.225  -3.404  1.00  0.00    -0.237 OA
ATOM     75  O   UNL     1      15.912 -14.304  -1.212  1.00  0.00    -0.744 OA
ENDBRANCH  71  72
ENDBRANCH  50  64
BRANCH  51  76
ATOM     76  C   UNL     1      16.741  -0.313   4.155  1.00  0.00     0.058 A 
ATOM     77  C   UNL     1      17.246   0.793   3.455  1.00  0.00     0.135 A 
ATOM     78  C   UNL     1      16.470  -0.150   5.522  1.00  0.00     0.135 A 
ATOM     79  F   UNL     1      17.534   0.684   2.149  1.00  0.00    -0.206 F 
ATOM     80  C   UNL     1      17.503   2.005   4.089  1.00  0.00     0.059 A 
ATOM     81  C   UNL     1      16.693   1.060   6.174  1.00  0.00     0.059 A 
ATOM     82  F   UNL     1      15.979  -1.173   6.238  1.00  0.00    -0.206 F 
ATOM     83  C   UNL     1      17.226   2.127   5.452  1.00  0.00     0.060 A 
BRANCH  83  84
ATOM     84  S   UNL     1      17.551   3.707   6.264  1.00  0.00     0.124 S 
ATOM     85  O   UNL     1      19.006   3.695   6.359  1.00  0.00    -0.237 OA
ATOM     86  O   UNL     1      16.980   4.662   5.319  1.00  0.00    -0.237 OA
ATOM     87  O   UNL     1      16.835   3.586   7.531  1.00  0.00    -0.744 OA
ENDBRANCH  83  84
ENDBRANCH  51  76
BRANCH  63  88
ATOM     88  C   UNL     1      21.181  -4.933   1.402  1.00  0.00     0.058 A 
ATOM     89  C   UNL     1      22.041  -5.161   2.487  1.00  0.00     0.135 A 
ATOM     90  C   UNL     1      21.757  -4.774   0.131  1.00  0.00     0.135 A 
ATOM     91  F   UNL     1      21.543  -5.316   3.724  1.00  0.00    -0.206 F 
ATOM     92  C   UNL     1      23.422  -5.211   2.321  1.00  0.00     0.059 A 
ATOM     93  C   UNL     1      23.132  -4.848  -0.063  1.00  0.00     0.059 A 
ATOM     94  F   UNL     1      20.978  -4.568  -0.943  1.00  0.00    -0.206 F 
ATOM     95  C   UNL     1      23.958  -5.056   1.041  1.00  0.00     0.060 A 
BRANCH  95  96
ATOM     96  S   UNL     1      25.748  -5.163   0.831  1.00  0.00     0.124 S 
ATOM     97  O   UNL     1      26.184  -3.877   1.364  1.00  0.00    -0.237 OA
ATOM     98  O   UNL     1      26.089  -6.332   1.635  1.00  0.00    -0.237 OA
ATOM     99  O   UNL     1      25.911  -5.333  -0.610  1.00  0.00    -0.744 OA
ENDBRANCH  95  96
ENDBRANCH  63  88
ENDBRANCH  37  38
ENDBRANCH  30  32
ENDBRANCH  29  30
ENDBRANCH  28  29
ENDBRANCH  27  28
ENDBRANCH  26  27
ENDBRANCH  25  26
ENDBRANCH   1  25
TORSDOF 26
